MODEL 1
REMARK VINA RESULT: -5.379224539      0.000      0.000
REMARK  8 active torsions:
REMARK  status: ('A' for Active; 'I' for Inactive)
REMARK    1  A    between atoms: C2_2  and  C3_3 
REMARK    2  A    between atoms: C3_3  and  C4_4 
REMARK    3  A    between atoms: C9_10  and  O1_11 
REMARK    4  A    between atoms: C9_10  and  C10_13 
REMARK    5  A    between atoms: C22_29  and  C23_30 
REMARK    6  A    between atoms: C23_30  and  N2_31 
REMARK    7  A    between atoms: C23_30  and  C24_35 
REMARK    8  A    between atoms: C24_35  and  C25_37 
ROOT
HETATM    1  C4  UNL     1      18.691  -3.856  -1.301  1.00  0.00     0.060 C 
HETATM    2  C5  UNL     1      18.440  -3.612   0.072  1.00  0.00     0.070 C 
HETATM    3  N1  UNL     1      18.215  -3.442   1.192  1.00  0.00    -0.196 NA
HETATM    4  C6  UNL     1      18.028  -5.282  -1.568  1.00  0.00     0.064 C 
HETATM    5  C7  UNL     1      17.045  -4.907  -2.681  1.00  0.00    -0.052 C 
HETATM    6  C8  UNL     1      15.778  -4.749  -2.536  1.00  0.00     0.021 C 
HETATM    7  C9  UNL     1      14.850  -4.312  -3.697  1.00  0.00     0.108 C 
HETATM    8  C14 UNL     1      14.770  -2.784  -3.409  1.00  0.00     0.178 C 
HETATM    9  O3  UNL     1      14.317  -2.800  -2.152  1.00  0.00    -0.379 OA
HETATM   10  C15 UNL     1      13.991  -1.882  -1.296  1.00  0.00     0.201 C 
HETATM   11  C16 UNL     1      14.597  -0.588  -1.119  1.00  0.00     0.162 C 
HETATM   12  O4  UNL     1      14.587  -0.023  -2.481  1.00  0.00    -0.313 OA
HETATM   13  C17 UNL     1      15.394  -0.597  -3.429  1.00  0.00     0.270 C 
HETATM   14  O5  UNL     1      15.576   0.221  -4.358  1.00  0.00    -0.264 OA
HETATM   15  C18 UNL     1      16.044  -2.004  -3.489  1.00  0.00     0.078 C 
HETATM   16  C19 UNL     1      16.732  -1.846  -4.773  1.00  0.00     0.029 C 
HETATM   17  C20 UNL     1      16.881  -2.197  -2.245  1.00  0.00     0.016 C 
HETATM   18  C21 UNL     1      17.064  -0.788  -1.592  1.00  0.00     0.016 C 
HETATM   19  C22 UNL     1      15.964  -0.315  -0.709  1.00  0.00     0.056 C 
HETATM   20  C26 UNL     1      18.209  -2.872  -2.319  1.00  0.00     0.037 C 
HETATM   21  C27 UNL     1      18.539  -3.531  -3.612  1.00  0.00    -0.013 C 
HETATM   22  C28 UNL     1      17.896  -4.725  -3.892  1.00  0.00    -0.059 C 
HETATM   23  C29 UNL     1      18.250  -5.341  -5.178  1.00  0.00     0.048 C 
ENDROOT
BRANCH   1  24
HETATM   24  C3  UNL     1      20.181  -3.991  -1.530  1.00  0.00     0.025 C 
BRANCH  24  25
HETATM   25  C2  UNL     1      20.794  -5.322  -1.433  1.00  0.00    -0.003 C 
HETATM   26  C1  UNL     1      21.391  -5.928  -2.647  1.00  0.00     0.005 C 
ENDBRANCH  24  25
ENDBRANCH   1  24
BRANCH   7  27
HETATM   27  O1  UNL     1      15.457  -4.684  -4.813  1.00  0.00    -0.383 OA
ATOM     28  H1  UNL     1      14.947  -4.317  -5.526  1.00  0.00     0.211 HD
ENDBRANCH   7  27
BRANCH   7  29
HETATM   29  C10 UNL     1      13.553  -4.979  -3.680  1.00  0.00     0.040 C 
HETATM   30  C11 UNL     1      13.443  -6.287  -2.935  1.00  0.00     0.086 C 
HETATM   31  C12 UNL     1      12.140  -6.412  -3.663  1.00  0.00     0.128 C 
HETATM   32  O2  UNL     1      11.072  -6.875  -3.433  1.00  0.00    -0.298 OA
HETATM   33  C13 UNL     1      12.888  -5.674  -4.771  1.00  0.00     0.086 C 
ENDBRANCH   7  29
BRANCH  19  34
HETATM   34  C23 UNL     1      16.182  -0.341   0.766  1.00  0.00     0.268 C 
BRANCH  34  35
HETATM   35  N2  UNL     1      17.673  -0.228   0.894  1.00  0.00    -0.068 N 
ATOM     36  H23 UNL     1      18.009  -0.112   1.850  1.00  0.00     0.275 HD
ATOM     37  H22 UNL     1      18.182  -1.091   0.708  1.00  0.00     0.275 HD
ATOM     38  H21 UNL     1      17.902   0.544   0.268  1.00  0.00     0.275 HD
ENDBRANCH  34  35
BRANCH  34  39
HETATM   39  C24 UNL     1      15.695   0.913   1.377  1.00  0.00     0.263 C 
HETATM   40  O6  UNL     1      16.124   1.956   0.919  1.00  0.00    -0.286 OA
BRANCH  39  41
HETATM   41  C25 UNL     1      14.739   0.999   2.501  1.00  0.00     0.453 C 
HETATM   42  F1  UNL     1      15.482   1.168   3.677  1.00  0.00    -0.163 F 
HETATM   43  F2  UNL     1      13.729   1.887   2.356  1.00  0.00    -0.163 F 
HETATM   44  F3  UNL     1      14.189  -0.306   2.678  1.00  0.00    -0.163 F 
ENDBRANCH  39  41
ENDBRANCH  34  39
ENDBRANCH  19  34
TORSDOF 8
ENDMDL
MODEL 2
REMARK VINA RESULT: -4.460008015      9.316     13.581
REMARK  8 active torsions:
REMARK  status: ('A' for Active; 'I' for Inactive)
REMARK    1  A    between atoms: C2_2  and  C3_3 
REMARK    2  A    between atoms: C3_3  and  C4_4 
REMARK    3  A    between atoms: C9_10  and  O1_11 
REMARK    4  A    between atoms: C9_10  and  C10_13 
REMARK    5  A    between atoms: C22_29  and  C23_30 
REMARK    6  A    between atoms: C23_30  and  N2_31 
REMARK    7  A    between atoms: C23_30  and  C24_35 
REMARK    8  A    between atoms: C24_35  and  C25_37 
ROOT
HETATM    1  C4  UNL     1      19.964   4.561  10.414  1.00  0.00     0.060 C 
HETATM    2  C5  UNL     1      20.146   5.475   9.347  1.00  0.00     0.070 C 
HETATM    3  N1  UNL     1      20.267   6.238   8.487  1.00  0.00    -0.196 NA
HETATM    4  C6  UNL     1      18.798   5.212  11.286  1.00  0.00     0.064 C 
HETATM    5  C7  UNL     1      17.777   4.071  11.249  1.00  0.00    -0.052 C 
HETATM    6  C8  UNL     1      16.720   4.037  10.520  1.00  0.00     0.021 C 
HETATM    7  C9  UNL     1      15.760   2.822  10.490  1.00  0.00     0.108 C 
HETATM    8  C14 UNL     1      16.294   2.096   9.220  1.00  0.00     0.178 C 
HETATM    9  O3  UNL     1      16.174   3.073   8.317  1.00  0.00    -0.379 OA
HETATM   10  C15 UNL     1      16.405   3.160   7.044  1.00  0.00     0.201 C 
HETATM   11  C16 UNL     1      17.452   2.519   6.292  1.00  0.00     0.162 C 
HETATM   12  O4  UNL     1      17.321   1.101   6.676  1.00  0.00    -0.313 OA
HETATM   13  C17 UNL     1      17.626   0.746   7.965  1.00  0.00     0.270 C 
HETATM   14  O5  UNL     1      17.860  -0.483   8.003  1.00  0.00    -0.264 OA
HETATM   15  C18 UNL     1      17.704   1.597   9.258  1.00  0.00     0.078 C 
HETATM   16  C19 UNL     1      18.080   0.520  10.178  1.00  0.00     0.029 C 
HETATM   17  C20 UNL     1      18.687   2.723   9.031  1.00  0.00     0.016 C 
HETATM   18  C21 UNL     1      19.504   2.366   7.746  1.00  0.00     0.016 C 
HETATM   19  C22 UNL     1      18.883   2.722   6.443  1.00  0.00     0.056 C 
HETATM   20  C26 UNL     1      19.635   3.135  10.107  1.00  0.00     0.037 C 
HETATM   21  C27 UNL     1      19.397   2.544  11.452  1.00  0.00    -0.013 C 
HETATM   22  C28 UNL     1      18.327   3.041  12.178  1.00  0.00    -0.059 C 
HETATM   23  C29 UNL     1      18.127   2.430  13.499  1.00  0.00     0.048 C 
ENDROOT
BRANCH   1  24
HETATM   24  C3  UNL     1      21.212   4.523  11.269  1.00  0.00     0.025 C 
BRANCH  24  25
HETATM   25  C2  UNL     1      21.318   5.444  12.408  1.00  0.00    -0.003 C 
HETATM   26  C1  UNL     1      21.305   4.891  13.783  1.00  0.00     0.005 C 
ENDBRANCH  24  25
ENDBRANCH   1  24
BRANCH   7  27
HETATM   27  O1  UNL     1      15.916   2.202  11.650  1.00  0.00    -0.383 OA
ATOM     28  H1  UNL     1      15.341   1.446  11.624  1.00  0.00     0.211 HD
ENDBRANCH   7  27
BRANCH   7  29
HETATM   29  C10 UNL     1      14.354   3.200  10.399  1.00  0.00     0.040 C 
HETATM   30  C11 UNL     1      13.523   3.124  11.656  1.00  0.00     0.086 C 
HETATM   31  C12 UNL     1      12.367   3.262  10.713  1.00  0.00     0.128 C 
HETATM   32  O2  UNL     1      11.292   3.763  10.744  1.00  0.00    -0.298 OA
HETATM   33  C13 UNL     1      13.267   2.465   9.771  1.00  0.00     0.086 C 
ENDBRANCH   7  29
BRANCH  19  34
HETATM   34  C23 UNL     1      19.418   3.902   5.704  1.00  0.00     0.268 C 
BRANCH  34  35
HETATM   35  N2  UNL     1      20.855   3.536   5.469  1.00  0.00    -0.068 N 
ATOM     36  H23 UNL     1      21.413   3.441   6.318  1.00  0.00     0.275 HD
ATOM     37  H22 UNL     1      21.001   2.582   5.141  1.00  0.00     0.275 HD
ATOM     38  H21 UNL     1      21.177   4.260   4.828  1.00  0.00     0.275 HD
ENDBRANCH  34  35
BRANCH  34  39
HETATM   39  C24 UNL     1      18.856   3.948   4.338  1.00  0.00     0.263 C 
HETATM   40  O6  UNL     1      17.964   4.753   4.132  1.00  0.00    -0.286 OA
BRANCH  39  41
HETATM   41  C25 UNL     1      19.281   3.093   3.210  1.00  0.00     0.453 C 
HETATM   42  F1  UNL     1      20.056   3.881   2.349  1.00  0.00    -0.163 F 
HETATM   43  F2  UNL     1      19.854   1.913   3.542  1.00  0.00    -0.163 F 
HETATM   44  F3  UNL     1      18.118   2.839   2.421  1.00  0.00    -0.163 F 
ENDBRANCH  39  41
ENDBRANCH  34  39
ENDBRANCH  19  34
TORSDOF 8
ENDMDL
MODEL 3
REMARK VINA RESULT: -4.283987982      9.528     13.037
REMARK  8 active torsions:
REMARK  status: ('A' for Active; 'I' for Inactive)
REMARK    1  A    between atoms: C2_2  and  C3_3 
REMARK    2  A    between atoms: C3_3  and  C4_4 
REMARK    3  A    between atoms: C9_10  and  O1_11 
REMARK    4  A    between atoms: C9_10  and  C10_13 
REMARK    5  A    between atoms: C22_29  and  C23_30 
REMARK    6  A    between atoms: C23_30  and  N2_31 
REMARK    7  A    between atoms: C23_30  and  C24_35 
REMARK    8  A    between atoms: C24_35  and  C25_37 
ROOT
HETATM    1  C4  UNL     1      14.257   3.255   8.799  1.00  0.00     0.060 C 
HETATM    2  C5  UNL     1      14.514   4.315   9.703  1.00  0.00     0.070 C 
HETATM    3  N1  UNL     1      14.726   5.202  10.413  1.00  0.00    -0.196 NA
HETATM    4  C6  UNL     1      14.175   3.971   7.376  1.00  0.00     0.064 C 
HETATM    5  C7  UNL     1      15.282   3.211   6.638  1.00  0.00    -0.052 C 
HETATM    6  C8  UNL     1      16.460   3.661   6.392  1.00  0.00     0.021 C 
HETATM    7  C9  UNL     1      17.550   2.814   5.690  1.00  0.00     0.108 C 
HETATM    8  C14 UNL     1      18.332   2.306   6.937  1.00  0.00     0.178 C 
HETATM    9  O3  UNL     1      18.648   3.470   7.513  1.00  0.00    -0.379 OA
HETATM   10  C15 UNL     1      19.320   3.802   8.570  1.00  0.00     0.201 C 
HETATM   11  C16 UNL     1      19.395   3.099   9.824  1.00  0.00     0.162 C 
HETATM   12  O4  UNL     1      19.754   1.727   9.419  1.00  0.00    -0.313 OA
HETATM   13  C17 UNL     1      18.828   0.991   8.725  1.00  0.00     0.270 C 
HETATM   14  O5  UNL     1      19.113  -0.223   8.828  1.00  0.00    -0.264 OA
HETATM   15  C18 UNL     1      17.591   1.436   7.903  1.00  0.00     0.078 C 
HETATM   16  C19 UNL     1      17.139   0.103   7.496  1.00  0.00     0.029 C 
HETATM   17  C20 UNL     1      16.692   2.257   8.798  1.00  0.00     0.016 C 
HETATM   18  C21 UNL     1      17.164   2.015  10.269  1.00  0.00     0.016 C 
HETATM   19  C22 UNL     1      18.302   2.845  10.747  1.00  0.00     0.056 C 
HETATM   20  C26 UNL     1      15.210   2.103   8.735  1.00  0.00     0.037 C 
HETATM   21  C27 UNL     1      14.682   1.289   7.606  1.00  0.00    -0.013 C 
HETATM   22  C28 UNL     1      14.694   1.872   6.350  1.00  0.00    -0.059 C 
HETATM   23  C29 UNL     1      14.165   1.033   5.265  1.00  0.00     0.048 C 
ENDROOT
BRANCH   1  24
HETATM   24  C3  UNL     1      12.900   2.653   9.091  1.00  0.00     0.025 C 
BRANCH  24  25
HETATM   25  C2  UNL     1      12.607   2.199  10.457  1.00  0.00    -0.003 C 
HETATM   26  C1  UNL     1      11.813   0.962  10.647  1.00  0.00     0.005 C 
ENDBRANCH  24  25
ENDBRANCH   1  24
BRANCH   7  27
HETATM   27  O1  UNL     1      16.906   1.907   4.971  1.00  0.00    -0.383 OA
ATOM     28  H1  UNL     1      17.225   1.062   5.265  1.00  0.00     0.211 HD
ENDBRANCH   7  27
BRANCH   7  29
HETATM   29  C10 UNL     1      18.370   3.584   4.760  1.00  0.00     0.040 C 
HETATM   30  C11 UNL     1      18.579   3.022   3.376  1.00  0.00     0.086 C 
HETATM   31  C12 UNL     1      19.657   4.059   3.288  1.00  0.00     0.128 C 
HETATM   32  O2  UNL     1      20.120   4.742   2.436  1.00  0.00    -0.298 OA
HETATM   33  C13 UNL     1      19.812   3.773   4.780  1.00  0.00     0.086 C 
ENDBRANCH   7  29
BRANCH  19  34
HETATM   34  C23 UNL     1      18.012   3.970  11.682  1.00  0.00     0.268 C 
BRANCH  34  35
HETATM   35  N2  UNL     1      17.226   3.311  12.778  1.00  0.00    -0.068 N 
ATOM     36  H23 UNL     1      17.791   2.938  13.541  1.00  0.00     0.275 HD
ATOM     37  H22 UNL     1      16.682   3.952  13.354  1.00  0.00     0.275 HD
ATOM     38  H21 UNL     1      16.673   2.613  12.280  1.00  0.00     0.275 HD
ENDBRANCH  34  35
BRANCH  34  39
HETATM   39  C24 UNL     1      19.250   4.399  12.367  1.00  0.00     0.263 C 
HETATM   40  O6  UNL     1      19.780   3.592  13.110  1.00  0.00    -0.286 OA
BRANCH  39  41
HETATM   41  C25 UNL     1      19.886   5.725  12.228  1.00  0.00     0.453 C 
HETATM   42  F1  UNL     1      19.034   6.526  11.456  1.00  0.00    -0.163 F 
HETATM   43  F2  UNL     1      20.300   6.309  13.376  1.00  0.00    -0.163 F 
HETATM   44  F3  UNL     1      21.008   5.557  11.361  1.00  0.00    -0.163 F 
ENDBRANCH  39  41
ENDBRANCH  34  39
ENDBRANCH  19  34
TORSDOF 8
ENDMDL
MODEL 4
REMARK VINA RESULT: -4.210063748     13.938     18.917
REMARK  8 active torsions:
REMARK  status: ('A' for Active; 'I' for Inactive)
REMARK    1  A    between atoms: C2_2  and  C3_3 
REMARK    2  A    between atoms: C3_3  and  C4_4 
REMARK    3  A    between atoms: C9_10  and  O1_11 
REMARK    4  A    between atoms: C9_10  and  C10_13 
REMARK    5  A    between atoms: C22_29  and  C23_30 
REMARK    6  A    between atoms: C23_30  and  N2_31 
REMARK    7  A    between atoms: C23_30  and  C24_35 
REMARK    8  A    between atoms: C24_35  and  C25_37 
ROOT
HETATM    1  C4  UNL     1      20.175   5.830  14.923  1.00  0.00     0.060 C 
HETATM    2  C5  UNL     1      19.355   6.215  13.834  1.00  0.00     0.070 C 
HETATM    3  N1  UNL     1      18.660   6.536  12.968  1.00  0.00    -0.196 NA
HETATM    4  C6  UNL     1      19.274   6.119  16.207  1.00  0.00     0.064 C 
HETATM    5  C7  UNL     1      19.244   4.718  16.825  1.00  0.00    -0.052 C 
HETATM    6  C8  UNL     1      18.258   3.896  16.766  1.00  0.00     0.021 C 
HETATM    7  C9  UNL     1      18.319   2.469  17.365  1.00  0.00     0.108 C 
HETATM    8  C14 UNL     1      18.677   1.661  16.084  1.00  0.00     0.178 C 
HETATM    9  O3  UNL     1      17.667   2.015  15.286  1.00  0.00    -0.379 OA
HETATM   10  C15 UNL     1      17.313   1.697  14.080  1.00  0.00     0.201 C 
HETATM   11  C16 UNL     1      18.168   1.404  12.958  1.00  0.00     0.162 C 
HETATM   12  O4  UNL     1      19.084   0.380  13.494  1.00  0.00    -0.313 OA
HETATM   13  C17 UNL     1      19.984   0.753  14.458  1.00  0.00     0.270 C 
HETATM   14  O5  UNL     1      20.915  -0.082  14.490  1.00  0.00    -0.264 OA
HETATM   15  C18 UNL     1      19.987   1.964  15.426  1.00  0.00     0.078 C 
HETATM   16  C19 UNL     1      21.244   1.661  16.114  1.00  0.00     0.029 C 
HETATM   17  C20 UNL     1      19.904   3.232  14.607  1.00  0.00     0.016 C 
HETATM   18  C21 UNL     1      20.229   2.843  13.127  1.00  0.00     0.016 C 
HETATM   19  C22 UNL     1      19.102   2.312  12.315  1.00  0.00     0.056 C 
HETATM   20  C26 UNL     1      20.707   4.432  14.978  1.00  0.00     0.037 C 
HETATM   21  C27 UNL     1      21.390   4.381  16.300  1.00  0.00    -0.013 C 
HETATM   22  C28 UNL     1      20.598   4.539  17.424  1.00  0.00    -0.059 C 
HETATM   23  C29 UNL     1      21.312   4.481  18.708  1.00  0.00     0.048 C 
ENDROOT
BRANCH   1  24
HETATM   24  C3  UNL     1      21.385   6.735  14.996  1.00  0.00     0.025 C 
BRANCH  24  25
HETATM   25  C2  UNL     1      21.234   8.072  15.586  1.00  0.00    -0.003 C 
HETATM   26  C1  UNL     1      21.322   8.221  17.058  1.00  0.00     0.005 C 
ENDBRANCH  24  25
ENDBRANCH   1  24
BRANCH   7  27
HETATM   27  O1  UNL     1      19.229   2.512  18.326  1.00  0.00    -0.383 OA
ATOM     28  H1  UNL     1      19.369   1.612  18.597  1.00  0.00     0.211 HD
ENDBRANCH   7  27
BRANCH   7  29
HETATM   29  C10 UNL     1      17.067   2.052  17.989  1.00  0.00     0.040 C 
HETATM   30  C11 UNL     1      16.919   2.258  19.476  1.00  0.00     0.086 C 
HETATM   31  C12 UNL     1      15.740   1.345  19.327  1.00  0.00     0.128 C 
HETATM   32  O2  UNL     1      14.676   1.232  19.837  1.00  0.00    -0.298 OA
HETATM   33  C13 UNL     1      16.601   0.698  18.244  1.00  0.00     0.086 C 
ENDBRANCH   7  29
BRANCH  19  34
HETATM   34  C23 UNL     1      18.486   3.206  11.292  1.00  0.00     0.268 C 
BRANCH  34  35
HETATM   35  N2  UNL     1      19.568   4.209  11.018  1.00  0.00    -0.068 N 
ATOM     36  H23 UNL     1      19.991   4.617  11.853  1.00  0.00     0.275 HD
ATOM     37  H22 UNL     1      20.431   3.812  10.647  1.00  0.00     0.275 HD
ATOM     38  H21 UNL     1      19.111   4.881  10.403  1.00  0.00     0.275 HD
ENDBRANCH  34  35
BRANCH  34  39
HETATM   39  C24 UNL     1      18.354   2.493  10.004  1.00  0.00     0.263 C 
HETATM   40  O6  UNL     1      17.254   2.050   9.726  1.00  0.00    -0.286 OA
BRANCH  39  41
HETATM   41  C25 UNL     1      19.448   2.270   9.036  1.00  0.00     0.453 C 
HETATM   42  F1  UNL     1      19.004   1.322   8.105  1.00  0.00    -0.163 F 
HETATM   43  F2  UNL     1      19.985   3.380   8.479  1.00  0.00    -0.163 F 
HETATM   44  F3  UNL     1      20.473   1.555   9.728  1.00  0.00    -0.163 F 
ENDBRANCH  39  41
ENDBRANCH  34  39
ENDBRANCH  19  34
TORSDOF 8
ENDMDL
MODEL 5
REMARK VINA RESULT: -4.139426908      2.708      5.545
REMARK  8 active torsions:
REMARK  status: ('A' for Active; 'I' for Inactive)
REMARK    1  A    between atoms: C2_2  and  C3_3 
REMARK    2  A    between atoms: C3_3  and  C4_4 
REMARK    3  A    between atoms: C9_10  and  O1_11 
REMARK    4  A    between atoms: C9_10  and  C10_13 
REMARK    5  A    between atoms: C22_29  and  C23_30 
REMARK    6  A    between atoms: C23_30  and  N2_31 
REMARK    7  A    between atoms: C23_30  and  C24_35 
REMARK    8  A    between atoms: C24_35  and  C25_37 
ROOT
HETATM    1  C4  UNL     1      13.881  -2.643  -2.298  1.00  0.00     0.060 C 
HETATM    2  C5  UNL     1      13.282  -1.410  -1.939  1.00  0.00     0.070 C 
HETATM    3  N1  UNL     1      12.804  -0.391  -1.676  1.00  0.00    -0.196 NA
HETATM    4  C6  UNL     1      14.385  -2.407  -3.792  1.00  0.00     0.064 C 
HETATM    5  C7  UNL     1      15.877  -2.698  -3.612  1.00  0.00    -0.052 C 
HETATM    6  C8  UNL     1      16.808  -1.815  -3.544  1.00  0.00     0.021 C 
HETATM    7  C9  UNL     1      18.294  -2.180  -3.303  1.00  0.00     0.108 C 
HETATM    8  C14 UNL     1      18.375  -1.948  -1.765  1.00  0.00     0.178 C 
HETATM    9  O3  UNL     1      17.973  -0.676  -1.693  1.00  0.00    -0.379 OA
HETATM   10  C15 UNL     1      17.828   0.172  -0.723  1.00  0.00     0.201 C 
HETATM   11  C16 UNL     1      17.406  -0.096   0.627  1.00  0.00     0.162 C 
HETATM   12  O4  UNL     1      18.307  -1.184   1.050  1.00  0.00    -0.313 OA
HETATM   13  C17 UNL     1      18.171  -2.410   0.452  1.00  0.00     0.270 C 
HETATM   14  O5  UNL     1      18.691  -3.280   1.186  1.00  0.00    -0.264 OA
HETATM   15  C18 UNL     1      17.518  -2.813  -0.895  1.00  0.00     0.078 C 
HETATM   16  C19 UNL     1      17.770  -4.253  -0.812  1.00  0.00     0.029 C 
HETATM   17  C20 UNL     1      16.084  -2.334  -0.895  1.00  0.00     0.016 C 
HETATM   18  C21 UNL     1      15.724  -1.970   0.583  1.00  0.00     0.016 C 
HETATM   19  C22 UNL     1      16.117  -0.614   1.050  1.00  0.00     0.056 C 
HETATM   20  C26 UNL     1      14.998  -3.183  -1.463  1.00  0.00     0.037 C 
HETATM   21  C27 UNL     1      15.435  -4.388  -2.219  1.00  0.00    -0.013 C 
HETATM   22  C28 UNL     1      15.961  -4.181  -3.483  1.00  0.00    -0.059 C 
HETATM   23  C29 UNL     1      16.380  -5.398  -4.194  1.00  0.00     0.048 C 
ENDROOT
BRANCH   1  24
HETATM   24  C3  UNL     1      12.828  -3.729  -2.333  1.00  0.00     0.025 C 
BRANCH  24  25
HETATM   25  C2  UNL     1      11.796  -3.681  -3.377  1.00  0.00    -0.003 C 
HETATM   26  C1  UNL     1      10.370  -3.766  -2.981  1.00  0.00     0.005 C 
ENDBRANCH  24  25
ENDBRANCH   1  24
BRANCH   7  27
HETATM   27  O1  UNL     1      18.442  -3.423  -3.734  1.00  0.00    -0.383 OA
ATOM     28  H1  UNL     1      19.375  -3.547  -3.867  1.00  0.00     0.211 HD
ENDBRANCH   7  27
BRANCH   7  29
HETATM   29  C10 UNL     1      19.222  -1.355  -4.069  1.00  0.00     0.040 C 
HETATM   30  C11 UNL     1      20.328  -0.656  -3.315  1.00  0.00     0.086 C 
HETATM   31  C12 UNL     1      20.488   0.123  -4.585  1.00  0.00     0.128 C 
HETATM   32  O2  UNL     1      21.389   0.616  -5.178  1.00  0.00    -0.298 OA
HETATM   33  C13 UNL     1      18.975  -0.059  -4.682  1.00  0.00     0.086 C 
ENDBRANCH   7  29
BRANCH  19  34
HETATM   34  C23 UNL     1      15.053   0.421   1.190  1.00  0.00     0.268 C 
BRANCH  34  35
HETATM   35  N2  UNL     1      13.828  -0.274   0.671  1.00  0.00    -0.068 N 
ATOM     36  H23 UNL     1      13.239   0.298   0.065  1.00  0.00     0.275 HD
ATOM     37  H22 UNL     1      14.014  -1.001  -0.020  1.00  0.00     0.275 HD
ATOM     38  H21 UNL     1      13.370  -0.603   1.520  1.00  0.00     0.275 HD
ENDBRANCH  34  35
BRANCH  34  39
HETATM   39  C24 UNL     1      14.736   0.641   2.616  1.00  0.00     0.263 C 
HETATM   40  O6  UNL     1      13.867  -0.058   3.105  1.00  0.00    -0.286 OA
BRANCH  39  41
HETATM   41  C25 UNL     1      15.382   1.643   3.489  1.00  0.00     0.453 C 
HETATM   42  F1  UNL     1      14.632   2.823   3.407  1.00  0.00    -0.163 F 
HETATM   43  F2  UNL     1      15.647   1.246   4.756  1.00  0.00    -0.163 F 
HETATM   44  F3  UNL     1      16.605   2.018   2.855  1.00  0.00    -0.163 F 
ENDBRANCH  39  41
ENDBRANCH  34  39
ENDBRANCH  19  34
TORSDOF 8
ENDMDL
