MODEL 1
REMARK VINA RESULT: -8.161582235      0.000      0.000
REMARK  5 active torsions:
REMARK  status: ('A' for Active; 'I' for Inactive)
REMARK    1  A    between atoms: C4_6  and  C6_8 
REMARK       I    between atoms: N2_12  and  C9_13 
REMARK       I    between atoms: C9_13  and  N3_15 
REMARK    2  A    between atoms: N3_15  and  C10_17 
REMARK    3  A    between atoms: C11_22  and  S1_23 
REMARK    4  A    between atoms: S1_23  and  C12_24 
REMARK    5  A    between atoms: C12_24  and  C13_25 
ROOT
HETATM    1  C1  UNL     1      23.249  15.677 -11.585  1.00  0.00     0.089 C 
HETATM    2  C2  UNL     1      21.820  15.444 -11.162  1.00  0.00     0.080 C 
HETATM    3  N1  UNL     1      21.139  16.255 -10.441  1.00  0.00    -0.377 N 
ATOM      4  H1  UNL     1      21.485  17.142 -10.074  1.00  0.00     0.160 HD
HETATM    5  C3  UNL     1      19.810  15.732 -10.220  1.00  0.00     0.155 C 
HETATM    6  C4  UNL     1      19.698  14.669 -11.304  1.00  0.00     0.090 C 
HETATM    7  C5  UNL     1      18.913  13.520 -10.719  1.00  0.00     0.044 C 
HETATM    8  N2  UNL     1      21.065  14.289 -11.522  1.00  0.00    -0.275 N 
HETATM    9  C9  UNL     1      21.666  13.089 -11.980  1.00  0.00     0.330 C 
HETATM   10  O1  UNL     1      22.910  12.964 -12.102  1.00  0.00    -0.246 OA
HETATM   11  N3  UNL     1      20.904  11.930 -12.336  1.00  0.00    -0.287 N 
ATOM     12  H3  UNL     1      20.209  11.943 -13.082  1.00  0.00     0.172 HD
ENDROOT
BRANCH  11  13
HETATM   13  C10 UNL     1      21.162  10.848 -11.633  1.00  0.00     0.169 A 
HETATM   14  N4  UNL     1      22.025   9.875 -11.924  1.00  0.00    -0.278 N 
HETATM   15  N5  UNL     1      22.135   8.895 -11.109  1.00  0.00    -0.286 N 
ATOM     16  H4  UNL     1      22.584   9.910 -12.777  1.00  0.00     0.189 HD
HETATM   17  C11 UNL     1      21.405   8.862 -10.010  1.00  0.00     0.130 A 
ATOM     18  H5  UNL     1      22.788   8.138 -11.309  1.00  0.00     0.188 HD
HETATM   19  S2  UNL     1      20.510  10.309 -10.145  1.00  0.00    -0.026 SA
BRANCH  17  20
HETATM   20  S1  UNL     1      21.382   7.596  -8.713  1.00  0.00    -0.097 SA
BRANCH  20  21
HETATM   21  C12 UNL     1      21.034   8.414  -7.130  1.00  0.00     0.146 C 
BRANCH  21  22
HETATM   22  C13 UNL     1      20.173   7.577  -6.254  1.00  0.00     0.063 A 
HETATM   23  C14 UNL     1      20.586   6.560  -5.429  1.00  0.00     0.036 A 
HETATM   24  C15 UNL     1      19.466   6.071  -4.815  1.00  0.00     0.035 A 
HETATM   25  C16 UNL     1      18.412   6.802  -5.283  1.00  0.00     0.049 A 
HETATM   26  C17 UNL     1      16.979   6.621  -4.889  1.00  0.00     0.076 C 
HETATM   27  O2  UNL     1      18.885   7.680  -6.132  1.00  0.00    -0.319 OA
ENDBRANCH  21  22
ENDBRANCH  20  21
ENDBRANCH  17  20
ENDBRANCH  11  13
BRANCH   6  28
HETATM   28  C6  UNL     1      18.990  15.203 -12.501  1.00  0.00     0.123 C 
HETATM   29  C7  UNL     1      18.406  16.559 -12.348  1.00  0.00     0.054 C 
HETATM   30  C8  UNL     1      17.909  14.268 -13.008  1.00  0.00     0.054 C 
HETATM   31  F1  UNL     1      19.940  15.274 -13.530  1.00  0.00    -0.241 F 
ENDBRANCH   6  28
TORSDOF 5
ENDMDL
MODEL 2
REMARK VINA RESULT: -7.223278984      4.097      5.996
REMARK  5 active torsions:
REMARK  status: ('A' for Active; 'I' for Inactive)
REMARK    1  A    between atoms: C4_6  and  C6_8 
REMARK       I    between atoms: N2_12  and  C9_13 
REMARK       I    between atoms: C9_13  and  N3_15 
REMARK    2  A    between atoms: N3_15  and  C10_17 
REMARK    3  A    between atoms: C11_22  and  S1_23 
REMARK    4  A    between atoms: S1_23  and  C12_24 
REMARK    5  A    between atoms: C12_24  and  C13_25 
ROOT
HETATM    1  C1  UNL     1      25.092  14.108 -16.220  1.00  0.00     0.089 C 
HETATM    2  C2  UNL     1      24.963  12.627 -15.965  1.00  0.00     0.080 C 
HETATM    3  N1  UNL     1      25.026  11.729 -16.877  1.00  0.00    -0.377 N 
ATOM      4  H1  UNL     1      25.170  11.914 -17.870  1.00  0.00     0.160 HD
HETATM    5  C3  UNL     1      24.864  10.416 -16.297  1.00  0.00     0.155 C 
HETATM    6  C4  UNL     1      25.124  10.682 -14.820  1.00  0.00     0.090 C 
HETATM    7  C5  UNL     1      24.188   9.793 -14.037  1.00  0.00     0.044 C 
HETATM    8  N2  UNL     1      24.754  12.061 -14.673  1.00  0.00    -0.275 N 
HETATM    9  C9  UNL     1      24.279  12.814 -13.570  1.00  0.00     0.330 C 
HETATM   10  O1  UNL     1      24.010  14.038 -13.658  1.00  0.00    -0.246 OA
HETATM   11  N3  UNL     1      24.067  12.240 -12.276  1.00  0.00    -0.287 N 
ATOM     12  H3  UNL     1      24.822  11.810 -11.740  1.00  0.00     0.172 HD
ENDROOT
BRANCH  11  13
HETATM   13  C10 UNL     1      22.832  12.304 -11.825  1.00  0.00     0.169 A 
HETATM   14  N4  UNL     1      22.080  13.392 -11.664  1.00  0.00    -0.278 N 
HETATM   15  N5  UNL     1      20.894  13.249 -11.208  1.00  0.00    -0.286 N 
ATOM     16  H4  UNL     1      22.442  14.317 -11.898  1.00  0.00     0.189 HD
HETATM   17  C11 UNL     1      20.438  12.047 -10.909  1.00  0.00     0.130 A 
ATOM     18  H5  UNL     1      20.298  14.066 -11.076  1.00  0.00     0.188 HD
HETATM   19  S2  UNL     1      21.778  11.063 -11.299  1.00  0.00    -0.026 SA
BRANCH  17  20
HETATM   20  S1  UNL     1      18.810  11.592 -10.256  1.00  0.00    -0.097 SA
BRANCH  20  21
HETATM   21  C12 UNL     1      18.718   9.780 -10.180  1.00  0.00     0.146 C 
BRANCH  21  22
HETATM   22  C13 UNL     1      19.381   9.244  -8.962  1.00  0.00     0.063 A 
HETATM   23  C14 UNL     1      19.160   9.641  -7.666  1.00  0.00     0.036 A 
HETATM   24  C15 UNL     1      19.981   8.885  -6.876  1.00  0.00     0.035 A 
HETATM   25  C16 UNL     1      20.673   8.056  -7.712  1.00  0.00     0.049 A 
HETATM   26  C17 UNL     1      21.694   7.044  -7.291  1.00  0.00     0.076 C 
HETATM   27  O2  UNL     1      20.280   8.309  -8.935  1.00  0.00    -0.319 OA
ENDBRANCH  21  22
ENDBRANCH  20  21
ENDBRANCH  17  20
ENDBRANCH  11  13
BRANCH   6  28
HETATM   28  C6  UNL     1      26.535  10.362 -14.464  1.00  0.00     0.123 C 
HETATM   29  C7  UNL     1      27.294   9.592 -15.481  1.00  0.00     0.054 C 
HETATM   30  C8  UNL     1      26.655   9.647 -13.132  1.00  0.00     0.054 C 
HETATM   31  F1  UNL     1      27.194  11.588 -14.294  1.00  0.00    -0.241 F 
ENDBRANCH   6  28
TORSDOF 5
ENDMDL
MODEL 3
REMARK VINA RESULT: -7.214936229      1.893      2.796
REMARK  5 active torsions:
REMARK  status: ('A' for Active; 'I' for Inactive)
REMARK    1  A    between atoms: C4_6  and  C6_8 
REMARK       I    between atoms: N2_12  and  C9_13 
REMARK       I    between atoms: C9_13  and  N3_15 
REMARK    2  A    between atoms: N3_15  and  C10_17 
REMARK    3  A    between atoms: C11_22  and  S1_23 
REMARK    4  A    between atoms: S1_23  and  C12_24 
REMARK    5  A    between atoms: C12_24  and  C13_25 
ROOT
HETATM    1  C1  UNL     1      22.401  13.930 -15.995  1.00  0.00     0.089 C 
HETATM    2  C2  UNL     1      22.929  14.531 -14.717  1.00  0.00     0.080 C 
HETATM    3  N1  UNL     1      24.004  15.223 -14.633  1.00  0.00    -0.377 N 
ATOM      4  H1  UNL     1      24.618  15.444 -15.417  1.00  0.00     0.160 HD
HETATM    5  C3  UNL     1      24.221  15.647 -13.270  1.00  0.00     0.155 C 
HETATM    6  C4  UNL     1      22.849  15.439 -12.645  1.00  0.00     0.090 C 
HETATM    7  C5  UNL     1      23.073  14.958 -11.232  1.00  0.00     0.044 C 
HETATM    8  N2  UNL     1      22.285  14.394 -13.452  1.00  0.00    -0.275 N 
HETATM    9  C9  UNL     1      21.317  13.393 -13.186  1.00  0.00     0.330 C 
HETATM   10  O1  UNL     1      20.957  12.559 -14.053  1.00  0.00    -0.246 OA
HETATM   11  N3  UNL     1      20.676  13.257 -11.912  1.00  0.00    -0.287 N 
ATOM     12  H3  UNL     1      20.112  14.002 -11.503  1.00  0.00     0.172 HD
ENDROOT
BRANCH  11  13
HETATM   13  C10 UNL     1      20.864  12.103 -11.307  1.00  0.00     0.169 A 
HETATM   14  N4  UNL     1      21.969  11.359 -11.299  1.00  0.00    -0.278 N 
HETATM   15  N5  UNL     1      21.956  10.258 -10.648  1.00  0.00    -0.286 N 
ATOM     16  H4  UNL     1      22.805  11.660 -11.800  1.00  0.00     0.189 HD
HETATM   17  C11 UNL     1      20.867   9.880 -10.005  1.00  0.00     0.130 A 
ATOM     18  H5  UNL     1      22.789   9.671 -10.626  1.00  0.00     0.188 HD
HETATM   19  S2  UNL     1      19.799  11.168 -10.347  1.00  0.00    -0.026 SA
BRANCH  17  20
HETATM   20  S1  UNL     1      20.605   8.380  -9.022  1.00  0.00    -0.097 SA
BRANCH  20  21
HETATM   21  C12 UNL     1      20.790   8.814  -7.269  1.00  0.00     0.146 C 
BRANCH  21  22
HETATM   22  C13 UNL     1      19.995   7.915  -6.391  1.00  0.00     0.063 A 
HETATM   23  C14 UNL     1      20.486   6.986  -5.508  1.00  0.00     0.036 A 
HETATM   24  C15 UNL     1      19.406   6.392  -4.918  1.00  0.00     0.035 A 
HETATM   25  C16 UNL     1      18.296   6.975  -5.458  1.00  0.00     0.049 A 
HETATM   26  C17 UNL     1      16.877   6.641  -5.112  1.00  0.00     0.076 C 
HETATM   27  O2  UNL     1      18.700   7.869  -6.324  1.00  0.00    -0.319 OA
ENDBRANCH  21  22
ENDBRANCH  20  21
ENDBRANCH  17  20
ENDBRANCH  11  13
BRANCH   6  28
HETATM   28  C6  UNL     1      22.075  16.711 -12.625  1.00  0.00     0.123 C 
HETATM   29  C7  UNL     1      22.877  17.951 -12.785  1.00  0.00     0.054 C 
HETATM   30  C8  UNL     1      21.212  16.853 -11.387  1.00  0.00     0.054 C 
HETATM   31  F1  UNL     1      21.181  16.654 -13.704  1.00  0.00    -0.241 F 
ENDBRANCH   6  28
TORSDOF 5
ENDMDL
MODEL 4
REMARK VINA RESULT: -7.212789749      1.764      2.417
REMARK  5 active torsions:
REMARK  status: ('A' for Active; 'I' for Inactive)
REMARK    1  A    between atoms: C4_6  and  C6_8 
REMARK       I    between atoms: N2_12  and  C9_13 
REMARK       I    between atoms: C9_13  and  N3_15 
REMARK    2  A    between atoms: N3_15  and  C10_17 
REMARK    3  A    between atoms: C11_22  and  S1_23 
REMARK    4  A    between atoms: S1_23  and  C12_24 
REMARK    5  A    between atoms: C12_24  and  C13_25 
ROOT
HETATM    1  C1  UNL     1      19.282  13.656 -15.438  1.00  0.00     0.089 C 
HETATM    2  C2  UNL     1      20.097  14.377 -14.394  1.00  0.00     0.080 C 
HETATM    3  N1  UNL     1      20.969  15.280 -14.654  1.00  0.00    -0.377 N 
ATOM      4  H1  UNL     1      21.208  15.608 -15.590  1.00  0.00     0.160 HD
HETATM    5  C3  UNL     1      21.566  15.765 -13.432  1.00  0.00     0.155 C 
HETATM    6  C4  UNL     1      20.577  15.287 -12.377  1.00  0.00     0.090 C 
HETATM    7  C5  UNL     1      21.379  14.890 -11.162  1.00  0.00     0.044 C 
HETATM    8  N2  UNL     1      19.986  14.133 -12.993  1.00  0.00    -0.275 N 
HETATM    9  C9  UNL     1      19.397  12.958 -12.462  1.00  0.00     0.330 C 
HETATM   10  O1  UNL     1      18.928  12.051 -13.194  1.00  0.00    -0.246 OA
HETATM   11  N3  UNL     1      19.291  12.715 -11.055  1.00  0.00    -0.287 N 
ATOM     12  H3  UNL     1      18.772  13.334 -10.432  1.00  0.00     0.172 HD
ENDROOT
BRANCH  11  13
HETATM   13  C10 UNL     1      19.909  11.637 -10.621  1.00  0.00     0.169 A 
HETATM   14  N4  UNL     1      21.171  11.276 -10.847  1.00  0.00    -0.278 N 
HETATM   15  N5  UNL     1      21.592  10.182 -10.335  1.00  0.00    -0.286 N 
ATOM     16  H4  UNL     1      21.788  11.858 -11.415  1.00  0.00     0.189 HD
HETATM   17  C11 UNL     1      20.785   9.438  -9.602  1.00  0.00     0.130 A 
ATOM     18  H5  UNL     1      22.555   9.884 -10.493  1.00  0.00     0.188 HD
HETATM   19  S2  UNL     1      19.342  10.350  -9.645  1.00  0.00    -0.026 SA
BRANCH  17  20
HETATM   20  S1  UNL     1      21.144   7.865  -8.778  1.00  0.00    -0.097 SA
BRANCH  20  21
HETATM   21  C12 UNL     1      21.328   8.187  -7.000  1.00  0.00     0.146 C 
BRANCH  21  22
HETATM   22  C13 UNL     1      20.369   7.389  -6.193  1.00  0.00     0.063 A 
HETATM   23  C14 UNL     1      20.667   6.319  -5.386  1.00  0.00     0.036 A 
HETATM   24  C15 UNL     1      19.487   5.896  -4.840  1.00  0.00     0.035 A 
HETATM   25  C16 UNL     1      18.512   6.717  -5.329  1.00  0.00     0.049 A 
HETATM   26  C17 UNL     1      17.053   6.631  -5.006  1.00  0.00     0.076 C 
HETATM   27  O2  UNL     1      19.088   7.583  -6.125  1.00  0.00    -0.319 OA
ENDBRANCH  21  22
ENDBRANCH  20  21
ENDBRANCH  17  20
ENDBRANCH  11  13
BRANCH   6  28
HETATM   28  C6  UNL     1      19.621  16.371 -12.016  1.00  0.00     0.123 C 
HETATM   29  C7  UNL     1      20.064  17.751 -12.341  1.00  0.00     0.054 C 
HETATM   30  C8  UNL     1      19.214  16.329 -10.556  1.00  0.00     0.054 C 
HETATM   31  F1  UNL     1      18.447  16.130 -12.742  1.00  0.00    -0.241 F 
ENDBRANCH   6  28
TORSDOF 5
ENDMDL
MODEL 5
REMARK VINA RESULT: -7.161373881      2.015      3.088
REMARK  5 active torsions:
REMARK  status: ('A' for Active; 'I' for Inactive)
REMARK    1  A    between atoms: C4_6  and  C6_8 
REMARK       I    between atoms: N2_12  and  C9_13 
REMARK       I    between atoms: C9_13  and  N3_15 
REMARK    2  A    between atoms: N3_15  and  C10_17 
REMARK    3  A    between atoms: C11_22  and  S1_23 
REMARK    4  A    between atoms: S1_23  and  C12_24 
REMARK    5  A    between atoms: C12_24  and  C13_25 
ROOT
HETATM    1  C1  UNL     1      21.709  12.534 -16.405  1.00  0.00     0.089 C 
HETATM    2  C2  UNL     1      22.565  13.124 -15.313  1.00  0.00     0.080 C 
HETATM    3  N1  UNL     1      23.681  13.722 -15.512  1.00  0.00    -0.377 N 
ATOM      4  H1  UNL     1      24.111  13.864 -16.426  1.00  0.00     0.160 HD
HETATM    5  C3  UNL     1      24.241  14.165 -14.258  1.00  0.00     0.155 C 
HETATM    6  C4  UNL     1      23.040  14.097 -13.325  1.00  0.00     0.090 C 
HETATM    7  C5  UNL     1      23.548  13.640 -11.979  1.00  0.00     0.044 C 
HETATM    8  N2  UNL     1      22.224  13.081 -13.929  1.00  0.00    -0.275 N 
HETATM    9  C9  UNL     1      21.268  12.178 -13.399  1.00  0.00     0.330 C 
HETATM   10  O1  UNL     1      20.652  11.353 -14.118  1.00  0.00    -0.246 OA
HETATM   11  N3  UNL     1      20.932  12.136 -12.008  1.00  0.00    -0.287 N 
ATOM     12  H3  UNL     1      20.540  12.940 -11.517  1.00  0.00     0.172 HD
ENDROOT
BRANCH  11  13
HETATM   13  C10 UNL     1      21.165  10.989 -11.406  1.00  0.00     0.169 A 
HETATM   14  N4  UNL     1      21.991  10.019 -11.794  1.00  0.00    -0.278 N 
HETATM   15  N5  UNL     1      22.080   8.969 -11.069  1.00  0.00    -0.286 N 
ATOM     16  H4  UNL     1      22.539  10.111 -12.649  1.00  0.00     0.189 HD
HETATM   17  C11 UNL     1      21.365   8.863  -9.965  1.00  0.00     0.130 A 
ATOM     18  H5  UNL     1      22.705   8.213 -11.344  1.00  0.00     0.188 HD
HETATM   19  S2  UNL     1      20.515  10.344  -9.959  1.00  0.00    -0.026 SA
BRANCH  17  20
HETATM   20  S1  UNL     1      21.318   7.490  -8.783  1.00  0.00    -0.097 SA
BRANCH  20  21
HETATM   21  C12 UNL     1      21.235   8.189  -7.108  1.00  0.00     0.146 C 
BRANCH  21  22
HETATM   22  C13 UNL     1      20.313   7.418  -6.234  1.00  0.00     0.063 A 
HETATM   23  C14 UNL     1      20.653   6.406  -5.372  1.00  0.00     0.036 A 
HETATM   24  C15 UNL     1      19.496   5.988  -4.776  1.00  0.00     0.035 A 
HETATM   25  C16 UNL     1      18.491   6.756  -5.292  1.00  0.00     0.049 A 
HETATM   26  C17 UNL     1      17.041   6.655  -4.933  1.00  0.00     0.076 C 
HETATM   27  O2  UNL     1      19.028   7.586  -6.151  1.00  0.00    -0.319 OA
ENDBRANCH  21  22
ENDBRANCH  20  21
ENDBRANCH  17  20
ENDBRANCH  11  13
BRANCH   6  28
HETATM   28  C6  UNL     1      22.394  15.432 -13.192  1.00  0.00     0.123 C 
HETATM   29  C7  UNL     1      23.152  16.571 -13.770  1.00  0.00     0.054 C 
HETATM   30  C8  UNL     1      22.039  15.771 -11.757  1.00  0.00     0.054 C 
HETATM   31  F1  UNL     1      21.172  15.358 -13.875  1.00  0.00    -0.241 F 
ENDBRANCH   6  28
TORSDOF 5
ENDMDL
