MODEL 1
REMARK VINA RESULT: -7.134468172      0.000      0.000
REMARK  6 active torsions:
REMARK  status: ('A' for Active; 'I' for Inactive)
REMARK    1  A    between atoms: C6_6  and  C7_7 
REMARK    2  A    between atoms: C8_12  and  N3_13 
REMARK    3  A    between atoms: N3_13  and  C9_15 
REMARK    4  A    between atoms: C13_20  and  C14_21 
REMARK    5  A    between atoms: C14_21  and  O1_22 
REMARK    6  A    between atoms: O1_22  and  C15_23 
ROOT
HETATM    1  C1  UNL     1      20.574   6.062  -5.227  1.00  0.00     0.056 C 
HETATM    2  C2  UNL     1      20.320   7.126  -6.276  1.00  0.00    -0.018 A 
HETATM    3  C3  UNL     1      21.148   7.491  -7.294  1.00  0.00     0.028 A 
HETATM    4  C4  UNL     1      20.710   8.474  -8.118  1.00  0.00    -0.000 A 
HETATM    5  C5  UNL     1      21.390   9.013  -9.232  1.00  0.00     0.030 A 
HETATM    6  C6  UNL     1      20.789  10.016  -9.961  1.00  0.00     0.025 A 
HETATM    7  C13 UNL     1      19.556  10.544  -9.688  1.00  0.00     0.047 A 
HETATM    8  N4  UNL     1      18.925  10.005  -8.611  1.00  0.00    -0.351 N 
ATOM      9  H4  UNL     1      18.002  10.356  -8.355  1.00  0.00     0.166 HD
HETATM   10  C18 UNL     1      19.484   9.009  -7.858  1.00  0.00     0.085 A 
HETATM   11  S2  UNL     1      18.970   8.141  -6.482  1.00  0.00    -0.077 SA
ENDROOT
BRANCH   6  12
HETATM   12  C7  UNL     1      21.537  10.546 -11.114  1.00  0.00     0.104 A 
HETATM   13  N1  UNL     1      22.399  11.536 -11.169  1.00  0.00    -0.291 N 
HETATM   14  N2  UNL     1      22.954  11.856 -12.267  1.00  0.00    -0.279 N 
ATOM     15  H1  UNL     1      22.626  12.054 -10.320  1.00  0.00     0.187 HD
HETATM   16  C8  UNL     1      22.647  11.166 -13.367  1.00  0.00     0.162 A 
ATOM     17  H2  UNL     1      23.622  12.626 -12.306  1.00  0.00     0.189 HD
HETATM   18  S1  UNL     1      21.518  10.032 -12.750  1.00  0.00    -0.033 SA
BRANCH  16  19
HETATM   19  N3  UNL     1      23.113  11.352 -14.562  1.00  0.00    -0.361 N 
ATOM     20  H3  UNL     1      22.508  11.721 -15.296  1.00  0.00     0.162 HD
BRANCH  19  21
HETATM   21  C9  UNL     1      24.490  11.033 -14.849  1.00  0.00     0.021 C 
HETATM   22  C10 UNL     1      24.578  10.760 -16.353  1.00  0.00     0.037 C 
HETATM   23  C11 UNL     1      25.435  12.163 -14.551  1.00  0.00     0.037 C 
HETATM   24  C12 UNL     1      24.912   9.735 -14.170  1.00  0.00     0.037 C 
ENDBRANCH  19  21
ENDBRANCH  16  19
ENDBRANCH   6  12
BRANCH   7  25
HETATM   25  C14 UNL     1      18.883  11.606 -10.435  1.00  0.00     0.228 C 
BRANCH  25  26
HETATM   26  O1  UNL     1      19.491  12.829 -10.133  1.00  0.00    -0.360 OA
BRANCH  26  27
HETATM   27  C15 UNL     1      19.031  13.848 -10.963  1.00  0.00     0.130 C 
HETATM   28  C16 UNL     1      18.736  15.115 -10.153  1.00  0.00     0.064 C 
HETATM   29  C17 UNL     1      20.179  14.203 -11.884  1.00  0.00     0.064 C 
HETATM   30 CL1  UNL     1      17.627  13.385 -11.914  1.00  0.00    -0.089 Cl
ENDBRANCH  26  27
ENDBRANCH  25  26
ENDBRANCH   7  25
TORSDOF 6
ENDMDL
MODEL 2
REMARK VINA RESULT: -7.101882909      3.916      5.631
REMARK  6 active torsions:
REMARK  status: ('A' for Active; 'I' for Inactive)
REMARK    1  A    between atoms: C6_6  and  C7_7 
REMARK    2  A    between atoms: C8_12  and  N3_13 
REMARK    3  A    between atoms: N3_13  and  C9_15 
REMARK    4  A    between atoms: C13_20  and  C14_21 
REMARK    5  A    between atoms: C14_21  and  O1_22 
REMARK    6  A    between atoms: O1_22  and  C15_23 
ROOT
HETATM    1  C1  UNL     1      11.090   9.618 -10.413  1.00  0.00     0.056 C 
HETATM    2  C2  UNL     1      12.605   9.577 -10.399  1.00  0.00    -0.018 A 
HETATM    3  C3  UNL     1      13.458  10.578 -10.753  1.00  0.00     0.028 A 
HETATM    4  C4  UNL     1      14.784  10.316 -10.660  1.00  0.00    -0.000 A 
HETATM    5  C5  UNL     1      15.847  11.193 -10.970  1.00  0.00     0.030 A 
HETATM    6  C6  UNL     1      17.143  10.753 -10.815  1.00  0.00     0.025 A 
HETATM    7  C13 UNL     1      17.494   9.506 -10.373  1.00  0.00     0.047 A 
HETATM    8  N4  UNL     1      16.451   8.684 -10.082  1.00  0.00    -0.351 N 
ATOM      9  H4  UNL     1      16.646   7.740  -9.748  1.00  0.00     0.166 HD
HETATM   10  C18 UNL     1      15.148   9.078 -10.222  1.00  0.00     0.085 A 
HETATM   11  S2  UNL     1      13.649   8.310  -9.950  1.00  0.00    -0.077 SA
ENDROOT
BRANCH   6  12
HETATM   12  C7  UNL     1      18.217  11.704 -11.151  1.00  0.00     0.104 A 
HETATM   13  N1  UNL     1      18.780  12.628 -10.406  1.00  0.00    -0.291 N 
HETATM   14  N2  UNL     1      19.705  13.365 -10.871  1.00  0.00    -0.279 N 
ATOM     15  H1  UNL     1      18.471  12.756  -9.442  1.00  0.00     0.187 HD
HETATM   16  C8  UNL     1      20.098  13.183 -12.134  1.00  0.00     0.162 A 
ATOM     17  H2  UNL     1      20.139  14.082 -10.290  1.00  0.00     0.189 HD
HETATM   18  S1  UNL     1      19.072  11.900 -12.625  1.00  0.00    -0.033 SA
BRANCH  16  19
HETATM   19  N3  UNL     1      21.020  13.838 -12.768  1.00  0.00    -0.361 N 
ATOM     20  H3  UNL     1      20.765  14.508 -13.493  1.00  0.00     0.162 HD
BRANCH  19  21
HETATM   21  C9  UNL     1      22.407  13.614 -12.443  1.00  0.00     0.021 C 
HETATM   22  C10 UNL     1      23.190  13.703 -13.755  1.00  0.00     0.037 C 
HETATM   23  C11 UNL     1      22.975  14.653 -11.518  1.00  0.00     0.037 C 
HETATM   24  C12 UNL     1      22.633  12.197 -11.926  1.00  0.00     0.037 C 
ENDBRANCH  19  21
ENDBRANCH  16  19
ENDBRANCH   6  12
BRANCH   7  25
HETATM   25  C14 UNL     1      18.855   9.001 -10.194  1.00  0.00     0.228 C 
BRANCH  25  26
HETATM   26  O1  UNL     1      19.014   8.583  -8.869  1.00  0.00    -0.360 OA
BRANCH  26  27
HETATM   27  C15 UNL     1      20.320   8.775  -8.426  1.00  0.00     0.130 C 
HETATM   28  C16 UNL     1      20.985   9.928  -9.186  1.00  0.00     0.064 C 
HETATM   29  C17 UNL     1      20.221   9.231  -6.985  1.00  0.00     0.064 C 
HETATM   30 CL1  UNL     1      21.305   7.323  -8.524  1.00  0.00    -0.089 Cl
ENDBRANCH  26  27
ENDBRANCH  25  26
ENDBRANCH   7  25
TORSDOF 6
ENDMDL
MODEL 3
REMARK VINA RESULT: -7.005903902      3.008      4.789
REMARK  6 active torsions:
REMARK  status: ('A' for Active; 'I' for Inactive)
REMARK    1  A    between atoms: C6_6  and  C7_7 
REMARK    2  A    between atoms: C8_12  and  N3_13 
REMARK    3  A    between atoms: N3_13  and  C9_15 
REMARK    4  A    between atoms: C13_20  and  C14_21 
REMARK    5  A    between atoms: C14_21  and  O1_22 
REMARK    6  A    between atoms: O1_22  and  C15_23 
ROOT
HETATM    1  C1  UNL     1      19.591   6.631  -4.915  1.00  0.00     0.056 C 
HETATM    2  C2  UNL     1      19.926   7.462  -6.136  1.00  0.00    -0.018 A 
HETATM    3  C3  UNL     1      19.136   8.394  -6.740  1.00  0.00     0.028 A 
HETATM    4  C4  UNL     1      19.646   9.020  -7.827  1.00  0.00    -0.000 A 
HETATM    5  C5  UNL     1      19.017  10.013  -8.609  1.00  0.00     0.030 A 
HETATM    6  C6  UNL     1      19.691  10.542  -9.687  1.00  0.00     0.025 A 
HETATM    7  C13 UNL     1      20.952  10.176 -10.072  1.00  0.00     0.047 A 
HETATM    8  N4  UNL     1      21.534   9.219  -9.301  1.00  0.00    -0.351 N 
ATOM      9  H4  UNL     1      22.475   8.903  -9.536  1.00  0.00     0.166 HD
HETATM   10  C18 UNL     1      20.902   8.666  -8.221  1.00  0.00     0.085 A 
HETATM   11  S2  UNL     1      21.342   7.477  -7.080  1.00  0.00    -0.077 SA
ENDROOT
BRANCH   6  12
HETATM   12  C7  UNL     1      18.992  11.575 -10.472  1.00  0.00     0.104 A 
HETATM   13  N1  UNL     1      18.939  12.875 -10.286  1.00  0.00    -0.291 N 
HETATM   14  N2  UNL     1      18.278  13.619 -11.075  1.00  0.00    -0.279 N 
ATOM     15  H1  UNL     1      19.434  13.291  -9.497  1.00  0.00     0.187 HD
HETATM   16  C8  UNL     1      17.638  13.057 -12.103  1.00  0.00     0.162 A 
ATOM     17  H2  UNL     1      18.238  14.628 -10.927  1.00  0.00     0.189 HD
HETATM   18  S1  UNL     1      18.029  11.403 -11.880  1.00  0.00    -0.033 SA
BRANCH  16  19
HETATM   19  N3  UNL     1      16.922  13.658 -13.001  1.00  0.00    -0.361 N 
ATOM     20  H3  UNL     1      15.907  13.558 -12.998  1.00  0.00     0.162 HD
BRANCH  19  21
HETATM   21  C9  UNL     1      17.568  14.468 -14.005  1.00  0.00     0.021 C 
HETATM   22  C10 UNL     1      16.584  14.599 -15.170  1.00  0.00     0.037 C 
HETATM   23  C11 UNL     1      17.880  15.860 -13.533  1.00  0.00     0.037 C 
HETATM   24  C12 UNL     1      18.793  13.766 -14.579  1.00  0.00     0.037 C 
ENDBRANCH  19  21
ENDBRANCH  16  19
ENDBRANCH   6  12
BRANCH   7  25
HETATM   25  C14 UNL     1      21.702  10.713 -11.208  1.00  0.00     0.228 C 
BRANCH  25  26
HETATM   26  O1  UNL     1      21.419   9.945 -12.342  1.00  0.00    -0.360 OA
BRANCH  26  27
HETATM   27  C15 UNL     1      21.798  10.601 -13.510  1.00  0.00     0.130 C 
HETATM   28  C16 UNL     1      20.741  10.411 -14.605  1.00  0.00     0.064 C 
HETATM   29  C17 UNL     1      21.802  12.081 -13.190  1.00  0.00     0.064 C 
HETATM   30 CL1  UNL     1      23.383  10.115 -14.094  1.00  0.00    -0.089 Cl
ENDBRANCH  26  27
ENDBRANCH  25  26
ENDBRANCH   7  25
TORSDOF 6
ENDMDL
MODEL 4
REMARK VINA RESULT: -6.968775118      3.750      5.515
REMARK  6 active torsions:
REMARK  status: ('A' for Active; 'I' for Inactive)
REMARK    1  A    between atoms: C6_6  and  C7_7 
REMARK    2  A    between atoms: C8_12  and  N3_13 
REMARK    3  A    between atoms: N3_13  and  C9_15 
REMARK    4  A    between atoms: C13_20  and  C14_21 
REMARK    5  A    between atoms: C14_21  and  O1_22 
REMARK    6  A    between atoms: O1_22  and  C15_23 
ROOT
HETATM    1  C1  UNL     1      11.324   9.025 -11.001  1.00  0.00     0.056 C 
HETATM    2  C2  UNL     1      12.816   9.173 -10.780  1.00  0.00    -0.018 A 
HETATM    3  C3  UNL     1      13.611  10.198 -11.195  1.00  0.00     0.028 A 
HETATM    4  C4  UNL     1      14.927  10.120 -10.881  1.00  0.00    -0.000 A 
HETATM    5  C5  UNL     1      15.934  11.056 -11.202  1.00  0.00     0.030 A 
HETATM    6  C6  UNL     1      17.229  10.810 -10.799  1.00  0.00     0.025 A 
HETATM    7  C13 UNL     1      17.628   9.707 -10.095  1.00  0.00     0.047 A 
HETATM    8  N4  UNL     1      16.638   8.824  -9.799  1.00  0.00    -0.351 N 
ATOM      9  H4  UNL     1      16.871   7.980  -9.276  1.00  0.00     0.166 HD
HETATM   10  C18 UNL     1      15.339   9.026 -10.180  1.00  0.00     0.085 A 
HETATM   11  S2  UNL     1      13.898   8.136  -9.974  1.00  0.00    -0.077 SA
ENDROOT
BRANCH   6  12
HETATM   12  C7  UNL     1      18.244  11.817 -11.157  1.00  0.00     0.104 A 
HETATM   13  N1  UNL     1      18.711  12.823 -10.453  1.00  0.00    -0.291 N 
HETATM   14  N2  UNL     1      19.596  13.597 -10.931  1.00  0.00    -0.279 N 
ATOM     15  H1  UNL     1      18.357  12.984  -9.509  1.00  0.00     0.187 HD
HETATM   16  C8  UNL     1      20.048  13.370 -12.167  1.00  0.00     0.162 A 
ATOM     17  H2  UNL     1      19.956  14.377 -10.382  1.00  0.00     0.189 HD
HETATM   18  S1  UNL     1      19.137  11.988 -12.611  1.00  0.00    -0.033 SA
BRANCH  16  19
HETATM   19  N3  UNL     1      20.944  14.053 -12.809  1.00  0.00    -0.361 N 
ATOM     20  H3  UNL     1      20.687  14.574 -13.647  1.00  0.00     0.162 HD
BRANCH  19  21
HETATM   21  C9  UNL     1      22.306  14.070 -12.334  1.00  0.00     0.021 C 
HETATM   22  C10 UNL     1      23.180  14.511 -13.510  1.00  0.00     0.037 C 
HETATM   23  C11 UNL     1      22.533  15.054 -11.221  1.00  0.00     0.037 C 
HETATM   24  C12 UNL     1      22.783  12.669 -11.970  1.00  0.00     0.037 C 
ENDBRANCH  19  21
ENDBRANCH  16  19
ENDBRANCH   6  12
BRANCH   7  25
HETATM   25  C14 UNL     1      18.989   9.410  -9.648  1.00  0.00     0.228 C 
BRANCH  25  26
HETATM   26  O1  UNL     1      19.648   8.691 -10.650  1.00  0.00    -0.360 OA
BRANCH  26  27
HETATM   27  C15 UNL     1      21.012   8.975 -10.670  1.00  0.00     0.130 C 
HETATM   28  C16 UNL     1      21.336  10.134  -9.720  1.00  0.00     0.064 C 
HETATM   29  C17 UNL     1      21.711   7.761 -10.095  1.00  0.00     0.064 C 
HETATM   30 CL1  UNL     1      21.627   9.309 -12.282  1.00  0.00    -0.089 Cl
ENDBRANCH  26  27
ENDBRANCH  25  26
ENDBRANCH   7  25
TORSDOF 6
ENDMDL
MODEL 5
REMARK VINA RESULT: -6.930029278      3.863      5.677
REMARK  6 active torsions:
REMARK  status: ('A' for Active; 'I' for Inactive)
REMARK    1  A    between atoms: C6_6  and  C7_7 
REMARK    2  A    between atoms: C8_12  and  N3_13 
REMARK    3  A    between atoms: N3_13  and  C9_15 
REMARK    4  A    between atoms: C13_20  and  C14_21 
REMARK    5  A    between atoms: C14_21  and  O1_22 
REMARK    6  A    between atoms: O1_22  and  C15_23 
ROOT
HETATM    1  C1  UNL     1      11.236   8.940 -10.863  1.00  0.00     0.056 C 
HETATM    2  C2  UNL     1      12.730   9.122 -10.690  1.00  0.00    -0.018 A 
HETATM    3  C3  UNL     1      13.500  10.128 -11.191  1.00  0.00     0.028 A 
HETATM    4  C4  UNL     1      14.825  10.088 -10.907  1.00  0.00    -0.000 A 
HETATM    5  C5  UNL     1      15.809  11.015 -11.314  1.00  0.00     0.030 A 
HETATM    6  C6  UNL     1      17.116  10.813 -10.929  1.00  0.00     0.025 A 
HETATM    7  C13 UNL     1      17.549   9.764 -10.165  1.00  0.00     0.047 A 
HETATM    8  N4  UNL     1      16.580   8.888  -9.788  1.00  0.00    -0.351 N 
ATOM      9  H4  UNL     1      16.839   8.083  -9.216  1.00  0.00     0.166 HD
HETATM   10  C18 UNL     1      15.270   9.048 -10.147  1.00  0.00     0.085 A 
HETATM   11  S2  UNL     1      13.848   8.155  -9.846  1.00  0.00    -0.077 SA
ENDROOT
BRANCH   6  12
HETATM   12  C7  UNL     1      18.107  11.807 -11.378  1.00  0.00     0.104 A 
HETATM   13  N1  UNL     1      18.574  12.038 -12.585  1.00  0.00    -0.291 N 
HETATM   14  N2  UNL     1      19.436  12.949 -12.786  1.00  0.00    -0.279 N 
ATOM     15  H1  UNL     1      18.240  11.478 -13.369  1.00  0.00     0.187 HD
HETATM   16  C8  UNL     1      19.860  13.673 -11.747  1.00  0.00     0.162 A 
ATOM     17  H2  UNL     1      19.797  13.125 -13.723  1.00  0.00     0.189 HD
HETATM   18  S1  UNL     1      18.961  12.979 -10.463  1.00  0.00    -0.033 SA
BRANCH  16  19
HETATM   19  N3  UNL     1      20.728  14.635 -11.768  1.00  0.00    -0.361 N 
ATOM     20  H3  UNL     1      20.461  15.573 -11.468  1.00  0.00     0.162 HD
BRANCH  19  21
HETATM   21  C9  UNL     1      22.074  14.374 -12.216  1.00  0.00     0.021 C 
HETATM   22  C10 UNL     1      22.980  15.391 -11.517  1.00  0.00     0.037 C 
HETATM   23  C11 UNL     1      22.571  13.007 -11.838  1.00  0.00     0.037 C 
HETATM   24  C12 UNL     1      22.224  14.649 -13.708  1.00  0.00     0.037 C 
ENDBRANCH  19  21
ENDBRANCH  16  19
ENDBRANCH   6  12
BRANCH   7  25
HETATM   25  C14 UNL     1      18.926   9.514  -9.736  1.00  0.00     0.228 C 
BRANCH  25  26
HETATM   26  O1  UNL     1      19.552   8.691 -10.676  1.00  0.00    -0.360 OA
BRANCH  26  27
HETATM   27  C15 UNL     1      20.872   9.077 -10.894  1.00  0.00     0.130 C 
HETATM   28  C16 UNL     1      21.331  10.067  -9.817  1.00  0.00     0.064 C 
HETATM   29  C17 UNL     1      21.720   7.837 -10.705  1.00  0.00     0.064 C 
HETATM   30 CL1  UNL     1      21.143   9.743 -12.498  1.00  0.00    -0.089 Cl
ENDBRANCH  26  27
ENDBRANCH  25  26
ENDBRANCH   7  25
TORSDOF 6
ENDMDL
