MODEL 1
REMARK VINA RESULT: -7.509713915      0.000      0.000
REMARK  6 active torsions:
REMARK  status: ('A' for Active; 'I' for Inactive)
REMARK    1  A    between atoms: O1_2  and  C2_3 
REMARK    2  A    between atoms: C8_11  and  O3_12 
REMARK    3  A    between atoms: C13_17  and  O4_18 
REMARK    4  A    between atoms: C16_23  and  O6_24 
REMARK    5  A    between atoms: O6_24  and  C17_25 
REMARK    6  A    between atoms: C17_25  and  C18_27 
ROOT
HETATM    1  C2  UNL     1      19.807  10.934 -10.547  1.00  0.00     0.127 A 
HETATM    2  C3  UNL     1      19.522  11.979 -11.403  1.00  0.00     0.071 A 
HETATM    3 CL1  UNL     1      20.749  13.104 -11.941  1.00  0.00    -0.081 Cl
HETATM    4  C4  UNL     1      18.237  12.176 -11.873  1.00  0.00     0.045 A 
HETATM    5  C5  UNL     1      17.241  11.315 -11.476  1.00  0.00     0.053 A 
HETATM    6  C6  UNL     1      15.967  11.523 -11.951  1.00  0.00     0.201 A 
HETATM    7  O2  UNL     1      15.644  12.452 -12.730  1.00  0.00    -0.286 OA
HETATM    8  C7  UNL     1      15.002  10.613 -11.509  1.00  0.00     0.085 A 
HETATM    9  C8  UNL     1      13.687  10.768 -11.954  1.00  0.00     0.086 A 
HETATM   10  C10 UNL     1      12.732   9.874 -11.523  1.00  0.00     0.047 A 
HETATM   11  C11 UNL     1      13.116   8.857 -10.663  1.00  0.00    -0.023 A 
HETATM   12  C12 UNL     1      12.055   7.894 -10.205  1.00  0.00     0.051 C 
HETATM   13  C13 UNL     1      14.399   8.691 -10.215  1.00  0.00     0.106 A 
HETATM   14  C14 UNL     1      15.364   9.599 -10.656  1.00  0.00     0.126 A 
HETATM   15  O5  UNL     1      16.623   9.455 -10.233  1.00  0.00    -0.303 OA
HETATM   16  C15 UNL     1      17.543  10.275 -10.619  1.00  0.00     0.127 A 
HETATM   17  C16 UNL     1      18.827  10.057 -10.133  1.00  0.00     0.148 A 
ENDROOT
BRANCH  17  18
HETATM   18  O6  UNL     1      19.157   9.038  -9.285  1.00  0.00    -0.273 OA
BRANCH  18  19
HETATM   19  C17 UNL     1      19.482   9.156  -7.964  1.00  0.00     0.267 C 
HETATM   20  O7  UNL     1      18.723   9.826  -7.219  1.00  0.00    -0.264 OA
BRANCH  19  21
HETATM   21  C18 UNL     1      20.715   8.489  -7.462  1.00  0.00     0.078 C 
HETATM   22  C19 UNL     1      20.436   7.741  -6.169  1.00  0.00     0.020 C 
HETATM   23  C20 UNL     1      21.178   7.498  -8.540  1.00  0.00     0.020 C 
ENDBRANCH  19  21
ENDBRANCH  18  19
ENDBRANCH  17  18
BRANCH   1  24
HETATM   24  O1  UNL     1      21.120  10.800 -10.117  1.00  0.00    -0.351 OA
HETATM   25  C1  UNL     1      21.997  10.044 -10.931  1.00  0.00     0.210 C 
ENDBRANCH   1  24
BRANCH  13  26
HETATM   26  O4  UNL     1      14.755   7.665  -9.356  1.00  0.00    -0.357 OA
ATOM     27  H4  UNL     1      15.640   7.323  -9.314  1.00  0.00     0.217 HD
ENDBRANCH  13  26
BRANCH   9  28
HETATM   28  O3  UNL     1      13.421  11.813 -12.807  1.00  0.00    -0.355 OA
HETATM   29  C9  UNL     1      12.161  12.424 -12.901  1.00  0.00     0.210 C 
ENDBRANCH   9  28
TORSDOF 6
ENDMDL
MODEL 2
REMARK VINA RESULT: -7.437395415      1.960      6.345
REMARK  6 active torsions:
REMARK  status: ('A' for Active; 'I' for Inactive)
REMARK    1  A    between atoms: O1_2  and  C2_3 
REMARK    2  A    between atoms: C8_11  and  O3_12 
REMARK    3  A    between atoms: C13_17  and  O4_18 
REMARK    4  A    between atoms: C16_23  and  O6_24 
REMARK    5  A    between atoms: O6_24  and  C17_25 
REMARK    6  A    between atoms: C17_25  and  C18_27 
ROOT
HETATM    1  C2  UNL     1      14.092  11.206 -12.127  1.00  0.00     0.127 A 
HETATM    2  C3  UNL     1      14.736  12.103 -12.955  1.00  0.00     0.071 A 
HETATM    3 CL1  UNL     1      13.885  13.024 -14.175  1.00  0.00    -0.081 Cl
HETATM    4  C4  UNL     1      16.100  12.309 -12.848  1.00  0.00     0.045 A 
HETATM    5  C5  UNL     1      16.808  11.606 -11.903  1.00  0.00     0.053 A 
HETATM    6  C6  UNL     1      18.165  11.821 -11.807  1.00  0.00     0.201 A 
HETATM    7  O2  UNL     1      18.807  12.620 -12.529  1.00  0.00    -0.286 OA
HETATM    8  C7  UNL     1      18.825  11.076 -10.827  1.00  0.00     0.085 A 
HETATM    9  C8  UNL     1      20.204  11.245 -10.677  1.00  0.00     0.086 A 
HETATM   10  C10 UNL     1      20.861  10.514  -9.712  1.00  0.00     0.047 A 
HETATM   11  C11 UNL     1      20.126   9.638  -8.929  1.00  0.00    -0.023 A 
HETATM   12  C12 UNL     1      20.865   8.850  -7.883  1.00  0.00     0.051 C 
HETATM   13  C13 UNL     1      18.775   9.457  -9.062  1.00  0.00     0.106 A 
HETATM   14  C14 UNL     1      18.113  10.201 -10.042  1.00  0.00     0.126 A 
HETATM   15  O5  UNL     1      16.795  10.042 -10.188  1.00  0.00    -0.303 OA
HETATM   16  C15 UNL     1      16.148  10.713 -11.082  1.00  0.00     0.127 A 
HETATM   17  C16 UNL     1      14.779  10.489 -11.171  1.00  0.00     0.148 A 
ENDROOT
BRANCH  17  18
HETATM   18  O6  UNL     1      14.098   9.613 -10.375  1.00  0.00    -0.273 OA
BRANCH  18  19
HETATM   19  C17 UNL     1      14.198   8.251 -10.396  1.00  0.00     0.267 C 
HETATM   20  O7  UNL     1      14.969   7.696  -9.573  1.00  0.00    -0.264 OA
BRANCH  19  21
HETATM   21  C18 UNL     1      13.396   7.484 -11.388  1.00  0.00     0.078 C 
HETATM   22  C19 UNL     1      11.940   7.918 -11.356  1.00  0.00     0.020 C 
HETATM   23  C20 UNL     1      13.987   7.762 -12.777  1.00  0.00     0.020 C 
ENDBRANCH  19  21
ENDBRANCH  18  19
ENDBRANCH  17  18
BRANCH   1  24
HETATM   24  O1  UNL     1      12.722  11.054 -12.294  1.00  0.00    -0.351 OA
HETATM   25  C1  UNL     1      11.876  11.856 -11.493  1.00  0.00     0.210 C 
ENDBRANCH   1  24
BRANCH  13  26
HETATM   26  O4  UNL     1      18.066   8.575  -8.266  1.00  0.00    -0.357 OA
ATOM     27  H4  UNL     1      17.135   8.676  -8.101  1.00  0.00     0.217 HD
ENDBRANCH  13  26
BRANCH   9  28
HETATM   28  O3  UNL     1      20.830  12.143 -11.510  1.00  0.00    -0.355 OA
HETATM   29  C9  UNL     1      22.192  12.063 -11.837  1.00  0.00     0.210 C 
ENDBRANCH   9  28
TORSDOF 6
ENDMDL
MODEL 3
REMARK VINA RESULT: -7.197188862      1.495      2.283
REMARK  6 active torsions:
REMARK  status: ('A' for Active; 'I' for Inactive)
REMARK    1  A    between atoms: O1_2  and  C2_3 
REMARK    2  A    between atoms: C8_11  and  O3_12 
REMARK    3  A    between atoms: C13_17  and  O4_18 
REMARK    4  A    between atoms: C16_23  and  O6_24 
REMARK    5  A    between atoms: O6_24  and  C17_25 
REMARK    6  A    between atoms: C17_25  and  C18_27 
ROOT
HETATM    1  C2  UNL     1      20.705  13.001 -11.705  1.00  0.00     0.127 A 
HETATM    2  C3  UNL     1      20.056  13.849 -12.579  1.00  0.00     0.071 A 
HETATM    3 CL1  UNL     1      20.871  15.189 -13.354  1.00  0.00    -0.081 Cl
HETATM    4  C4  UNL     1      18.718  13.667 -12.879  1.00  0.00     0.045 A 
HETATM    5  C5  UNL     1      18.040  12.626 -12.292  1.00  0.00     0.053 A 
HETATM    6  C6  UNL     1      16.708  12.456 -12.599  1.00  0.00     0.201 A 
HETATM    7  O2  UNL     1      16.063  13.191 -13.383  1.00  0.00    -0.286 OA
HETATM    8  C7  UNL     1      16.077  11.380 -11.969  1.00  0.00     0.085 A 
HETATM    9  C8  UNL     1      14.725  11.151 -12.236  1.00  0.00     0.086 A 
HETATM   10  C10 UNL     1      14.097  10.092 -11.619  1.00  0.00     0.047 A 
HETATM   11  C11 UNL     1      14.833   9.296 -10.756  1.00  0.00    -0.023 A 
HETATM   12  C12 UNL     1      14.126   8.146 -10.094  1.00  0.00     0.051 C 
HETATM   13  C13 UNL     1      16.158   9.505 -10.481  1.00  0.00     0.106 A 
HETATM   14  C14 UNL     1      16.791  10.580 -11.109  1.00  0.00     0.126 A 
HETATM   15  O5  UNL     1      18.084  10.802 -10.857  1.00  0.00    -0.303 OA
HETATM   16  C15 UNL     1      18.703  11.786 -11.419  1.00  0.00     0.127 A 
HETATM   17  C16 UNL     1      20.047  11.949 -11.103  1.00  0.00     0.148 A 
ENDROOT
BRANCH  17  18
HETATM   18  O6  UNL     1      20.731  11.136 -10.244  1.00  0.00    -0.273 OA
BRANCH  18  19
HETATM   19  C17 UNL     1      21.203   9.884 -10.516  1.00  0.00     0.267 C 
HETATM   20  O7  UNL     1      21.510   9.606 -11.703  1.00  0.00    -0.264 OA
BRANCH  19  21
HETATM   21  C18 UNL     1      21.335   8.905  -9.402  1.00  0.00     0.078 C 
HETATM   22  C19 UNL     1      20.174   9.033  -8.431  1.00  0.00     0.020 C 
HETATM   23  C20 UNL     1      21.338   7.499 -10.020  1.00  0.00     0.020 C 
ENDBRANCH  19  21
ENDBRANCH  18  19
ENDBRANCH  17  18
BRANCH   1  24
HETATM   24  O1  UNL     1      22.047  13.247 -11.454  1.00  0.00    -0.351 OA
HETATM   25  C1  UNL     1      22.991  12.680 -12.343  1.00  0.00     0.210 C 
ENDBRANCH   1  24
BRANCH  13  26
HETATM   26  O4  UNL     1      16.870   8.693  -9.614  1.00  0.00    -0.357 OA
ATOM     27  H4  UNL     1      17.762   8.891  -9.351  1.00  0.00     0.217 HD
ENDBRANCH  13  26
BRANCH   9  28
HETATM   28  O3  UNL     1      14.095  12.006 -13.110  1.00  0.00    -0.355 OA
HETATM   29  C9  UNL     1      12.715  12.259 -13.072  1.00  0.00     0.210 C 
ENDBRANCH   9  28
TORSDOF 6
ENDMDL
MODEL 4
REMARK VINA RESULT: -7.097881802      2.198      6.397
REMARK  6 active torsions:
REMARK  status: ('A' for Active; 'I' for Inactive)
REMARK    1  A    between atoms: O1_2  and  C2_3 
REMARK    2  A    between atoms: C8_11  and  O3_12 
REMARK    3  A    between atoms: C13_17  and  O4_18 
REMARK    4  A    between atoms: C16_23  and  O6_24 
REMARK    5  A    between atoms: O6_24  and  C17_25 
REMARK    6  A    between atoms: C17_25  and  C18_27 
ROOT
HETATM    1  C2  UNL     1      13.745  11.703 -12.568  1.00  0.00     0.127 A 
HETATM    2  C3  UNL     1      14.407  12.559 -13.425  1.00  0.00     0.071 A 
HETATM    3 CL1  UNL     1      13.568  13.481 -14.653  1.00  0.00    -0.081 Cl
HETATM    4  C4  UNL     1      15.778  12.720 -13.344  1.00  0.00     0.045 A 
HETATM    5  C5  UNL     1      16.477  12.013 -12.393  1.00  0.00     0.053 A 
HETATM    6  C6  UNL     1      17.841  12.183 -12.323  1.00  0.00     0.201 A 
HETATM    7  O2  UNL     1      18.500  12.943 -13.072  1.00  0.00    -0.286 OA
HETATM    8  C7  UNL     1      18.491  11.437 -11.337  1.00  0.00     0.085 A 
HETATM    9  C8  UNL     1      19.877  11.562 -11.211  1.00  0.00     0.086 A 
HETATM   10  C10 UNL     1      20.524  10.830 -10.240  1.00  0.00     0.047 A 
HETATM   11  C11 UNL     1      19.772   9.997  -9.427  1.00  0.00    -0.023 A 
HETATM   12  C12 UNL     1      20.500   9.207  -8.375  1.00  0.00     0.051 C 
HETATM   13  C13 UNL     1      18.414   9.860  -9.535  1.00  0.00     0.106 A 
HETATM   14  C14 UNL     1      17.762  10.605 -10.521  1.00  0.00     0.126 A 
HETATM   15  O5  UNL     1      16.438  10.489 -10.644  1.00  0.00    -0.303 OA
HETATM   16  C15 UNL     1      15.800  11.162 -11.544  1.00  0.00     0.127 A 
HETATM   17  C16 UNL     1      14.422  10.984 -11.607  1.00  0.00     0.148 A 
ENDROOT
BRANCH  17  18
HETATM   18  O6  UNL     1      13.724  10.149 -10.781  1.00  0.00    -0.273 OA
BRANCH  18  19
HETATM   19  C17 UNL     1      13.025   9.038 -11.154  1.00  0.00     0.267 C 
HETATM   20  O7  UNL     1      11.769   9.102 -11.177  1.00  0.00    -0.264 OA
BRANCH  19  21
HETATM   21  C18 UNL     1      13.772   7.802 -11.517  1.00  0.00     0.078 C 
HETATM   22  C19 UNL     1      14.257   7.868 -12.956  1.00  0.00     0.020 C 
HETATM   23  C20 UNL     1      14.977   7.695 -10.572  1.00  0.00     0.020 C 
ENDBRANCH  19  21
ENDBRANCH  18  19
ENDBRANCH  17  18
BRANCH   1  24
HETATM   24  O1  UNL     1      12.369  11.595 -12.711  1.00  0.00    -0.351 OA
HETATM   25  C1  UNL     1      11.566  12.514 -11.995  1.00  0.00     0.210 C 
ENDBRANCH   1  24
BRANCH  13  26
HETATM   26  O4  UNL     1      17.687   9.021  -8.709  1.00  0.00    -0.357 OA
ATOM     27  H4  UNL     1      16.765   8.842  -8.852  1.00  0.00     0.217 HD
ENDBRANCH  13  26
BRANCH   9  28
HETATM   28  O3  UNL     1      20.520  12.419 -12.073  1.00  0.00    -0.355 OA
HETATM   29  C9  UNL     1      21.905  12.642 -12.040  1.00  0.00     0.210 C 
ENDBRANCH   9  28
TORSDOF 6
ENDMDL
MODEL 5
REMARK VINA RESULT: -7.095220258      1.772      6.760
REMARK  6 active torsions:
REMARK  status: ('A' for Active; 'I' for Inactive)
REMARK    1  A    between atoms: O1_2  and  C2_3 
REMARK    2  A    between atoms: C8_11  and  O3_12 
REMARK    3  A    between atoms: C13_17  and  O4_18 
REMARK    4  A    between atoms: C16_23  and  O6_24 
REMARK    5  A    between atoms: O6_24  and  C17_25 
REMARK    6  A    between atoms: C17_25  and  C18_27 
ROOT
HETATM    1  C2  UNL     1      18.561  10.952 -11.769  1.00  0.00     0.127 A 
HETATM    2  C3  UNL     1      19.838  10.687 -12.220  1.00  0.00     0.071 A 
HETATM    3 CL1  UNL     1      20.434  11.300 -13.746  1.00  0.00    -0.081 Cl
HETATM    4  C4  UNL     1      20.706   9.914 -11.469  1.00  0.00     0.045 A 
HETATM    5  C5  UNL     1      20.279   9.412 -10.263  1.00  0.00     0.053 A 
HETATM    6  C6  UNL     1      21.153   8.645  -9.527  1.00  0.00     0.201 A 
HETATM    7  O2  UNL     1      22.324   8.368  -9.881  1.00  0.00    -0.286 OA
HETATM    8  C7  UNL     1      20.657   8.165  -8.311  1.00  0.00     0.085 A 
HETATM    9  C8  UNL     1      21.493   7.379  -7.514  1.00  0.00     0.086 A 
HETATM   10  C10 UNL     1      21.011   6.903  -6.315  1.00  0.00     0.047 A 
HETATM   11  C11 UNL     1      19.713   7.224  -5.948  1.00  0.00    -0.023 A 
HETATM   12  C12 UNL     1      19.209   6.693  -4.635  1.00  0.00     0.051 C 
HETATM   13  C13 UNL     1      18.879   7.992  -6.716  1.00  0.00     0.106 A 
HETATM   14  C14 UNL     1      19.373   8.472  -7.932  1.00  0.00     0.126 A 
HETATM   15  O5  UNL     1      18.577   9.224  -8.696  1.00  0.00    -0.303 OA
HETATM   16  C15 UNL     1      18.998   9.687  -9.826  1.00  0.00     0.127 A 
HETATM   17  C16 UNL     1      18.108  10.460 -10.563  1.00  0.00     0.148 A 
ENDROOT
BRANCH  17  18
HETATM   18  O6  UNL     1      16.836  10.750 -10.158  1.00  0.00    -0.273 OA
BRANCH  18  19
HETATM   19  C17 UNL     1      15.692  10.135 -10.579  1.00  0.00     0.267 C 
HETATM   20  O7  UNL     1      15.667   8.879 -10.617  1.00  0.00    -0.264 OA
BRANCH  19  21
HETATM   21  C18 UNL     1      14.526  10.972 -10.975  1.00  0.00     0.078 C 
HETATM   22  C19 UNL     1      14.332  10.950 -12.481  1.00  0.00     0.020 C 
HETATM   23  C20 UNL     1      13.283  10.390 -10.286  1.00  0.00     0.020 C 
ENDBRANCH  19  21
ENDBRANCH  18  19
ENDBRANCH  17  18
BRANCH   1  24
HETATM   24  O1  UNL     1      17.748  11.734 -12.577  1.00  0.00    -0.351 OA
HETATM   25  C1  UNL     1      17.687  13.119 -12.292  1.00  0.00     0.210 C 
ENDBRANCH   1  24
BRANCH  13  26
HETATM   26  O4  UNL     1      17.587   8.297  -6.325  1.00  0.00    -0.357 OA
ATOM     27  H4  UNL     1      17.107   9.033  -6.688  1.00  0.00     0.217 HD
ENDBRANCH  13  26
BRANCH   9  28
HETATM   28  O3  UNL     1      22.762   7.125  -7.979  1.00  0.00    -0.355 OA
HETATM   29  C9  UNL     1      23.483   5.968  -7.644  1.00  0.00     0.210 C 
ENDBRANCH   9  28
TORSDOF 6
ENDMDL
