MODEL 1
REMARK VINA RESULT: -7.927053194      0.000      0.000
REMARK  3 active torsions:
REMARK  status: ('A' for Active; 'I' for Inactive)
REMARK    1  A    between atoms: O1_2  and  C2_3 
REMARK    2  A    between atoms: C3_4  and  C4_5 
REMARK    3  A    between atoms: C13_19  and  N2_20 
ROOT
HETATM    1  C2  UNL     1      12.732  10.370 -11.370  1.00  0.00     0.117 C 
HETATM    2  C3  UNL     1      12.981  11.453 -12.229  1.00  0.00     0.016 C 
HETATM    3  C5  UNL     1      14.223  11.796 -12.716  1.00  0.00     0.030 C 
HETATM    4  C6  UNL     1      15.494  11.560 -12.206  1.00  0.00     0.001 A 
HETATM    5  C7  UNL     1      16.435  12.460 -12.650  1.00  0.00     0.052 A 
HETATM    6 CL1  UNL     1      15.943  13.727 -13.753  1.00  0.00    -0.083 Cl
HETATM    7  C8  UNL     1      17.761  12.349 -12.221  1.00  0.00    -0.027 A 
HETATM    8  C9  UNL     1      18.120  11.364 -11.372  1.00  0.00    -0.022 A 
HETATM    9  C10 UNL     1      17.142  10.467 -10.940  1.00  0.00     0.026 A 
HETATM   10  C11 UNL     1      15.827  10.541 -11.339  1.00  0.00     0.029 A 
HETATM   11  C12 UNL     1      15.032   9.550 -10.786  1.00  0.00     0.218 C 
HETATM   12  O2  UNL     1      15.633   8.552 -10.321  1.00  0.00    -0.285 OA
HETATM   13  C13 UNL     1      13.649   9.574 -10.708  1.00  0.00     0.187 C 
HETATM   14  C14 UNL     1      19.405  10.989 -10.752  1.00  0.00     0.047 C 
HETATM   15  C15 UNL     1      19.804   9.654 -11.404  1.00  0.00     0.043 C 
HETATM   16  C16 UNL     1      19.075  10.629  -9.298  1.00  0.00     0.043 C 
HETATM   17  N3  UNL     1      20.436  11.920 -10.728  1.00  0.00    -0.401 N 
ATOM     18  H3  UNL     1      20.938  12.082  -9.855  1.00  0.00     0.155 HD
HETATM   19  C17 UNL     1      20.803  12.643 -11.874  1.00  0.00     0.019 C 
HETATM   20  C18 UNL     1      21.093  11.833 -13.105  1.00  0.00     0.037 C 
HETATM   21  C19 UNL     1      22.121  13.344 -11.543  1.00  0.00     0.037 C 
HETATM   22  C20 UNL     1      19.827  13.754 -12.099  1.00  0.00     0.034 C 
HETATM   23  C21 UNL     1      18.590  13.410 -12.813  1.00  0.00     0.043 C 
ENDROOT
BRANCH   2  24
HETATM   24  C4  UNL     1      11.822  12.225 -12.600  1.00  0.00     0.094 C 
HETATM   25  N1  UNL     1      11.917  13.387 -13.083  1.00  0.00    -0.407 N 
ATOM     26  H12 UNL     1      12.851  13.777 -13.209  1.00  0.00     0.155 HD
ATOM     27  H11 UNL     1      11.096  13.933 -13.346  1.00  0.00     0.155 HD
ENDBRANCH   2  24
BRANCH   1  28
HETATM   28  O1  UNL     1      11.380  10.109 -11.199  1.00  0.00    -0.352 OA
HETATM   29  C1  UNL     1      10.564  10.701 -10.224  1.00  0.00     0.210 C 
ENDBRANCH   1  28
BRANCH  13  30
HETATM   30  N2  UNL     1      13.069   8.635  -9.806  1.00  0.00    -0.108 N 
HETATM   31  O3  UNL     1      12.750   7.525 -10.245  1.00  0.00    -0.532 OA
HETATM   32  O4  UNL     1      12.846   8.902  -8.483  1.00  0.00    -0.532 OA
ENDBRANCH  13  30
TORSDOF 3
ENDMDL
MODEL 2
REMARK VINA RESULT: -7.324253265      2.311      4.121
REMARK  3 active torsions:
REMARK  status: ('A' for Active; 'I' for Inactive)
REMARK    1  A    between atoms: O1_2  and  C2_3 
REMARK    2  A    between atoms: C3_4  and  C4_5 
REMARK    3  A    between atoms: C13_19  and  N2_20 
ROOT
HETATM    1  C2  UNL     1      14.872   9.729 -11.430  1.00  0.00     0.117 C 
HETATM    2  C3  UNL     1      15.925   9.221 -10.651  1.00  0.00     0.016 C 
HETATM    3  C5  UNL     1      17.097   9.894 -10.385  1.00  0.00     0.030 C 
HETATM    4  C6  UNL     1      17.747  10.897 -11.094  1.00  0.00     0.001 A 
HETATM    5  C7  UNL     1      19.097  10.960 -10.834  1.00  0.00     0.052 A 
HETATM    6 CL1  UNL     1      19.796   9.829  -9.695  1.00  0.00    -0.083 Cl
HETATM    7  C8  UNL     1      19.885  11.920 -11.475  1.00  0.00    -0.027 A 
HETATM    8  C9  UNL     1      19.327  12.785 -12.348  1.00  0.00    -0.022 A 
HETATM    9  C10 UNL     1      17.955  12.695 -12.590  1.00  0.00     0.026 A 
HETATM   10  C11 UNL     1      17.145  11.764 -11.979  1.00  0.00     0.029 A 
HETATM   11  C12 UNL     1      15.819  11.857 -12.369  1.00  0.00     0.218 C 
HETATM   12  O2  UNL     1      15.471  12.938 -12.903  1.00  0.00    -0.285 OA
HETATM   13  C13 UNL     1      14.861  10.867 -12.216  1.00  0.00     0.187 C 
HETATM   14  C14 UNL     1      19.874  13.885 -13.164  1.00  0.00     0.047 C 
HETATM   15  C15 UNL     1      19.299  15.175 -12.556  1.00  0.00     0.043 C 
HETATM   16  C16 UNL     1      19.195  13.764 -14.534  1.00  0.00     0.043 C 
HETATM   17  N3  UNL     1      21.245  13.941 -13.382  1.00  0.00    -0.401 N 
ATOM     18  H3  UNL     1      21.592  14.089 -14.329  1.00  0.00     0.155 HD
HETATM   19  C17 UNL     1      22.164  13.800 -12.330  1.00  0.00     0.019 C 
HETATM   20  C18 UNL     1      21.962  14.701 -11.145  1.00  0.00     0.037 C 
HETATM   21  C19 UNL     1      23.532  14.190 -12.892  1.00  0.00     0.037 C 
HETATM   22  C20 UNL     1      22.298  12.354 -11.972  1.00  0.00     0.034 C 
HETATM   23  C21 UNL     1      21.290  11.807 -11.054  1.00  0.00     0.043 C 
ENDROOT
BRANCH   2  24
HETATM   24  C4  UNL     1      15.710   7.902 -10.111  1.00  0.00     0.094 C 
HETATM   25  N1  UNL     1      14.907   7.690  -9.160  1.00  0.00    -0.407 N 
ATOM     26  H12 UNL     1      14.402   8.488  -8.773  1.00  0.00     0.155 HD
ATOM     27  H11 UNL     1      14.756   6.756  -8.778  1.00  0.00     0.155 HD
ENDBRANCH   2  24
BRANCH   1  28
HETATM   28  O1  UNL     1      13.723   8.954 -11.368  1.00  0.00    -0.352 OA
HETATM   29  C1  UNL     1      13.396   7.928 -12.266  1.00  0.00     0.210 C 
ENDBRANCH   1  28
BRANCH  13  30
HETATM   30  N2  UNL     1      13.674  11.037 -12.987  1.00  0.00    -0.108 N 
HETATM   31  O3  UNL     1      13.728  10.803 -14.199  1.00  0.00    -0.532 OA
HETATM   32  O4  UNL     1      12.483  11.447 -12.454  1.00  0.00    -0.532 OA
ENDBRANCH  13  30
TORSDOF 3
ENDMDL
MODEL 3
REMARK VINA RESULT: -7.298077981      2.535      4.218
REMARK  3 active torsions:
REMARK  status: ('A' for Active; 'I' for Inactive)
REMARK    1  A    between atoms: O1_2  and  C2_3 
REMARK    2  A    between atoms: C3_4  and  C4_5 
REMARK    3  A    between atoms: C13_19  and  N2_20 
ROOT
HETATM    1  C2  UNL     1      14.252  11.330 -12.326  1.00  0.00     0.117 C 
HETATM    2  C3  UNL     1      14.995  10.769 -11.274  1.00  0.00     0.016 C 
HETATM    3  C5  UNL     1      16.256  11.178 -10.900  1.00  0.00     0.030 C 
HETATM    4  C6  UNL     1      17.257  11.809 -11.629  1.00  0.00     0.001 A 
HETATM    5  C7  UNL     1      18.517  11.598 -11.117  1.00  0.00     0.052 A 
HETATM    6 CL1  UNL     1      18.696  10.616  -9.679  1.00  0.00    -0.083 Cl
HETATM    7  C8  UNL     1      19.627  12.170 -11.745  1.00  0.00    -0.027 A 
HETATM    8  C9  UNL     1      19.468  12.927 -12.850  1.00  0.00    -0.022 A 
HETATM    9  C10 UNL     1      18.177  13.121 -13.344  1.00  0.00     0.026 A 
HETATM   10  C11 UNL     1      17.058  12.576 -12.756  1.00  0.00     0.029 A 
HETATM   11  C12 UNL     1      15.883  12.899 -13.414  1.00  0.00     0.218 C 
HETATM   12  O2  UNL     1      15.934  13.884 -14.190  1.00  0.00    -0.285 OA
HETATM   13  C13 UNL     1      14.676  12.231 -13.286  1.00  0.00     0.187 C 
HETATM   14  C14 UNL     1      20.415  13.650 -13.720  1.00  0.00     0.047 C 
HETATM   15  C15 UNL     1      20.139  15.144 -13.478  1.00  0.00     0.043 C 
HETATM   16  C16 UNL     1      19.938  13.395 -15.156  1.00  0.00     0.043 C 
HETATM   17  N3  UNL     1      21.763  13.322 -13.664  1.00  0.00    -0.401 N 
ATOM     18  H3  UNL     1      22.273  13.165 -14.533  1.00  0.00     0.155 HD
HETATM   19  C17 UNL     1      22.441  13.199 -12.440  1.00  0.00     0.019 C 
HETATM   20  C18 UNL     1      22.326  14.364 -11.498  1.00  0.00     0.037 C 
HETATM   21  C19 UNL     1      23.930  13.110 -12.775  1.00  0.00     0.037 C 
HETATM   22  C20 UNL     1      22.111  11.882 -11.814  1.00  0.00     0.034 C 
HETATM   23  C21 UNL     1      20.867  11.815 -11.037  1.00  0.00     0.043 C 
ENDROOT
BRANCH   2  24
HETATM   24  C4  UNL     1      14.344   9.697 -10.564  1.00  0.00     0.094 C 
HETATM   25  N1  UNL     1      14.981   8.700 -10.124  1.00  0.00    -0.407 N 
ATOM     26  H12 UNL     1      15.989   8.669 -10.284  1.00  0.00     0.155 HD
ATOM     27  H11 UNL     1      14.521   7.941  -9.622  1.00  0.00     0.155 HD
ENDBRANCH   2  24
BRANCH   1  28
HETATM   28  O1  UNL     1      12.937  10.891 -12.361  1.00  0.00    -0.352 OA
HETATM   29  C1  UNL     1      11.887  11.438 -11.609  1.00  0.00     0.210 C 
ENDBRANCH   1  28
BRANCH  13  30
HETATM   30  N2  UNL     1      13.710  12.508 -14.298  1.00  0.00    -0.108 N 
HETATM   31  O3  UNL     1      13.769  11.864 -15.351  1.00  0.00    -0.532 OA
HETATM   32  O4  UNL     1      12.727  13.449 -14.162  1.00  0.00    -0.532 OA
ENDBRANCH  13  30
TORSDOF 3
ENDMDL
MODEL 4
REMARK VINA RESULT: -7.208252739      5.811      9.875
REMARK  3 active torsions:
REMARK  status: ('A' for Active; 'I' for Inactive)
REMARK    1  A    between atoms: O1_2  and  C2_3 
REMARK    2  A    between atoms: C3_4  and  C4_5 
REMARK    3  A    between atoms: C13_19  and  N2_20 
ROOT
HETATM    1  C2  UNL     1      24.707  16.198 -13.856  1.00  0.00     0.117 C 
HETATM    2  C3  UNL     1      23.950  16.788 -12.830  1.00  0.00     0.016 C 
HETATM    3  C5  UNL     1      23.114  16.100 -11.979  1.00  0.00     0.030 C 
HETATM    4  C6  UNL     1      22.447  14.892 -12.144  1.00  0.00     0.001 A 
HETATM    5  C7  UNL     1      21.333  14.772 -11.345  1.00  0.00     0.052 A 
HETATM    6 CL1  UNL     1      20.915  16.087 -10.268  1.00  0.00    -0.083 Cl
HETATM    7  C8  UNL     1      20.559  13.610 -11.402  1.00  0.00    -0.027 A 
HETATM    8  C9  UNL     1      20.899  12.606 -12.237  1.00  0.00    -0.022 A 
HETATM    9  C10 UNL     1      22.035  12.759 -13.034  1.00  0.00     0.026 A 
HETATM   10  C11 UNL     1      22.824  13.887 -13.008  1.00  0.00     0.029 A 
HETATM   11  C12 UNL     1      23.897  13.821 -13.881  1.00  0.00     0.218 C 
HETATM   12  O2  UNL     1      24.215  12.677 -14.285  1.00  0.00    -0.285 OA
HETATM   13  C13 UNL     1      24.636  14.903 -14.335  1.00  0.00     0.187 C 
HETATM   14  C14 UNL     1      20.303  11.287 -12.520  1.00  0.00     0.047 C 
HETATM   15  C15 UNL     1      21.298  10.256 -11.961  1.00  0.00     0.043 C 
HETATM   16  C16 UNL     1      20.380  11.115 -14.043  1.00  0.00     0.043 C 
HETATM   17  N3  UNL     1      18.989  11.049 -12.140  1.00  0.00    -0.401 N 
ATOM     18  H3  UNL     1      18.345  10.631 -12.811  1.00  0.00     0.155 HD
HETATM   19  C17 UNL     1      18.524  11.369 -10.854  1.00  0.00     0.019 C 
HETATM   20  C18 UNL     1      19.325  10.826  -9.704  1.00  0.00     0.037 C 
HETATM   21  C19 UNL     1      17.146  10.721 -10.715  1.00  0.00     0.037 C 
HETATM   22  C20 UNL     1      18.265  12.840 -10.767  1.00  0.00     0.034 C 
HETATM   23  C21 UNL     1      19.421  13.696 -10.473  1.00  0.00     0.043 C 
ENDROOT
BRANCH   2  24
HETATM   24  C4  UNL     1      24.099  18.216 -12.699  1.00  0.00     0.094 C 
HETATM   25  N1  UNL     1      23.351  19.027 -13.314  1.00  0.00    -0.407 N 
ATOM     26  H12 UNL     1      22.624  18.643 -13.918  1.00  0.00     0.155 HD
ATOM     27  H11 UNL     1      23.456  20.037 -13.221  1.00  0.00     0.155 HD
ENDBRANCH   2  24
BRANCH   1  28
HETATM   28  O1  UNL     1      25.626  17.067 -14.426  1.00  0.00    -0.352 OA
HETATM   29  C1  UNL     1      26.867  17.404 -13.868  1.00  0.00     0.210 C 
ENDBRANCH   1  28
BRANCH  13  30
HETATM   30  N2  UNL     1      25.454  14.652 -15.475  1.00  0.00    -0.108 N 
HETATM   31  O3  UNL     1      24.967  14.842 -16.594  1.00  0.00    -0.532 OA
HETATM   32  O4  UNL     1      26.746  14.211 -15.392  1.00  0.00    -0.532 OA
ENDBRANCH  13  30
TORSDOF 3
ENDMDL
MODEL 5
REMARK VINA RESULT: -7.120244573      0.930      1.152
REMARK  3 active torsions:
REMARK  status: ('A' for Active; 'I' for Inactive)
REMARK    1  A    between atoms: O1_2  and  C2_3 
REMARK    2  A    between atoms: C3_4  and  C4_5 
REMARK    3  A    between atoms: C13_19  and  N2_20 
ROOT
HETATM    1  C2  UNL     1      12.985  11.163 -12.170  1.00  0.00     0.117 C 
HETATM    2  C3  UNL     1      13.314  12.246 -13.001  1.00  0.00     0.016 C 
HETATM    3  C5  UNL     1      14.592  12.559 -13.410  1.00  0.00     0.030 C 
HETATM    4  C6  UNL     1      15.823  12.284 -12.827  1.00  0.00     0.001 A 
HETATM    5  C7  UNL     1      16.813  13.162 -13.205  1.00  0.00     0.052 A 
HETATM    6 CL1  UNL     1      16.422  14.451 -14.323  1.00  0.00    -0.083 Cl
HETATM    7  C8  UNL     1      18.107  13.011 -12.699  1.00  0.00    -0.027 A 
HETATM    8  C9  UNL     1      18.389  12.009 -11.840  1.00  0.00    -0.022 A 
HETATM    9  C10 UNL     1      17.362  11.135 -11.476  1.00  0.00     0.026 A 
HETATM   10  C11 UNL     1      16.076  11.249 -11.952  1.00  0.00     0.029 A 
HETATM   11  C12 UNL     1      15.224  10.276 -11.458  1.00  0.00     0.218 C 
HETATM   12  O2  UNL     1      15.769   9.257 -10.968  1.00  0.00    -0.285 OA
HETATM   13  C13 UNL     1      13.839  10.336 -11.462  1.00  0.00     0.187 C 
HETATM   14  C14 UNL     1      19.623  11.594 -11.148  1.00  0.00     0.047 C 
HETATM   15  C15 UNL     1      20.024  10.254 -11.788  1.00  0.00     0.043 C 
HETATM   16  C16 UNL     1      19.197  11.230  -9.720  1.00  0.00     0.043 C 
HETATM   17  N3  UNL     1      20.675  12.496 -11.053  1.00  0.00    -0.401 N 
ATOM     18  H3  UNL     1      21.128  12.637 -10.150  1.00  0.00     0.155 HD
HETATM   19  C17 UNL     1      21.129  13.219 -12.167  1.00  0.00     0.019 C 
HETATM   20  C18 UNL     1      21.471  12.412 -13.387  1.00  0.00     0.037 C 
HETATM   21  C19 UNL     1      22.444  13.880 -11.751  1.00  0.00     0.037 C 
HETATM   22  C20 UNL     1      20.199  14.358 -12.439  1.00  0.00     0.034 C 
HETATM   23  C21 UNL     1      18.999  14.054 -13.229  1.00  0.00     0.043 C 
ENDROOT
BRANCH   2  24
HETATM   24  C4  UNL     1      12.200  13.052 -13.433  1.00  0.00     0.094 C 
HETATM   25  N1  UNL     1      12.354  14.075 -14.156  1.00  0.00    -0.407 N 
ATOM     26  H12 UNL     1      13.303  14.325 -14.436  1.00  0.00     0.155 HD
ATOM     27  H11 UNL     1      11.565  14.645 -14.462  1.00  0.00     0.155 HD
ENDBRANCH   2  24
BRANCH   1  28
HETATM   28  O1  UNL     1      11.619  10.937 -12.082  1.00  0.00    -0.352 OA
HETATM   29  C1  UNL     1      10.768  11.515 -11.129  1.00  0.00     0.210 C 
ENDBRANCH   1  28
BRANCH  13  30
HETATM   30  N2  UNL     1      13.181   9.406 -10.606  1.00  0.00    -0.108 N 
HETATM   31  O3  UNL     1      13.070   9.694  -9.409  1.00  0.00    -0.532 OA
HETATM   32  O4  UNL     1      12.670   8.214 -11.040  1.00  0.00    -0.532 OA
ENDBRANCH  13  30
TORSDOF 3
ENDMDL
