MODEL 1
REMARK VINA RESULT: -7.134932267      0.000      0.000
REMARK  7 active torsions:
REMARK  status: ('A' for Active; 'I' for Inactive)
REMARK    1  A    between atoms: C4_4  and  C5_5 
REMARK    2  A    between atoms: C5_5  and  N1_6 
REMARK       I    between atoms: N1_6  and  C6_8 
REMARK    3  A    between atoms: C6_8  and  S1_10 
REMARK    4  A    between atoms: S1_10  and  S2_11 
REMARK    5  A    between atoms: S2_11  and  C7_12 
REMARK    6  A    between atoms: C7_12  and  N2_14 
REMARK    7  A    between atoms: N2_14  and  C8_16 
ROOT
HETATM    1  C7  UNL     1       9.456   7.872 -12.035  1.00  0.00     0.150 C 
HETATM    2  S3  UNL     1       9.946   9.282 -11.252  1.00  0.00    -0.052 SA
ENDROOT
BRANCH   1   3
HETATM    3  S2  UNL     1       8.317   8.129 -13.356  1.00  0.00    -0.018 SA
BRANCH   3   4
HETATM    4  S1  UNL     1       9.000   9.517 -14.810  1.00  0.00     0.011 SA
BRANCH   4   5
HETATM    5  C6  UNL     1       9.732   8.665 -16.210  1.00  0.00     0.291 C 
HETATM    6  N1  UNL     1      11.021   8.088 -16.124  1.00  0.00    -0.348 N 
ATOM      7  H1  UNL     1      11.534   8.166 -15.245  1.00  0.00     0.163 HD
HETATM    8  O1  UNL     1       9.036   8.620 -17.241  1.00  0.00    -0.260 OA
BRANCH   6   9
HETATM    9  C5  UNL     1      11.638   7.399 -17.218  1.00  0.00     0.151 C 
BRANCH   9  10
HETATM   10  C4  UNL     1      13.035   7.062 -16.960  1.00  0.00    -0.005 C 
HETATM   11  C2  UNL     1      13.491   5.817 -16.948  1.00  0.00    -0.090 C 
HETATM   12  C1  UNL     1      14.956   5.558 -16.675  1.00  0.00     0.042 C 
HETATM   13  C3  UNL     1      12.646   4.619 -17.165  1.00  0.00     0.042 C 
ENDBRANCH   9  10
ENDBRANCH   6   9
ENDBRANCH   4   5
ENDBRANCH   3   4
ENDBRANCH   1   3
BRANCH   1  14
HETATM   14  N2  UNL     1       9.973   6.683 -11.590  1.00  0.00    -0.339 N 
ATOM     15  H2  UNL     1       9.502   6.284 -10.778  1.00  0.00     0.167 HD
BRANCH  14  16
HETATM   16  C8  UNL     1      11.045   5.935 -12.078  1.00  0.00     0.072 A 
HETATM   17  C9  UNL     1      11.726   6.348 -13.190  1.00  0.00     0.033 A 
HETATM   18  C10 UNL     1      12.856   5.643 -13.588  1.00  0.00     0.009 A 
HETATM   19  C11 UNL     1      13.287   4.556 -12.886  1.00  0.00    -0.059 A 
HETATM   20  C12 UNL     1      14.491   3.798 -13.304  1.00  0.00     0.048 C 
HETATM   21  C13 UNL     1      12.600   4.151 -11.773  1.00  0.00     0.051 A 
HETATM   22  C14 UNL     1      11.501   4.823 -11.373  1.00  0.00     0.143 A 
HETATM   23  F1  UNL     1      10.814   4.430 -10.273  1.00  0.00    -0.204 F 
ENDBRANCH  14  16
ENDBRANCH   1  14
TORSDOF 7
ENDMDL
MODEL 2
REMARK VINA RESULT: -7.046433435      0.714      1.052
REMARK  7 active torsions:
REMARK  status: ('A' for Active; 'I' for Inactive)
REMARK    1  A    between atoms: C4_4  and  C5_5 
REMARK    2  A    between atoms: C5_5  and  N1_6 
REMARK       I    between atoms: N1_6  and  C6_8 
REMARK    3  A    between atoms: C6_8  and  S1_10 
REMARK    4  A    between atoms: S1_10  and  S2_11 
REMARK    5  A    between atoms: S2_11  and  C7_12 
REMARK    6  A    between atoms: C7_12  and  N2_14 
REMARK    7  A    between atoms: N2_14  and  C8_16 
ROOT
HETATM    1  C7  UNL     1       9.288   8.253 -12.881  1.00  0.00     0.150 C 
HETATM    2  S3  UNL     1       7.780   7.912 -13.553  1.00  0.00    -0.052 SA
ENDROOT
BRANCH   1   3
HETATM    3  S2  UNL     1       9.925   9.845 -13.290  1.00  0.00    -0.018 SA
BRANCH   3   4
HETATM    4  S1  UNL     1       9.600  10.397 -15.315  1.00  0.00     0.011 SA
BRANCH   4   5
HETATM    5  C6  UNL     1      10.024   9.049 -16.420  1.00  0.00     0.291 C 
HETATM    6  N1  UNL     1      11.270   8.384 -16.320  1.00  0.00    -0.348 N 
ATOM      7  H1  UNL     1      11.929   8.688 -15.603  1.00  0.00     0.163 HD
HETATM    8  O1  UNL     1       9.161   8.747 -17.263  1.00  0.00    -0.260 OA
BRANCH   6   9
HETATM    9  C5  UNL     1      11.644   7.304 -17.181  1.00  0.00     0.151 C 
BRANCH   9  10
HETATM   10  C4  UNL     1      13.069   6.994 -17.116  1.00  0.00    -0.005 C 
HETATM   11  C2  UNL     1      13.544   5.755 -17.117  1.00  0.00    -0.090 C 
HETATM   12  C1  UNL     1      15.038   5.525 -17.050  1.00  0.00     0.042 C 
HETATM   13  C3  UNL     1      12.698   4.540 -17.159  1.00  0.00     0.042 C 
ENDBRANCH   9  10
ENDBRANCH   6   9
ENDBRANCH   4   5
ENDBRANCH   3   4
ENDBRANCH   1   3
BRANCH   1  14
HETATM   14  N2  UNL     1       9.868   7.291 -12.096  1.00  0.00    -0.339 N 
ATOM     15  H2  UNL     1       9.500   7.229 -11.146  1.00  0.00     0.167 HD
BRANCH  14  16
HETATM   16  C8  UNL     1      10.884   6.383 -12.397  1.00  0.00     0.072 A 
HETATM   17  C9  UNL     1      11.688   6.582 -13.486  1.00  0.00     0.033 A 
HETATM   18  C10 UNL     1      12.758   5.722 -13.698  1.00  0.00     0.009 A 
HETATM   19  C11 UNL     1      13.013   4.695 -12.838  1.00  0.00    -0.059 A 
HETATM   20  C12 UNL     1      14.154   3.773 -13.057  1.00  0.00     0.048 C 
HETATM   21  C13 UNL     1      12.204   4.505 -11.750  1.00  0.00     0.051 A 
HETATM   22  C14 UNL     1      11.160   5.329 -11.529  1.00  0.00     0.143 A 
HETATM   23  F1  UNL     1      10.354   5.150 -10.455  1.00  0.00    -0.204 F 
ENDBRANCH  14  16
ENDBRANCH   1  14
TORSDOF 7
ENDMDL
MODEL 3
REMARK VINA RESULT: -6.860826998      1.385      1.812
REMARK  7 active torsions:
REMARK  status: ('A' for Active; 'I' for Inactive)
REMARK    1  A    between atoms: C4_4  and  C5_5 
REMARK    2  A    between atoms: C5_5  and  N1_6 
REMARK       I    between atoms: N1_6  and  C6_8 
REMARK    3  A    between atoms: C6_8  and  S1_10 
REMARK    4  A    between atoms: S1_10  and  S2_11 
REMARK    5  A    between atoms: S2_11  and  C7_12 
REMARK    6  A    between atoms: C7_12  and  N2_14 
REMARK    7  A    between atoms: N2_14  and  C8_16 
ROOT
HETATM    1  C7  UNL     1       9.468   8.487 -12.776  1.00  0.00     0.150 C 
HETATM    2  S3  UNL     1      10.736   9.339 -12.064  1.00  0.00    -0.052 SA
ENDROOT
BRANCH   1   3
HETATM    3  S2  UNL     1       8.383   9.474 -13.753  1.00  0.00    -0.018 SA
BRANCH   3   4
HETATM    4  S1  UNL     1       9.328  10.376 -15.427  1.00  0.00     0.011 SA
BRANCH   4   5
HETATM    5  C6  UNL     1       9.941   9.129 -16.562  1.00  0.00     0.291 C 
HETATM    6  N1  UNL     1      11.133   8.415 -16.292  1.00  0.00    -0.348 N 
ATOM      7  H1  UNL     1      11.643   8.624 -15.433  1.00  0.00     0.163 HD
HETATM    8  O1  UNL     1       9.255   8.941 -17.583  1.00  0.00    -0.260 OA
BRANCH   6   9
HETATM    9  C5  UNL     1      11.653   7.412 -17.172  1.00  0.00     0.151 C 
BRANCH   9  10
HETATM   10  C4  UNL     1      13.019   7.018 -16.838  1.00  0.00    -0.005 C 
HETATM   11  C2  UNL     1      13.411   5.754 -16.756  1.00  0.00    -0.090 C 
HETATM   12  C1  UNL     1      14.848   5.436 -16.408  1.00  0.00     0.042 C 
HETATM   13  C3  UNL     1      12.517   4.591 -16.965  1.00  0.00     0.042 C 
ENDBRANCH   9  10
ENDBRANCH   6   9
ENDBRANCH   4   5
ENDBRANCH   3   4
ENDBRANCH   1   3
BRANCH   1  14
HETATM   14  N2  UNL     1       9.396   7.138 -12.541  1.00  0.00    -0.339 N 
ATOM     15  H2  UNL     1       8.517   6.698 -12.814  1.00  0.00     0.167 HD
BRANCH  14  16
HETATM   16  C8  UNL     1      10.341   6.274 -11.986  1.00  0.00     0.072 A 
HETATM   17  C9  UNL     1      10.255   5.911 -10.670  1.00  0.00     0.033 A 
HETATM   18  C10 UNL     1      11.144   4.966 -10.173  1.00  0.00     0.009 A 
HETATM   19  C11 UNL     1      12.090   4.402 -10.978  1.00  0.00    -0.059 A 
HETATM   20  C12 UNL     1      13.042   3.393 -10.456  1.00  0.00     0.048 C 
HETATM   21  C13 UNL     1      12.167   4.771 -12.294  1.00  0.00     0.051 A 
HETATM   22  C14 UNL     1      11.313   5.687 -12.793  1.00  0.00     0.143 A 
HETATM   23  F1  UNL     1      11.380   6.059 -14.094  1.00  0.00    -0.204 F 
ENDBRANCH  14  16
ENDBRANCH   1  14
TORSDOF 7
ENDMDL
MODEL 4
REMARK VINA RESULT: -6.812062267      1.479      1.704
REMARK  7 active torsions:
REMARK  status: ('A' for Active; 'I' for Inactive)
REMARK    1  A    between atoms: C4_4  and  C5_5 
REMARK    2  A    between atoms: C5_5  and  N1_6 
REMARK       I    between atoms: N1_6  and  C6_8 
REMARK    3  A    between atoms: C6_8  and  S1_10 
REMARK    4  A    between atoms: S1_10  and  S2_11 
REMARK    5  A    between atoms: S2_11  and  C7_12 
REMARK    6  A    between atoms: C7_12  and  N2_14 
REMARK    7  A    between atoms: N2_14  and  C8_16 
ROOT
HETATM    1  C7  UNL     1       9.373   9.503 -12.971  1.00  0.00     0.150 C 
HETATM    2  S3  UNL     1      10.425   9.947 -11.730  1.00  0.00    -0.052 SA
ENDROOT
BRANCH   1   3
HETATM    3  S2  UNL     1       8.522  10.851 -13.723  1.00  0.00    -0.018 SA
BRANCH   3   4
HETATM    4  S1  UNL     1       8.866  11.015 -15.812  1.00  0.00     0.011 SA
BRANCH   4   5
HETATM    5  C6  UNL     1       9.267   9.416 -16.519  1.00  0.00     0.291 C 
HETATM    6  N1  UNL     1      10.609   8.981 -16.633  1.00  0.00    -0.348 N 
ATOM      7  H1  UNL     1      11.352   9.598 -16.305  1.00  0.00     0.163 HD
HETATM    8  O1  UNL     1       8.299   8.730 -16.894  1.00  0.00    -0.260 OA
BRANCH   6   9
HETATM    9  C5  UNL     1      10.969   7.712 -17.191  1.00  0.00     0.151 C 
BRANCH   9  10
HETATM   10  C4  UNL     1      12.402   7.444 -17.112  1.00  0.00    -0.005 C 
HETATM   11  C2  UNL     1      12.907   6.228 -16.955  1.00  0.00    -0.090 C 
HETATM   12  C1  UNL     1      14.406   6.041 -16.888  1.00  0.00     0.042 C 
HETATM   13  C3  UNL     1      12.089   5.000 -16.814  1.00  0.00     0.042 C 
ENDBRANCH   9  10
ENDBRANCH   6   9
ENDBRANCH   4   5
ENDBRANCH   3   4
ENDBRANCH   1   3
BRANCH   1  14
HETATM   14  N2  UNL     1       9.277   8.170 -13.278  1.00  0.00    -0.339 N 
ATOM     15  H2  UNL     1       8.480   7.918 -13.862  1.00  0.00     0.167 HD
BRANCH  14  16
HETATM   16  C8  UNL     1      10.103   7.106 -12.915  1.00  0.00     0.072 A 
HETATM   17  C9  UNL     1      11.230   6.828 -13.639  1.00  0.00     0.033 A 
HETATM   18  C10 UNL     1      12.090   5.834 -13.190  1.00  0.00     0.009 A 
HETATM   19  C11 UNL     1      11.824   5.141 -12.046  1.00  0.00    -0.059 A 
HETATM   20  C12 UNL     1      12.736   4.077 -11.560  1.00  0.00     0.048 C 
HETATM   21  C13 UNL     1      10.695   5.427 -11.327  1.00  0.00     0.051 A 
HETATM   22  C14 UNL     1       9.848   6.389 -11.748  1.00  0.00     0.143 A 
HETATM   23  F1  UNL     1       8.728   6.680 -11.044  1.00  0.00    -0.204 F 
ENDBRANCH  14  16
ENDBRANCH   1  14
TORSDOF 7
ENDMDL
MODEL 5
REMARK VINA RESULT: -6.612908493      2.494      5.042
REMARK  7 active torsions:
REMARK  status: ('A' for Active; 'I' for Inactive)
REMARK    1  A    between atoms: C4_4  and  C5_5 
REMARK    2  A    between atoms: C5_5  and  N1_6 
REMARK       I    between atoms: N1_6  and  C6_8 
REMARK    3  A    between atoms: C6_8  and  S1_10 
REMARK    4  A    between atoms: S1_10  and  S2_11 
REMARK    5  A    between atoms: S2_11  and  C7_12 
REMARK    6  A    between atoms: C7_12  and  N2_14 
REMARK    7  A    between atoms: N2_14  and  C8_16 
ROOT
HETATM    1  C7  UNL     1       9.812   9.429 -14.374  1.00  0.00     0.150 C 
HETATM    2  S3  UNL     1       9.089  10.650 -15.284  1.00  0.00    -0.052 SA
ENDROOT
BRANCH   1   3
HETATM    3  S2  UNL     1      10.296   9.917 -12.750  1.00  0.00    -0.018 SA
BRANCH   3   4
HETATM    4  S1  UNL     1       9.490   8.688 -11.217  1.00  0.00     0.011 SA
BRANCH   4   5
HETATM    5  C6  UNL     1       9.741   6.952 -11.594  1.00  0.00     0.291 C 
HETATM    6  N1  UNL     1      10.727   6.192 -10.922  1.00  0.00    -0.348 N 
ATOM      7  H1  UNL     1      11.301   6.652 -10.214  1.00  0.00     0.163 HD
HETATM    8  O1  UNL     1       8.998   6.475 -12.470  1.00  0.00    -0.260 OA
BRANCH   6   9
HETATM    9  C5  UNL     1      10.956   4.805 -11.194  1.00  0.00     0.151 C 
BRANCH   9  10
HETATM   10  C4  UNL     1      12.254   4.555 -11.814  1.00  0.00    -0.005 C 
HETATM   11  C2  UNL     1      13.156   3.727 -11.304  1.00  0.00    -0.090 C 
HETATM   12  C1  UNL     1      14.475   3.524 -12.016  1.00  0.00     0.042 C 
HETATM   13  C3  UNL     1      12.974   2.977 -10.039  1.00  0.00     0.042 C 
ENDBRANCH   9  10
ENDBRANCH   6   9
ENDBRANCH   4   5
ENDBRANCH   3   4
ENDBRANCH   1   3
BRANCH   1  14
HETATM   14  N2  UNL     1       9.954   8.197 -14.959  1.00  0.00    -0.339 N 
ATOM     15  H2  UNL     1       9.090   7.666 -15.064  1.00  0.00     0.167 HD
BRANCH  14  16
HETATM   16  C8  UNL     1      11.101   7.559 -15.434  1.00  0.00     0.072 A 
HETATM   17  C9  UNL     1      11.781   6.679 -14.638  1.00  0.00     0.033 A 
HETATM   18  C10 UNL     1      12.853   5.977 -15.174  1.00  0.00     0.009 A 
HETATM   19  C11 UNL     1      13.228   6.155 -16.473  1.00  0.00    -0.059 A 
HETATM   20  C12 UNL     1      14.372   5.410 -17.053  1.00  0.00     0.048 C 
HETATM   21  C13 UNL     1      12.540   7.036 -17.263  1.00  0.00     0.051 A 
HETATM   22  C14 UNL     1      11.498   7.727 -16.759  1.00  0.00     0.143 A 
HETATM   23  F1  UNL     1      10.810   8.601 -17.532  1.00  0.00    -0.204 F 
ENDBRANCH  14  16
ENDBRANCH   1  14
TORSDOF 7
ENDMDL
