MODEL 1
REMARK VINA RESULT: -7.880572704      0.000      0.000
REMARK  6 active torsions:
REMARK  status: ('A' for Active; 'I' for Inactive)
REMARK    1  A    between atoms: C2_2  and  C4_4 
REMARK    2  A    between atoms: C6_6  and  C7_7 
REMARK    3  A    between atoms: C7_7  and  O1_8 
REMARK    4  A    between atoms: O1_8  and  C8_9 
REMARK    5  A    between atoms: C12_14  and  O3_15 
REMARK    6  A    between atoms: C14_18  and  O4_19 
ROOT
HETATM    1  C8  UNL     1      13.359   5.437 -13.854  1.00  0.00     0.113 A 
HETATM    2  C9  UNL     1      14.560   4.671 -13.984  1.00  0.00     0.084 A 
HETATM    3  C10 UNL     1      15.145   3.936 -12.833  1.00  0.00     0.079 C 
HETATM    4  O2  UNL     1      14.961   4.763 -15.189  1.00  0.00    -0.309 OA
HETATM    5  C11 UNL     1      14.138   5.523 -15.891  1.00  0.00     0.123 A 
HETATM    6  C12 UNL     1      14.117   5.921 -17.212  1.00  0.00     0.103 A 
HETATM    7  C13 UNL     1      13.164   6.716 -17.746  1.00  0.00     0.077 A 
HETATM    8  C14 UNL     1      12.135   7.165 -16.894  1.00  0.00     0.086 A 
HETATM    9  C15 UNL     1      12.127   6.790 -15.587  1.00  0.00     0.060 A 
HETATM   10 BR1  UNL     1      10.743   7.440 -14.452  1.00  0.00    -0.047 Br
HETATM   11  C16 UNL     1      13.122   5.961 -15.056  1.00  0.00     0.057 A 
ENDROOT
BRANCH   1  12
HETATM   12  O1  UNL     1      12.661   5.524 -12.647  1.00  0.00    -0.344 OA
BRANCH  12  13
HETATM   13  C7  UNL     1      11.627   4.561 -12.396  1.00  0.00     0.204 C 
BRANCH  13  14
HETATM   14  C6  UNL     1      11.347   4.523 -10.957  1.00  0.00     0.007 C 
HETATM   15  C4  UNL     1      11.909   3.849  -9.991  1.00  0.00    -0.059 C 
HETATM   16  C5  UNL     1      13.045   2.907 -10.150  1.00  0.00     0.048 C 
BRANCH  15  17
HETATM   17  C2  UNL     1      11.417   4.032  -8.634  1.00  0.00    -0.066 C 
HETATM   18  C1  UNL     1      10.575   3.274  -8.087  1.00  0.00     0.019 C 
HETATM   19  C3  UNL     1      12.092   5.147  -7.835  1.00  0.00     0.048 C 
ENDBRANCH  15  17
ENDBRANCH  13  14
ENDBRANCH  12  13
ENDBRANCH   1  12
BRANCH   6  20
HETATM   20  O3  UNL     1      15.191   5.451 -18.083  1.00  0.00    -0.358 OA
ATOM     21  H3  UNL     1      15.515   4.567 -17.949  1.00  0.00     0.217 HD
ENDBRANCH   6  20
BRANCH   8  22
HETATM   22  O4  UNL     1      11.145   8.001 -17.445  1.00  0.00    -0.359 OA
ATOM     23  H4  UNL     1      11.409   8.863 -17.742  1.00  0.00     0.217 HD
ENDBRANCH   8  22
TORSDOF 6
ENDMDL
MODEL 2
REMARK VINA RESULT: -7.873089080      2.202      3.965
REMARK  6 active torsions:
REMARK  status: ('A' for Active; 'I' for Inactive)
REMARK    1  A    between atoms: C2_2  and  C4_4 
REMARK    2  A    between atoms: C6_6  and  C7_7 
REMARK    3  A    between atoms: C7_7  and  O1_8 
REMARK    4  A    between atoms: O1_8  and  C8_9 
REMARK    5  A    between atoms: C12_14  and  O3_15 
REMARK    6  A    between atoms: C14_18  and  O4_19 
ROOT
HETATM    1  C8  UNL     1      12.058   7.048 -15.642  1.00  0.00     0.113 A 
HETATM    2  C9  UNL     1      12.472   7.065 -17.010  1.00  0.00     0.084 A 
HETATM    3  C10 UNL     1      13.702   6.364 -17.462  1.00  0.00     0.079 C 
HETATM    4  O2  UNL     1      11.628   7.751 -17.672  1.00  0.00    -0.309 OA
HETATM    5  C11 UNL     1      10.675   8.202 -16.874  1.00  0.00     0.123 A 
HETATM    6  C12 UNL     1       9.548   8.968 -17.090  1.00  0.00     0.103 A 
HETATM    7  C13 UNL     1       8.680   9.324 -16.119  1.00  0.00     0.077 A 
HETATM    8  C14 UNL     1       8.952   8.887 -14.807  1.00  0.00     0.086 A 
HETATM    9  C15 UNL     1      10.055   8.130 -14.561  1.00  0.00     0.060 A 
HETATM   10 BR1  UNL     1      10.415   7.583 -12.773  1.00  0.00    -0.047 Br
HETATM   11  C16 UNL     1      10.938   7.767 -15.584  1.00  0.00     0.057 A 
ENDROOT
BRANCH   1  12
HETATM   12  O1  UNL     1      12.773   6.359 -14.658  1.00  0.00    -0.344 OA
BRANCH  12  13
HETATM   13  C7  UNL     1      12.609   4.936 -14.580  1.00  0.00     0.204 C 
BRANCH  13  14
HETATM   14  C6  UNL     1      12.345   4.560 -13.187  1.00  0.00     0.007 C 
HETATM   15  C4  UNL     1      13.134   4.085 -12.262  1.00  0.00    -0.059 C 
HETATM   16  C5  UNL     1      14.582   3.805 -12.430  1.00  0.00     0.048 C 
BRANCH  15  17
HETATM   17  C2  UNL     1      12.580   3.817 -10.943  1.00  0.00    -0.066 C 
HETATM   18  C1  UNL     1      13.075   2.996 -10.130  1.00  0.00     0.019 C 
HETATM   19  C3  UNL     1      11.408   4.708 -10.529  1.00  0.00     0.048 C 
ENDBRANCH  15  17
ENDBRANCH  13  14
ENDBRANCH  12  13
ENDBRANCH   1  12
BRANCH   6  20
HETATM   20  O3  UNL     1       9.279   9.416 -18.454  1.00  0.00    -0.358 OA
ATOM     21  H3  UNL     1       8.564   9.003 -18.924  1.00  0.00     0.217 HD
ENDBRANCH   6  20
BRANCH   8  22
HETATM   22  O4  UNL     1       8.054   9.264 -13.790  1.00  0.00    -0.359 OA
ATOM     23  H4  UNL     1       8.372   9.851 -13.114  1.00  0.00     0.217 HD
ENDBRANCH   8  22
TORSDOF 6
ENDMDL
MODEL 3
REMARK VINA RESULT: -7.781367200      2.347      7.332
REMARK  6 active torsions:
REMARK  status: ('A' for Active; 'I' for Inactive)
REMARK    1  A    between atoms: C2_2  and  C4_4 
REMARK    2  A    between atoms: C6_6  and  C7_7 
REMARK    3  A    between atoms: C7_7  and  O1_8 
REMARK    4  A    between atoms: O1_8  and  C8_9 
REMARK    5  A    between atoms: C12_14  and  O3_15 
REMARK    6  A    between atoms: C14_18  and  O4_19 
ROOT
HETATM    1  C8  UNL     1      11.848   6.076 -13.826  1.00  0.00     0.113 A 
HETATM    2  C9  UNL     1      10.724   6.940 -13.639  1.00  0.00     0.084 A 
HETATM    3  C10 UNL     1      10.257   7.854 -14.713  1.00  0.00     0.079 C 
HETATM    4  O2  UNL     1      10.274   6.757 -12.462  1.00  0.00    -0.309 OA
HETATM    5  C11 UNL     1      10.993   5.845 -11.831  1.00  0.00     0.123 A 
HETATM    6  C12 UNL     1      10.917   5.291 -10.570  1.00  0.00     0.103 A 
HETATM    7  C13 UNL     1      11.765   4.346 -10.107  1.00  0.00     0.077 A 
HETATM    8  C14 UNL     1      12.788   3.908 -10.972  1.00  0.00     0.086 A 
HETATM    9  C15 UNL     1      12.889   4.433 -12.222  1.00  0.00     0.060 A 
HETATM   10 BR1  UNL     1      14.303   3.847 -13.355  1.00  0.00    -0.047 Br
HETATM   11  C16 UNL     1      11.996   5.408 -12.682  1.00  0.00     0.057 A 
ENDROOT
BRANCH   1  12
HETATM   12  O1  UNL     1      12.557   6.028 -15.029  1.00  0.00    -0.344 OA
BRANCH  12  13
HETATM   13  C7  UNL     1      12.159   5.058 -16.007  1.00  0.00     0.204 C 
BRANCH  13  14
HETATM   14  C6  UNL     1      12.853   5.337 -17.269  1.00  0.00     0.007 C 
HETATM   15  C4  UNL     1      14.124   5.461 -17.540  1.00  0.00    -0.059 C 
HETATM   16  C5  UNL     1      15.228   5.333 -16.556  1.00  0.00     0.048 C 
BRANCH  15  17
HETATM   17  C2  UNL     1      14.522   5.727 -18.914  1.00  0.00    -0.066 C 
HETATM   18  C1  UNL     1      15.440   6.523 -19.236  1.00  0.00     0.019 C 
HETATM   19  C3  UNL     1      13.837   4.864 -19.975  1.00  0.00     0.048 C 
ENDBRANCH  15  17
ENDBRANCH  13  14
ENDBRANCH  12  13
ENDBRANCH   1  12
BRANCH   6  20
HETATM   20  O3  UNL     1       9.853   5.756  -9.684  1.00  0.00    -0.358 OA
ATOM     21  H3  UNL     1       8.955   5.615  -9.958  1.00  0.00     0.217 HD
ENDBRANCH   6  20
BRANCH   8  22
HETATM   22  O4  UNL     1      13.679   2.930 -10.491  1.00  0.00    -0.359 OA
ATOM     23  H4  UNL     1      13.615   2.684  -9.576  1.00  0.00     0.217 HD
ENDBRANCH   8  22
TORSDOF 6
ENDMDL
MODEL 4
REMARK VINA RESULT: -7.744500441      1.026      1.199
REMARK  6 active torsions:
REMARK  status: ('A' for Active; 'I' for Inactive)
REMARK    1  A    between atoms: C2_2  and  C4_4 
REMARK    2  A    between atoms: C6_6  and  C7_7 
REMARK    3  A    between atoms: C7_7  and  O1_8 
REMARK    4  A    between atoms: O1_8  and  C8_9 
REMARK    5  A    between atoms: C12_14  and  O3_15 
REMARK    6  A    between atoms: C14_18  and  O4_19 
ROOT
HETATM    1  C8  UNL     1      12.822   5.798 -13.911  1.00  0.00     0.113 A 
HETATM    2  C9  UNL     1      13.980   5.195 -14.492  1.00  0.00     0.084 A 
HETATM    3  C10 UNL     1      14.871   4.300 -13.708  1.00  0.00     0.079 C 
HETATM    4  O2  UNL     1      14.056   5.570 -15.707  1.00  0.00    -0.309 OA
HETATM    5  C11 UNL     1      13.050   6.375 -16.003  1.00  0.00     0.123 A 
HETATM    6  C12 UNL     1      12.675   7.031 -17.158  1.00  0.00     0.103 A 
HETATM    7  C13 UNL     1      11.585   7.823 -17.257  1.00  0.00     0.077 A 
HETATM    8  C14 UNL     1      10.790   7.986 -16.105  1.00  0.00     0.086 A 
HETATM    9  C15 UNL     1      11.131   7.352 -14.951  1.00  0.00     0.060 A 
HETATM   10 BR1  UNL     1      10.058   7.620 -13.402  1.00  0.00    -0.047 Br
HETATM   11  C16 UNL     1      12.263   6.532 -14.873  1.00  0.00     0.057 A 
ENDROOT
BRANCH   1  12
HETATM   12  O1  UNL     1      12.452   5.569 -12.583  1.00  0.00    -0.344 OA
BRANCH  12  13
HETATM   13  C7  UNL     1      11.554   4.483 -12.312  1.00  0.00     0.204 C 
BRANCH  13  14
HETATM   14  C6  UNL     1      11.284   4.432 -10.872  1.00  0.00     0.007 C 
HETATM   15  C4  UNL     1      11.884   3.789  -9.908  1.00  0.00    -0.059 C 
HETATM   16  C5  UNL     1      13.065   2.905 -10.072  1.00  0.00     0.048 C 
BRANCH  15  17
HETATM   17  C2  UNL     1      11.390   3.949  -8.549  1.00  0.00    -0.066 C 
HETATM   18  C1  UNL     1      10.560   3.173  -8.010  1.00  0.00     0.019 C 
HETATM   19  C3  UNL     1      12.050   5.064  -7.737  1.00  0.00     0.048 C 
ENDBRANCH  15  17
ENDBRANCH  13  14
ENDBRANCH  12  13
ENDBRANCH   1  12
BRANCH   6  20
HETATM   20  O3  UNL     1      13.509   6.854 -18.343  1.00  0.00    -0.358 OA
ATOM     21  H3  UNL     1      13.077   6.638 -19.161  1.00  0.00     0.217 HD
ENDBRANCH   6  20
BRANCH   8  22
HETATM   22  O4  UNL     1       9.658   8.817 -16.201  1.00  0.00    -0.359 OA
ATOM     23  H4  UNL     1       9.768   9.740 -16.006  1.00  0.00     0.217 HD
ENDBRANCH   8  22
TORSDOF 6
ENDMDL
MODEL 5
REMARK VINA RESULT: -7.685429615      2.594      4.546
REMARK  6 active torsions:
REMARK  status: ('A' for Active; 'I' for Inactive)
REMARK    1  A    between atoms: C2_2  and  C4_4 
REMARK    2  A    between atoms: C6_6  and  C7_7 
REMARK    3  A    between atoms: C7_7  and  O1_8 
REMARK    4  A    between atoms: O1_8  and  C8_9 
REMARK    5  A    between atoms: C12_14  and  O3_15 
REMARK    6  A    between atoms: C14_18  and  O4_19 
ROOT
HETATM    1  C8  UNL     1      11.412   7.377 -15.598  1.00  0.00     0.113 A 
HETATM    2  C9  UNL     1      11.914   7.484 -16.932  1.00  0.00     0.084 A 
HETATM    3  C10 UNL     1      13.168   6.805 -17.350  1.00  0.00     0.079 C 
HETATM    4  O2  UNL     1      11.116   8.219 -17.599  1.00  0.00    -0.309 OA
HETATM    5  C11 UNL     1      10.115   8.622 -16.835  1.00  0.00     0.123 A 
HETATM    6  C12 UNL     1       9.006   9.408 -17.071  1.00  0.00     0.103 A 
HETATM    7  C13 UNL     1       8.078   9.705 -16.136  1.00  0.00     0.077 A 
HETATM    8  C14 UNL     1       8.264   9.178 -14.842  1.00  0.00     0.086 A 
HETATM    9  C15 UNL     1       9.346   8.399 -14.577  1.00  0.00     0.060 A 
HETATM   10 BR1  UNL     1       9.589   7.731 -12.810  1.00  0.00    -0.047 Br
HETATM   11  C16 UNL     1      10.293   8.100 -15.564  1.00  0.00     0.057 A 
ENDROOT
BRANCH   1  12
HETATM   12  O1  UNL     1      12.060   6.619 -14.619  1.00  0.00    -0.344 OA
BRANCH  12  13
HETATM   13  C7  UNL     1      11.909   5.193 -14.663  1.00  0.00     0.204 C 
BRANCH  13  14
HETATM   14  C6  UNL     1      12.738   4.591 -13.613  1.00  0.00     0.007 C 
HETATM   15  C4  UNL     1      12.509   4.398 -12.343  1.00  0.00    -0.059 C 
HETATM   16  C5  UNL     1      11.260   4.770 -11.631  1.00  0.00     0.048 C 
BRANCH  15  17
HETATM   17  C2  UNL     1      13.533   3.749 -11.539  1.00  0.00    -0.066 C 
HETATM   18  C1  UNL     1      13.302   3.162 -10.452  1.00  0.00     0.019 C 
HETATM   19  C3  UNL     1      14.927   3.700 -12.166  1.00  0.00     0.048 C 
ENDBRANCH  15  17
ENDBRANCH  13  14
ENDBRANCH  12  13
ENDBRANCH   1  12
BRANCH   6  20
HETATM   20  O3  UNL     1       8.827   9.949 -18.416  1.00  0.00    -0.358 OA
ATOM     21  H3  UNL     1       8.201  10.654 -18.530  1.00  0.00     0.217 HD
ENDBRANCH   6  20
BRANCH   8  22
HETATM   22  O4  UNL     1       7.303   9.493 -13.861  1.00  0.00    -0.359 OA
ATOM     23  H4  UNL     1       6.882   8.773 -13.408  1.00  0.00     0.217 HD
ENDBRANCH   8  22
TORSDOF 6
ENDMDL
