MODEL 1
REMARK VINA RESULT: -8.113261577      0.000      0.000
REMARK  4 active torsions:
REMARK  status: ('A' for Active; 'I' for Inactive)
REMARK    1  A    between atoms: C2_2  and  N1_3 
REMARK       I    between atoms: N1_3  and  C3_5 
REMARK    2  A    between atoms: C3_5  and  C4_7 
REMARK    3  A    between atoms: C10_13  and  N2_14 
REMARK    4  A    between atoms: N2_14  and  C11_16 
ROOT
HETATM    1  C1  UNL     1       8.546   9.356 -14.068  1.00  0.00     0.038 C 
HETATM    2  C2  UNL     1       8.694  10.316 -15.254  1.00  0.00     0.029 C 
HETATM    3  C8  UNL     1      10.137  10.680 -15.442  1.00  0.00     0.032 C 
HETATM    4  C9  UNL     1      10.981   9.439 -15.511  1.00  0.00     0.027 C 
HETATM    5  C10 UNL     1      10.321   8.322 -16.317  1.00  0.00     0.082 C 
HETATM    6  C18 UNL     1       9.392   9.036 -17.283  1.00  0.00     0.027 C 
HETATM    7  C19 UNL     1       8.240   9.585 -16.507  1.00  0.00     0.032 C 
ENDROOT
BRANCH   5   8
HETATM    8  N2  UNL     1      11.328   7.589 -17.051  1.00  0.00    -0.383 N 
ATOM      9  H2  UNL     1      11.350   7.711 -18.064  1.00  0.00     0.160 HD
BRANCH   8  10
HETATM   10  C11 UNL     1      12.284   6.720 -16.482  1.00  0.00     0.070 A 
HETATM   11  C12 UNL     1      12.089   6.204 -15.232  1.00  0.00     0.072 A 
HETATM   12  C13 UNL     1      13.048   5.353 -14.664  1.00  0.00     0.105 A 
HETATM   13  O2  UNL     1      13.093   4.743 -13.507  1.00  0.00    -0.304 OA
HETATM   14  C15 UNL     1      14.187   5.017 -15.332  1.00  0.00     0.070 A 
HETATM   15  C14 UNL     1      14.191   4.038 -13.393  1.00  0.00     0.234 A 
HETATM   16  N3  UNL     1      14.896   4.196 -14.531  1.00  0.00    -0.344 N 
ATOM     17  H3  UNL     1      15.798   3.773 -14.747  1.00  0.00     0.167 HD
HETATM   18  C16 UNL     1      14.390   5.537 -16.600  1.00  0.00     0.077 A 
HETATM   19  C17 UNL     1      13.441   6.372 -17.146  1.00  0.00     0.145 A 
HETATM   20  F1  UNL     1      13.625   6.888 -18.386  1.00  0.00    -0.204 F 
ENDBRANCH   8  10
ENDBRANCH   5   8
BRANCH   2  21
HETATM   21  N1  UNL     1       7.816  11.420 -15.029  1.00  0.00    -0.352 N 
HETATM   22  C3  UNL     1       7.691  12.563 -15.847  1.00  0.00     0.226 C 
HETATM   23  O1  UNL     1       8.394  12.659 -16.875  1.00  0.00    -0.273 OA
ATOM     24  H1  UNL     1       7.224  11.379 -14.199  1.00  0.00     0.163 HD
BRANCH  22  25
HETATM   25  C4  UNL     1       6.752  13.629 -15.507  1.00  0.00     0.030 C 
HETATM   26  C5  UNL     1       7.452  14.767 -14.753  1.00  0.00     0.024 C 
HETATM   27  C6  UNL     1       5.619  13.157 -14.619  1.00  0.00     0.024 C 
HETATM   28  C7  UNL     1       6.117  14.267 -16.723  1.00  0.00     0.024 C 
ENDBRANCH  22  25
ENDBRANCH   2  21
TORSDOF 4
ENDMDL
MODEL 2
REMARK VINA RESULT: -8.110728400      2.779      3.546
REMARK  4 active torsions:
REMARK  status: ('A' for Active; 'I' for Inactive)
REMARK    1  A    between atoms: C2_2  and  N1_3 
REMARK       I    between atoms: N1_3  and  C3_5 
REMARK    2  A    between atoms: C3_5  and  C4_7 
REMARK    3  A    between atoms: C10_13  and  N2_14 
REMARK    4  A    between atoms: N2_14  and  C11_16 
ROOT
HETATM    1  C1  UNL     1       9.299   8.963 -17.225  1.00  0.00     0.038 C 
HETATM    2  C2  UNL     1       8.844  10.119 -16.326  1.00  0.00     0.029 C 
HETATM    3  C8  UNL     1       7.736   9.661 -15.425  1.00  0.00     0.032 C 
HETATM    4  C9  UNL     1       8.138   8.407 -14.703  1.00  0.00     0.027 C 
HETATM    5  C10 UNL     1       9.593   8.435 -14.239  1.00  0.00     0.082 C 
HETATM    6  C18 UNL     1       9.923   9.909 -14.083  1.00  0.00     0.027 C 
HETATM    7  C19 UNL     1      10.016  10.517 -15.445  1.00  0.00     0.032 C 
ENDROOT
BRANCH   5   8
HETATM    8  N2  UNL     1       9.712   7.765 -12.964  1.00  0.00    -0.383 N 
ATOM      9  H2  UNL     1       9.077   8.056 -12.221  1.00  0.00     0.160 HD
BRANCH   8  10
HETATM   10  C11 UNL     1      10.634   6.739 -12.663  1.00  0.00     0.070 A 
HETATM   11  C12 UNL     1      11.678   6.481 -13.506  1.00  0.00     0.072 A 
HETATM   12  C13 UNL     1      12.584   5.453 -13.210  1.00  0.00     0.105 A 
HETATM   13  O2  UNL     1      13.643   5.017 -13.845  1.00  0.00    -0.304 OA
HETATM   14  C15 UNL     1      12.454   4.689 -12.090  1.00  0.00     0.070 A 
HETATM   15  C14 UNL     1      14.199   4.021 -13.199  1.00  0.00     0.234 A 
HETATM   16  N3  UNL     1      13.466   3.798 -12.090  1.00  0.00    -0.344 N 
ATOM     17  H3  UNL     1      13.644   3.086 -11.381  1.00  0.00     0.167 HD
HETATM   18  C16 UNL     1      11.398   4.946 -11.231  1.00  0.00     0.077 A 
HETATM   19  C17 UNL     1      10.515   5.959 -11.533  1.00  0.00     0.145 A 
HETATM   20  F1  UNL     1       9.477   6.223 -10.702  1.00  0.00    -0.204 F 
ENDBRANCH   8  10
ENDBRANCH   5   8
BRANCH   2  21
HETATM   21  N1  UNL     1       8.518  11.223 -17.173  1.00  0.00    -0.352 N 
HETATM   22  C3  UNL     1       8.047  12.484 -16.751  1.00  0.00     0.226 C 
HETATM   23  O1  UNL     1       7.885  12.700 -15.531  1.00  0.00    -0.273 OA
ATOM     24  H1  UNL     1       8.637  11.086 -18.177  1.00  0.00     0.163 HD
BRANCH  22  25
HETATM   25  C4  UNL     1       7.748  13.535 -17.720  1.00  0.00     0.030 C 
HETATM   26  C5  UNL     1       8.931  14.499 -17.877  1.00  0.00     0.024 C 
HETATM   27  C6  UNL     1       6.554  14.380 -17.326  1.00  0.00     0.024 C 
HETATM   28  C7  UNL     1       7.466  12.998 -19.106  1.00  0.00     0.024 C 
ENDBRANCH  22  25
ENDBRANCH   2  21
TORSDOF 4
ENDMDL
MODEL 3
REMARK VINA RESULT: -8.060160186      2.777      3.235
REMARK  4 active torsions:
REMARK  status: ('A' for Active; 'I' for Inactive)
REMARK    1  A    between atoms: C2_2  and  N1_3 
REMARK       I    between atoms: N1_3  and  C3_5 
REMARK    2  A    between atoms: C3_5  and  C4_7 
REMARK    3  A    between atoms: C10_13  and  N2_14 
REMARK    4  A    between atoms: N2_14  and  C11_16 
ROOT
HETATM    1  C1  UNL     1       7.924   9.692 -15.402  1.00  0.00     0.038 C 
HETATM    2  C2  UNL     1       9.018  10.135 -16.380  1.00  0.00     0.029 C 
HETATM    3  C8  UNL     1      10.265  10.490 -15.627  1.00  0.00     0.032 C 
HETATM    4  C9  UNL     1      10.648   9.372 -14.699  1.00  0.00     0.027 C 
HETATM    5  C10 UNL     1      10.450   7.993 -15.325  1.00  0.00     0.082 C 
HETATM    6  C18 UNL     1      10.567   8.226 -16.822  1.00  0.00     0.027 C 
HETATM    7  C19 UNL     1       9.347   8.955 -17.280  1.00  0.00     0.032 C 
ENDROOT
BRANCH   5   8
HETATM    8  N2  UNL     1      11.497   7.101 -14.882  1.00  0.00    -0.383 N 
ATOM      9  H2  UNL     1      12.317   7.007 -15.481  1.00  0.00     0.160 HD
BRANCH   8  10
HETATM   10  C11 UNL     1      11.479   6.349 -13.687  1.00  0.00     0.070 A 
HETATM   11  C12 UNL     1      10.700   6.743 -12.636  1.00  0.00     0.072 A 
HETATM   12  C13 UNL     1      10.695   6.002 -11.446  1.00  0.00     0.105 A 
HETATM   13  O2  UNL     1      10.049   6.170 -10.320  1.00  0.00    -0.304 OA
HETATM   14  C15 UNL     1      11.456   4.882 -11.301  1.00  0.00     0.070 A 
HETATM   15  C14 UNL     1      10.350   5.224  -9.463  1.00  0.00     0.234 A 
HETATM   16  N3  UNL     1      11.235   4.402 -10.061  1.00  0.00    -0.344 N 
ATOM     17  H3  UNL     1      11.660   3.570  -9.650  1.00  0.00     0.167 HD
HETATM   18  C16 UNL     1      12.249   4.476 -12.363  1.00  0.00     0.077 A 
HETATM   19  C17 UNL     1      12.244   5.214 -13.527  1.00  0.00     0.145 A 
HETATM   20  F1  UNL     1      13.014   4.830 -14.574  1.00  0.00    -0.204 F 
ENDBRANCH   8  10
ENDBRANCH   5   8
BRANCH   2  21
HETATM   21  N1  UNL     1       8.479  11.184 -17.186  1.00  0.00    -0.352 N 
HETATM   22  C3  UNL     1       8.325  12.533 -16.801  1.00  0.00     0.226 C 
HETATM   23  O1  UNL     1       8.682  12.887 -15.657  1.00  0.00    -0.273 OA
ATOM     24  H1  UNL     1       8.176  10.935 -18.128  1.00  0.00     0.163 HD
BRANCH  22  25
HETATM   25  C4  UNL     1       7.757  13.515 -17.722  1.00  0.00     0.030 C 
HETATM   26  C5  UNL     1       8.772  14.617 -18.054  1.00  0.00     0.024 C 
HETATM   27  C6  UNL     1       6.534  14.211 -17.162  1.00  0.00     0.024 C 
HETATM   28  C7  UNL     1       7.350  12.914 -19.049  1.00  0.00     0.024 C 
ENDBRANCH  22  25
ENDBRANCH   2  21
TORSDOF 4
ENDMDL
MODEL 4
REMARK VINA RESULT: -7.902470763      0.976      1.028
REMARK  4 active torsions:
REMARK  status: ('A' for Active; 'I' for Inactive)
REMARK    1  A    between atoms: C2_2  and  N1_3 
REMARK       I    between atoms: N1_3  and  C3_5 
REMARK    2  A    between atoms: C3_5  and  C4_7 
REMARK    3  A    between atoms: C10_13  and  N2_14 
REMARK    4  A    between atoms: N2_14  and  C11_16 
ROOT
HETATM    1  C1  UNL     1       8.630   9.184 -14.064  1.00  0.00     0.038 C 
HETATM    2  C2  UNL     1       8.755  10.138 -15.258  1.00  0.00     0.029 C 
HETATM    3  C8  UNL     1      10.185  10.559 -15.428  1.00  0.00     0.032 C 
HETATM    4  C9  UNL     1      11.080   9.353 -15.472  1.00  0.00     0.027 C 
HETATM    5  C10 UNL     1      10.479   8.202 -16.275  1.00  0.00     0.082 C 
HETATM    6  C18 UNL     1       9.536   8.868 -17.262  1.00  0.00     0.027 C 
HETATM    7  C19 UNL     1       8.350   9.376 -16.509  1.00  0.00     0.032 C 
ENDROOT
BRANCH   5   8
HETATM    8  N2  UNL     1      11.527   7.505 -16.987  1.00  0.00    -0.383 N 
ATOM      9  H2  UNL     1      11.598   7.666 -17.992  1.00  0.00     0.160 HD
BRANCH   8  10
HETATM   10  C11 UNL     1      12.460   6.619 -16.406  1.00  0.00     0.070 A 
HETATM   11  C12 UNL     1      12.243   6.112 -15.155  1.00  0.00     0.072 A 
HETATM   12  C13 UNL     1      13.179   5.244 -14.576  1.00  0.00     0.105 A 
HETATM   13  O2  UNL     1      13.201   4.639 -13.415  1.00  0.00    -0.304 OA
HETATM   14  C15 UNL     1      14.317   4.883 -15.231  1.00  0.00     0.070 A 
HETATM   15  C14 UNL     1      14.285   3.912 -13.288  1.00  0.00     0.234 A 
HETATM   16  N3  UNL     1      15.002   4.051 -14.421  1.00  0.00    -0.344 N 
ATOM     17  H3  UNL     1      15.898   3.609 -14.627  1.00  0.00     0.167 HD
HETATM   18  C16 UNL     1      14.543   5.393 -16.500  1.00  0.00     0.077 A 
HETATM   19  C17 UNL     1      13.615   6.245 -17.058  1.00  0.00     0.145 A 
HETATM   20  F1  UNL     1      13.822   6.752 -18.297  1.00  0.00    -0.204 F 
ENDBRANCH   8  10
ENDBRANCH   5   8
BRANCH   2  21
HETATM   21  N1  UNL     1       7.829  11.207 -15.058  1.00  0.00    -0.352 N 
HETATM   22  C3  UNL     1       7.940  12.233 -14.096  1.00  0.00     0.226 C 
HETATM   23  O1  UNL     1       8.925  12.248 -13.328  1.00  0.00    -0.273 OA
ATOM     24  H1  UNL     1       7.011  11.230 -15.667  1.00  0.00     0.163 HD
BRANCH  22  25
HETATM   25  C4  UNL     1       6.920  13.275 -13.991  1.00  0.00     0.030 C 
HETATM   26  C5  UNL     1       7.541  14.622 -13.600  1.00  0.00     0.024 C 
HETATM   27  C6  UNL     1       5.868  12.966 -12.946  1.00  0.00     0.024 C 
HETATM   28  C7  UNL     1       6.188  13.517 -15.292  1.00  0.00     0.024 C 
ENDBRANCH  22  25
ENDBRANCH   2  21
TORSDOF 4
ENDMDL
MODEL 5
REMARK VINA RESULT: -7.882523751      2.174      2.754
REMARK  4 active torsions:
REMARK  status: ('A' for Active; 'I' for Inactive)
REMARK    1  A    between atoms: C2_2  and  N1_3 
REMARK       I    between atoms: N1_3  and  C3_5 
REMARK    2  A    between atoms: C3_5  and  C4_7 
REMARK    3  A    between atoms: C10_13  and  N2_14 
REMARK    4  A    between atoms: N2_14  and  C11_16 
ROOT
HETATM    1  C1  UNL     1       7.685  10.324 -15.047  1.00  0.00     0.038 C 
HETATM    2  C2  UNL     1       8.844  10.421 -16.046  1.00  0.00     0.029 C 
HETATM    3  C8  UNL     1      10.130  10.674 -15.315  1.00  0.00     0.032 C 
HETATM    4  C9  UNL     1      10.310   9.665 -14.217  1.00  0.00     0.027 C 
HETATM    5  C10 UNL     1       9.884   8.258 -14.633  1.00  0.00     0.082 C 
HETATM    6  C18 UNL     1      10.047   8.233 -16.143  1.00  0.00     0.027 C 
HETATM    7  C19 UNL     1       8.972   9.077 -16.745  1.00  0.00     0.032 C 
ENDROOT
BRANCH   5   8
HETATM    8  N2  UNL     1      10.761   7.283 -14.025  1.00  0.00    -0.383 N 
ATOM      9  H2  UNL     1      10.601   7.056 -13.044  1.00  0.00     0.160 HD
BRANCH   8  10
HETATM   10  C11 UNL     1      11.821   6.618 -14.679  1.00  0.00     0.070 A 
HETATM   11  C12 UNL     1      12.353   7.132 -15.827  1.00  0.00     0.072 A 
HETATM   12  C13 UNL     1      13.396   6.461 -16.481  1.00  0.00     0.105 A 
HETATM   13  O2  UNL     1      14.062   6.742 -17.573  1.00  0.00    -0.304 OA
HETATM   14  C15 UNL     1      13.904   5.292 -16.000  1.00  0.00     0.070 A 
HETATM   15  C14 UNL     1      14.964   5.825 -17.820  1.00  0.00     0.234 A 
HETATM   16  N3  UNL     1      14.883   4.902 -16.842  1.00  0.00    -0.344 N 
ATOM     17  H3  UNL     1      15.455   4.062 -16.754  1.00  0.00     0.167 HD
HETATM   18  C16 UNL     1      13.368   4.765 -14.836  1.00  0.00     0.077 A 
HETATM   19  C17 UNL     1      12.344   5.435 -14.203  1.00  0.00     0.145 A 
HETATM   20  F1  UNL     1      11.809   4.932 -13.064  1.00  0.00    -0.204 F 
ENDBRANCH   8  10
ENDBRANCH   5   8
BRANCH   2  21
HETATM   21  N1  UNL     1       8.497  11.408 -17.019  1.00  0.00    -0.352 N 
HETATM   22  C3  UNL     1       8.209  12.765 -16.760  1.00  0.00     0.226 C 
HETATM   23  O1  UNL     1       8.252  13.186 -15.585  1.00  0.00    -0.273 OA
ATOM     24  H1  UNL     1       8.452  11.103 -17.991  1.00  0.00     0.163 HD
BRANCH  22  25
HETATM   25  C4  UNL     1       7.866  13.678 -17.847  1.00  0.00     0.030 C 
HETATM   26  C5  UNL     1       6.679  14.573 -17.467  1.00  0.00     0.024 C 
HETATM   27  C6  UNL     1       7.472  12.959 -19.120  1.00  0.00     0.024 C 
HETATM   28  C7  UNL     1       8.995  14.619 -18.207  1.00  0.00     0.024 C 
ENDBRANCH  22  25
ENDBRANCH   2  21
TORSDOF 4
ENDMDL
