MODEL 1
REMARK VINA RESULT: -7.647204612      0.000      0.000
REMARK  5 active torsions:
REMARK  status: ('A' for Active; 'I' for Inactive)
REMARK    1  A    between atoms: C2_2  and  C4_4 
REMARK    2  A    between atoms: C4_4  and  C5_5 
REMARK    3  A    between atoms: C5_5  and  S1_6 
REMARK    4  A    between atoms: S1_6  and  C6_7 
REMARK    5  A    between atoms: C7_10  and  O1_12 
ROOT
HETATM    1  C6  UNL     1      11.867   6.362 -15.005  1.00  0.00     0.142 C 
HETATM    2  N1  UNL     1      10.915   7.172 -14.643  1.00  0.00    -0.339 N 
ATOM      3  H1  UNL     1      10.461   7.626 -15.436  1.00  0.00     0.164 HD
HETATM    4  C7  UNL     1      10.368   7.566 -13.398  1.00  0.00     0.133 C 
HETATM    5  C8  UNL     1       9.065   8.307 -13.708  1.00  0.00     0.071 C 
HETATM    6  C9  UNL     1      10.044   6.502 -12.421  1.00  0.00     0.101 C 
HETATM    7  C10 UNL     1      11.125   5.576 -12.073  1.00  0.00    -0.025 A 
HETATM    8  C11 UNL     1      10.911   5.043 -10.817  1.00  0.00     0.028 A 
HETATM    9  C12 UNL     1      11.766   4.139 -10.227  1.00  0.00     0.011 A 
HETATM   10 BR1  UNL     1      11.423   3.426  -8.476  1.00  0.00    -0.051 Br
HETATM   11  C13 UNL     1      12.884   3.756 -10.930  1.00  0.00     0.021 A 
HETATM   12  C14 UNL     1      13.128   4.277 -12.200  1.00  0.00     0.031 A 
HETATM   13  C15 UNL     1      12.254   5.179 -12.762  1.00  0.00     0.040 A 
HETATM   14  N2  UNL     1      12.632   5.625 -14.058  1.00  0.00    -0.337 N 
ATOM     15  H2  UNL     1      13.579   5.384 -14.348  1.00  0.00     0.168 HD
ENDROOT
BRANCH   1  16
HETATM   16  S1  UNL     1      12.247   6.145 -16.706  1.00  0.00    -0.094 SA
BRANCH  16  17
HETATM   17  C5  UNL     1      13.714   5.123 -16.919  1.00  0.00     0.082 C 
BRANCH  17  18
HETATM   18  C4  UNL     1      14.819   5.759 -17.687  1.00  0.00     0.014 C 
BRANCH  18  19
HETATM   19  C2  UNL     1      14.523   6.092 -19.108  1.00  0.00    -0.022 C 
HETATM   20  C1  UNL     1      13.985   4.832 -19.801  1.00  0.00     0.009 C 
HETATM   21  C3  UNL     1      15.657   6.625 -19.911  1.00  0.00     0.009 C 
ENDBRANCH  18  19
ENDBRANCH  17  18
ENDBRANCH  16  17
ENDBRANCH   1  16
BRANCH   4  22
HETATM   22  O1  UNL     1      11.171   8.521 -12.729  1.00  0.00    -0.371 OA
ATOM     23  H1  UNL     1      10.741   8.891 -11.967  1.00  0.00     0.212 HD
ENDBRANCH   4  22
TORSDOF 5
ENDMDL
MODEL 2
REMARK VINA RESULT: -7.600287427      1.252      1.714
REMARK  5 active torsions:
REMARK  status: ('A' for Active; 'I' for Inactive)
REMARK    1  A    between atoms: C2_2  and  C4_4 
REMARK    2  A    between atoms: C4_4  and  C5_5 
REMARK    3  A    between atoms: C5_5  and  S1_6 
REMARK    4  A    between atoms: S1_6  and  C6_7 
REMARK    5  A    between atoms: C7_10  and  O1_12 
ROOT
HETATM    1  C6  UNL     1      10.918   7.714 -14.883  1.00  0.00     0.142 C 
HETATM    2  N1  UNL     1      10.128   8.482 -14.190  1.00  0.00    -0.339 N 
ATOM      3  H1  UNL     1       9.592   9.125 -14.773  1.00  0.00     0.164 HD
HETATM    4  C7  UNL     1       9.846   8.627 -12.810  1.00  0.00     0.133 C 
HETATM    5  C8  UNL     1       8.589   9.496 -12.711  1.00  0.00     0.071 C 
HETATM    6  C9  UNL     1       9.589   7.397 -12.027  1.00  0.00     0.101 C 
HETATM    7  C10 UNL     1      10.615   6.354 -12.086  1.00  0.00    -0.025 A 
HETATM    8  C11 UNL     1      10.568   5.572 -10.948  1.00  0.00     0.028 A 
HETATM    9  C12 UNL     1      11.417   4.511 -10.727  1.00  0.00     0.011 A 
HETATM   10 BR1  UNL     1      11.310   3.455  -9.125  1.00  0.00    -0.051 Br
HETATM   11  C13 UNL     1      12.354   4.223 -11.691  1.00  0.00     0.021 A 
HETATM   12  C14 UNL     1      12.427   4.993 -12.852  1.00  0.00     0.031 A 
HETATM   13  C15 UNL     1      11.564   6.048 -13.043  1.00  0.00     0.040 A 
HETATM   14  N2  UNL     1      11.756   6.742 -14.268  1.00  0.00    -0.337 N 
ATOM     15  H2  UNL     1      12.611   6.513 -14.775  1.00  0.00     0.168 HD
ENDROOT
BRANCH   1  16
HETATM   16  S1  UNL     1      10.976   7.851 -16.633  1.00  0.00    -0.094 SA
BRANCH  16  17
HETATM   17  C5  UNL     1      12.535   7.226 -17.283  1.00  0.00     0.082 C 
BRANCH  17  18
HETATM   18  C4  UNL     1      12.666   5.744 -17.290  1.00  0.00     0.014 C 
BRANCH  18  19
HETATM   19  C2  UNL     1      14.055   5.209 -17.341  1.00  0.00    -0.022 C 
HETATM   20  C1  UNL     1      14.663   5.300 -15.935  1.00  0.00     0.009 C 
HETATM   21  C3  UNL     1      14.982   5.870 -18.301  1.00  0.00     0.009 C 
ENDBRANCH  18  19
ENDBRANCH  17  18
ENDBRANCH  16  17
ENDBRANCH   1  16
BRANCH   4  22
HETATM   22  O1  UNL     1      10.843   9.362 -12.125  1.00  0.00    -0.371 OA
ATOM     23  H1  UNL     1      11.182   8.899 -11.368  1.00  0.00     0.212 HD
ENDBRANCH   4  22
TORSDOF 5
ENDMDL
MODEL 3
REMARK VINA RESULT: -7.498150734      3.373      6.776
REMARK  5 active torsions:
REMARK  status: ('A' for Active; 'I' for Inactive)
REMARK    1  A    between atoms: C2_2  and  C4_4 
REMARK    2  A    between atoms: C4_4  and  C5_5 
REMARK    3  A    between atoms: C5_5  and  S1_6 
REMARK    4  A    between atoms: S1_6  and  C6_7 
REMARK    5  A    between atoms: C7_10  and  O1_12 
ROOT
HETATM    1  C6  UNL     1      10.766   7.079 -13.785  1.00  0.00     0.142 C 
HETATM    2  N1  UNL     1      10.456   8.218 -14.334  1.00  0.00    -0.339 N 
ATOM      3  H1  UNL     1      10.081   8.890 -13.665  1.00  0.00     0.164 HD
HETATM    4  C7  UNL     1      10.522   8.733 -15.651  1.00  0.00     0.133 C 
HETATM    5  C8  UNL     1      10.294  10.243 -15.541  1.00  0.00     0.071 C 
HETATM    6  C9  UNL     1      11.780   8.536 -16.406  1.00  0.00     0.101 C 
HETATM    7  C10 UNL     1      12.267   7.160 -16.524  1.00  0.00    -0.025 A 
HETATM    8  C11 UNL     1      13.050   7.025 -17.654  1.00  0.00     0.028 A 
HETATM    9  C12 UNL     1      13.646   5.839 -18.022  1.00  0.00     0.011 A 
HETATM   10 BR1  UNL     1      14.726   5.705 -19.605  1.00  0.00    -0.051 Br
HETATM   11  C13 UNL     1      13.446   4.741 -17.218  1.00  0.00     0.021 A 
HETATM   12  C14 UNL     1      12.660   4.845 -16.070  1.00  0.00     0.031 A 
HETATM   13  C15 UNL     1      12.079   6.045 -15.731  1.00  0.00     0.040 A 
HETATM   14  N2  UNL     1      11.306   6.000 -14.538  1.00  0.00    -0.337 N 
ATOM     15  H2  UNL     1      11.113   5.067 -14.173  1.00  0.00     0.168 HD
ENDROOT
BRANCH   1  16
HETATM   16  S1  UNL     1      10.525   6.832 -12.063  1.00  0.00    -0.094 SA
BRANCH  16  17
HETATM   17  C5  UNL     1      11.246   5.273 -11.522  1.00  0.00     0.082 C 
BRANCH  17  18
HETATM   18  C4  UNL     1      10.930   4.884 -10.121  1.00  0.00     0.014 C 
BRANCH  18  19
HETATM   19  C2  UNL     1      11.259   3.483  -9.740  1.00  0.00    -0.022 C 
HETATM   20  C1  UNL     1      10.909   3.288  -8.258  1.00  0.00     0.009 C 
HETATM   21  C3  UNL     1      12.669   3.055  -9.952  1.00  0.00     0.009 C 
ENDBRANCH  18  19
ENDBRANCH  17  18
ENDBRANCH  16  17
ENDBRANCH   1  16
BRANCH   4  22
HETATM   22  O1  UNL     1       9.463   8.272 -16.470  1.00  0.00    -0.371 OA
ATOM     23  H1  UNL     1       8.995   8.980 -16.895  1.00  0.00     0.212 HD
ENDBRANCH   4  22
TORSDOF 5
ENDMDL
MODEL 4
REMARK VINA RESULT: -7.493918306      2.272      5.249
REMARK  5 active torsions:
REMARK  status: ('A' for Active; 'I' for Inactive)
REMARK    1  A    between atoms: C2_2  and  C4_4 
REMARK    2  A    between atoms: C4_4  and  C5_5 
REMARK    3  A    between atoms: C5_5  and  S1_6 
REMARK    4  A    between atoms: S1_6  and  C6_7 
REMARK    5  A    between atoms: C7_10  and  O1_12 
ROOT
HETATM    1  C6  UNL     1      11.220   7.710 -15.499  1.00  0.00     0.142 C 
HETATM    2  N1  UNL     1      12.050   7.055 -16.257  1.00  0.00    -0.339 N 
ATOM      3  H1  UNL     1      12.322   7.578 -17.090  1.00  0.00     0.164 HD
HETATM    4  C7  UNL     1      12.660   5.779 -16.187  1.00  0.00     0.133 C 
HETATM    5  C8  UNL     1      13.768   5.766 -17.244  1.00  0.00     0.071 C 
HETATM    6  C9  UNL     1      13.278   5.381 -14.902  1.00  0.00     0.101 C 
HETATM    7  C10 UNL     1      12.424   5.448 -13.714  1.00  0.00    -0.025 A 
HETATM    8  C11 UNL     1      12.874   4.562 -12.753  1.00  0.00     0.028 A 
HETATM    9  C12 UNL     1      12.265   4.408 -11.527  1.00  0.00     0.011 A 
HETATM   10 BR1  UNL     1      12.930   3.161 -10.225  1.00  0.00    -0.051 Br
HETATM   11  C13 UNL     1      11.158   5.177 -11.256  1.00  0.00     0.021 A 
HETATM   12  C14 UNL     1      10.680   6.080 -12.205  1.00  0.00     0.031 A 
HETATM   13  C15 UNL     1      11.311   6.210 -13.421  1.00  0.00     0.040 A 
HETATM   14  N2  UNL     1      10.712   7.165 -14.287  1.00  0.00    -0.337 N 
ATOM     15  H2  UNL     1       9.795   7.506 -14.001  1.00  0.00     0.168 HD
ENDROOT
BRANCH   1  16
HETATM   16  S1  UNL     1      10.689   9.321 -15.955  1.00  0.00    -0.094 SA
BRANCH  16  17
HETATM   17  C5  UNL     1       9.189   9.255 -16.950  1.00  0.00     0.082 C 
BRANCH  17  18
HETATM   18  C4  UNL     1       7.925   9.123 -16.176  1.00  0.00     0.014 C 
BRANCH  18  19
HETATM   19  C2  UNL     1       7.957   9.628 -14.776  1.00  0.00    -0.022 C 
HETATM   20  C1  UNL     1       7.295   8.583 -13.867  1.00  0.00     0.009 C 
HETATM   21  C3  UNL     1       7.307  10.945 -14.535  1.00  0.00     0.009 C 
ENDBRANCH  18  19
ENDBRANCH  17  18
ENDBRANCH  16  17
ENDBRANCH   1  16
BRANCH   4  22
HETATM   22  O1  UNL     1      11.785   4.736 -16.575  1.00  0.00    -0.371 OA
ATOM     23  H1  UNL     1      10.963   5.059 -16.925  1.00  0.00     0.212 HD
ENDBRANCH   4  22
TORSDOF 5
ENDMDL
MODEL 5
REMARK VINA RESULT: -7.377627445      3.322      6.344
REMARK  5 active torsions:
REMARK  status: ('A' for Active; 'I' for Inactive)
REMARK    1  A    between atoms: C2_2  and  C4_4 
REMARK    2  A    between atoms: C4_4  and  C5_5 
REMARK    3  A    between atoms: C5_5  and  S1_6 
REMARK    4  A    between atoms: S1_6  and  C6_7 
REMARK    5  A    between atoms: C7_10  and  O1_12 
ROOT
HETATM    1  C6  UNL     1      10.242   7.860 -13.355  1.00  0.00     0.142 C 
HETATM    2  N1  UNL     1       9.847   8.858 -14.090  1.00  0.00    -0.339 N 
ATOM      3  H1  UNL     1       9.420   9.607 -13.544  1.00  0.00     0.164 HD
HETATM    4  C7  UNL     1       9.876   9.140 -15.477  1.00  0.00     0.133 C 
HETATM    5  C8  UNL     1       9.533  10.624 -15.629  1.00  0.00     0.071 C 
HETATM    6  C9  UNL     1      11.147   8.909 -16.200  1.00  0.00     0.101 C 
HETATM    7  C10 UNL     1      11.738   7.575 -16.082  1.00  0.00    -0.025 A 
HETATM    8  C11 UNL     1      12.532   7.305 -17.181  1.00  0.00     0.028 A 
HETATM    9  C12 UNL     1      13.217   6.121 -17.342  1.00  0.00     0.011 A 
HETATM   10 BR1  UNL     1      14.307   5.794 -18.890  1.00  0.00    -0.051 Br
HETATM   11  C13 UNL     1      13.099   5.168 -16.358  1.00  0.00     0.021 A 
HETATM   12  C14 UNL     1      12.306   5.411 -15.236  1.00  0.00     0.031 A 
HETATM   13  C15 UNL     1      11.634   6.604 -15.105  1.00  0.00     0.040 A 
HETATM   14  N2  UNL     1      10.864   6.710 -13.914  1.00  0.00    -0.337 N 
ATOM     15  H2  UNL     1      10.743   5.843 -13.390  1.00  0.00     0.168 HD
ENDROOT
BRANCH   1  16
HETATM   16  S1  UNL     1      10.016   7.900 -11.613  1.00  0.00    -0.094 SA
BRANCH  16  17
HETATM   17  C5  UNL     1       9.647   6.259 -10.968  1.00  0.00     0.082 C 
BRANCH  17  18
HETATM   18  C4  UNL     1      10.778   5.585 -10.276  1.00  0.00     0.014 C 
BRANCH  18  19
HETATM   19  C2  UNL     1      11.211   4.279 -10.847  1.00  0.00    -0.022 C 
HETATM   20  C1  UNL     1      11.436   3.294  -9.692  1.00  0.00     0.009 C 
HETATM   21  C3  UNL     1      12.435   4.303 -11.694  1.00  0.00     0.009 C 
ENDBRANCH  18  19
ENDBRANCH  17  18
ENDBRANCH  16  17
ENDBRANCH   1  16
BRANCH   4  22
HETATM   22  O1  UNL     1       8.857   8.464 -16.191  1.00  0.00    -0.371 OA
ATOM     23  H1  UNL     1       8.304   9.056 -16.688  1.00  0.00     0.212 HD
ENDBRANCH   4  22
TORSDOF 5
ENDMDL
