MODEL 1
REMARK VINA RESULT: -9.018281829      0.000      0.000
REMARK  15 active torsions:
REMARK  status: ('A' for Active; 'I' for Inactive)
REMARK    1  A    between atoms: C2_2  and  C3_3 
REMARK    2  A    between atoms: C3_3  and  S1_4 
REMARK    3  A    between atoms: S1_4  and  N1_7 
REMARK       I    between atoms: N1_7  and  C4_9 
REMARK    4  A    between atoms: C4_9  and  C5_11 
REMARK    5  A    between atoms: C5_11  and  O4_12 
REMARK    6  A    between atoms: C5_11  and  C6_14 
REMARK    7  A    between atoms: C6_14  and  O5_15 
REMARK    8  A    between atoms: C6_14  and  C7_17 
REMARK    9  A    between atoms: C7_17  and  O6_18 
REMARK   10  A    between atoms: O6_18  and  C8_19 
REMARK   11  A    between atoms: C8_19  and  C9_21 
REMARK   12  A    between atoms: C11_23  and  N2_24 
REMARK   13  A    between atoms: C13_26  and  C14_27 
REMARK   14  A    between atoms: C21_41  and  N6_42 
REMARK   15  A    between atoms: N9_51  and  O10_52 
ROOT
HETATM    1  C9  UNL     1     -66.303  24.657 -33.509  1.00  0.00     0.183 C 
HETATM    2  C10 UNL     1     -64.961  25.405 -33.501  1.00  0.00     0.074 C 
HETATM    3  C11 UNL     1     -64.623  25.442 -32.026  1.00  0.00     0.241 C 
HETATM    4  N9  UNL     1     -65.884  25.797 -31.453  1.00  0.00    -0.203 N 
HETATM    5  C24 UNL     1     -66.830  24.955 -32.152  1.00  0.00     0.259 C 
HETATM    6  O11 UNL     1     -67.943  24.523 -31.705  1.00  0.00    -0.270 OA
ENDROOT
BRANCH   3   7
HETATM    7  N2  UNL     1     -63.515  26.262 -31.687  1.00  0.00    -0.167 N 
HETATM    8  C12 UNL     1     -63.240  27.459 -32.222  1.00  0.00     0.129 A 
HETATM    9  C13 UNL     1     -62.155  28.206 -31.866  1.00  0.00     0.060 A 
HETATM   10  C18 UNL     1     -61.280  27.713 -30.901  1.00  0.00     0.279 A 
HETATM   11  O8  UNL     1     -60.292  28.431 -30.602  1.00  0.00    -0.266 OA
HETATM   12  N4  UNL     1     -61.556  26.511 -30.364  1.00  0.00    -0.101 N 
HETATM   13  C19 UNL     1     -60.885  25.806 -29.419  1.00  0.00     0.173 A 
HETATM   14  C23 UNL     1     -62.654  25.807 -30.756  1.00  0.00     0.698 A 
HETATM   15  C20 UNL     1     -59.752  25.988 -28.676  1.00  0.00     0.291 A 
HETATM   16  C22 UNL     1     -61.605  24.620 -29.227  1.00  0.00     0.170 A 
HETATM   17  O9  UNL     1     -59.062  27.017 -28.794  1.00  0.00    -0.265 OA
HETATM   18  N5  UNL     1     -59.337  25.042 -27.774  1.00  0.00    -0.154 N 
HETATM   19  C21 UNL     1     -60.034  23.908 -27.596  1.00  0.00     0.680 A 
ATOM     20  H5  UNL     1     -58.489  25.202 -27.231  1.00  0.00     0.187 HD
HETATM   21  N7  UNL     1     -61.149  23.725 -28.325  1.00  0.00    -0.174 N 
ATOM     22  H7  UNL     1     -61.678  22.863 -28.190  1.00  0.00     0.186 HD
HETATM   23  N8  UNL     1     -62.648  24.654 -30.036  1.00  0.00    -0.173 N 
ATOM     24  H8  UNL     1     -63.352  23.919 -30.110  1.00  0.00     0.186 HD
BRANCH   9  25
HETATM   25  C14 UNL     1     -61.878  29.530 -32.487  1.00  0.00    -0.010 A 
HETATM   26  C15 UNL     1     -60.891  29.648 -33.431  1.00  0.00     0.064 A 
HETATM   27  S2  UNL     1     -60.941  31.301 -33.837  1.00  0.00    -0.086 SA
HETATM   28  C16 UNL     1     -62.205  31.798 -32.807  1.00  0.00     0.087 A 
HETATM   29  N3  UNL     1     -62.784  33.114 -32.630  1.00  0.00    -0.094 NA
HETATM   30  C17 UNL     1     -62.555  30.637 -32.166  1.00  0.00     0.047 A 
ENDBRANCH   9  25
BRANCH  19  31
HETATM   31  N6  UNL     1     -59.623  23.029 -26.737  1.00  0.00    -0.234 N 
ATOM     32  H62 UNL     1     -58.634  22.907 -26.519  1.00  0.00     0.174 HD
ATOM     33  H61 UNL     1     -60.299  22.435 -26.257  1.00  0.00     0.174 HD
ENDBRANCH  19  31
ENDBRANCH   3   7
BRANCH   4  34
HETATM   34  O10 UNL     1     -66.231  26.682 -30.497  1.00  0.00    -0.283 OA
ATOM     35  H10 UNL     1     -66.858  26.641 -29.784  1.00  0.00     0.245 HD
ENDBRANCH   4  34
BRANCH   1  36
HETATM   36  C8  UNL     1     -67.259  25.291 -34.485  1.00  0.00     0.272 C 
HETATM   37  O7  UNL     1     -67.466  26.527 -34.391  1.00  0.00    -0.264 OA
BRANCH  36  38
HETATM   38  O6  UNL     1     -67.897  24.573 -35.450  1.00  0.00    -0.318 OA
BRANCH  38  39
HETATM   39  C7  UNL     1     -68.374  25.158 -36.628  1.00  0.00     0.213 C 
BRANCH  39  40
HETATM   40  C6  UNL     1     -68.914  24.083 -37.538  1.00  0.00     0.180 C 
BRANCH  40  41
HETATM   41  C5  UNL     1     -68.176  22.761 -37.392  1.00  0.00     0.241 C 
BRANCH  41  42
HETATM   42  C4  UNL     1     -68.257  21.924 -38.613  1.00  0.00     0.262 C 
HETATM   43  N1  UNL     1     -67.444  22.173 -39.750  1.00  0.00    -0.252 N 
ATOM     44  H1  UNL     1     -66.786  22.953 -39.725  1.00  0.00     0.181 HD
HETATM   45  O3  UNL     1     -69.059  20.935 -38.709  1.00  0.00    -0.270 OA
BRANCH  43  46
HETATM   46  S1  UNL     1     -67.533  21.214 -41.148  1.00  0.00     0.233 S 
HETATM   47  O1  UNL     1     -68.984  21.051 -41.508  1.00  0.00    -0.206 OA
HETATM   48  O2  UNL     1     -66.876  21.875 -42.334  1.00  0.00    -0.206 OA
BRANCH  46  49
HETATM   49  C3  UNL     1     -66.785  19.627 -40.949  1.00  0.00     0.163 C 
BRANCH  49  50
HETATM   50  C2  UNL     1     -65.518  19.709 -40.123  1.00  0.00     0.012 C 
HETATM   51  C1  UNL     1     -64.835  18.375 -40.071  1.00  0.00     0.006 C 
ENDBRANCH  49  50
ENDBRANCH  46  49
ENDBRANCH  43  46
ENDBRANCH  41  42
BRANCH  41  52
HETATM   52  O4  UNL     1     -68.847  22.046 -36.385  1.00  0.00    -0.383 OA
ATOM     53  H4  UNL     1     -69.774  22.140 -36.568  1.00  0.00     0.210 HD
ENDBRANCH  41  52
ENDBRANCH  40  41
BRANCH  40  54
HETATM   54  O5  UNL     1     -70.256  23.909 -37.110  1.00  0.00    -0.390 OA
ATOM     55  H5  UNL     1     -70.744  23.474 -37.800  1.00  0.00     0.210 HD
ENDBRANCH  40  54
ENDBRANCH  39  40
ENDBRANCH  38  39
ENDBRANCH  36  38
ENDBRANCH   1  36
TORSDOF 15
ENDMDL
MODEL 2
REMARK VINA RESULT: -8.905406711      5.329      8.415
REMARK  15 active torsions:
REMARK  status: ('A' for Active; 'I' for Inactive)
REMARK    1  A    between atoms: C2_2  and  C3_3 
REMARK    2  A    between atoms: C3_3  and  S1_4 
REMARK    3  A    between atoms: S1_4  and  N1_7 
REMARK       I    between atoms: N1_7  and  C4_9 
REMARK    4  A    between atoms: C4_9  and  C5_11 
REMARK    5  A    between atoms: C5_11  and  O4_12 
REMARK    6  A    between atoms: C5_11  and  C6_14 
REMARK    7  A    between atoms: C6_14  and  O5_15 
REMARK    8  A    between atoms: C6_14  and  C7_17 
REMARK    9  A    between atoms: C7_17  and  O6_18 
REMARK   10  A    between atoms: O6_18  and  C8_19 
REMARK   11  A    between atoms: C8_19  and  C9_21 
REMARK   12  A    between atoms: C11_23  and  N2_24 
REMARK   13  A    between atoms: C13_26  and  C14_27 
REMARK   14  A    between atoms: C21_41  and  N6_42 
REMARK   15  A    between atoms: N9_51  and  O10_52 
ROOT
HETATM    1  C9  UNL     1     -61.958  30.545 -33.358  1.00  0.00     0.183 C 
HETATM    2  C10 UNL     1     -63.197  29.743 -32.931  1.00  0.00     0.074 C 
HETATM    3  C11 UNL     1     -62.966  29.560 -31.447  1.00  0.00     0.241 C 
HETATM    4  N9  UNL     1     -61.580  29.211 -31.414  1.00  0.00    -0.203 N 
HETATM    5  C24 UNL     1     -60.965  30.150 -32.325  1.00  0.00     0.259 C 
HETATM    6  O11 UNL     1     -59.768  30.588 -32.278  1.00  0.00    -0.270 OA
ENDROOT
BRANCH   3   7
HETATM    7  N2  UNL     1     -63.865  28.667 -30.807  1.00  0.00    -0.167 N 
HETATM    8  C12 UNL     1     -64.830  27.966 -31.415  1.00  0.00     0.129 A 
HETATM    9  C13 UNL     1     -65.674  27.124 -30.752  1.00  0.00     0.060 A 
HETATM   10  C18 UNL     1     -65.540  26.977 -29.373  1.00  0.00     0.279 A 
HETATM   11  O8  UNL     1     -66.339  26.193 -28.799  1.00  0.00    -0.266 OA
HETATM   12  N4  UNL     1     -64.571  27.682 -28.762  1.00  0.00    -0.101 N 
HETATM   13  C19 UNL     1     -64.223  27.727 -27.452  1.00  0.00     0.173 A 
HETATM   14  C23 UNL     1     -63.755  28.508 -29.473  1.00  0.00     0.698 A 
HETATM   15  C20 UNL     1     -64.659  27.138 -26.297  1.00  0.00     0.291 A 
HETATM   16  C22 UNL     1     -63.148  28.621 -27.359  1.00  0.00     0.170 A 
HETATM   17  O9  UNL     1     -65.610  26.334 -26.303  1.00  0.00    -0.265 OA
HETATM   18  N5  UNL     1     -64.063  27.412 -25.093  1.00  0.00    -0.154 N 
HETATM   19  C21 UNL     1     -63.033  28.270 -25.015  1.00  0.00     0.680 A 
ATOM     20  H5  UNL     1     -64.407  26.959 -24.247  1.00  0.00     0.187 HD
HETATM   21  N7  UNL     1     -62.601  28.851 -26.147  1.00  0.00    -0.174 N 
ATOM     22  H7  UNL     1     -61.818  29.503 -26.087  1.00  0.00     0.186 HD
HETATM   23  N8  UNL     1     -62.897  29.064 -28.578  1.00  0.00    -0.173 N 
ATOM     24  H8  UNL     1     -62.161  29.731 -28.813  1.00  0.00     0.186 HD
BRANCH   9  25
HETATM   25  C14 UNL     1     -66.740  26.364 -31.461  1.00  0.00    -0.010 A 
HETATM   26  C15 UNL     1     -68.022  26.849 -31.485  1.00  0.00     0.064 A 
HETATM   27  S2  UNL     1     -68.862  25.671 -32.385  1.00  0.00    -0.086 SA
HETATM   28  C16 UNL     1     -67.574  24.603 -32.707  1.00  0.00     0.087 A 
HETATM   29  N3  UNL     1     -67.576  23.355 -33.443  1.00  0.00    -0.094 NA
HETATM   30  C17 UNL     1     -66.509  25.208 -32.091  1.00  0.00     0.047 A 
ENDBRANCH   9  25
BRANCH  19  31
HETATM   31  N6  UNL     1     -62.485  28.512 -23.865  1.00  0.00    -0.234 N 
ATOM     32  H62 UNL     1     -62.938  28.261 -22.986  1.00  0.00     0.174 HD
ATOM     33  H61 UNL     1     -61.573  28.968 -23.825  1.00  0.00     0.174 HD
ENDBRANCH  19  31
ENDBRANCH   3   7
BRANCH   4  34
HETATM   34  O10 UNL     1     -60.898  28.260 -30.743  1.00  0.00    -0.283 OA
ATOM     35  H10 UNL     1     -60.042  28.257 -30.333  1.00  0.00     0.245 HD
ENDBRANCH   4  34
BRANCH   1  36
HETATM   36  C8  UNL     1     -61.425  30.041 -34.674  1.00  0.00     0.272 C 
HETATM   37  O7  UNL     1     -60.883  30.870 -35.448  1.00  0.00    -0.264 OA
BRANCH  36  38
HETATM   38  O6  UNL     1     -61.515  28.734 -35.042  1.00  0.00    -0.318 OA
BRANCH  38  39
HETATM   39  C7  UNL     1     -60.390  27.965 -35.361  1.00  0.00     0.213 C 
BRANCH  39  40
HETATM   40  C6  UNL     1     -60.103  27.005 -34.234  1.00  0.00     0.180 C 
BRANCH  40  41
HETATM   41  C5  UNL     1     -61.365  26.388 -33.650  1.00  0.00     0.241 C 
BRANCH  41  42
HETATM   42  C4  UNL     1     -61.152  25.830 -32.292  1.00  0.00     0.262 C 
HETATM   43  N1  UNL     1     -62.231  25.579 -31.405  1.00  0.00    -0.252 N 
ATOM     44  H1  UNL     1     -63.181  25.790 -31.710  1.00  0.00     0.181 HD
HETATM   45  O3  UNL     1     -59.989  25.546 -31.849  1.00  0.00    -0.270 OA
BRANCH  43  46
HETATM   46  S1  UNL     1     -61.988  24.937 -29.851  1.00  0.00     0.233 S 
HETATM   47  O1  UNL     1     -61.399  26.020 -28.989  1.00  0.00    -0.206 OA
HETATM   48  O2  UNL     1     -63.284  24.534 -29.194  1.00  0.00    -0.206 OA
BRANCH  46  49
HETATM   49  C3  UNL     1     -60.930  23.524 -29.842  1.00  0.00     0.163 C 
BRANCH  49  50
HETATM   50  C2  UNL     1     -61.479  22.426 -28.954  1.00  0.00     0.012 C 
HETATM   51  C1  UNL     1     -60.601  22.231 -27.753  1.00  0.00     0.006 C 
ENDBRANCH  49  50
ENDBRANCH  46  49
ENDBRANCH  43  46
ENDBRANCH  41  42
BRANCH  41  52
HETATM   52  O4  UNL     1     -61.687  25.296 -34.473  1.00  0.00    -0.383 OA
ATOM     53  H4  UNL     1     -60.930  25.152 -35.028  1.00  0.00     0.210 HD
ENDBRANCH  41  52
ENDBRANCH  40  41
BRANCH  40  54
HETATM   54  O5  UNL     1     -59.331  25.980 -34.841  1.00  0.00    -0.390 OA
ATOM     55  H5  UNL     1     -59.635  25.854 -35.732  1.00  0.00     0.210 HD
ENDBRANCH  40  54
ENDBRANCH  39  40
ENDBRANCH  38  39
ENDBRANCH  36  38
ENDBRANCH   1  36
TORSDOF 15
ENDMDL
MODEL 3
REMARK VINA RESULT: -8.701911979      3.144      4.202
REMARK  15 active torsions:
REMARK  status: ('A' for Active; 'I' for Inactive)
REMARK    1  A    between atoms: C2_2  and  C3_3 
REMARK    2  A    between atoms: C3_3  and  S1_4 
REMARK    3  A    between atoms: S1_4  and  N1_7 
REMARK       I    between atoms: N1_7  and  C4_9 
REMARK    4  A    between atoms: C4_9  and  C5_11 
REMARK    5  A    between atoms: C5_11  and  O4_12 
REMARK    6  A    between atoms: C5_11  and  C6_14 
REMARK    7  A    between atoms: C6_14  and  O5_15 
REMARK    8  A    between atoms: C6_14  and  C7_17 
REMARK    9  A    between atoms: C7_17  and  O6_18 
REMARK   10  A    between atoms: O6_18  and  C8_19 
REMARK   11  A    between atoms: C8_19  and  C9_21 
REMARK   12  A    between atoms: C11_23  and  N2_24 
REMARK   13  A    between atoms: C13_26  and  C14_27 
REMARK   14  A    between atoms: C21_41  and  N6_42 
REMARK   15  A    between atoms: N9_51  and  O10_52 
ROOT
HETATM    1  C9  UNL     1     -67.356  27.044 -30.762  1.00  0.00     0.183 C 
HETATM    2  C10 UNL     1     -65.905  26.565 -30.598  1.00  0.00     0.074 C 
HETATM    3  C11 UNL     1     -65.150  27.870 -30.471  1.00  0.00     0.241 C 
HETATM    4  N9  UNL     1     -65.755  28.653 -31.502  1.00  0.00    -0.203 N 
HETATM    5  C24 UNL     1     -67.169  28.398 -31.344  1.00  0.00     0.259 C 
HETATM    6  O11 UNL     1     -68.126  29.186 -31.645  1.00  0.00    -0.270 OA
ENDROOT
BRANCH   3   7
HETATM    7  N2  UNL     1     -63.736  27.749 -30.508  1.00  0.00    -0.167 N 
HETATM    8  C12 UNL     1     -63.008  27.459 -31.595  1.00  0.00     0.129 A 
HETATM    9  C13 UNL     1     -61.648  27.346 -31.576  1.00  0.00     0.060 A 
HETATM   10  C18 UNL     1     -60.968  27.538 -30.375  1.00  0.00     0.279 A 
HETATM   11  O8  UNL     1     -59.716  27.423 -30.401  1.00  0.00    -0.266 OA
HETATM   12  N4  UNL     1     -61.699  27.828 -29.284  1.00  0.00    -0.101 N 
HETATM   13  C19 UNL     1     -61.302  28.061 -28.009  1.00  0.00     0.173 A 
HETATM   14  C23 UNL     1     -63.055  27.929 -29.359  1.00  0.00     0.698 A 
HETATM   15  C20 UNL     1     -60.109  28.098 -27.341  1.00  0.00     0.291 A 
HETATM   16  C22 UNL     1     -62.466  28.314 -27.273  1.00  0.00     0.170 A 
HETATM   17  O9  UNL     1     -59.033  27.883 -27.930  1.00  0.00    -0.265 OA
HETATM   18  N5  UNL     1     -60.056  28.375 -25.999  1.00  0.00    -0.154 N 
HETATM   19  C21 UNL     1     -61.179  28.618 -25.302  1.00  0.00     0.680 A 
ATOM     20  H5  UNL     1     -59.154  28.398 -25.525  1.00  0.00     0.187 HD
HETATM   21  N7  UNL     1     -62.354  28.582 -25.954  1.00  0.00    -0.174 N 
ATOM     22  H7  UNL     1     -63.206  28.766 -25.424  1.00  0.00     0.186 HD
HETATM   23  N8  UNL     1     -63.488  28.229 -28.106  1.00  0.00    -0.173 N 
ATOM     24  H8  UNL     1     -64.464  28.368 -27.845  1.00  0.00     0.186 HD
BRANCH   9  25
HETATM   25  C14 UNL     1     -60.873  27.017 -32.804  1.00  0.00    -0.010 A 
HETATM   26  C15 UNL     1     -60.408  28.026 -33.607  1.00  0.00     0.064 A 
HETATM   27  S2  UNL     1     -59.606  27.187 -34.854  1.00  0.00    -0.086 SA
HETATM   28  C16 UNL     1     -59.878  25.589 -34.327  1.00  0.00     0.087 A 
HETATM   29  N3  UNL     1     -59.464  24.338 -34.930  1.00  0.00    -0.094 NA
HETATM   30  C17 UNL     1     -60.600  25.762 -33.174  1.00  0.00     0.047 A 
ENDBRANCH   9  25
BRANCH  19  31
HETATM   31  N6  UNL     1     -61.104  28.878 -24.034  1.00  0.00    -0.234 N 
ATOM     32  H62 UNL     1     -61.325  29.800 -23.657  1.00  0.00     0.174 HD
ATOM     33  H61 UNL     1     -60.815  28.148 -23.384  1.00  0.00     0.174 HD
ENDBRANCH  19  31
ENDBRANCH   3   7
BRANCH   4  34
HETATM   34  O10 UNL     1     -65.240  29.464 -32.448  1.00  0.00    -0.283 OA
ATOM     35  H10 UNL     1     -64.348  29.636 -32.729  1.00  0.00     0.245 HD
ENDBRANCH   4  34
BRANCH   1  36
HETATM   36  C8  UNL     1     -68.070  26.227 -31.808  1.00  0.00     0.272 C 
HETATM   37  O7  UNL     1     -69.131  25.641 -31.476  1.00  0.00    -0.264 OA
BRANCH  36  38
HETATM   38  O6  UNL     1     -67.604  26.107 -33.081  1.00  0.00    -0.318 OA
BRANCH  38  39
HETATM   39  C7  UNL     1     -68.445  26.176 -34.197  1.00  0.00     0.213 C 
BRANCH  39  40
HETATM   40  C6  UNL     1     -67.658  25.842 -35.440  1.00  0.00     0.180 C 
BRANCH  40  41
HETATM   41  C5  UNL     1     -67.320  24.362 -35.543  1.00  0.00     0.241 C 
BRANCH  41  42
HETATM   42  C4  UNL     1     -67.811  23.752 -36.803  1.00  0.00     0.262 C 
HETATM   43  N1  UNL     1     -69.174  23.400 -36.986  1.00  0.00    -0.252 N 
ATOM     44  H1  UNL     1     -69.834  23.570 -36.227  1.00  0.00     0.181 HD
HETATM   45  O3  UNL     1     -67.037  23.512 -37.789  1.00  0.00    -0.270 OA
BRANCH  43  46
HETATM   46  S1  UNL     1     -69.738  22.704 -38.429  1.00  0.00     0.233 S 
HETATM   47  O1  UNL     1     -69.031  23.376 -39.574  1.00  0.00    -0.206 OA
HETATM   48  O2  UNL     1     -69.396  21.238 -38.524  1.00  0.00    -0.206 OA
BRANCH  46  49
HETATM   49  C3  UNL     1     -71.484  22.853 -38.635  1.00  0.00     0.163 C 
BRANCH  49  50
HETATM   50  C2  UNL     1     -71.832  23.612 -39.899  1.00  0.00     0.012 C 
HETATM   51  C1  UNL     1     -73.130  24.346 -39.734  1.00  0.00     0.006 C 
ENDBRANCH  49  50
ENDBRANCH  46  49
ENDBRANCH  43  46
ENDBRANCH  41  42
BRANCH  41  52
HETATM   52  O4  UNL     1     -68.019  23.726 -34.504  1.00  0.00    -0.383 OA
ATOM     53  H4  UNL     1     -68.902  24.073 -34.529  1.00  0.00     0.210 HD
ENDBRANCH  41  52
ENDBRANCH  40  41
BRANCH  40  54
HETATM   54  O5  UNL     1     -68.529  26.189 -36.505  1.00  0.00    -0.390 OA
ATOM     55  H5  UNL     1     -69.380  26.409 -36.145  1.00  0.00     0.210 HD
ENDBRANCH  40  54
ENDBRANCH  39  40
ENDBRANCH  38  39
ENDBRANCH  36  38
ENDBRANCH   1  36
TORSDOF 15
ENDMDL
MODEL 4
REMARK VINA RESULT: -8.659966056      1.962      2.939
REMARK  15 active torsions:
REMARK  status: ('A' for Active; 'I' for Inactive)
REMARK    1  A    between atoms: C2_2  and  C3_3 
REMARK    2  A    between atoms: C3_3  and  S1_4 
REMARK    3  A    between atoms: S1_4  and  N1_7 
REMARK       I    between atoms: N1_7  and  C4_9 
REMARK    4  A    between atoms: C4_9  and  C5_11 
REMARK    5  A    between atoms: C5_11  and  O4_12 
REMARK    6  A    between atoms: C5_11  and  C6_14 
REMARK    7  A    between atoms: C6_14  and  O5_15 
REMARK    8  A    between atoms: C6_14  and  C7_17 
REMARK    9  A    between atoms: C7_17  and  O6_18 
REMARK   10  A    between atoms: O6_18  and  C8_19 
REMARK   11  A    between atoms: C8_19  and  C9_21 
REMARK   12  A    between atoms: C11_23  and  N2_24 
REMARK   13  A    between atoms: C13_26  and  C14_27 
REMARK   14  A    between atoms: C21_41  and  N6_42 
REMARK   15  A    between atoms: N9_51  and  O10_52 
ROOT
HETATM    1  C9  UNL     1     -66.202  24.866 -33.213  1.00  0.00     0.183 C 
HETATM    2  C10 UNL     1     -64.859  25.614 -33.218  1.00  0.00     0.074 C 
HETATM    3  C11 UNL     1     -64.464  25.573 -31.758  1.00  0.00     0.241 C 
HETATM    4  N9  UNL     1     -65.700  25.896 -31.118  1.00  0.00    -0.203 N 
HETATM    5  C24 UNL     1     -66.675  25.093 -31.823  1.00  0.00     0.259 C 
HETATM    6  O11 UNL     1     -67.770  24.636 -31.356  1.00  0.00    -0.270 OA
ENDROOT
BRANCH   3   7
HETATM    7  N2  UNL     1     -63.342  26.375 -31.420  1.00  0.00    -0.167 N 
HETATM    8  C12 UNL     1     -63.048  27.567 -31.954  1.00  0.00     0.129 A 
HETATM    9  C13 UNL     1     -61.950  28.296 -31.599  1.00  0.00     0.060 A 
HETATM   10  C18 UNL     1     -61.082  27.788 -30.635  1.00  0.00     0.279 A 
HETATM   11  O8  UNL     1     -60.082  28.490 -30.337  1.00  0.00    -0.266 OA
HETATM   12  N4  UNL     1     -61.377  26.590 -30.099  1.00  0.00    -0.101 N 
HETATM   13  C19 UNL     1     -60.717  25.874 -29.156  1.00  0.00     0.173 A 
HETATM   14  C23 UNL     1     -62.487  25.905 -30.490  1.00  0.00     0.698 A 
HETATM   15  C20 UNL     1     -59.580  26.036 -28.413  1.00  0.00     0.291 A 
HETATM   16  C22 UNL     1     -61.456  24.699 -28.964  1.00  0.00     0.170 A 
HETATM   17  O9  UNL     1     -58.873  27.054 -28.531  1.00  0.00    -0.265 OA
HETATM   18  N5  UNL     1     -59.180  25.083 -27.513  1.00  0.00    -0.154 N 
HETATM   19  C21 UNL     1     -59.895  23.960 -27.335  1.00  0.00     0.680 A 
ATOM     20  H5  UNL     1     -58.328  25.229 -26.971  1.00  0.00     0.187 HD
HETATM   21  N7  UNL     1     -61.013  23.796 -28.063  1.00  0.00    -0.174 N 
ATOM     22  H7  UNL     1     -61.556  22.943 -27.927  1.00  0.00     0.186 HD
HETATM   23  N8  UNL     1     -62.500  24.751 -29.771  1.00  0.00    -0.173 N 
ATOM     24  H8  UNL     1     -63.215  24.028 -29.844  1.00  0.00     0.186 HD
BRANCH   9  25
HETATM   25  C14 UNL     1     -61.653  29.616 -32.219  1.00  0.00    -0.010 A 
HETATM   26  C15 UNL     1     -60.504  29.784 -32.948  1.00  0.00     0.064 A 
HETATM   27  S2  UNL     1     -60.594  31.411 -33.442  1.00  0.00    -0.086 SA
HETATM   28  C16 UNL     1     -62.078  31.835 -32.717  1.00  0.00     0.087 A 
HETATM   29  N3  UNL     1     -62.779  33.102 -32.730  1.00  0.00    -0.094 NA
HETATM   30  C17 UNL     1     -62.464  30.672 -32.101  1.00  0.00     0.047 A 
ENDBRANCH   9  25
BRANCH  19  31
HETATM   31  N6  UNL     1     -59.497  23.074 -26.477  1.00  0.00    -0.234 N 
ATOM     32  H62 UNL     1     -59.632  23.194 -25.473  1.00  0.00     0.174 HD
ATOM     33  H61 UNL     1     -59.032  22.227 -26.803  1.00  0.00     0.174 HD
ENDBRANCH  19  31
ENDBRANCH   3   7
BRANCH   4  34
HETATM   34  O10 UNL     1     -66.008  26.729 -30.103  1.00  0.00    -0.283 OA
ATOM     35  H10 UNL     1     -66.837  26.996 -29.723  1.00  0.00     0.245 HD
ENDBRANCH   4  34
BRANCH   1  36
HETATM   36  C8  UNL     1     -67.194  25.551 -34.116  1.00  0.00     0.272 C 
HETATM   37  O7  UNL     1     -67.215  26.807 -34.126  1.00  0.00    -0.264 OA
BRANCH  36  38
HETATM   38  O6  UNL     1     -68.056  24.856 -34.909  1.00  0.00    -0.318 OA
BRANCH  38  39
HETATM   39  C7  UNL     1     -68.352  25.248 -36.219  1.00  0.00     0.213 C 
BRANCH  39  40
HETATM   40  C6  UNL     1     -67.498  24.463 -37.183  1.00  0.00     0.180 C 
BRANCH  40  41
HETATM   41  C5  UNL     1     -68.034  23.061 -37.437  1.00  0.00     0.241 C 
BRANCH  41  42
HETATM   42  C4  UNL     1     -69.028  23.022 -38.537  1.00  0.00     0.262 C 
HETATM   43  N1  UNL     1     -70.409  23.259 -38.311  1.00  0.00    -0.252 N 
ATOM     44  H1  UNL     1     -70.727  23.461 -37.363  1.00  0.00     0.181 HD
HETATM   45  O3  UNL     1     -68.696  22.775 -39.746  1.00  0.00    -0.270 OA
BRANCH  43  46
HETATM   46  S1  UNL     1     -71.548  23.218 -39.570  1.00  0.00     0.233 S 
HETATM   47  O1  UNL     1     -71.319  24.422 -40.442  1.00  0.00    -0.206 OA
HETATM   48  O2  UNL     1     -71.368  22.013 -40.459  1.00  0.00    -0.206 OA
BRANCH  46  49
HETATM   49  C3  UNL     1     -73.217  23.205 -38.996  1.00  0.00     0.163 C 
BRANCH  49  50
HETATM   50  C2  UNL     1     -74.040  24.291 -39.658  1.00  0.00     0.012 C 
HETATM   51  C1  UNL     1     -75.499  23.943 -39.621  1.00  0.00     0.006 C 
ENDBRANCH  49  50
ENDBRANCH  46  49
ENDBRANCH  43  46
ENDBRANCH  41  42
BRANCH  41  52
HETATM   52  O4  UNL     1     -68.725  22.687 -36.273  1.00  0.00    -0.383 OA
ATOM     53  H4  UNL     1     -68.731  23.454 -35.712  1.00  0.00     0.210 HD
ENDBRANCH  41  52
ENDBRANCH  40  41
BRANCH  40  54
HETATM   54  O5  UNL     1     -67.565  25.205 -38.390  1.00  0.00    -0.390 OA
ATOM     55  H5  UNL     1     -67.423  24.615 -39.121  1.00  0.00     0.210 HD
ENDBRANCH  40  54
ENDBRANCH  39  40
ENDBRANCH  38  39
ENDBRANCH  36  38
ENDBRANCH   1  36
TORSDOF 15
ENDMDL
MODEL 5
REMARK VINA RESULT: -8.591213933      3.182      4.156
REMARK  15 active torsions:
REMARK  status: ('A' for Active; 'I' for Inactive)
REMARK    1  A    between atoms: C2_2  and  C3_3 
REMARK    2  A    between atoms: C3_3  and  S1_4 
REMARK    3  A    between atoms: S1_4  and  N1_7 
REMARK       I    between atoms: N1_7  and  C4_9 
REMARK    4  A    between atoms: C4_9  and  C5_11 
REMARK    5  A    between atoms: C5_11  and  O4_12 
REMARK    6  A    between atoms: C5_11  and  C6_14 
REMARK    7  A    between atoms: C6_14  and  O5_15 
REMARK    8  A    between atoms: C6_14  and  C7_17 
REMARK    9  A    between atoms: C7_17  and  O6_18 
REMARK   10  A    between atoms: O6_18  and  C8_19 
REMARK   11  A    between atoms: C8_19  and  C9_21 
REMARK   12  A    between atoms: C11_23  and  N2_24 
REMARK   13  A    between atoms: C13_26  and  C14_27 
REMARK   14  A    between atoms: C21_41  and  N6_42 
REMARK   15  A    between atoms: N9_51  and  O10_52 
ROOT
HETATM    1  C9  UNL     1     -67.490  26.054 -30.734  1.00  0.00     0.183 C 
HETATM    2  C10 UNL     1     -66.053  25.619 -30.408  1.00  0.00     0.074 C 
HETATM    3  C11 UNL     1     -65.470  26.872 -29.792  1.00  0.00     0.241 C 
HETATM    4  N9  UNL     1     -65.952  27.879 -30.684  1.00  0.00    -0.203 N 
HETATM    5  C24 UNL     1     -67.338  27.524 -30.891  1.00  0.00     0.259 C 
HETATM    6  O11 UNL     1     -68.299  28.317 -31.165  1.00  0.00    -0.270 OA
ENDROOT
BRANCH   3   7
HETATM    7  N2  UNL     1     -64.069  26.834 -29.571  1.00  0.00    -0.167 N 
HETATM    8  C12 UNL     1     -63.160  26.337 -30.420  1.00  0.00     0.129 A 
HETATM    9  C13 UNL     1     -61.821  26.317 -30.156  1.00  0.00     0.060 A 
HETATM   10  C18 UNL     1     -61.361  26.834 -28.946  1.00  0.00     0.279 A 
HETATM   11  O8  UNL     1     -60.121  26.795 -28.741  1.00  0.00    -0.266 OA
HETATM   12  N4  UNL     1     -62.274  27.332 -28.094  1.00  0.00    -0.101 N 
HETATM   13  C19 UNL     1     -62.106  27.890 -26.869  1.00  0.00     0.173 A 
HETATM   14  C23 UNL     1     -63.599  27.328 -28.408  1.00  0.00     0.698 A 
HETATM   15  C20 UNL     1     -61.046  28.161 -26.048  1.00  0.00     0.291 A 
HETATM   16  C22 UNL     1     -63.384  28.240 -26.416  1.00  0.00     0.170 A 
HETATM   17  O9  UNL     1     -59.881  27.878 -26.385  1.00  0.00    -0.265 OA
HETATM   18  N5  UNL     1     -61.230  28.756 -24.827  1.00  0.00    -0.154 N 
HETATM   19  C21 UNL     1     -62.460  29.089 -24.401  1.00  0.00     0.680 A 
ATOM     20  H5  UNL     1     -60.423  28.949 -24.234  1.00  0.00     0.187 HD
HETATM   21  N7  UNL     1     -63.504  28.823 -25.204  1.00  0.00    -0.174 N 
ATOM     22  H7  UNL     1     -64.438  29.076 -24.881  1.00  0.00     0.186 HD
HETATM   23  N8  UNL     1     -64.246  27.893 -27.355  1.00  0.00    -0.173 N 
ATOM     24  H8  UNL     1     -65.255  28.029 -27.297  1.00  0.00     0.186 HD
BRANCH   9  25
HETATM   25  C14 UNL     1     -60.841  25.751 -31.122  1.00  0.00    -0.010 A 
HETATM   26  C15 UNL     1     -60.108  24.644 -30.781  1.00  0.00     0.064 A 
HETATM   27  S2  UNL     1     -59.148  24.376 -32.162  1.00  0.00    -0.086 SA
HETATM   28  C16 UNL     1     -59.698  25.665 -33.132  1.00  0.00     0.087 A 
HETATM   29  N3  UNL     1     -59.296  26.046 -34.471  1.00  0.00    -0.094 NA
HETATM   30  C17 UNL     1     -60.630  26.277 -32.333  1.00  0.00     0.047 A 
ENDBRANCH   9  25
BRANCH  19  31
HETATM   31  N6  UNL     1     -62.608  29.651 -23.243  1.00  0.00    -0.234 N 
ATOM     32  H62 UNL     1     -62.134  30.520 -22.998  1.00  0.00     0.174 HD
ATOM     33  H61 UNL     1     -63.216  29.220 -22.545  1.00  0.00     0.174 HD
ENDBRANCH  19  31
ENDBRANCH   3   7
BRANCH   4  34
HETATM   34  O10 UNL     1     -65.357  28.944 -31.260  1.00  0.00    -0.283 OA
ATOM     35  H10 UNL     1     -64.712  29.565 -30.945  1.00  0.00     0.245 HD
ENDBRANCH   4  34
BRANCH   1  36
HETATM   36  C8  UNL     1     -67.913  25.524 -32.079  1.00  0.00     0.272 C 
HETATM   37  O7  UNL     1     -68.387  24.361 -32.134  1.00  0.00    -0.264 OA
BRANCH  36  38
HETATM   38  O6  UNL     1     -67.797  26.258 -33.220  1.00  0.00    -0.318 OA
BRANCH  38  39
HETATM   39  C7  UNL     1     -68.613  26.043 -34.336  1.00  0.00     0.213 C 
BRANCH  39  40
HETATM   40  C6  UNL     1     -67.750  25.858 -35.560  1.00  0.00     0.180 C 
BRANCH  40  41
HETATM   41  C5  UNL     1     -67.472  24.394 -35.868  1.00  0.00     0.241 C 
BRANCH  41  42
HETATM   42  C4  UNL     1     -68.156  23.931 -37.100  1.00  0.00     0.262 C 
HETATM   43  N1  UNL     1     -69.537  23.603 -37.114  1.00  0.00    -0.252 N 
ATOM     44  H1  UNL     1     -70.074  23.687 -36.251  1.00  0.00     0.181 HD
HETATM   45  O3  UNL     1     -67.542  23.803 -38.212  1.00  0.00    -0.270 OA
BRANCH  43  46
HETATM   46  S1  UNL     1     -70.322  23.075 -38.525  1.00  0.00     0.233 S 
HETATM   47  O1  UNL     1     -71.805  23.160 -38.290  1.00  0.00    -0.206 OA
HETATM   48  O2  UNL     1     -70.030  23.968 -39.705  1.00  0.00    -0.206 OA
BRANCH  46  49
HETATM   49  C3  UNL     1     -69.884  21.429 -38.988  1.00  0.00     0.163 C 
BRANCH  49  50
HETATM   50  C2  UNL     1     -69.122  21.404 -40.297  1.00  0.00     0.012 C 
HETATM   51  C1  UNL     1     -67.762  20.801 -40.104  1.00  0.00     0.006 C 
ENDBRANCH  49  50
ENDBRANCH  46  49
ENDBRANCH  43  46
ENDBRANCH  41  42
BRANCH  41  52
HETATM   52  O4  UNL     1     -68.031  23.657 -34.811  1.00  0.00    -0.383 OA
ATOM     53  H4  UNL     1     -67.298  23.328 -34.303  1.00  0.00     0.210 HD
ENDBRANCH  41  52
ENDBRANCH  40  41
BRANCH  40  54
HETATM   54  O5  UNL     1     -68.523  26.409 -36.615  1.00  0.00    -0.390 OA
ATOM     55  H5  UNL     1     -68.915  27.221 -36.316  1.00  0.00     0.210 HD
ENDBRANCH  40  54
ENDBRANCH  39  40
ENDBRANCH  38  39
ENDBRANCH  36  38
ENDBRANCH   1  36
TORSDOF 15
ENDMDL
