MODEL 1
REMARK VINA RESULT: -8.515080002      0.000      0.000
REMARK  15 active torsions:
REMARK  status: ('A' for Active; 'I' for Inactive)
REMARK    1  A    between atoms: N1_1  and  N2_4 
REMARK       I    between atoms: N2_4  and  C1_6 
REMARK    2  A    between atoms: C1_6  and  C2_8 
REMARK       I    between atoms: C2_8  and  N3_10 
REMARK    3  A    between atoms: N3_10  and  N4_12 
REMARK    4  A    between atoms: N4_12  and  C3_13 
REMARK    5  A    between atoms: C3_13  and  C4_14 
REMARK    6  A    between atoms: C4_14  and  C5_15 
REMARK    7  A    between atoms: C5_15  and  C6_17 
REMARK       I    between atoms: C6_17  and  N5_19 
REMARK    8  A    between atoms: N5_19  and  N6_21 
REMARK    9  A    between atoms: N7_26  and  O7_27 
REMARK   10  A    between atoms: C11_33  and  C12_34 
REMARK   11  A    between atoms: C12_34  and  O8_35 
REMARK   12  A    between atoms: C12_34  and  N9_37 
REMARK   13  A    between atoms: N9_37  and  C13_39 
REMARK   14  A    between atoms: N10_44  and  C16_45 
REMARK   15  A    between atoms: C16_45  and  N11_46 
ROOT
HETATM    1  N6  UNL     1     -67.183  25.793 -34.337  1.00  0.00    -0.174 N 
HETATM    2  C7  UNL     1     -68.191  26.205 -33.513  1.00  0.00     0.340 C 
HETATM    3  O5  UNL     1     -69.103  26.824 -34.063  1.00  0.00    -0.260 OA
HETATM    4  C8  UNL     1     -68.256  25.984 -32.139  1.00  0.00     0.343 C 
HETATM    5  O6  UNL     1     -69.365  25.660 -31.668  1.00  0.00    -0.259 OA
HETATM    6  N7  UNL     1     -67.238  26.085 -31.248  1.00  0.00    -0.163 N 
HETATM    7  C9  UNL     1     -65.932  25.909 -31.494  1.00  0.00     0.178 A 
HETATM    8  C10 UNL     1     -65.293  25.877 -32.752  1.00  0.00     0.152 A 
HETATM    9  N8  UNL     1     -63.950  25.752 -32.553  1.00  0.00    -0.334 N 
ATOM     10  H8  UNL     1     -63.238  25.705 -33.283  1.00  0.00     0.167 HD
HETATM   11  C11 UNL     1     -63.733  25.704 -31.273  1.00  0.00     0.140 A 
HETATM   12  N10 UNL     1     -64.934  25.797 -30.605  1.00  0.00    -0.275 N 
HETATM   13  C23 UNL     1     -65.851  25.927 -34.003  1.00  0.00     0.300 C 
HETATM   14  O9  UNL     1     -65.047  26.123 -34.983  1.00  0.00    -0.263 OA
ENDROOT
BRANCH   1  15
HETATM   15  N5  UNL     1     -67.406  25.196 -35.533  1.00  0.00    -0.251 N 
HETATM   16  C6  UNL     1     -67.725  23.872 -35.814  1.00  0.00     0.306 C 
HETATM   17  O4  UNL     1     -67.874  22.938 -34.973  1.00  0.00    -0.263 OA
ATOM     18  H5  UNL     1     -67.328  25.807 -36.346  1.00  0.00     0.191 HD
BRANCH  16  19
HETATM   19  C5  UNL     1     -67.917  23.489 -37.240  1.00  0.00     0.219 C 
HETATM   20  O3  UNL     1     -67.022  23.788 -38.073  1.00  0.00    -0.287 OA
BRANCH  19  21
HETATM   21  C4  UNL     1     -69.145  22.777 -37.615  1.00  0.00     0.107 C 
BRANCH  21  22
HETATM   22  C3  UNL     1     -69.743  23.268 -38.910  1.00  0.00     0.143 C 
BRANCH  22  23
HETATM   23  N4  UNL     1     -69.681  22.214 -39.906  1.00  0.00    -0.138 NA
BRANCH  23  24
HETATM   24  N3  UNL     1     -68.473  21.560 -39.924  1.00  0.00    -0.266 N 
HETATM   25  C2  UNL     1     -68.027  20.870 -41.072  1.00  0.00     0.326 C 
HETATM   26  O2  UNL     1     -68.751  20.867 -42.094  1.00  0.00    -0.261 OA
ATOM     27  H3  UNL     1     -67.885  21.575 -39.090  1.00  0.00     0.185 HD
BRANCH  25  28
HETATM   28  C1  UNL     1     -66.753  20.174 -41.072  1.00  0.00     0.328 C 
HETATM   29  N2  UNL     1     -66.552  19.101 -40.172  1.00  0.00    -0.268 N 
ATOM     30  H2  UNL     1     -67.284  18.800 -39.528  1.00  0.00     0.190 HD
HETATM   31  O1  UNL     1     -65.861  20.543 -41.868  1.00  0.00    -0.261 OA
BRANCH  29  32
HETATM   32  N1  UNL     1     -65.289  18.466 -40.209  1.00  0.00    -0.342 N 
ATOM     33  H12 UNL     1     -65.191  17.523 -40.585  1.00  0.00     0.176 HD
ATOM     34  H11 UNL     1     -64.497  18.997 -39.846  1.00  0.00     0.176 HD
ENDBRANCH  29  32
ENDBRANCH  25  28
ENDBRANCH  23  24
ENDBRANCH  22  23
ENDBRANCH  21  22
ENDBRANCH  19  21
ENDBRANCH  16  19
ENDBRANCH   1  15
BRANCH   6  35
HETATM   35  O7  UNL     1     -67.562  26.427 -29.969  1.00  0.00    -0.278 OA
ATOM     36  H7  UNL     1     -67.050  27.115 -29.561  1.00  0.00     0.245 HD
ENDBRANCH   6  35
BRANCH  12  37
HETATM   37  C16 UNL     1     -65.031  25.729 -29.172  1.00  0.00     0.193 C 
BRANCH  37  38
HETATM   38  N11 UNL     1     -65.165  26.954 -28.473  1.00  0.00    -0.356 N 
HETATM   39  C17 UNL     1     -64.616  28.142 -28.928  1.00  0.00     0.065 C 
HETATM   40  C18 UNL     1     -63.261  28.494 -28.344  1.00  0.00     0.044 C 
HETATM   41  C19 UNL     1     -63.498  29.092 -26.976  1.00  0.00     0.005 C 
HETATM   42  C20 UNL     1     -63.524  28.083 -25.864  1.00  0.00     0.002 C 
HETATM   43  C21 UNL     1     -63.963  26.700 -26.347  1.00  0.00     0.020 C 
HETATM   44  C22 UNL     1     -65.292  26.813 -27.048  1.00  0.00     0.129 C 
ENDBRANCH  37  38
ENDBRANCH  12  37
BRANCH  11  45
HETATM   45  C12 UNL     1     -62.423  25.616 -30.575  1.00  0.00     0.283 C 
BRANCH  45  46
HETATM   46  O8  UNL     1     -62.165  24.269 -30.410  1.00  0.00    -0.370 OA
ATOM     47  H8  UNL     1     -62.855  23.936 -29.848  1.00  0.00     0.212 HD
ENDBRANCH  45  46
BRANCH  45  48
HETATM   48  N9  UNL     1     -61.419  26.298 -31.244  1.00  0.00    -0.385 N 
ATOM     49  H9  UNL     1     -61.600  26.590 -32.205  1.00  0.00     0.156 HD
BRANCH  48  50
HETATM   50  C13 UNL     1     -60.176  26.614 -30.691  1.00  0.00     0.099 C 
HETATM   51  C14 UNL     1     -59.057  26.454 -31.691  1.00  0.00     0.111 C 
HETATM   52  S1  UNL     1     -59.727  27.438 -33.107  1.00  0.00    -0.096 SA
HETATM   53  S2  UNL     1     -60.749  28.861 -31.816  1.00  0.00    -0.096 SA
HETATM   54  C15 UNL     1     -60.109  28.099 -30.258  1.00  0.00     0.111 C 
ENDBRANCH  48  50
ENDBRANCH  45  48
ENDBRANCH  11  45
TORSDOF 15
ENDMDL
MODEL 2
REMARK VINA RESULT: -8.351395300      2.170      3.072
REMARK  15 active torsions:
REMARK  status: ('A' for Active; 'I' for Inactive)
REMARK    1  A    between atoms: N1_1  and  N2_4 
REMARK       I    between atoms: N2_4  and  C1_6 
REMARK    2  A    between atoms: C1_6  and  C2_8 
REMARK       I    between atoms: C2_8  and  N3_10 
REMARK    3  A    between atoms: N3_10  and  N4_12 
REMARK    4  A    between atoms: N4_12  and  C3_13 
REMARK    5  A    between atoms: C3_13  and  C4_14 
REMARK    6  A    between atoms: C4_14  and  C5_15 
REMARK    7  A    between atoms: C5_15  and  C6_17 
REMARK       I    between atoms: C6_17  and  N5_19 
REMARK    8  A    between atoms: N5_19  and  N6_21 
REMARK    9  A    between atoms: N7_26  and  O7_27 
REMARK   10  A    between atoms: C11_33  and  C12_34 
REMARK   11  A    between atoms: C12_34  and  O8_35 
REMARK   12  A    between atoms: C12_34  and  N9_37 
REMARK   13  A    between atoms: N9_37  and  C13_39 
REMARK   14  A    between atoms: N10_44  and  C16_45 
REMARK   15  A    between atoms: C16_45  and  N11_46 
ROOT
HETATM    1  N6  UNL     1     -67.290  25.563 -34.160  1.00  0.00    -0.174 N 
HETATM    2  C7  UNL     1     -68.268  26.008 -33.316  1.00  0.00     0.340 C 
HETATM    3  O5  UNL     1     -69.208  26.590 -33.859  1.00  0.00    -0.260 OA
HETATM    4  C8  UNL     1     -68.273  25.859 -31.931  1.00  0.00     0.343 C 
HETATM    5  O6  UNL     1     -69.358  25.549 -31.398  1.00  0.00    -0.259 OA
HETATM    6  N7  UNL     1     -67.221  26.015 -31.090  1.00  0.00    -0.163 N 
HETATM    7  C9  UNL     1     -65.924  25.838 -31.381  1.00  0.00     0.178 A 
HETATM    8  C10 UNL     1     -65.337  25.746 -32.662  1.00  0.00     0.152 A 
HETATM    9  N8  UNL     1     -63.986  25.644 -32.513  1.00  0.00    -0.334 N 
ATOM     10  H8  UNL     1     -63.305  25.565 -33.269  1.00  0.00     0.167 HD
HETATM   11  C11 UNL     1     -63.715  25.664 -31.243  1.00  0.00     0.140 A 
HETATM   12  N10 UNL     1     -64.889  25.781 -30.531  1.00  0.00    -0.275 N 
HETATM   13  C23 UNL     1     -65.947  25.726 -33.889  1.00  0.00     0.300 C 
HETATM   14  O9  UNL     1     -65.187  25.878 -34.910  1.00  0.00    -0.263 OA
ENDROOT
BRANCH   1  15
HETATM   15  N5  UNL     1     -67.555  24.903 -35.313  1.00  0.00    -0.251 N 
HETATM   16  C6  UNL     1     -67.874  23.564 -35.512  1.00  0.00     0.306 C 
HETATM   17  O4  UNL     1     -67.980  22.674 -34.618  1.00  0.00    -0.263 OA
ATOM     18  H5  UNL     1     -67.516  25.471 -36.159  1.00  0.00     0.191 HD
BRANCH  16  19
HETATM   19  C5  UNL     1     -68.119  23.106 -36.907  1.00  0.00     0.219 C 
HETATM   20  O3  UNL     1     -68.750  22.033 -37.090  1.00  0.00    -0.287 OA
BRANCH  19  21
HETATM   21  C4  UNL     1     -67.614  23.928 -38.014  1.00  0.00     0.107 C 
BRANCH  21  22
HETATM   22  C3  UNL     1     -68.658  24.852 -38.591  1.00  0.00     0.143 C 
BRANCH  22  23
HETATM   23  N4  UNL     1     -69.362  24.179 -39.668  1.00  0.00    -0.138 NA
BRANCH  23  24
HETATM   24  N3  UNL     1     -70.586  23.686 -39.287  1.00  0.00    -0.266 N 
HETATM   25  C2  UNL     1     -71.783  24.158 -39.869  1.00  0.00     0.326 C 
HETATM   26  O2  UNL     1     -71.716  25.038 -40.758  1.00  0.00    -0.261 OA
ATOM     27  H3  UNL     1     -70.631  22.964 -38.568  1.00  0.00     0.185 HD
BRANCH  25  28
HETATM   28  C1  UNL     1     -73.069  23.636 -39.447  1.00  0.00     0.328 C 
HETATM   29  N2  UNL     1     -74.244  24.358 -39.760  1.00  0.00    -0.268 N 
ATOM     30  H2  UNL     1     -74.210  25.234 -40.281  1.00  0.00     0.190 HD
HETATM   31  O1  UNL     1     -73.107  22.557 -38.813  1.00  0.00    -0.261 OA
BRANCH  29  32
HETATM   32  N1  UNL     1     -75.469  23.807 -39.315  1.00  0.00    -0.342 N 
ATOM     33  H12 UNL     1     -76.250  23.686 -39.960  1.00  0.00     0.176 HD
ATOM     34  H11 UNL     1     -75.523  23.542 -38.331  1.00  0.00     0.176 HD
ENDBRANCH  29  32
ENDBRANCH  25  28
ENDBRANCH  23  24
ENDBRANCH  22  23
ENDBRANCH  21  22
ENDBRANCH  19  21
ENDBRANCH  16  19
ENDBRANCH   1  15
BRANCH   6  35
HETATM   35  O7  UNL     1     -67.495  26.419 -29.819  1.00  0.00    -0.278 OA
ATOM     36  H7  UNL     1     -66.951  27.108 -29.455  1.00  0.00     0.245 HD
ENDBRANCH   6  35
BRANCH  12  37
HETATM   37  C16 UNL     1     -64.926  25.786 -29.093  1.00  0.00     0.193 C 
BRANCH  37  38
HETATM   38  N11 UNL     1     -65.049  27.045 -28.453  1.00  0.00    -0.356 N 
HETATM   39  C17 UNL     1     -64.422  28.189 -28.919  1.00  0.00     0.065 C 
HETATM   40  C18 UNL     1     -63.092  28.510 -28.266  1.00  0.00     0.044 C 
HETATM   41  C19 UNL     1     -63.385  29.174 -26.941  1.00  0.00     0.005 C 
HETATM   42  C20 UNL     1     -63.523  28.215 -25.793  1.00  0.00     0.002 C 
HETATM   43  C21 UNL     1     -63.991  26.832 -26.247  1.00  0.00     0.020 C 
HETATM   44  C22 UNL     1     -65.268  26.969 -27.035  1.00  0.00     0.129 C 
ENDBRANCH  37  38
ENDBRANCH  12  37
BRANCH  11  45
HETATM   45  C12 UNL     1     -62.377  25.624 -30.596  1.00  0.00     0.283 C 
BRANCH  45  46
HETATM   46  O8  UNL     1     -61.981  24.301 -30.613  1.00  0.00    -0.370 OA
ATOM     47  H8  UNL     1     -62.606  23.832 -30.073  1.00  0.00     0.212 HD
ENDBRANCH  45  46
BRANCH  45  48
HETATM   48  N9  UNL     1     -61.472  26.485 -31.198  1.00  0.00    -0.385 N 
ATOM     49  H9  UNL     1     -61.765  26.964 -32.050  1.00  0.00     0.156 HD
BRANCH  48  50
HETATM   50  C13 UNL     1     -60.187  26.740 -30.715  1.00  0.00     0.099 C 
HETATM   51  C14 UNL     1     -59.126  26.419 -31.740  1.00  0.00     0.111 C 
HETATM   52  S1  UNL     1     -59.778  27.346 -33.202  1.00  0.00    -0.096 SA
HETATM   53  S2  UNL     1     -60.632  28.937 -31.989  1.00  0.00    -0.096 SA
HETATM   54  C15 UNL     1     -59.988  28.244 -30.401  1.00  0.00     0.111 C 
ENDBRANCH  48  50
ENDBRANCH  45  48
ENDBRANCH  11  45
TORSDOF 15
ENDMDL
MODEL 3
REMARK VINA RESULT: -8.267214458      1.182      1.636
REMARK  15 active torsions:
REMARK  status: ('A' for Active; 'I' for Inactive)
REMARK    1  A    between atoms: N1_1  and  N2_4 
REMARK       I    between atoms: N2_4  and  C1_6 
REMARK    2  A    between atoms: C1_6  and  C2_8 
REMARK       I    between atoms: C2_8  and  N3_10 
REMARK    3  A    between atoms: N3_10  and  N4_12 
REMARK    4  A    between atoms: N4_12  and  C3_13 
REMARK    5  A    between atoms: C3_13  and  C4_14 
REMARK    6  A    between atoms: C4_14  and  C5_15 
REMARK    7  A    between atoms: C5_15  and  C6_17 
REMARK       I    between atoms: C6_17  and  N5_19 
REMARK    8  A    between atoms: N5_19  and  N6_21 
REMARK    9  A    between atoms: N7_26  and  O7_27 
REMARK   10  A    between atoms: C11_33  and  C12_34 
REMARK   11  A    between atoms: C12_34  and  O8_35 
REMARK   12  A    between atoms: C12_34  and  N9_37 
REMARK   13  A    between atoms: N9_37  and  C13_39 
REMARK   14  A    between atoms: N10_44  and  C16_45 
REMARK   15  A    between atoms: C16_45  and  N11_46 
ROOT
HETATM    1  N6  UNL     1     -67.543  25.475 -34.577  1.00  0.00    -0.174 N 
HETATM    2  C7  UNL     1     -68.255  26.530 -34.083  1.00  0.00     0.340 C 
HETATM    3  O5  UNL     1     -69.030  27.062 -34.880  1.00  0.00    -0.260 OA
HETATM    4  C8  UNL     1     -68.167  27.033 -32.787  1.00  0.00     0.343 C 
HETATM    5  O6  UNL     1     -69.236  27.350 -32.227  1.00  0.00    -0.259 OA
HETATM    6  N7  UNL     1     -67.037  27.219 -32.060  1.00  0.00    -0.163 N 
HETATM    7  C9  UNL     1     -65.887  26.539 -32.171  1.00  0.00     0.178 A 
HETATM    8  C10 UNL     1     -65.484  25.702 -33.234  1.00  0.00     0.152 A 
HETATM    9  N8  UNL     1     -64.216  25.267 -32.987  1.00  0.00    -0.334 N 
ATOM     10  H8  UNL     1     -63.668  24.649 -33.586  1.00  0.00     0.167 HD
HETATM   11  C11 UNL     1     -63.827  25.775 -31.856  1.00  0.00     0.140 A 
HETATM   12  N10 UNL     1     -64.836  26.556 -31.338  1.00  0.00    -0.275 N 
HETATM   13  C23 UNL     1     -66.192  25.319 -34.343  1.00  0.00     0.300 C 
HETATM   14  O9  UNL     1     -65.526  24.749 -35.280  1.00  0.00    -0.263 OA
ENDROOT
BRANCH   1  15
HETATM   15  N5  UNL     1     -68.105  24.482 -35.308  1.00  0.00    -0.251 N 
HETATM   16  C6  UNL     1     -68.394  24.441 -36.667  1.00  0.00     0.306 C 
HETATM   17  O4  UNL     1     -68.178  25.359 -37.513  1.00  0.00    -0.263 OA
ATOM     18  H5  UNL     1     -68.353  23.643 -34.785  1.00  0.00     0.191 HD
BRANCH  16  19
HETATM   19  C5  UNL     1     -69.021  23.204 -37.209  1.00  0.00     0.219 C 
HETATM   20  O3  UNL     1     -68.602  22.087 -36.809  1.00  0.00    -0.287 OA
BRANCH  19  21
HETATM   21  C4  UNL     1     -70.105  23.340 -38.190  1.00  0.00     0.107 C 
BRANCH  21  22
HETATM   22  C3  UNL     1     -70.434  22.046 -38.894  1.00  0.00     0.143 C 
BRANCH  22  23
HETATM   23  N4  UNL     1     -69.731  21.989 -40.163  1.00  0.00    -0.138 NA
BRANCH  23  24
HETATM   24  N3  UNL     1     -68.509  21.367 -40.074  1.00  0.00    -0.266 N 
HETATM   25  C2  UNL     1     -67.898  20.780 -41.203  1.00  0.00     0.326 C 
HETATM   26  O2  UNL     1     -68.487  20.841 -42.308  1.00  0.00    -0.261 OA
ATOM     27  H3  UNL     1     -68.032  21.329 -39.172  1.00  0.00     0.185 HD
BRANCH  25  28
HETATM   28  C1  UNL     1     -66.613  20.117 -41.091  1.00  0.00     0.328 C 
HETATM   29  N2  UNL     1     -66.476  19.019 -40.209  1.00  0.00    -0.268 N 
ATOM     30  H2  UNL     1     -67.261  18.679 -39.654  1.00  0.00     0.190 HD
HETATM   31  O1  UNL     1     -65.653  20.533 -41.778  1.00  0.00    -0.261 OA
BRANCH  29  32
HETATM   32  N1  UNL     1     -65.198  18.418 -40.133  1.00  0.00    -0.342 N 
ATOM     33  H12 UNL     1     -64.684  18.179 -40.981  1.00  0.00     0.176 HD
ATOM     34  H11 UNL     1     -64.828  18.240 -39.199  1.00  0.00     0.176 HD
ENDBRANCH  29  32
ENDBRANCH  25  28
ENDBRANCH  23  24
ENDBRANCH  22  23
ENDBRANCH  21  22
ENDBRANCH  19  21
ENDBRANCH  16  19
ENDBRANCH   1  15
BRANCH   6  35
HETATM   35  O7  UNL     1     -67.051  28.217 -31.133  1.00  0.00    -0.278 OA
ATOM     36  H7  UNL     1     -66.694  28.018 -30.275  1.00  0.00     0.245 HD
ENDBRANCH   6  35
BRANCH  12  37
HETATM   37  C16 UNL     1     -64.726  27.223 -30.068  1.00  0.00     0.193 C 
BRANCH  37  38
HETATM   38  N11 UNL     1     -64.789  26.415 -28.905  1.00  0.00    -0.356 N 
HETATM   39  C17 UNL     1     -65.968  25.851 -28.446  1.00  0.00     0.065 C 
HETATM   40  C18 UNL     1     -66.687  26.641 -27.369  1.00  0.00     0.044 C 
HETATM   41  C19 UNL     1     -65.999  26.348 -26.056  1.00  0.00     0.005 C 
HETATM   42  C20 UNL     1     -64.863  27.279 -25.740  1.00  0.00     0.002 C 
HETATM   43  C21 UNL     1     -64.220  27.857 -27.001  1.00  0.00     0.020 C 
HETATM   44  C22 UNL     1     -63.801  26.731 -27.911  1.00  0.00     0.129 C 
ENDBRANCH  37  38
ENDBRANCH  12  37
BRANCH  11  45
HETATM   45  C12 UNL     1     -62.503  25.621 -31.197  1.00  0.00     0.283 C 
BRANCH  45  46
HETATM   46  O8  UNL     1     -62.521  24.384 -30.583  1.00  0.00    -0.370 OA
ATOM     47  H8  UNL     1     -61.638  24.041 -30.655  1.00  0.00     0.212 HD
ENDBRANCH  45  46
BRANCH  45  48
HETATM   48  N9  UNL     1     -61.448  25.790 -32.081  1.00  0.00    -0.385 N 
ATOM     49  H9  UNL     1     -61.671  26.034 -33.046  1.00  0.00     0.156 HD
BRANCH  48  50
HETATM   50  C13 UNL     1     -60.102  25.650 -31.737  1.00  0.00     0.099 C 
HETATM   51  C14 UNL     1     -59.399  24.640 -32.611  1.00  0.00     0.111 C 
HETATM   52  S1  UNL     1     -59.878  25.255 -34.289  1.00  0.00    -0.096 SA
HETATM   53  S2  UNL     1     -59.897  27.341 -33.672  1.00  0.00    -0.096 SA
HETATM   54  C15 UNL     1     -59.321  26.970 -31.955  1.00  0.00     0.111 C 
ENDBRANCH  48  50
ENDBRANCH  45  48
ENDBRANCH  11  45
TORSDOF 15
ENDMDL
MODEL 4
REMARK VINA RESULT: -8.160921970      1.745      2.938
REMARK  15 active torsions:
REMARK  status: ('A' for Active; 'I' for Inactive)
REMARK    1  A    between atoms: N1_1  and  N2_4 
REMARK       I    between atoms: N2_4  and  C1_6 
REMARK    2  A    between atoms: C1_6  and  C2_8 
REMARK       I    between atoms: C2_8  and  N3_10 
REMARK    3  A    between atoms: N3_10  and  N4_12 
REMARK    4  A    between atoms: N4_12  and  C3_13 
REMARK    5  A    between atoms: C3_13  and  C4_14 
REMARK    6  A    between atoms: C4_14  and  C5_15 
REMARK    7  A    between atoms: C5_15  and  C6_17 
REMARK       I    between atoms: C6_17  and  N5_19 
REMARK    8  A    between atoms: N5_19  and  N6_21 
REMARK    9  A    between atoms: N7_26  and  O7_27 
REMARK   10  A    between atoms: C11_33  and  C12_34 
REMARK   11  A    between atoms: C12_34  and  O8_35 
REMARK   12  A    between atoms: C12_34  and  N9_37 
REMARK   13  A    between atoms: N9_37  and  C13_39 
REMARK   14  A    between atoms: N10_44  and  C16_45 
REMARK   15  A    between atoms: C16_45  and  N11_46 
ROOT
HETATM    1  N6  UNL     1     -67.295  25.783 -34.297  1.00  0.00    -0.174 N 
HETATM    2  C7  UNL     1     -68.279  26.183 -33.440  1.00  0.00     0.340 C 
HETATM    3  O5  UNL     1     -69.219  26.787 -33.961  1.00  0.00    -0.260 OA
HETATM    4  C8  UNL     1     -68.293  25.968 -32.064  1.00  0.00     0.343 C 
HETATM    5  O6  UNL     1     -69.381  25.629 -31.554  1.00  0.00    -0.259 OA
HETATM    6  N7  UNL     1     -67.247  26.087 -31.210  1.00  0.00    -0.163 N 
HETATM    7  C9  UNL     1     -65.948  25.928 -31.500  1.00  0.00     0.178 A 
HETATM    8  C10 UNL     1     -65.352  25.900 -32.779  1.00  0.00     0.152 A 
HETATM    9  N8  UNL     1     -64.001  25.795 -32.626  1.00  0.00    -0.334 N 
ATOM     10  H8  UNL     1     -63.315  25.755 -33.380  1.00  0.00     0.167 HD
HETATM   11  C11 UNL     1     -63.740  25.755 -31.355  1.00  0.00     0.140 A 
HETATM   12  N10 UNL     1     -64.918  25.834 -30.646  1.00  0.00    -0.275 N 
HETATM   13  C23 UNL     1     -65.954  25.937 -34.010  1.00  0.00     0.300 C 
HETATM   14  O9  UNL     1     -65.187  26.140 -35.018  1.00  0.00    -0.263 OA
ENDROOT
BRANCH   1  15
HETATM   15  N5  UNL     1     -67.550  25.177 -35.483  1.00  0.00    -0.251 N 
HETATM   16  C6  UNL     1     -67.794  23.836 -35.756  1.00  0.00     0.306 C 
HETATM   17  O4  UNL     1     -67.825  22.889 -34.915  1.00  0.00    -0.263 OA
ATOM     18  H5  UNL     1     -67.565  25.796 -36.293  1.00  0.00     0.191 HD
BRANCH  16  19
HETATM   19  C5  UNL     1     -68.047  23.448 -37.170  1.00  0.00     0.219 C 
HETATM   20  O3  UNL     1     -67.500  24.112 -38.088  1.00  0.00    -0.287 OA
BRANCH  19  21
HETATM   21  C4  UNL     1     -68.928  22.303 -37.436  1.00  0.00     0.107 C 
BRANCH  21  22
HETATM   22  C3  UNL     1     -68.752  21.728 -38.820  1.00  0.00     0.143 C 
BRANCH  22  23
HETATM   23  N4  UNL     1     -70.026  21.731 -39.515  1.00  0.00    -0.138 NA
BRANCH  23  24
HETATM   24  N3  UNL     1     -70.548  22.992 -39.675  1.00  0.00    -0.266 N 
HETATM   25  C2  UNL     1     -71.912  23.261 -39.427  1.00  0.00     0.326 C 
HETATM   26  O2  UNL     1     -72.651  22.324 -39.044  1.00  0.00    -0.261 OA
ATOM     27  H3  UNL     1     -69.937  23.751 -39.979  1.00  0.00     0.185 HD
BRANCH  25  28
HETATM   28  C1  UNL     1     -72.451  24.595 -39.612  1.00  0.00     0.328 C 
HETATM   29  N2  UNL     1     -71.572  25.703 -39.601  1.00  0.00    -0.268 N 
ATOM     30  H2  UNL     1     -70.567  25.587 -39.473  1.00  0.00     0.190 HD
HETATM   31  O1  UNL     1     -73.684  24.733 -39.775  1.00  0.00    -0.261 OA
BRANCH  29  32
HETATM   32  N1  UNL     1     -72.155  26.980 -39.776  1.00  0.00    -0.342 N 
ATOM     33  H12 UNL     1     -73.168  27.090 -39.806  1.00  0.00     0.176 HD
ATOM     34  H11 UNL     1     -71.514  27.769 -39.869  1.00  0.00     0.176 HD
ENDBRANCH  29  32
ENDBRANCH  25  28
ENDBRANCH  23  24
ENDBRANCH  22  23
ENDBRANCH  21  22
ENDBRANCH  19  21
ENDBRANCH  16  19
ENDBRANCH   1  15
BRANCH   6  35
HETATM   35  O7  UNL     1     -67.531  26.429 -29.922  1.00  0.00    -0.278 OA
ATOM     36  H7  UNL     1     -68.304  26.039 -29.529  1.00  0.00     0.245 HD
ENDBRANCH   6  35
BRANCH  12  37
HETATM   37  C16 UNL     1     -64.965  25.770 -29.209  1.00  0.00     0.193 C 
BRANCH  37  38
HETATM   38  N11 UNL     1     -65.077  26.998 -28.510  1.00  0.00    -0.356 N 
HETATM   39  C17 UNL     1     -64.521  28.179 -28.974  1.00  0.00     0.065 C 
HETATM   40  C18 UNL     1     -63.155  28.518 -28.408  1.00  0.00     0.044 C 
HETATM   41  C19 UNL     1     -63.367  29.119 -27.038  1.00  0.00     0.005 C 
HETATM   42  C20 UNL     1     -63.390  28.112 -25.925  1.00  0.00     0.002 C 
HETATM   43  C21 UNL     1     -63.849  26.733 -26.400  1.00  0.00     0.020 C 
HETATM   44  C22 UNL     1     -65.186  26.860 -27.084  1.00  0.00     0.129 C 
ENDBRANCH  37  38
ENDBRANCH  12  37
BRANCH  11  45
HETATM   45  C12 UNL     1     -62.406  25.689 -30.701  1.00  0.00     0.283 C 
BRANCH  45  46
HETATM   46  O8  UNL     1     -61.959  24.393 -30.871  1.00  0.00    -0.370 OA
ATOM     47  H8  UNL     1     -61.101  24.355 -30.465  1.00  0.00     0.212 HD
ENDBRANCH  45  46
BRANCH  45  48
HETATM   48  N9  UNL     1     -61.531  26.649 -31.186  1.00  0.00    -0.385 N 
ATOM     49  H9  UNL     1     -61.876  27.292 -31.899  1.00  0.00     0.156 HD
BRANCH  48  50
HETATM   50  C13 UNL     1     -60.208  26.796 -30.762  1.00  0.00     0.099 C 
HETATM   51  C14 UNL     1     -59.225  26.373 -31.827  1.00  0.00     0.111 C 
HETATM   52  S1  UNL     1     -59.857  27.339 -33.272  1.00  0.00    -0.096 SA
HETATM   53  S2  UNL     1     -60.515  29.010 -32.045  1.00  0.00    -0.096 SA
HETATM   54  C15 UNL     1     -59.865  28.279 -30.477  1.00  0.00     0.111 C 
ENDBRANCH  48  50
ENDBRANCH  45  48
ENDBRANCH  11  45
TORSDOF 15
ENDMDL
MODEL 5
REMARK VINA RESULT: -8.087023563      4.736     10.350
REMARK  15 active torsions:
REMARK  status: ('A' for Active; 'I' for Inactive)
REMARK    1  A    between atoms: N1_1  and  N2_4 
REMARK       I    between atoms: N2_4  and  C1_6 
REMARK    2  A    between atoms: C1_6  and  C2_8 
REMARK       I    between atoms: C2_8  and  N3_10 
REMARK    3  A    between atoms: N3_10  and  N4_12 
REMARK    4  A    between atoms: N4_12  and  C3_13 
REMARK    5  A    between atoms: C3_13  and  C4_14 
REMARK    6  A    between atoms: C4_14  and  C5_15 
REMARK    7  A    between atoms: C5_15  and  C6_17 
REMARK       I    between atoms: C6_17  and  N5_19 
REMARK    8  A    between atoms: N5_19  and  N6_21 
REMARK    9  A    between atoms: N7_26  and  O7_27 
REMARK   10  A    between atoms: C11_33  and  C12_34 
REMARK   11  A    between atoms: C12_34  and  O8_35 
REMARK   12  A    between atoms: C12_34  and  N9_37 
REMARK   13  A    between atoms: N9_37  and  C13_39 
REMARK   14  A    between atoms: N10_44  and  C16_45 
REMARK   15  A    between atoms: C16_45  and  N11_46 
ROOT
HETATM    1  N6  UNL     1     -63.707  29.142 -30.157  1.00  0.00    -0.174 N 
HETATM    2  C7  UNL     1     -62.816  28.600 -31.038  1.00  0.00     0.340 C 
HETATM    3  O5  UNL     1     -61.631  28.847 -30.809  1.00  0.00    -0.260 OA
HETATM    4  C8  UNL     1     -63.143  27.816 -32.143  1.00  0.00     0.343 C 
HETATM    5  O6  UNL     1     -62.427  26.818 -32.361  1.00  0.00    -0.259 OA
HETATM    6  N7  UNL     1     -64.161  28.020 -33.015  1.00  0.00    -0.163 N 
HETATM    7  C9  UNL     1     -65.322  28.644 -32.766  1.00  0.00     0.178 A 
HETATM    8  C10 UNL     1     -65.632  29.473 -31.667  1.00  0.00     0.152 A 
HETATM    9  N8  UNL     1     -66.892  29.965 -31.836  1.00  0.00    -0.334 N 
ATOM     10  H8  UNL     1     -67.380  30.594 -31.198  1.00  0.00     0.167 HD
HETATM   11  C11 UNL     1     -67.365  29.492 -32.950  1.00  0.00     0.140 A 
HETATM   12  N10 UNL     1     -66.420  28.678 -33.535  1.00  0.00    -0.275 N 
HETATM   13  C23 UNL     1     -64.868  29.765 -30.567  1.00  0.00     0.300 C 
HETATM   14  O9  UNL     1     -65.274  30.731 -29.827  1.00  0.00    -0.263 OA
ENDROOT
BRANCH   1  15
HETATM   15  N5  UNL     1     -63.541  29.089 -28.813  1.00  0.00    -0.251 N 
HETATM   16  C6  UNL     1     -63.629  28.000 -27.954  1.00  0.00     0.306 C 
HETATM   17  O4  UNL     1     -63.891  26.804 -28.277  1.00  0.00    -0.263 OA
ATOM     18  H5  UNL     1     -63.319  29.979 -28.367  1.00  0.00     0.191 HD
BRANCH  16  19
HETATM   19  C5  UNL     1     -63.395  28.236 -26.503  1.00  0.00     0.219 C 
HETATM   20  O3  UNL     1     -64.358  28.101 -25.704  1.00  0.00    -0.287 OA
BRANCH  19  21
HETATM   21  C4  UNL     1     -62.047  28.618 -26.063  1.00  0.00     0.107 C 
BRANCH  21  22
HETATM   22  C3  UNL     1     -61.040  27.503 -26.202  1.00  0.00     0.143 C 
BRANCH  22  23
HETATM   23  N4  UNL     1     -59.905  27.966 -26.979  1.00  0.00    -0.138 NA
BRANCH  23  24
HETATM   24  N3  UNL     1     -60.033  27.711 -28.323  1.00  0.00    -0.266 N 
HETATM   25  C2  UNL     1     -59.329  26.657 -28.943  1.00  0.00     0.326 C 
HETATM   26  O2  UNL     1     -58.580  25.936 -28.242  1.00  0.00    -0.261 OA
ATOM     27  H3  UNL     1     -60.651  28.297 -28.885  1.00  0.00     0.185 HD
BRANCH  25  28
HETATM   28  C1  UNL     1     -59.465  26.408 -30.366  1.00  0.00     0.328 C 
HETATM   29  N2  UNL     1     -59.254  27.470 -31.276  1.00  0.00    -0.268 N 
ATOM     30  H2  UNL     1     -59.001  28.405 -30.957  1.00  0.00     0.190 HD
HETATM   31  O1  UNL     1     -59.770  25.258 -30.754  1.00  0.00    -0.261 OA
BRANCH  29  32
HETATM   32  N1  UNL     1     -59.410  27.172 -32.650  1.00  0.00    -0.342 N 
ATOM     33  H12 UNL     1     -59.428  26.205 -32.975  1.00  0.00     0.176 HD
ATOM     34  H11 UNL     1     -59.501  27.966 -33.285  1.00  0.00     0.176 HD
ENDBRANCH  29  32
ENDBRANCH  25  28
ENDBRANCH  23  24
ENDBRANCH  22  23
ENDBRANCH  21  22
ENDBRANCH  19  21
ENDBRANCH  16  19
ENDBRANCH   1  15
BRANCH   6  35
HETATM   35  O7  UNL     1     -63.988  27.573 -34.289  1.00  0.00    -0.278 OA
ATOM     36  H7  UNL     1     -64.298  28.132 -34.992  1.00  0.00     0.245 HD
ENDBRANCH   6  35
BRANCH  12  37
HETATM   37  C16 UNL     1     -66.661  27.968 -34.763  1.00  0.00     0.193 C 
BRANCH  37  38
HETATM   38  N11 UNL     1     -67.540  26.858 -34.707  1.00  0.00    -0.356 N 
HETATM   39  C17 UNL     1     -67.487  25.908 -33.700  1.00  0.00     0.065 C 
HETATM   40  C18 UNL     1     -66.685  24.663 -34.026  1.00  0.00     0.044 C 
HETATM   41  C19 UNL     1     -67.562  23.766 -34.868  1.00  0.00     0.005 C 
HETATM   42  C20 UNL     1     -67.454  24.015 -36.345  1.00  0.00     0.002 C 
HETATM   43  C21 UNL     1     -67.047  25.456 -36.661  1.00  0.00     0.020 C 
HETATM   44  C22 UNL     1     -68.005  26.405 -35.989  1.00  0.00     0.129 C 
ENDBRANCH  37  38
ENDBRANCH  12  37
BRANCH  11  45
HETATM   45  C12 UNL     1     -68.683  29.781 -33.575  1.00  0.00     0.283 C 
BRANCH  45  46
HETATM   46  O8  UNL     1     -69.626  29.603 -32.583  1.00  0.00    -0.370 OA
ATOM     47  H8  UNL     1     -70.448  29.433 -33.027  1.00  0.00     0.212 HD
ENDBRANCH  45  46
BRANCH  45  48
HETATM   48  N9  UNL     1     -68.724  31.034 -34.167  1.00  0.00    -0.385 N 
ATOM     49  H9  UNL     1     -68.742  31.850 -33.555  1.00  0.00     0.156 HD
BRANCH  48  50
HETATM   50  C13 UNL     1     -68.740  31.253 -35.546  1.00  0.00     0.099 C 
HETATM   51  C14 UNL     1     -69.479  32.520 -35.907  1.00  0.00     0.111 C 
HETATM   52  S1  UNL     1     -68.650  33.727 -34.777  1.00  0.00    -0.096 SA
HETATM   53  S2  UNL     1     -66.726  32.718 -34.883  1.00  0.00    -0.096 SA
HETATM   54  C15 UNL     1     -67.310  31.460 -36.105  1.00  0.00     0.111 C 
ENDBRANCH  48  50
ENDBRANCH  45  48
ENDBRANCH  11  45
TORSDOF 15
ENDMDL
