MODEL 1
REMARK VINA RESULT: -7.391749450      0.000      0.000
REMARK  18 active torsions:
REMARK  status: ('A' for Active; 'I' for Inactive)
REMARK    1  A    between atoms: O1_1  and  C1_3 
REMARK    2  A    between atoms: C1_3  and  C2_4 
REMARK    3  A    between atoms: C3_6  and  O3_7 
REMARK    4  A    between atoms: O3_7  and  C4_8 
REMARK    5  A    between atoms: C7_12  and  O5_13 
REMARK    6  A    between atoms: O5_13  and  C8_14 
REMARK    7  A    between atoms: C16_25  and  O9_26 
REMARK    8  A    between atoms: O9_26  and  C17_27 
REMARK    9  A    between atoms: C19_30  and  O11_31 
REMARK   10  A    between atoms: C19_30  and  C20_33 
REMARK   11  A    between atoms: C20_33  and  O12_34 
REMARK   12  A    between atoms: C21_36  and  O13_37 
REMARK   13  A    between atoms: O13_37  and  C22_38 
REMARK   14  A    between atoms: C24_41  and  O15_42 
REMARK   15  A    between atoms: C24_41  and  C25_44 
REMARK   16  A    between atoms: C25_44  and  O16_45 
REMARK   17  A    between atoms: C26_47  and  O17_48 
REMARK   18  A    between atoms: C28_51  and  O18_52 
ROOT
HETATM    1  C2  UNL     1     -67.606  27.038 -32.521  1.00  0.00     0.177 C 
HETATM    2  O2  UNL     1     -66.389  26.923 -31.860  1.00  0.00    -0.349 OA
HETATM    3  C3  UNL     1     -65.988  25.601 -31.714  1.00  0.00     0.290 C 
HETATM    4  C16 UNL     1     -66.426  24.774 -32.933  1.00  0.00     0.182 C 
HETATM    5  C27 UNL     1     -67.941  24.579 -32.851  1.00  0.00     0.071 C 
HETATM    6  C28 UNL     1     -68.524  25.859 -32.296  1.00  0.00     0.151 C 
ENDROOT
BRANCH   4   7
HETATM    7  O9  UNL     1     -66.052  25.321 -34.128  1.00  0.00    -0.348 OA
BRANCH   7   8
HETATM    8  C17 UNL     1     -64.901  24.705 -34.596  1.00  0.00     0.292 C 
HETATM    9  O10 UNL     1     -65.060  24.306 -35.937  1.00  0.00    -0.355 OA
HETATM   10  C18 UNL     1     -64.913  25.431 -36.706  1.00  0.00     0.213 C 
HETATM   11  C19 UNL     1     -64.013  26.393 -35.987  1.00  0.00     0.131 C 
HETATM   12  C21 UNL     1     -63.713  25.630 -34.714  1.00  0.00     0.218 C 
BRANCH  11  13
HETATM   13  O11 UNL     1     -62.874  26.683 -36.733  1.00  0.00    -0.383 OA
ATOM     14  H11 UNL     1     -62.974  27.491 -37.222  1.00  0.00     0.210 HD
ENDBRANCH  11  13
BRANCH  11  15
HETATM   15  C20 UNL     1     -64.742  27.696 -35.739  1.00  0.00     0.207 C 
BRANCH  15  16
HETATM   16  O12 UNL     1     -63.910  28.720 -35.310  1.00  0.00    -0.398 OA
ATOM     17  H12 UNL     1     -63.993  28.909 -34.383  1.00  0.00     0.209 HD
ENDBRANCH  15  16
ENDBRANCH  11  15
BRANCH  12  18
HETATM   18  O13 UNL     1     -63.481  26.415 -33.616  1.00  0.00    -0.345 OA
BRANCH  18  19
HETATM   19  C22 UNL     1     -62.206  26.193 -33.147  1.00  0.00     0.292 C 
HETATM   20  O14 UNL     1     -61.387  25.597 -34.140  1.00  0.00    -0.355 OA
HETATM   21  C23 UNL     1     -60.161  25.541 -33.436  1.00  0.00     0.213 C 
HETATM   22  C24 UNL     1     -60.002  26.932 -32.923  1.00  0.00     0.130 C 
HETATM   23  C26 UNL     1     -61.447  27.424 -32.744  1.00  0.00     0.211 C 
BRANCH  22  24
HETATM   24  O15 UNL     1     -59.349  27.716 -33.872  1.00  0.00    -0.383 OA
ATOM     25  H15 UNL     1     -58.416  27.535 -33.853  1.00  0.00     0.210 HD
ENDBRANCH  22  24
BRANCH  22  26
HETATM   26  C25 UNL     1     -59.336  27.025 -31.584  1.00  0.00     0.207 C 
BRANCH  26  27
HETATM   27  O16 UNL     1     -59.333  28.330 -31.141  1.00  0.00    -0.398 OA
ATOM     28  H16 UNL     1     -59.890  28.419 -30.376  1.00  0.00     0.209 HD
ENDBRANCH  26  27
ENDBRANCH  22  26
BRANCH  23  29
HETATM   29  O17 UNL     1     -61.675  28.488 -33.624  1.00  0.00    -0.387 OA
ATOM     30  H17 UNL     1     -60.928  28.646 -34.190  1.00  0.00     0.210 HD
ENDBRANCH  23  29
ENDBRANCH  18  19
ENDBRANCH  12  18
ENDBRANCH   7   8
ENDBRANCH   4   7
BRANCH   3  31
HETATM   31  O3  UNL     1     -66.515  24.976 -30.627  1.00  0.00    -0.349 OA
BRANCH  31  32
HETATM   32  C4  UNL     1     -65.744  25.050 -29.452  1.00  0.00     0.154 C 
HETATM   33  C5  UNL     1     -66.448  25.794 -28.405  1.00  0.00     0.029 C 
HETATM   34  C6  UNL     1     -65.981  26.972 -28.019  1.00  0.00     0.136 C 
HETATM   35  O4  UNL     1     -64.821  27.452 -28.636  1.00  0.00    -0.332 OA
HETATM   36  C7  UNL     1     -63.792  26.470 -28.853  1.00  0.00     0.271 C 
HETATM   37  C15 UNL     1     -64.335  25.403 -29.738  1.00  0.00     0.097 C 
BRANCH  36  38
HETATM   38  O5  UNL     1     -63.349  25.922 -27.636  1.00  0.00    -0.326 OA
BRANCH  38  39
HETATM   39  C8  UNL     1     -62.064  26.287 -27.310  1.00  0.00     0.329 C 
HETATM   40  O6  UNL     1     -61.841  27.590 -27.668  1.00  0.00    -0.205 OA
HETATM   41  O7  UNL     1     -60.839  27.741 -28.506  1.00  0.00    -0.238 OA
HETATM   42  C9  UNL     1     -59.665  27.482 -27.758  1.00  0.00     0.217 C 
HETATM   43  C10 UNL     1     -59.650  25.977 -27.527  1.00  0.00     0.046 C 
HETATM   44  C11 UNL     1     -58.578  25.284 -28.317  1.00  0.00     0.011 C 
HETATM   45  C14 UNL     1     -60.993  25.418 -27.944  1.00  0.00     0.185 C 
HETATM   46  C12 UNL     1     -59.133  24.015 -28.914  1.00  0.00     0.027 C 
HETATM   47  C13 UNL     1     -60.089  23.317 -27.979  1.00  0.00     0.168 C 
HETATM   48  O8  UNL     1     -61.076  24.123 -27.477  1.00  0.00    -0.380 OA
ENDBRANCH  38  39
ENDBRANCH  36  38
ENDBRANCH  31  32
ENDBRANCH   3  31
BRANCH   6  49
HETATM   49  O18 UNL     1     -69.746  26.168 -32.928  1.00  0.00    -0.393 OA
ATOM     50  H18 UNL     1     -70.035  25.378 -33.370  1.00  0.00     0.210 HD
ENDBRANCH   6  49
BRANCH   1  51
HETATM   51  C1  UNL     1     -68.321  28.234 -31.874  1.00  0.00     0.198 C 
BRANCH  51  52
HETATM   52  O1  UNL     1     -67.963  28.393 -30.552  1.00  0.00    -0.398 OA
ATOM     53  H1  UNL     1     -68.458  29.087 -30.132  1.00  0.00     0.209 HD
ENDBRANCH  51  52
ENDBRANCH   1  51
TORSDOF 18
ENDMDL
MODEL 2
REMARK VINA RESULT: -7.224805726      1.026      1.140
REMARK  18 active torsions:
REMARK  status: ('A' for Active; 'I' for Inactive)
REMARK    1  A    between atoms: O1_1  and  C1_3 
REMARK    2  A    between atoms: C1_3  and  C2_4 
REMARK    3  A    between atoms: C3_6  and  O3_7 
REMARK    4  A    between atoms: O3_7  and  C4_8 
REMARK    5  A    between atoms: C7_12  and  O5_13 
REMARK    6  A    between atoms: O5_13  and  C8_14 
REMARK    7  A    between atoms: C16_25  and  O9_26 
REMARK    8  A    between atoms: O9_26  and  C17_27 
REMARK    9  A    between atoms: C19_30  and  O11_31 
REMARK   10  A    between atoms: C19_30  and  C20_33 
REMARK   11  A    between atoms: C20_33  and  O12_34 
REMARK   12  A    between atoms: C21_36  and  O13_37 
REMARK   13  A    between atoms: O13_37  and  C22_38 
REMARK   14  A    between atoms: C24_41  and  O15_42 
REMARK   15  A    between atoms: C24_41  and  C25_44 
REMARK   16  A    between atoms: C25_44  and  O16_45 
REMARK   17  A    between atoms: C26_47  and  O17_48 
REMARK   18  A    between atoms: C28_51  and  O18_52 
ROOT
HETATM    1  C2  UNL     1     -67.473  27.288 -32.355  1.00  0.00     0.177 C 
HETATM    2  O2  UNL     1     -66.255  26.968 -31.767  1.00  0.00    -0.349 OA
HETATM    3  C3  UNL     1     -66.092  25.599 -31.596  1.00  0.00     0.290 C 
HETATM    4  C16 UNL     1     -66.755  24.836 -32.754  1.00  0.00     0.182 C 
HETATM    5  C27 UNL     1     -68.271  24.925 -32.571  1.00  0.00     0.071 C 
HETATM    6  C28 UNL     1     -68.573  26.304 -32.030  1.00  0.00     0.151 C 
ENDROOT
BRANCH   4   7
HETATM    7  O9  UNL     1     -66.369  25.274 -33.990  1.00  0.00    -0.348 OA
BRANCH   7   8
HETATM    8  C17 UNL     1     -65.123  24.758 -34.311  1.00  0.00     0.292 C 
HETATM    9  O10 UNL     1     -65.208  23.918 -35.439  1.00  0.00    -0.355 OA
HETATM   10  C18 UNL     1     -65.285  24.734 -36.536  1.00  0.00     0.213 C 
HETATM   11  C19 UNL     1     -64.585  26.026 -36.229  1.00  0.00     0.131 C 
HETATM   12  C21 UNL     1     -64.137  25.792 -34.802  1.00  0.00     0.218 C 
BRANCH  11  13
HETATM   13  O11 UNL     1     -63.528  26.256 -37.104  1.00  0.00    -0.383 OA
ATOM     14  H11 UNL     1     -63.573  27.125 -37.485  1.00  0.00     0.210 HD
ENDBRANCH  11  13
BRANCH  11  15
HETATM   15  C20 UNL     1     -65.553  27.183 -36.365  1.00  0.00     0.207 C 
BRANCH  15  16
HETATM   16  O12 UNL     1     -64.957  28.422 -36.180  1.00  0.00    -0.398 OA
ATOM     17  H12 UNL     1     -64.866  28.920 -36.984  1.00  0.00     0.209 HD
ENDBRANCH  15  16
ENDBRANCH  11  15
BRANCH  12  18
HETATM   18  O13 UNL     1     -64.057  26.924 -34.033  1.00  0.00    -0.345 OA
BRANCH  18  19
HETATM   19  C22 UNL     1     -62.744  27.164 -33.697  1.00  0.00     0.292 C 
HETATM   20  O14 UNL     1     -62.226  28.281 -34.401  1.00  0.00    -0.355 OA
HETATM   21  C23 UNL     1     -60.930  28.338 -33.838  1.00  0.00     0.213 C 
HETATM   22  C24 UNL     1     -61.196  28.304 -32.372  1.00  0.00     0.130 C 
HETATM   23  C26 UNL     1     -62.502  27.502 -32.256  1.00  0.00     0.211 C 
BRANCH  22  24
HETATM   24  O15 UNL     1     -61.391  29.599 -31.895  1.00  0.00    -0.383 OA
ATOM     25  H15 UNL     1     -62.168  29.975 -32.291  1.00  0.00     0.210 HD
ENDBRANCH  22  24
BRANCH  22  26
HETATM   26  C25 UNL     1     -60.159  27.577 -31.571  1.00  0.00     0.207 C 
BRANCH  26  27
HETATM   27  O16 UNL     1     -59.378  28.473 -30.875  1.00  0.00    -0.398 OA
ATOM     28  H16 UNL     1     -59.913  29.182 -30.535  1.00  0.00     0.209 HD
ENDBRANCH  26  27
ENDBRANCH  22  26
BRANCH  23  29
HETATM   29  O17 UNL     1     -63.501  28.336 -31.741  1.00  0.00    -0.387 OA
ATOM     30  H17 UNL     1     -63.482  28.367 -30.791  1.00  0.00     0.210 HD
ENDBRANCH  23  29
ENDBRANCH  18  19
ENDBRANCH  12  18
ENDBRANCH   7   8
ENDBRANCH   4   7
BRANCH   3  31
HETATM   31  O3  UNL     1     -66.649  25.110 -30.456  1.00  0.00    -0.349 OA
BRANCH  31  32
HETATM   32  C4  UNL     1     -65.886  25.281 -29.286  1.00  0.00     0.154 C 
HETATM   33  C5  UNL     1     -66.432  26.354 -28.452  1.00  0.00     0.029 C 
HETATM   34  C6  UNL     1     -65.740  27.472 -28.297  1.00  0.00     0.136 C 
HETATM   35  O4  UNL     1     -64.504  27.574 -28.944  1.00  0.00    -0.332 OA
HETATM   36  C7  UNL     1     -63.693  26.387 -28.902  1.00  0.00     0.271 C 
HETATM   37  C15 UNL     1     -64.433  25.282 -29.571  1.00  0.00     0.097 C 
BRANCH  36  38
HETATM   38  O5  UNL     1     -63.375  26.035 -27.577  1.00  0.00    -0.326 OA
BRANCH  38  39
HETATM   39  C8  UNL     1     -62.071  26.307 -27.239  1.00  0.00     0.329 C 
HETATM   40  O6  UNL     1     -61.839  27.656 -27.308  1.00  0.00    -0.205 OA
HETATM   41  O7  UNL     1     -60.871  27.981 -28.137  1.00  0.00    -0.238 OA
HETATM   42  C9  UNL     1     -59.672  27.551 -27.522  1.00  0.00     0.217 C 
HETATM   43  C10 UNL     1     -59.675  26.032 -27.633  1.00  0.00     0.046 C 
HETATM   44  C11 UNL     1     -58.652  25.524 -28.606  1.00  0.00     0.011 C 
HETATM   45  C14 UNL     1     -61.046  25.592 -28.100  1.00  0.00     0.185 C 
HETATM   46  C12 UNL     1     -59.257  24.425 -29.445  1.00  0.00     0.027 C 
HETATM   47  C13 UNL     1     -60.185  23.544 -28.645  1.00  0.00     0.168 C 
HETATM   48  O8  UNL     1     -61.133  24.227 -27.929  1.00  0.00    -0.380 OA
ENDBRANCH  38  39
ENDBRANCH  36  38
ENDBRANCH  31  32
ENDBRANCH   3  31
BRANCH   6  49
HETATM   49  O18 UNL     1     -69.758  26.816 -32.596  1.00  0.00    -0.393 OA
ATOM     50  H18 UNL     1     -70.134  26.121 -33.123  1.00  0.00     0.210 HD
ENDBRANCH   6  49
BRANCH   1  51
HETATM   51  C1  UNL     1     -67.913  28.611 -31.710  1.00  0.00     0.198 C 
BRANCH  51  52
HETATM   52  O1  UNL     1     -68.664  29.379 -32.575  1.00  0.00    -0.398 OA
ATOM     53  H1  UNL     1     -69.570  29.441 -32.297  1.00  0.00     0.209 HD
ENDBRANCH  51  52
ENDBRANCH   1  51
TORSDOF 18
ENDMDL
MODEL 3
REMARK VINA RESULT: -7.136323201      1.753      2.875
REMARK  18 active torsions:
REMARK  status: ('A' for Active; 'I' for Inactive)
REMARK    1  A    between atoms: O1_1  and  C1_3 
REMARK    2  A    between atoms: C1_3  and  C2_4 
REMARK    3  A    between atoms: C3_6  and  O3_7 
REMARK    4  A    between atoms: O3_7  and  C4_8 
REMARK    5  A    between atoms: C7_12  and  O5_13 
REMARK    6  A    between atoms: O5_13  and  C8_14 
REMARK    7  A    between atoms: C16_25  and  O9_26 
REMARK    8  A    between atoms: O9_26  and  C17_27 
REMARK    9  A    between atoms: C19_30  and  O11_31 
REMARK   10  A    between atoms: C19_30  and  C20_33 
REMARK   11  A    between atoms: C20_33  and  O12_34 
REMARK   12  A    between atoms: C21_36  and  O13_37 
REMARK   13  A    between atoms: O13_37  and  C22_38 
REMARK   14  A    between atoms: C24_41  and  O15_42 
REMARK   15  A    between atoms: C24_41  and  C25_44 
REMARK   16  A    between atoms: C25_44  and  O16_45 
REMARK   17  A    between atoms: C26_47  and  O17_48 
REMARK   18  A    between atoms: C28_51  and  O18_52 
ROOT
HETATM    1  C2  UNL     1     -67.449  27.950 -32.926  1.00  0.00     0.177 C 
HETATM    2  O2  UNL     1     -66.434  27.173 -32.381  1.00  0.00    -0.349 OA
HETATM    3  C3  UNL     1     -66.913  26.007 -31.797  1.00  0.00     0.290 C 
HETATM    4  C16 UNL     1     -68.123  25.477 -32.582  1.00  0.00     0.182 C 
HETATM    5  C27 UNL     1     -69.310  26.398 -32.298  1.00  0.00     0.071 C 
HETATM    6  C28 UNL     1     -68.768  27.806 -32.202  1.00  0.00     0.151 C 
ENDROOT
BRANCH   4   7
HETATM    7  O9  UNL     1     -67.891  25.350 -33.923  1.00  0.00    -0.348 OA
BRANCH   7   8
HETATM    8  C17 UNL     1     -66.988  24.325 -34.157  1.00  0.00     0.292 C 
HETATM    9  O10 UNL     1     -67.622  23.239 -34.791  1.00  0.00    -0.355 OA
HETATM   10  C18 UNL     1     -67.762  23.577 -36.111  1.00  0.00     0.213 C 
HETATM   11  C19 UNL     1     -66.662  24.527 -36.486  1.00  0.00     0.131 C 
HETATM   12  C21 UNL     1     -65.922  24.664 -35.172  1.00  0.00     0.218 C 
BRANCH  11  13
HETATM   13  O11 UNL     1     -65.870  24.014 -37.510  1.00  0.00    -0.383 OA
ATOM     14  H11 UNL     1     -65.096  23.582 -37.169  1.00  0.00     0.210 HD
ENDBRANCH  11  13
BRANCH  11  15
HETATM   15  C20 UNL     1     -67.251  25.833 -36.974  1.00  0.00     0.207 C 
BRANCH  15  16
HETATM   16  O12 UNL     1     -68.620  25.930 -36.767  1.00  0.00    -0.398 OA
ATOM     17  H12 UNL     1     -68.872  26.695 -36.262  1.00  0.00     0.209 HD
ENDBRANCH  15  16
ENDBRANCH  11  15
BRANCH  12  18
HETATM   18  O13 UNL     1     -65.309  25.874 -34.983  1.00  0.00    -0.345 OA
BRANCH  18  19
HETATM   19  C22 UNL     1     -63.948  25.692 -34.879  1.00  0.00     0.292 C 
HETATM   20  O14 UNL     1     -63.264  26.270 -35.979  1.00  0.00    -0.355 OA
HETATM   21  C23 UNL     1     -61.929  26.002 -35.597  1.00  0.00     0.213 C 
HETATM   22  C24 UNL     1     -61.869  26.508 -34.195  1.00  0.00     0.130 C 
HETATM   23  C26 UNL     1     -63.306  26.327 -33.680  1.00  0.00     0.211 C 
BRANCH  22  24
HETATM   24  O15 UNL     1     -61.531  27.859 -34.193  1.00  0.00    -0.383 OA
ATOM     25  H15 UNL     1     -61.474  28.176 -33.299  1.00  0.00     0.210 HD
ENDBRANCH  22  24
BRANCH  22  26
HETATM   26  C25 UNL     1     -60.973  25.718 -33.290  1.00  0.00     0.207 C 
BRANCH  26  27
HETATM   27  O16 UNL     1     -61.567  25.550 -32.058  1.00  0.00    -0.398 OA
ATOM     28  H16 UNL     1     -61.260  24.749 -31.650  1.00  0.00     0.209 HD
ENDBRANCH  26  27
ENDBRANCH  22  26
BRANCH  23  29
HETATM   29  O17 UNL     1     -63.849  27.587 -33.403  1.00  0.00    -0.387 OA
ATOM     30  H17 UNL     1     -63.271  28.110 -32.860  1.00  0.00     0.210 HD
ENDBRANCH  23  29
ENDBRANCH  18  19
ENDBRANCH  12  18
ENDBRANCH   7   8
ENDBRANCH   4   7
BRANCH   3  31
HETATM   31  O3  UNL     1     -67.337  26.162 -30.514  1.00  0.00    -0.349 OA
BRANCH  31  32
HETATM   32  C4  UNL     1     -66.319  26.235 -29.544  1.00  0.00     0.154 C 
HETATM   33  C5  UNL     1     -65.817  27.604 -29.409  1.00  0.00     0.029 C 
HETATM   34  C6  UNL     1     -64.581  27.884 -29.797  1.00  0.00     0.136 C 
HETATM   35  O4  UNL     1     -63.807  26.843 -30.320  1.00  0.00    -0.332 OA
HETATM   36  C7  UNL     1     -63.920  25.588 -29.627  1.00  0.00     0.271 C 
HETATM   37  C15 UNL     1     -65.338  25.137 -29.690  1.00  0.00     0.097 C 
BRANCH  36  38
HETATM   38  O5  UNL     1     -63.501  25.707 -28.288  1.00  0.00    -0.326 OA
BRANCH  38  39
HETATM   39  C8  UNL     1     -62.294  26.348 -28.151  1.00  0.00     0.329 C 
HETATM   40  O6  UNL     1     -61.268  25.446 -28.253  1.00  0.00    -0.205 OA
HETATM   41  O7  UNL     1     -60.486  25.417 -27.196  1.00  0.00    -0.238 OA
HETATM   42  C9  UNL     1     -59.757  26.630 -27.219  1.00  0.00     0.217 C 
HETATM   43  C10 UNL     1     -60.754  27.716 -26.835  1.00  0.00     0.046 C 
HETATM   44  C11 UNL     1     -60.491  28.281 -25.470  1.00  0.00     0.011 C 
HETATM   45  C14 UNL     1     -62.142  27.113 -26.849  1.00  0.00     0.185 C 
HETATM   46  C12 UNL     1     -61.797  28.447 -24.734  1.00  0.00     0.027 C 
HETATM   47  C13 UNL     1     -62.911  28.900 -25.646  1.00  0.00     0.168 C 
HETATM   48  O8  UNL     1     -63.052  28.146 -26.781  1.00  0.00    -0.380 OA
ENDBRANCH  38  39
ENDBRANCH  36  38
ENDBRANCH  31  32
ENDBRANCH   3  31
BRANCH   6  49
HETATM   49  O18 UNL     1     -69.658  28.727 -32.791  1.00  0.00    -0.393 OA
ATOM     50  H18 UNL     1     -69.979  28.327 -33.591  1.00  0.00     0.210 HD
ENDBRANCH   6  49
BRANCH   1  51
HETATM   51  C1  UNL     1     -67.025  29.409 -32.702  1.00  0.00     0.198 C 
BRANCH  51  52
HETATM   52  O1  UNL     1     -67.388  29.864 -31.452  1.00  0.00    -0.398 OA
ATOM     53  H1  UNL     1     -66.668  30.296 -31.009  1.00  0.00     0.209 HD
ENDBRANCH  51  52
ENDBRANCH   1  51
TORSDOF 18
ENDMDL
MODEL 4
REMARK VINA RESULT: -7.081025226      2.378      5.912
REMARK  18 active torsions:
REMARK  status: ('A' for Active; 'I' for Inactive)
REMARK    1  A    between atoms: O1_1  and  C1_3 
REMARK    2  A    between atoms: C1_3  and  C2_4 
REMARK    3  A    between atoms: C3_6  and  O3_7 
REMARK    4  A    between atoms: O3_7  and  C4_8 
REMARK    5  A    between atoms: C7_12  and  O5_13 
REMARK    6  A    between atoms: O5_13  and  C8_14 
REMARK    7  A    between atoms: C16_25  and  O9_26 
REMARK    8  A    between atoms: O9_26  and  C17_27 
REMARK    9  A    between atoms: C19_30  and  O11_31 
REMARK   10  A    between atoms: C19_30  and  C20_33 
REMARK   11  A    between atoms: C20_33  and  O12_34 
REMARK   12  A    between atoms: C21_36  and  O13_37 
REMARK   13  A    between atoms: O13_37  and  C22_38 
REMARK   14  A    between atoms: C24_41  and  O15_42 
REMARK   15  A    between atoms: C24_41  and  C25_44 
REMARK   16  A    between atoms: C25_44  and  O16_45 
REMARK   17  A    between atoms: C26_47  and  O17_48 
REMARK   18  A    between atoms: C28_51  and  O18_52 
ROOT
HETATM    1  C2  UNL     1     -65.146  30.998 -33.601  1.00  0.00     0.177 C 
HETATM    2  O2  UNL     1     -64.134  30.051 -33.695  1.00  0.00    -0.349 OA
HETATM    3  C3  UNL     1     -63.760  29.550 -32.454  1.00  0.00     0.290 C 
HETATM    4  C16 UNL     1     -64.981  29.468 -31.524  1.00  0.00     0.182 C 
HETATM    5  C27 UNL     1     -65.355  30.891 -31.109  1.00  0.00     0.071 C 
HETATM    6  C28 UNL     1     -65.118  31.781 -32.309  1.00  0.00     0.151 C 
ENDROOT
BRANCH   4   7
HETATM    7  O9  UNL     1     -66.043  28.806 -32.074  1.00  0.00    -0.348 OA
BRANCH   7   8
HETATM    8  C17 UNL     1     -67.106  28.785 -31.183  1.00  0.00     0.292 C 
HETATM    9  O10 UNL     1     -68.315  29.078 -31.845  1.00  0.00    -0.355 OA
HETATM   10  C18 UNL     1     -68.692  27.939 -32.506  1.00  0.00     0.213 C 
HETATM   11  C19 UNL     1     -68.150  26.749 -31.768  1.00  0.00     0.131 C 
HETATM   12  C21 UNL     1     -67.412  27.416 -30.625  1.00  0.00     0.218 C 
BRANCH  11  13
HETATM   13  O11 UNL     1     -69.170  25.903 -31.342  1.00  0.00    -0.383 OA
ATOM     14  H11 UNL     1     -68.905  25.388 -30.590  1.00  0.00     0.210 HD
ENDBRANCH  11  13
BRANCH  11  15
HETATM   15  C20 UNL     1     -67.239  25.949 -32.674  1.00  0.00     0.207 C 
BRANCH  15  16
HETATM   16  O12 UNL     1     -66.980  24.670 -32.204  1.00  0.00    -0.398 OA
ATOM     17  H12 UNL     1     -66.311  24.214 -32.701  1.00  0.00     0.209 HD
ENDBRANCH  15  16
ENDBRANCH  11  15
BRANCH  12  18
HETATM   18  O13 UNL     1     -66.324  26.723 -30.163  1.00  0.00    -0.345 OA
BRANCH  18  19
HETATM   19  C22 UNL     1     -66.106  27.031 -28.839  1.00  0.00     0.292 C 
HETATM   20  O14 UNL     1     -66.547  25.988 -27.986  1.00  0.00    -0.355 OA
HETATM   21  C23 UNL     1     -66.158  26.522 -26.736  1.00  0.00     0.213 C 
HETATM   22  C24 UNL     1     -64.732  26.896 -26.956  1.00  0.00     0.130 C 
HETATM   23  C26 UNL     1     -64.669  27.228 -28.456  1.00  0.00     0.211 C 
BRANCH  22  24
HETATM   24  O15 UNL     1     -63.908  25.809 -26.677  1.00  0.00    -0.383 OA
ATOM     25  H15 UNL     1     -63.757  25.749 -25.740  1.00  0.00     0.210 HD
ENDBRANCH  22  24
BRANCH  22  26
HETATM   26  C25 UNL     1     -64.292  28.121 -26.214  1.00  0.00     0.207 C 
BRANCH  26  27
HETATM   27  O16 UNL     1     -63.578  28.954 -27.048  1.00  0.00    -0.398 OA
ATOM     28  H16 UNL     1     -62.655  28.727 -27.028  1.00  0.00     0.209 HD
ENDBRANCH  26  27
ENDBRANCH  22  26
BRANCH  23  29
HETATM   29  O17 UNL     1     -63.829  26.305 -29.089  1.00  0.00    -0.387 OA
ATOM     30  H17 UNL     1     -63.421  25.714 -28.467  1.00  0.00     0.210 HD
ENDBRANCH  23  29
ENDBRANCH  18  19
ENDBRANCH  12  18
ENDBRANCH   7   8
ENDBRANCH   4   7
BRANCH   3  31
HETATM   31  O3  UNL     1     -62.841  30.310 -31.801  1.00  0.00    -0.349 OA
BRANCH  31  32
HETATM   32  C4  UNL     1     -61.551  29.757 -31.710  1.00  0.00     0.154 C 
HETATM   33  C5  UNL     1     -60.793  29.981 -32.943  1.00  0.00     0.029 C 
HETATM   34  C6  UNL     1     -60.484  28.948 -33.712  1.00  0.00     0.136 C 
HETATM   35  O4  UNL     1     -60.899  27.677 -33.301  1.00  0.00    -0.332 OA
HETATM   36  C7  UNL     1     -60.752  27.410 -31.895  1.00  0.00     0.271 C 
HETATM   37  C15 UNL     1     -61.574  28.392 -31.137  1.00  0.00     0.097 C 
BRANCH  36  38
HETATM   38  O5  UNL     1     -59.403  27.490 -31.502  1.00  0.00    -0.326 OA
BRANCH  38  39
HETATM   39  C8  UNL     1     -59.038  26.512 -30.607  1.00  0.00     0.329 C 
HETATM   40  O6  UNL     1     -59.346  25.276 -31.111  1.00  0.00    -0.205 OA
HETATM   41  O7  UNL     1     -60.157  24.583 -30.341  1.00  0.00    -0.238 OA
HETATM   42  C9  UNL     1     -59.393  24.209 -29.209  1.00  0.00     0.217 C 
HETATM   43  C10 UNL     1     -59.213  25.485 -28.397  1.00  0.00     0.046 C 
HETATM   44  C11 UNL     1     -60.003  25.471 -27.121  1.00  0.00     0.011 C 
HETATM   45  C14 UNL     1     -59.677  26.654 -29.238  1.00  0.00     0.185 C 
HETATM   46  C12 UNL     1     -60.655  26.815 -26.917  1.00  0.00     0.027 C 
HETATM   47  C13 UNL     1     -59.765  27.952 -27.357  1.00  0.00     0.168 C 
HETATM   48  O8  UNL     1     -59.256  27.813 -28.621  1.00  0.00    -0.380 OA
ENDBRANCH  38  39
ENDBRANCH  36  38
ENDBRANCH  31  32
ENDBRANCH   3  31
BRANCH   6  49
HETATM   49  O18 UNL     1     -66.121  32.767 -32.408  1.00  0.00    -0.393 OA
ATOM     50  H18 UNL     1     -66.843  32.480 -31.861  1.00  0.00     0.210 HD
ENDBRANCH   6  49
BRANCH   1  51
HETATM   51  C1  UNL     1     -64.855  32.030 -34.702  1.00  0.00     0.198 C 
BRANCH  51  52
HETATM   52  O1  UNL     1     -63.901  32.945 -34.309  1.00  0.00    -0.398 OA
ATOM     53  H1  UNL     1     -64.195  33.469 -33.574  1.00  0.00     0.209 HD
ENDBRANCH  51  52
ENDBRANCH   1  51
TORSDOF 18
ENDMDL
MODEL 5
REMARK VINA RESULT: -7.067800014      3.239      8.746
REMARK  18 active torsions:
REMARK  status: ('A' for Active; 'I' for Inactive)
REMARK    1  A    between atoms: O1_1  and  C1_3 
REMARK    2  A    between atoms: C1_3  and  C2_4 
REMARK    3  A    between atoms: C3_6  and  O3_7 
REMARK    4  A    between atoms: O3_7  and  C4_8 
REMARK    5  A    between atoms: C7_12  and  O5_13 
REMARK    6  A    between atoms: O5_13  and  C8_14 
REMARK    7  A    between atoms: C16_25  and  O9_26 
REMARK    8  A    between atoms: O9_26  and  C17_27 
REMARK    9  A    between atoms: C19_30  and  O11_31 
REMARK   10  A    between atoms: C19_30  and  C20_33 
REMARK   11  A    between atoms: C20_33  and  O12_34 
REMARK   12  A    between atoms: C21_36  and  O13_37 
REMARK   13  A    between atoms: O13_37  and  C22_38 
REMARK   14  A    between atoms: C24_41  and  O15_42 
REMARK   15  A    between atoms: C24_41  and  C25_44 
REMARK   16  A    between atoms: C25_44  and  O16_45 
REMARK   17  A    between atoms: C26_47  and  O17_48 
REMARK   18  A    between atoms: C28_51  and  O18_52 
ROOT
HETATM    1  C2  UNL     1     -67.618  26.388 -31.783  1.00  0.00     0.177 C 
HETATM    2  O2  UNL     1     -66.875  25.332 -32.299  1.00  0.00    -0.349 OA
HETATM    3  C3  UNL     1     -65.816  25.764 -33.087  1.00  0.00     0.290 C 
HETATM    4  C16 UNL     1     -65.241  27.076 -32.533  1.00  0.00     0.182 C 
HETATM    5  C27 UNL     1     -66.240  28.194 -32.834  1.00  0.00     0.071 C 
HETATM    6  C28 UNL     1     -67.624  27.608 -32.675  1.00  0.00     0.151 C 
ENDROOT
BRANCH   4   7
HETATM    7  O9  UNL     1     -64.933  27.019 -31.202  1.00  0.00    -0.348 OA
BRANCH   7   8
HETATM    8  C17 UNL     1     -63.764  27.722 -30.952  1.00  0.00     0.292 C 
HETATM    9  O10 UNL     1     -64.054  29.025 -30.502  1.00  0.00    -0.355 OA
HETATM   10  C18 UNL     1     -64.413  28.919 -29.184  1.00  0.00     0.213 C 
HETATM   11  C19 UNL     1     -63.728  27.722 -28.592  1.00  0.00     0.131 C 
HETATM   12  C21 UNL     1     -62.964  27.191 -29.787  1.00  0.00     0.218 C 
BRANCH  11  13
HETATM   13  O11 UNL     1     -62.903  28.078 -27.529  1.00  0.00    -0.383 OA
ATOM     14  H11 UNL     1     -62.105  28.496 -27.831  1.00  0.00     0.210 HD
ENDBRANCH  11  13
BRANCH  11  15
HETATM   15  C20 UNL     1     -64.758  26.745 -28.065  1.00  0.00     0.207 C 
BRANCH  15  16
HETATM   16  O12 UNL     1     -64.243  25.848 -27.140  1.00  0.00    -0.398 OA
ATOM     17  H12 UNL     1     -63.839  26.270 -26.391  1.00  0.00     0.209 HD
ENDBRANCH  15  16
ENDBRANCH  11  15
BRANCH  12  18
HETATM   18  O13 UNL     1     -62.773  25.834 -29.789  1.00  0.00    -0.345 OA
BRANCH  18  19
HETATM   19  C22 UNL     1     -61.424  25.556 -29.780  1.00  0.00     0.292 C 
HETATM   20  O14 UNL     1     -60.651  26.744 -29.815  1.00  0.00    -0.355 OA
HETATM   21  C23 UNL     1     -59.354  26.187 -29.736  1.00  0.00     0.213 C 
HETATM   22  C24 UNL     1     -59.451  25.268 -28.566  1.00  0.00     0.130 C 
HETATM   23  C26 UNL     1     -60.926  24.836 -28.562  1.00  0.00     0.211 C 
BRANCH  22  24
HETATM   24  O15 UNL     1     -59.156  25.960 -27.394  1.00  0.00    -0.383 OA
ATOM     25  H15 UNL     1     -58.229  25.884 -27.197  1.00  0.00     0.210 HD
ENDBRANCH  22  24
BRANCH  22  26
HETATM   26  C25 UNL     1     -58.627  24.022 -28.688  1.00  0.00     0.207 C 
BRANCH  26  27
HETATM   27  O16 UNL     1     -59.165  23.016 -27.915  1.00  0.00    -0.398 OA
ATOM     28  H16 UNL     1     -59.270  22.224 -28.431  1.00  0.00     0.209 HD
ENDBRANCH  26  27
ENDBRANCH  22  26
BRANCH  23  29
HETATM   29  O17 UNL     1     -61.532  25.309 -27.392  1.00  0.00    -0.387 OA
ATOM     30  H17 UNL     1     -62.348  24.858 -27.209  1.00  0.00     0.210 HD
ENDBRANCH  23  29
ENDBRANCH  18  19
ENDBRANCH  12  18
ENDBRANCH   7   8
ENDBRANCH   4   7
BRANCH   3  31
HETATM   31  O3  UNL     1     -66.153  26.017 -34.380  1.00  0.00    -0.349 OA
BRANCH  31  32
HETATM   32  C4  UNL     1     -66.422  24.885 -35.170  1.00  0.00     0.154 C 
HETATM   33  C5  UNL     1     -65.351  24.651 -36.141  1.00  0.00     0.029 C 
HETATM   34  C6  UNL     1     -65.596  24.814 -37.432  1.00  0.00     0.136 C 
HETATM   35  O4  UNL     1     -66.885  25.204 -37.810  1.00  0.00    -0.332 OA
HETATM   36  C7  UNL     1     -67.954  24.554 -37.101  1.00  0.00     0.271 C 
HETATM   37  C15 UNL     1     -67.822  24.868 -35.652  1.00  0.00     0.097 C 
BRANCH  36  38
HETATM   38  O5  UNL     1     -67.927  23.162 -37.307  1.00  0.00    -0.326 OA
BRANCH  38  39
HETATM   39  C8  UNL     1     -68.351  22.789 -38.560  1.00  0.00     0.329 C 
HETATM   40  O6  UNL     1     -69.656  22.375 -38.511  1.00  0.00    -0.205 OA
HETATM   41  O7  UNL     1     -69.834  21.144 -38.939  1.00  0.00    -0.238 OA
HETATM   42  C9  UNL     1     -69.637  21.188 -40.340  1.00  0.00     0.217 C 
HETATM   43  C10 UNL     1     -68.137  21.370 -40.538  1.00  0.00     0.046 C 
HETATM   44  C11 UNL     1     -67.476  20.140 -41.087  1.00  0.00     0.011 C 
HETATM   45  C14 UNL     1     -67.516  21.693 -39.196  1.00  0.00     0.185 C 
HETATM   46  C12 UNL     1     -66.175  19.901 -40.363  1.00  0.00     0.027 C 
HETATM   47  C13 UNL     1     -65.454  21.189 -40.049  1.00  0.00     0.168 C 
HETATM   48  O8  UNL     1     -66.228  22.129 -39.421  1.00  0.00    -0.380 OA
ENDBRANCH  38  39
ENDBRANCH  36  38
ENDBRANCH  31  32
ENDBRANCH   3  31
BRANCH   6  49
HETATM   49  O18 UNL     1     -68.499  28.542 -32.082  1.00  0.00    -0.393 OA
ATOM     50  H18 UNL     1     -68.822  28.146 -31.281  1.00  0.00     0.210 HD
ENDBRANCH   6  49
BRANCH   1  51
HETATM   51  C1  UNL     1     -69.075  25.901 -31.758  1.00  0.00     0.198 C 
BRANCH  51  52
HETATM   52  O1  UNL     1     -69.748  26.234 -32.914  1.00  0.00    -0.398 OA
ATOM     53  H1  UNL     1     -69.257  25.995 -33.691  1.00  0.00     0.209 HD
ENDBRANCH  51  52
ENDBRANCH   1  51
TORSDOF 18
ENDMDL
