MODEL 1
REMARK VINA RESULT: -4.662969123      0.000      0.000
REMARK  2 active torsions:
REMARK  status: ('A' for Active; 'I' for Inactive)
REMARK    1  A    between atoms: N1_2  and  C2_4 
REMARK    2  A    between atoms: C2_4  and  N2_6 
ROOT
HETATM    1  C2  UNL     1      -5.235  39.683  13.219  1.00  0.00     0.238 C 
HETATM    2  S1  UNL     1      -6.321  39.397  14.395  1.00  0.00    -0.035 SA
ENDROOT
BRANCH   1   3
HETATM    3  N1  UNL     1      -5.659  40.078  11.935  1.00  0.00    -0.367 N 
HETATM    4  C1  UNL     1      -5.439  41.388  11.373  1.00  0.00     0.148 C 
ATOM      5  H1  UNL     1      -6.153  39.392  11.365  1.00  0.00     0.161 HD
ENDBRANCH   1   3
BRANCH   1   6
HETATM    6  N2  UNL     1      -3.867  39.521  13.531  1.00  0.00    -0.086 N 
HETATM    7  O1  UNL     1      -2.977  40.529  13.364  1.00  0.00    -0.530 OA
HETATM    8  O2  UNL     1      -3.411  38.341  14.010  1.00  0.00    -0.530 OA
ENDBRANCH   1   6
TORSDOF 2
ENDMDL
MODEL 2
REMARK VINA RESULT: -4.655884793      0.025      1.241
REMARK  2 active torsions:
REMARK  status: ('A' for Active; 'I' for Inactive)
REMARK    1  A    between atoms: N1_2  and  C2_4 
REMARK    2  A    between atoms: C2_4  and  N2_6 
ROOT
HETATM    1  C2  UNL     1      -5.232  39.670  13.230  1.00  0.00     0.238 C 
HETATM    2  S1  UNL     1      -6.327  39.398  14.400  1.00  0.00    -0.035 SA
ENDROOT
BRANCH   1   3
HETATM    3  N1  UNL     1      -5.643  40.063  11.941  1.00  0.00    -0.367 N 
HETATM    4  C1  UNL     1      -5.446  41.382  11.391  1.00  0.00     0.148 C 
ATOM      5  H1  UNL     1      -6.113  39.370  11.359  1.00  0.00     0.161 HD
ENDBRANCH   1   3
BRANCH   1   6
HETATM    6  N2  UNL     1      -3.867  39.497  13.551  1.00  0.00    -0.086 N 
HETATM    7  O1  UNL     1      -3.392  38.321  14.028  1.00  0.00    -0.530 OA
HETATM    8  O2  UNL     1      -2.993  40.517  13.386  1.00  0.00    -0.530 OA
ENDBRANCH   1   6
TORSDOF 2
ENDMDL
MODEL 3
REMARK VINA RESULT: -4.377209491      1.707      2.755
REMARK  2 active torsions:
REMARK  status: ('A' for Active; 'I' for Inactive)
REMARK    1  A    between atoms: N1_2  and  C2_4 
REMARK    2  A    between atoms: C2_4  and  N2_6 
ROOT
HETATM    1  C2  UNL     1      -5.259  39.573  13.711  1.00  0.00     0.238 C 
HETATM    2  S1  UNL     1      -6.029  40.272  12.461  1.00  0.00    -0.035 SA
ENDROOT
BRANCH   1   3
HETATM    3  N1  UNL     1      -5.984  39.095  14.821  1.00  0.00    -0.367 N 
HETATM    4  C1  UNL     1      -5.521  39.161  16.185  1.00  0.00     0.148 C 
ATOM      5  H1  UNL     1      -6.897  38.674  14.647  1.00  0.00     0.161 HD
ENDBRANCH   1   3
BRANCH   1   6
HETATM    6  N2  UNL     1      -3.853  39.465  13.643  1.00  0.00    -0.086 N 
HETATM    7  O1  UNL     1      -3.213  38.311  13.953  1.00  0.00    -0.530 OA
HETATM    8  O2  UNL     1      -3.104  40.525  13.261  1.00  0.00    -0.530 OA
ENDBRANCH   1   6
TORSDOF 2
ENDMDL
MODEL 4
REMARK VINA RESULT: -4.369506012      1.702      2.461
REMARK  2 active torsions:
REMARK  status: ('A' for Active; 'I' for Inactive)
REMARK    1  A    between atoms: N1_2  and  C2_4 
REMARK    2  A    between atoms: C2_4  and  N2_6 
ROOT
HETATM    1  C2  UNL     1      -5.255  39.565  13.707  1.00  0.00     0.238 C 
HETATM    2  S1  UNL     1      -6.040  40.263  12.466  1.00  0.00    -0.035 SA
ENDROOT
BRANCH   1   3
HETATM    3  N1  UNL     1      -5.967  39.069  14.817  1.00  0.00    -0.367 N 
HETATM    4  C1  UNL     1      -5.515  39.165  16.183  1.00  0.00     0.148 C 
ATOM      5  H1  UNL     1      -6.862  38.612  14.642  1.00  0.00     0.161 HD
ENDBRANCH   1   3
BRANCH   1   6
HETATM    6  N2  UNL     1      -3.847  39.477  13.630  1.00  0.00    -0.086 N 
HETATM    7  O1  UNL     1      -3.089  40.531  13.242  1.00  0.00    -0.530 OA
HETATM    8  O2  UNL     1      -3.217  38.322  13.946  1.00  0.00    -0.530 OA
ENDBRANCH   1   6
TORSDOF 2
ENDMDL
MODEL 5
REMARK VINA RESULT: -4.169168016      1.122      1.122
REMARK  2 active torsions:
REMARK  status: ('A' for Active; 'I' for Inactive)
REMARK    1  A    between atoms: N1_2  and  C2_4 
REMARK    2  A    between atoms: C2_4  and  N2_6 
ROOT
HETATM    1  C2  UNL     1      -5.320  39.891  13.391  1.00  0.00     0.238 C 
HETATM    2  S1  UNL     1      -6.767  39.429  13.972  1.00  0.00    -0.035 SA
ENDROOT
BRANCH   1   3
HETATM    3  N1  UNL     1      -5.157  40.179  12.022  1.00  0.00    -0.367 N 
HETATM    4  C1  UNL     1      -5.219  41.504  11.457  1.00  0.00     0.148 C 
ATOM      5  H1  UNL     1      -4.984  39.399  11.389  1.00  0.00     0.161 HD
ENDBRANCH   1   3
BRANCH   1   6
HETATM    6  N2  UNL     1      -4.246  39.991  14.303  1.00  0.00    -0.086 N 
HETATM    7  O1  UNL     1      -2.961  40.067  13.880  1.00  0.00    -0.530 OA
HETATM    8  O2  UNL     1      -4.480  40.014  15.635  1.00  0.00    -0.530 OA
ENDBRANCH   1   6
TORSDOF 2
ENDMDL
