MODEL 1
REMARK VINA RESULT: -4.997706628      0.000      0.000
REMARK  2 active torsions:
REMARK  status: ('A' for Active; 'I' for Inactive)
REMARK    1  A    between atoms: N1_1  and  N2_4 
REMARK    2  A    between atoms: C1_5  and  O1_6 
ROOT
HETATM    1  N2  UNL     1      -4.596  39.045  13.358  1.00  0.00    -0.190 NA
HETATM    2  C1  UNL     1      -5.917  39.526  12.980  1.00  0.00     0.215 C 
HETATM    3  C2  UNL     1      -5.755  40.757  13.835  1.00  0.00     0.086 C 
HETATM    4  C3  UNL     1      -4.651  39.943  14.488  1.00  0.00     0.181 C 
HETATM    5 CL1  UNL     1      -5.345  39.061  15.888  1.00  0.00    -0.106 Cl
ENDROOT
BRANCH   1   6
HETATM    6  N1  UNL     1      -3.624  39.307  12.410  1.00  0.00    -0.360 NA
ATOM      7  H12 UNL     1      -2.925  40.007  12.658  1.00  0.00     0.171 HD
ATOM      8  H11 UNL     1      -3.937  39.938  11.672  1.00  0.00     0.171 HD
ENDBRANCH   1   6
BRANCH   2   9
HETATM    9  O1  UNL     1      -5.962  39.876  11.619  1.00  0.00    -0.379 OA
ATOM     10  H1  UNL     1      -5.101  39.828  11.222  1.00  0.00     0.211 HD
ENDBRANCH   2   9
TORSDOF 2
ENDMDL
MODEL 2
REMARK VINA RESULT: -4.921635110      2.059      2.224
REMARK  2 active torsions:
REMARK  status: ('A' for Active; 'I' for Inactive)
REMARK    1  A    between atoms: N1_1  and  N2_4 
REMARK    2  A    between atoms: C1_5  and  O1_6 
ROOT
HETATM    1  N2  UNL     1      -5.867  40.493  12.544  1.00  0.00    -0.190 NA
HETATM    2  C1  UNL     1      -4.665  41.243  12.207  1.00  0.00     0.215 C 
HETATM    3  C2  UNL     1      -3.792  40.051  12.508  1.00  0.00     0.086 C 
HETATM    4  C3  UNL     1      -5.021  39.560  13.252  1.00  0.00     0.181 C 
HETATM    5 CL1  UNL     1      -4.899  40.084  14.964  1.00  0.00    -0.106 Cl
ENDROOT
BRANCH   1   6
HETATM    6  N1  UNL     1      -6.535  40.000  11.437  1.00  0.00    -0.360 NA
ATOM      7  H12 UNL     1      -6.245  40.368  10.531  1.00  0.00     0.171 HD
ATOM      8  H11 UNL     1      -7.442  40.440  11.283  1.00  0.00     0.171 HD
ENDBRANCH   1   6
BRANCH   2   9
HETATM    9  O1  UNL     1      -4.622  41.548  10.835  1.00  0.00    -0.379 OA
ATOM     10  H1  UNL     1      -4.766  40.774  10.304  1.00  0.00     0.211 HD
ENDBRANCH   2   9
TORSDOF 2
ENDMDL
MODEL 3
REMARK VINA RESULT: -4.689766087      1.520      1.549
REMARK  2 active torsions:
REMARK  status: ('A' for Active; 'I' for Inactive)
REMARK    1  A    between atoms: N1_1  and  N2_4 
REMARK    2  A    between atoms: C1_5  and  O1_6 
ROOT
HETATM    1  N2  UNL     1      -4.635  39.824  12.473  1.00  0.00    -0.190 NA
HETATM    2  C1  UNL     1      -5.496  40.756  11.759  1.00  0.00     0.215 C 
HETATM    3  C2  UNL     1      -5.647  41.616  12.988  1.00  0.00     0.086 C 
HETATM    4  C3  UNL     1      -5.154  40.371  13.705  1.00  0.00     0.181 C 
HETATM    5 CL1  UNL     1      -6.577  39.400  14.207  1.00  0.00    -0.106 Cl
ENDROOT
BRANCH   1   6
HETATM    6  N1  UNL     1      -3.288  40.025  12.230  1.00  0.00    -0.360 NA
ATOM      7  H12 UNL     1      -2.958  39.803  11.291  1.00  0.00     0.171 HD
ATOM      8  H11 UNL     1      -2.697  39.269  12.575  1.00  0.00     0.171 HD
ENDBRANCH   1   6
BRANCH   2   9
HETATM    9  O1  UNL     1      -4.786  41.447  10.762  1.00  0.00    -0.379 OA
ATOM     10  H1  UNL     1      -4.217  40.861  10.275  1.00  0.00     0.211 HD
ENDBRANCH   2   9
TORSDOF 2
ENDMDL
MODEL 4
REMARK VINA RESULT: -4.445376405      1.469      1.469
REMARK  2 active torsions:
REMARK  status: ('A' for Active; 'I' for Inactive)
REMARK    1  A    between atoms: N1_1  and  N2_4 
REMARK    2  A    between atoms: C1_5  and  O1_6 
ROOT
HETATM    1  N2  UNL     1      -4.166  39.436  13.751  1.00  0.00    -0.190 NA
HETATM    2  C1  UNL     1      -4.718  39.863  12.473  1.00  0.00     0.215 C 
HETATM    3  C2  UNL     1      -5.489  40.976  13.134  1.00  0.00     0.086 C 
HETATM    4  C3  UNL     1      -5.233  40.168  14.394  1.00  0.00     0.181 C 
HETATM    5 CL1  UNL     1      -6.617  39.056  14.650  1.00  0.00    -0.106 Cl
ENDROOT
BRANCH   1   6
HETATM    6  N1  UNL     1      -2.881  39.896  13.975  1.00  0.00    -0.360 NA
ATOM      7  H12 UNL     1      -2.729  40.416  14.839  1.00  0.00     0.171 HD
ATOM      8  H11 UNL     1      -2.663  40.754  13.467  1.00  0.00     0.171 HD
ENDBRANCH   1   6
BRANCH   2   9
HETATM    9  O1  UNL     1      -3.718  40.388  11.635  1.00  0.00    -0.379 OA
ATOM     10  H1  UNL     1      -2.862  40.044  11.862  1.00  0.00     0.211 HD
ENDBRANCH   2   9
TORSDOF 2
ENDMDL
MODEL 5
REMARK VINA RESULT: -4.254837848      2.516      2.692
REMARK  2 active torsions:
REMARK  status: ('A' for Active; 'I' for Inactive)
REMARK    1  A    between atoms: N1_1  and  N2_4 
REMARK    2  A    between atoms: C1_5  and  O1_6 
ROOT
HETATM    1  N2  UNL     1      -4.119  39.920  13.686  1.00  0.00    -0.190 NA
HETATM    2  C1  UNL     1      -5.193  40.009  14.665  1.00  0.00     0.215 C 
HETATM    3  C2  UNL     1      -6.211  39.568  13.644  1.00  0.00     0.086 C 
HETATM    4  C3  UNL     1      -5.129  39.961  12.654  1.00  0.00     0.181 C 
HETATM    5 CL1  UNL     1      -5.387  41.670  12.174  1.00  0.00    -0.106 Cl
ENDROOT
BRANCH   1   6
HETATM    6  N1  UNL     1      -3.384  38.751  13.783  1.00  0.00    -0.360 NA
ATOM      7  H12 UNL     1      -3.281  38.356  14.717  1.00  0.00     0.171 HD
ATOM      8  H11 UNL     1      -2.376  38.905  13.779  1.00  0.00     0.171 HD
ENDBRANCH   1   6
BRANCH   2   9
HETATM    9  O1  UNL     1      -5.051  39.036  15.669  1.00  0.00    -0.379 OA
ATOM     10  H1  UNL     1      -5.589  38.274  15.490  1.00  0.00     0.211 HD
ENDBRANCH   2   9
TORSDOF 2
ENDMDL
