MODEL 1
REMARK VINA RESULT: -4.813824023      0.000      0.000
REMARK  2 active torsions:
REMARK  status: ('A' for Active; 'I' for Inactive)
REMARK    1  A    between atoms: O1_1  and  C1_3 
REMARK    2  A    between atoms: C4_7  and  O2_8 
ROOT
HETATM    1  C1  UNL     1      -4.771  41.465  11.936  1.00  0.00     0.149 C 
HETATM    2  C2  UNL     1      -5.973  40.661  12.455  1.00  0.00     0.057 C 
HETATM    3  C3  UNL     1      -5.148  40.463  13.729  1.00  0.00     0.116 C 
HETATM    4 CL1  UNL     1      -5.356  38.907  14.512  1.00  0.00    -0.122 Cl
HETATM    5  C4  UNL     1      -3.920  40.561  12.813  1.00  0.00     0.165 C 
ENDROOT
BRANCH   1   6
HETATM    6  O1  UNL     1      -4.652  41.265  10.581  1.00  0.00    -0.393 OA
ATOM      7  H1  UNL     1      -3.830  40.824  10.404  1.00  0.00     0.210 HD
ENDBRANCH   1   6
BRANCH   5   8
HETATM    8  O2  UNL     1      -3.688  39.317  12.254  1.00  0.00    -0.391 OA
ATOM      9  H2  UNL     1      -2.859  38.936  12.517  1.00  0.00     0.210 HD
ENDBRANCH   5   8
TORSDOF 2
ENDMDL
MODEL 2
REMARK VINA RESULT: -4.599774589      1.316      1.620
REMARK  2 active torsions:
REMARK  status: ('A' for Active; 'I' for Inactive)
REMARK    1  A    between atoms: O1_1  and  C1_3 
REMARK    2  A    between atoms: C4_7  and  O2_8 
ROOT
HETATM    1  C1  UNL     1      -3.893  40.350  12.765  1.00  0.00     0.149 C 
HETATM    2  C2  UNL     1      -5.326  39.834  12.965  1.00  0.00     0.057 C 
HETATM    3  C3  UNL     1      -5.074  40.044  14.460  1.00  0.00     0.116 C 
HETATM    4 CL1  UNL     1      -5.832  38.864  15.513  1.00  0.00    -0.122 Cl
HETATM    5  C4  UNL     1      -3.600  39.762  14.136  1.00  0.00     0.165 C 
ENDROOT
BRANCH   1   6
HETATM    6  O1  UNL     1      -3.325  39.692  11.700  1.00  0.00    -0.393 OA
ATOM      7  H1  UNL     1      -2.912  40.328  11.128  1.00  0.00     0.210 HD
ENDBRANCH   1   6
BRANCH   5   8
HETATM    8  O2  UNL     1      -3.410  38.392  14.113  1.00  0.00    -0.391 OA
ATOM      9  H2  UNL     1      -3.111  38.040  14.943  1.00  0.00     0.210 HD
ENDBRANCH   5   8
TORSDOF 2
ENDMDL
MODEL 3
REMARK VINA RESULT: -4.562981839      1.607      2.209
REMARK  2 active torsions:
REMARK  status: ('A' for Active; 'I' for Inactive)
REMARK    1  A    between atoms: O1_1  and  C1_3 
REMARK    2  A    between atoms: C4_7  and  O2_8 
ROOT
HETATM    1  C1  UNL     1      -3.740  39.890  12.621  1.00  0.00     0.149 C 
HETATM    2  C2  UNL     1      -4.113  39.485  14.055  1.00  0.00     0.057 C 
HETATM    3  C3  UNL     1      -5.511  39.212  13.497  1.00  0.00     0.116 C 
HETATM    4 CL1  UNL     1      -6.832  39.587  14.587  1.00  0.00    -0.122 Cl
HETATM    5  C4  UNL     1      -5.193  40.312  12.473  1.00  0.00     0.165 C 
ENDROOT
BRANCH   1   6
HETATM    6  O1  UNL     1      -2.824  40.913  12.669  1.00  0.00    -0.393 OA
ATOM      7  H1  UNL     1      -2.600  41.169  11.782  1.00  0.00     0.210 HD
ENDBRANCH   1   6
BRANCH   5   8
HETATM    8  O2  UNL     1      -5.467  41.539  13.047  1.00  0.00    -0.391 OA
ATOM      9  H2  UNL     1      -6.365  41.822  12.919  1.00  0.00     0.210 HD
ENDBRANCH   5   8
TORSDOF 2
ENDMDL
MODEL 4
REMARK VINA RESULT: -4.529637021      1.127      1.253
REMARK  2 active torsions:
REMARK  status: ('A' for Active; 'I' for Inactive)
REMARK    1  A    between atoms: O1_1  and  C1_3 
REMARK    2  A    between atoms: C4_7  and  O2_8 
ROOT
HETATM    1  C1  UNL     1      -5.913  40.799  12.547  1.00  0.00     0.149 C 
HETATM    2  C2  UNL     1      -6.589  39.866  13.563  1.00  0.00     0.057 C 
HETATM    3  C3  UNL     1      -5.338  40.074  14.419  1.00  0.00     0.116 C 
HETATM    4 CL1  UNL     1      -4.831  38.673  15.344  1.00  0.00    -0.122 Cl
HETATM    5  C4  UNL     1      -4.597  40.265  13.087  1.00  0.00     0.165 C 
ENDROOT
BRANCH   1   6
HETATM    6  O1  UNL     1      -6.246  40.393  11.277  1.00  0.00    -0.393 OA
ATOM      7  H1  UNL     1      -6.402  41.159  10.738  1.00  0.00     0.210 HD
ENDBRANCH   1   6
BRANCH   5   8
HETATM    8  O2  UNL     1      -4.265  39.019  12.586  1.00  0.00    -0.391 OA
ATOM      9  H2  UNL     1      -4.820  38.744  11.866  1.00  0.00     0.210 HD
ENDBRANCH   5   8
TORSDOF 2
ENDMDL
MODEL 5
REMARK VINA RESULT: -4.057857379      2.286      3.041
REMARK  2 active torsions:
REMARK  status: ('A' for Active; 'I' for Inactive)
REMARK    1  A    between atoms: O1_1  and  C1_3 
REMARK    2  A    between atoms: C4_7  and  O2_8 
ROOT
HETATM    1  C1  UNL     1      -4.570  39.921  13.929  1.00  0.00     0.149 C 
HETATM    2  C2  UNL     1      -3.825  40.384  12.669  1.00  0.00     0.057 C 
HETATM    3  C3  UNL     1      -5.031  41.295  12.426  1.00  0.00     0.116 C 
HETATM    4 CL1  UNL     1      -5.464  41.519  10.741  1.00  0.00    -0.122 Cl
HETATM    5  C4  UNL     1      -5.846  40.220  13.160  1.00  0.00     0.165 C 
ENDROOT
BRANCH   1   6
HETATM    6  O1  UNL     1      -4.302  38.590  14.144  1.00  0.00    -0.393 OA
ATOM      7  H1  UNL     1      -4.871  38.067  13.592  1.00  0.00     0.210 HD
ENDBRANCH   1   6
BRANCH   5   8
HETATM    8  O2  UNL     1      -6.185  39.231  12.255  1.00  0.00    -0.391 OA
ATOM      9  H2  UNL     1      -7.030  39.369  11.845  1.00  0.00     0.210 HD
ENDBRANCH   5   8
TORSDOF 2
ENDMDL
