MODEL 1
REMARK VINA RESULT: -3.616081580      0.000      0.000
REMARK  2 active torsions:
REMARK  status: ('A' for Active; 'I' for Inactive)
REMARK    1  A    between atoms: C2_4  and  N2_5 
REMARK    2  A    between atoms: C2_4  and  O1_10 
ROOT
HETATM    1  C1  UNL     1      -5.227  41.581  10.991  1.00  0.00     0.150 C 
HETATM    2  N1  UNL     1      -6.182  40.788  11.717  1.00  0.00    -0.360 N 
ATOM      3  H1  UNL     1      -7.061  40.544  11.261  1.00  0.00     0.162 HD
HETATM    4  C2  UNL     1      -5.972  40.372  12.923  1.00  0.00     0.220 C 
ENDROOT
BRANCH   4   5
HETATM    5  N2  UNL     1      -4.772  40.689  13.582  1.00  0.00    -0.299 N 
HETATM    6  C3  UNL     1      -3.696  39.999  13.541  1.00  0.00     0.204 C 
HETATM    7  N3  UNL     1      -2.562  40.445  14.257  1.00  0.00    -0.066 NA
HETATM    8  N4  UNL     1      -3.594  38.778  12.785  1.00  0.00    -0.066 NA
ATOM      9  H2  UNL     1      -4.758  41.542  14.141  1.00  0.00     0.171 HD
ENDBRANCH   4   5
BRANCH   4  10
HETATM   10  O1  UNL     1      -6.986  39.614  13.499  1.00  0.00    -0.327 OA
HETATM   11  C4  UNL     1      -6.903  39.121  14.824  1.00  0.00     0.213 C 
ENDBRANCH   4  10
TORSDOF 2
ENDMDL
MODEL 2
REMARK VINA RESULT: -3.516693532      1.405      2.809
REMARK  2 active torsions:
REMARK  status: ('A' for Active; 'I' for Inactive)
REMARK    1  A    between atoms: C2_4  and  N2_5 
REMARK    2  A    between atoms: C2_4  and  O1_10 
ROOT
HETATM    1  C1  UNL     1      -7.086  39.349  14.549  1.00  0.00     0.150 C 
HETATM    2  N1  UNL     1      -6.995  40.119  13.338  1.00  0.00    -0.360 N 
ATOM      3  H1  UNL     1      -7.758  40.754  13.105  1.00  0.00     0.162 HD
HETATM    4  C2  UNL     1      -5.987  40.038  12.533  1.00  0.00     0.220 C 
ENDROOT
BRANCH   4   5
HETATM    5  N2  UNL     1      -4.917  39.173  12.823  1.00  0.00    -0.299 N 
HETATM    6  C3  UNL     1      -4.067  39.331  13.765  1.00  0.00     0.204 C 
HETATM    7  N3  UNL     1      -3.041  38.374  13.937  1.00  0.00    -0.066 NA
HETATM    8  N4  UNL     1      -4.116  40.454  14.665  1.00  0.00    -0.066 NA
ATOM      9  H2  UNL     1      -4.810  38.349  12.231  1.00  0.00     0.171 HD
ENDBRANCH   4   5
BRANCH   4  10
HETATM   10  O1  UNL     1      -6.036  40.843  11.400  1.00  0.00    -0.327 OA
HETATM   11  C4  UNL     1      -5.070  41.845  11.140  1.00  0.00     0.213 C 
ENDBRANCH   4  10
TORSDOF 2
ENDMDL
MODEL 3
REMARK VINA RESULT: -3.479435604      1.268      2.947
REMARK  2 active torsions:
REMARK  status: ('A' for Active; 'I' for Inactive)
REMARK    1  A    between atoms: C2_4  and  N2_5 
REMARK    2  A    between atoms: C2_4  and  O1_10 
ROOT
HETATM    1  C1  UNL     1      -3.130  39.632  13.585  1.00  0.00     0.150 C 
HETATM    2  N1  UNL     1      -4.435  39.351  14.117  1.00  0.00    -0.360 N 
ATOM      3  H1  UNL     1      -4.508  39.001  15.072  1.00  0.00     0.162 HD
HETATM    4  C2  UNL     1      -5.520  39.523  13.435  1.00  0.00     0.220 C 
ENDROOT
BRANCH   4   5
HETATM    5  N2  UNL     1      -5.458  40.003  12.116  1.00  0.00    -0.299 N 
HETATM    6  C3  UNL     1      -5.400  41.234  11.774  1.00  0.00     0.204 C 
HETATM    7  N3  UNL     1      -5.341  41.569  10.403  1.00  0.00    -0.066 NA
HETATM    8  N4  UNL     1      -5.392  42.301  12.742  1.00  0.00    -0.066 NA
ATOM      9  H2  UNL     1      -5.458  39.311  11.366  1.00  0.00     0.171 HD
ENDBRANCH   4   5
BRANCH   4  10
HETATM   10  O1  UNL     1      -6.711  39.208  14.081  1.00  0.00    -0.327 OA
HETATM   11  C4  UNL     1      -6.801  39.093  15.489  1.00  0.00     0.213 C 
ENDBRANCH   4  10
TORSDOF 2
ENDMDL
MODEL 4
REMARK VINA RESULT: -3.450652176      0.865      1.254
REMARK  2 active torsions:
REMARK  status: ('A' for Active; 'I' for Inactive)
REMARK    1  A    between atoms: C2_4  and  N2_5 
REMARK    2  A    between atoms: C2_4  and  O1_10 
ROOT
HETATM    1  C1  UNL     1      -5.141  41.615  11.238  1.00  0.00     0.150 C 
HETATM    2  N1  UNL     1      -6.197  41.167  12.105  1.00  0.00    -0.360 N 
ATOM      3  H1  UNL     1      -7.061  41.708  12.142  1.00  0.00     0.162 HD
HETATM    4  C2  UNL     1      -6.097  40.108  12.838  1.00  0.00     0.220 C 
ENDROOT
BRANCH   4   5
HETATM    5  N2  UNL     1      -4.921  39.338  12.813  1.00  0.00    -0.299 N 
HETATM    6  C3  UNL     1      -3.970  39.405  13.665  1.00  0.00     0.204 C 
HETATM    7  N3  UNL     1      -2.844  38.564  13.512  1.00  0.00    -0.066 NA
HETATM    8  N4  UNL     1      -4.003  40.309  14.785  1.00  0.00    -0.066 NA
ATOM      9  H2  UNL     1      -4.817  38.669  12.050  1.00  0.00     0.171 HD
ENDBRANCH   4   5
BRANCH   4  10
HETATM   10  O1  UNL     1      -7.199  39.797  13.627  1.00  0.00    -0.327 OA
HETATM   11  C4  UNL     1      -7.073  39.181  14.895  1.00  0.00     0.213 C 
ENDBRANCH   4  10
TORSDOF 2
ENDMDL
MODEL 5
REMARK VINA RESULT: -3.428714824      1.081      2.528
REMARK  2 active torsions:
REMARK  status: ('A' for Active; 'I' for Inactive)
REMARK    1  A    between atoms: C2_4  and  N2_5 
REMARK    2  A    between atoms: C2_4  and  O1_10 
ROOT
HETATM    1  C1  UNL     1      -6.786  39.097  14.882  1.00  0.00     0.150 C 
HETATM    2  N1  UNL     1      -6.882  39.611  13.543  1.00  0.00    -0.360 N 
ATOM      3  H1  UNL     1      -7.727  39.418  13.005  1.00  0.00     0.162 HD
HETATM    4  C2  UNL     1      -5.942  40.307  12.993  1.00  0.00     0.220 C 
ENDROOT
BRANCH   4   5
HETATM    5  N2  UNL     1      -4.764  40.592  13.704  1.00  0.00    -0.299 N 
HETATM    6  C3  UNL     1      -3.671  39.934  13.628  1.00  0.00     0.204 C 
HETATM    7  N3  UNL     1      -2.563  40.340  14.405  1.00  0.00    -0.066 NA
HETATM    8  N4  UNL     1      -3.523  38.786  12.771  1.00  0.00    -0.066 NA
ATOM      9  H2  UNL     1      -4.782  41.394  14.336  1.00  0.00     0.171 HD
ENDBRANCH   4   5
BRANCH   4  10
HETATM   10  O1  UNL     1      -6.174  40.738  11.691  1.00  0.00    -0.327 OA
HETATM   11  C4  UNL     1      -5.308  41.638  11.026  1.00  0.00     0.213 C 
ENDBRANCH   4  10
TORSDOF 2
ENDMDL
