MODEL 1
REMARK VINA RESULT: -4.131279885      0.000      0.000
REMARK  1 active torsions:
REMARK  status: ('A' for Active; 'I' for Inactive)
REMARK    1  A    between atoms: N1_1  and  C1_5 
ROOT
HETATM    1  C1  UNL     1      -4.447  39.771  12.879  1.00  0.00     0.359 A 
HETATM    2  O1  UNL     1      -3.561  38.890  13.484  1.00  0.00    -0.336 OA
HETATM    3  C2  UNL     1      -4.186  39.831  14.360  1.00  0.00     0.251 A 
HETATM    4 BR1  UNL     1      -5.488  39.141  15.591  1.00  0.00    -0.057 Br
ENDROOT
BRANCH   1   5
HETATM    5  N1  UNL     1      -3.900  40.837  12.037  1.00  0.00    -0.050 N 
ATOM      6  H13 UNL     1      -2.949  41.045  12.341  1.00  0.00     0.277 HD
ATOM      7  H12 UNL     1      -3.731  40.468  11.102  1.00  0.00     0.277 HD
ATOM      8  H11 UNL     1      -4.423  41.709  11.961  1.00  0.00     0.277 HD
ENDBRANCH   1   5
TORSDOF 1
ENDMDL
MODEL 2
REMARK VINA RESULT: -3.886987237      1.400      1.400
REMARK  1 active torsions:
REMARK  status: ('A' for Active; 'I' for Inactive)
REMARK    1  A    between atoms: N1_1  and  C1_5 
ROOT
HETATM    1  C1  UNL     1      -5.870  39.569  12.799  1.00  0.00     0.359 A 
HETATM    2  O1  UNL     1      -4.541  39.239  13.020  1.00  0.00    -0.336 OA
HETATM    3  C2  UNL     1      -5.156  40.027  14.042  1.00  0.00     0.251 A 
HETATM    4 BR1  UNL     1      -5.501  39.160  15.720  1.00  0.00    -0.057 Br
ENDROOT
BRANCH   1   5
HETATM    5  N1  UNL     1      -6.177  40.566  11.771  1.00  0.00    -0.050 N 
ATOM      6  H13 UNL     1      -6.689  40.115  11.013  1.00  0.00     0.277 HD
ATOM      7  H12 UNL     1      -6.884  41.207  12.131  1.00  0.00     0.277 HD
ATOM      8  H11 UNL     1      -5.408  41.107  11.377  1.00  0.00     0.277 HD
ENDBRANCH   1   5
TORSDOF 1
ENDMDL
MODEL 3
REMARK VINA RESULT: -3.824485924      1.687      1.779
REMARK  1 active torsions:
REMARK  status: ('A' for Active; 'I' for Inactive)
REMARK    1  A    between atoms: N1_1  and  C1_5 
ROOT
HETATM    1  C1  UNL     1      -5.460  40.844  12.505  1.00  0.00     0.359 A 
HETATM    2  O1  UNL     1      -6.299  39.760  12.296  1.00  0.00    -0.336 OA
HETATM    3  C2  UNL     1      -5.206  39.526  13.186  1.00  0.00     0.251 A 
HETATM    4 BR1  UNL     1      -5.630  39.312  15.047  1.00  0.00    -0.057 Br
ENDROOT
BRANCH   1   5
HETATM    5  N1  UNL     1      -4.561  41.246  11.422  1.00  0.00    -0.050 N 
ATOM      6  H13 UNL     1      -4.035  40.432  11.107  1.00  0.00     0.277 HD
ATOM      7  H12 UNL     1      -5.114  41.455  10.591  1.00  0.00     0.277 HD
ATOM      8  H11 UNL     1      -3.913  42.015  11.591  1.00  0.00     0.277 HD
ENDBRANCH   1   5
TORSDOF 1
ENDMDL
MODEL 4
REMARK VINA RESULT: -3.750424958      1.397      1.397
REMARK  1 active torsions:
REMARK  status: ('A' for Active; 'I' for Inactive)
REMARK    1  A    between atoms: N1_1  and  C1_5 
ROOT
HETATM    1  C1  UNL     1      -4.004  40.074  13.376  1.00  0.00     0.359 A 
HETATM    2  O1  UNL     1      -5.030  40.966  13.650  1.00  0.00    -0.336 OA
HETATM    3  C2  UNL     1      -5.332  39.590  13.892  1.00  0.00     0.251 A 
HETATM    4 BR1  UNL     1      -5.507  39.047  15.725  1.00  0.00    -0.057 Br
ENDROOT
BRANCH   1   5
HETATM    5  N1  UNL     1      -3.669  39.809  11.975  1.00  0.00    -0.050 N 
ATOM      6  H13 UNL     1      -4.420  39.266  11.551  1.00  0.00     0.277 HD
ATOM      7  H12 UNL     1      -3.735  40.680  11.447  1.00  0.00     0.277 HD
ATOM      8  H11 UNL     1      -2.777  39.362  11.767  1.00  0.00     0.277 HD
ENDBRANCH   1   5
TORSDOF 1
ENDMDL
MODEL 5
REMARK VINA RESULT: -3.623715624      2.281      2.281
REMARK  1 active torsions:
REMARK  status: ('A' for Active; 'I' for Inactive)
REMARK    1  A    between atoms: N1_1  and  C1_5 
ROOT
HETATM    1  C1  UNL     1      -4.799  41.011  12.080  1.00  0.00     0.359 A 
HETATM    2  O1  UNL     1      -5.363  41.882  13.001  1.00  0.00    -0.336 OA
HETATM    3  C2  UNL     1      -6.024  40.622  12.863  1.00  0.00     0.251 A 
HETATM    4 BR1  UNL     1      -5.873  39.394  14.331  1.00  0.00    -0.057 Br
ENDROOT
BRANCH   1   5
HETATM    5  N1  UNL     1      -4.955  41.310  10.655  1.00  0.00    -0.050 N 
ATOM      6  H13 UNL     1      -5.882  41.702  10.498  1.00  0.00     0.277 HD
ATOM      7  H12 UNL     1      -4.363  42.105  10.416  1.00  0.00     0.277 HD
ATOM      8  H11 UNL     1      -4.792  40.561   9.984  1.00  0.00     0.277 HD
ENDBRANCH   1   5
TORSDOF 1
ENDMDL
