MODEL 1
REMARK VINA RESULT: -5.070329335      0.000      0.000
REMARK  7 active torsions:
REMARK  status: ('A' for Active; 'I' for Inactive)
REMARK    1  A    between atoms: C3_5  and  N2_6 
REMARK    2  A    between atoms: N2_6  and  C4_8 
REMARK    3  A    between atoms: C4_8  and  C5_9 
REMARK    4  A    between atoms: C5_9  and  N3_10 
REMARK    5  A    between atoms: N3_10  and  C6_13 
REMARK    6  A    between atoms: C6_13  and  C7_14 
REMARK    7  A    between atoms: C7_14  and  N4_15 
ROOT
HETATM    1  N2  UNL     1     -55.670 -37.662  20.094  1.00  0.00    -0.223 N 
ATOM      2  H2  UNL     1     -55.856 -36.987  19.352  1.00  0.00     0.177 HD
ENDROOT
BRANCH   1   3
HETATM    3  C3  UNL     1     -54.581 -37.537  20.752  1.00  0.00     0.694 A 
HETATM    4  N1  UNL     1     -54.144 -38.274  21.790  1.00  0.00    -0.179 N 
HETATM    5  C2  UNL     1     -52.951 -37.792  22.170  1.00  0.00     0.108 A 
ATOM      6  H1  UNL     1     -54.634 -39.062  22.214  1.00  0.00     0.185 HD
HETATM    7  C1  UNL     1     -52.139 -38.330  23.290  1.00  0.00     0.091 C 
HETATM    8  N6  UNL     1     -52.647 -36.757  21.365  1.00  0.00    -0.275 N 
HETATM    9  N5  UNL     1     -53.631 -36.591  20.501  1.00  0.00    -0.131 N 
ATOM     10  H6  UNL     1     -51.798 -36.193  21.416  1.00  0.00     0.189 HD
ATOM     11  H5  UNL     1     -53.673 -35.880  19.771  1.00  0.00     0.205 HD
ENDBRANCH   1   3
BRANCH   1  12
HETATM   12  C4  UNL     1     -56.652 -38.688  20.324  1.00  0.00     0.165 C 
BRANCH  12  13
HETATM   13  C5  UNL     1     -56.881 -39.602  19.169  1.00  0.00     0.252 C 
BRANCH  13  14
HETATM   14  N3  UNL     1     -56.595 -40.972  19.588  1.00  0.00    -0.072 N 
ATOM     15  H32 UNL     1     -57.040 -41.198  20.477  1.00  0.00     0.277 HD
ATOM     16  H31 UNL     1     -57.072 -41.657  19.002  1.00  0.00     0.277 HD
BRANCH  14  17
HETATM   17  C6  UNL     1     -55.156 -41.197  19.626  1.00  0.00     0.259 C 
BRANCH  17  18
HETATM   18  C7  UNL     1     -54.902 -42.644  19.263  1.00  0.00     0.257 C 
BRANCH  18  19
HETATM   19  N4  UNL     1     -55.114 -42.919  17.877  1.00  0.00    -0.078 N 
ATOM     20  H43 UNL     1     -55.802 -42.279  17.480  1.00  0.00     0.274 HD
ATOM     21  H42 UNL     1     -54.299 -42.651  17.324  1.00  0.00     0.274 HD
ATOM     22  H41 UNL     1     -55.373 -43.889  17.697  1.00  0.00     0.274 HD
ENDBRANCH  18  19
ENDBRANCH  17  18
ENDBRANCH  14  17
ENDBRANCH  13  14
ENDBRANCH  12  13
ENDBRANCH   1  12
TORSDOF 7
ENDMDL
MODEL 2
REMARK VINA RESULT: -5.000531880      1.779      4.622
REMARK  7 active torsions:
REMARK  status: ('A' for Active; 'I' for Inactive)
REMARK    1  A    between atoms: C3_5  and  N2_6 
REMARK    2  A    between atoms: N2_6  and  C4_8 
REMARK    3  A    between atoms: C4_8  and  C5_9 
REMARK    4  A    between atoms: C5_9  and  N3_10 
REMARK    5  A    between atoms: N3_10  and  C6_13 
REMARK    6  A    between atoms: C6_13  and  C7_14 
REMARK    7  A    between atoms: C7_14  and  N4_15 
ROOT
HETATM    1  N2  UNL     1     -56.344 -38.333  21.165  1.00  0.00    -0.223 N 
ATOM      2  H2  UNL     1     -56.813 -38.464  22.060  1.00  0.00     0.177 HD
ENDROOT
BRANCH   1   3
HETATM    3  C3  UNL     1     -56.217 -39.355  20.406  1.00  0.00     0.694 A 
HETATM    4  N1  UNL     1     -55.396 -40.411  20.558  1.00  0.00    -0.179 N 
HETATM    5  C2  UNL     1     -55.596 -41.246  19.527  1.00  0.00     0.108 A 
ATOM      6  H1  UNL     1     -54.737 -40.552  21.324  1.00  0.00     0.185 HD
HETATM    7  C1  UNL     1     -54.876 -42.529  19.326  1.00  0.00     0.091 C 
HETATM    8  N6  UNL     1     -56.542 -40.708  18.736  1.00  0.00    -0.275 N 
HETATM    9  N5  UNL     1     -56.926 -39.558  19.259  1.00  0.00    -0.131 N 
ATOM     10  H6  UNL     1     -56.903 -41.121  17.876  1.00  0.00     0.189 HD
ATOM     11  H5  UNL     1     -57.631 -38.931  18.872  1.00  0.00     0.205 HD
ENDBRANCH   1   3
BRANCH   1  12
HETATM   12  C4  UNL     1     -55.871 -37.014  20.844  1.00  0.00     0.165 C 
BRANCH  12  13
HETATM   13  C5  UNL     1     -54.389 -36.854  20.889  1.00  0.00     0.252 C 
BRANCH  13  14
HETATM   14  N3  UNL     1     -53.915 -36.475  19.561  1.00  0.00    -0.072 N 
ATOM     15  H32 UNL     1     -54.660 -36.072  18.992  1.00  0.00     0.277 HD
ATOM     16  H31 UNL     1     -53.297 -35.665  19.594  1.00  0.00     0.277 HD
BRANCH  14  17
HETATM   17  C6  UNL     1     -53.285 -37.614  18.906  1.00  0.00     0.259 C 
BRANCH  17  18
HETATM   18  C7  UNL     1     -52.373 -38.281  19.912  1.00  0.00     0.257 C 
BRANCH  18  19
HETATM   19  N4  UNL     1     -51.005 -37.888  19.774  1.00  0.00    -0.078 N 
ATOM     20  H43 UNL     1     -50.922 -36.872  19.725  1.00  0.00     0.274 HD
ATOM     21  H42 UNL     1     -50.489 -38.057  20.638  1.00  0.00     0.274 HD
ATOM     22  H41 UNL     1     -50.542 -38.330  18.981  1.00  0.00     0.274 HD
ENDBRANCH  18  19
ENDBRANCH  17  18
ENDBRANCH  14  17
ENDBRANCH  13  14
ENDBRANCH  12  13
ENDBRANCH   1  12
TORSDOF 7
ENDMDL
MODEL 3
REMARK VINA RESULT: -4.987884591      6.877     10.294
REMARK  7 active torsions:
REMARK  status: ('A' for Active; 'I' for Inactive)
REMARK    1  A    between atoms: C3_5  and  N2_6 
REMARK    2  A    between atoms: N2_6  and  C4_8 
REMARK    3  A    between atoms: C4_8  and  C5_9 
REMARK    4  A    between atoms: C5_9  and  N3_10 
REMARK    5  A    between atoms: N3_10  and  C6_13 
REMARK    6  A    between atoms: C6_13  and  C7_14 
REMARK    7  A    between atoms: C7_14  and  N4_15 
ROOT
HETATM    1  N2  UNL     1     -49.670 -35.996  28.003  1.00  0.00    -0.223 N 
ATOM      2  H2  UNL     1     -50.027 -35.091  28.309  1.00  0.00     0.177 HD
ENDROOT
BRANCH   1   3
HETATM    3  C3  UNL     1     -50.011 -36.406  26.841  1.00  0.00     0.694 A 
HETATM    4  N1  UNL     1     -51.216 -36.840  26.429  1.00  0.00    -0.179 N 
HETATM    5  C2  UNL     1     -51.119 -37.170  25.132  1.00  0.00     0.108 A 
ATOM      6  H1  UNL     1     -52.057 -36.905  27.002  1.00  0.00     0.185 HD
HETATM    7  C1  UNL     1     -52.235 -37.699  24.308  1.00  0.00     0.091 C 
HETATM    8  N6  UNL     1     -49.853 -36.940  24.739  1.00  0.00    -0.275 N 
HETATM    9  N5  UNL     1     -49.169 -36.477  25.770  1.00  0.00    -0.131 N 
ATOM     10  H6  UNL     1     -49.483 -37.098  23.802  1.00  0.00     0.189 HD
ATOM     11  H5  UNL     1     -48.183 -36.218  25.766  1.00  0.00     0.205 HD
ENDBRANCH   1   3
BRANCH   1  12
HETATM   12  C4  UNL     1     -48.820 -36.720  28.909  1.00  0.00     0.165 C 
BRANCH  12  13
HETATM   13  C5  UNL     1     -49.201 -38.147  29.115  1.00  0.00     0.252 C 
BRANCH  13  14
HETATM   14  N3  UNL     1     -48.023 -38.984  28.904  1.00  0.00    -0.072 N 
ATOM     15  H32 UNL     1     -48.108 -39.886  29.372  1.00  0.00     0.277 HD
ATOM     16  H31 UNL     1     -47.960 -39.318  27.942  1.00  0.00     0.277 HD
BRANCH  14  17
HETATM   17  C6  UNL     1     -46.819 -38.271  29.311  1.00  0.00     0.259 C 
BRANCH  17  18
HETATM   18  C7  UNL     1     -45.658 -39.239  29.237  1.00  0.00     0.257 C 
BRANCH  18  19
HETATM   19  N4  UNL     1     -44.436 -38.687  29.731  1.00  0.00    -0.078 N 
ATOM     20  H43 UNL     1     -44.483 -37.668  29.760  1.00  0.00     0.274 HD
ATOM     21  H42 UNL     1     -44.327 -38.877  30.727  1.00  0.00     0.274 HD
ATOM     22  H41 UNL     1     -43.618 -38.998  29.209  1.00  0.00     0.274 HD
ENDBRANCH  18  19
ENDBRANCH  17  18
ENDBRANCH  14  17
ENDBRANCH  13  14
ENDBRANCH  12  13
ENDBRANCH   1  12
TORSDOF 7
ENDMDL
MODEL 4
REMARK VINA RESULT: -4.939110750      1.918      3.368
REMARK  7 active torsions:
REMARK  status: ('A' for Active; 'I' for Inactive)
REMARK    1  A    between atoms: C3_5  and  N2_6 
REMARK    2  A    between atoms: N2_6  and  C4_8 
REMARK    3  A    between atoms: C4_8  and  C5_9 
REMARK    4  A    between atoms: C5_9  and  N3_10 
REMARK    5  A    between atoms: N3_10  and  C6_13 
REMARK    6  A    between atoms: C6_13  and  C7_14 
REMARK    7  A    between atoms: C7_14  and  N4_15 
ROOT
HETATM    1  N2  UNL     1     -53.873 -39.104  19.912  1.00  0.00    -0.223 N 
ATOM      2  H2  UNL     1     -53.605 -38.927  18.945  1.00  0.00     0.177 HD
ENDROOT
BRANCH   1   3
HETATM    3  C3  UNL     1     -53.257 -38.457  20.827  1.00  0.00     0.694 A 
HETATM    4  N1  UNL     1     -53.250 -38.688  22.153  1.00  0.00    -0.179 N 
HETATM    5  C2  UNL     1     -52.469 -37.763  22.733  1.00  0.00     0.108 A 
ATOM      6  H1  UNL     1     -53.751 -39.435  22.633  1.00  0.00     0.185 HD
HETATM    7  C1  UNL     1     -52.207 -37.673  24.192  1.00  0.00     0.091 C 
HETATM    8  N6  UNL     1     -51.991 -36.960  21.766  1.00  0.00    -0.275 N 
HETATM    9  N5  UNL     1     -52.463 -37.370  20.603  1.00  0.00    -0.131 N 
ATOM     10  H6  UNL     1     -51.366 -36.166  21.908  1.00  0.00     0.189 HD
ATOM     11  H5  UNL     1     -52.269 -36.948  19.695  1.00  0.00     0.205 HD
ENDBRANCH   1   3
BRANCH   1  12
HETATM   12  C4  UNL     1     -54.917 -40.063  20.152  1.00  0.00     0.165 C 
BRANCH  12  13
HETATM   13  C5  UNL     1     -56.234 -39.716  19.544  1.00  0.00     0.252 C 
BRANCH  13  14
HETATM   14  N3  UNL     1     -56.905 -38.740  20.400  1.00  0.00    -0.072 N 
ATOM     15  H32 UNL     1     -57.700 -39.147  20.891  1.00  0.00     0.277 HD
ATOM     16  H31 UNL     1     -56.338 -38.492  21.211  1.00  0.00     0.277 HD
BRANCH  14  17
HETATM   17  C6  UNL     1     -57.286 -37.567  19.624  1.00  0.00     0.259 C 
BRANCH  17  18
HETATM   18  C7  UNL     1     -56.256 -36.488  19.875  1.00  0.00     0.257 C 
BRANCH  18  19
HETATM   19  N4  UNL     1     -56.708 -35.185  19.502  1.00  0.00    -0.078 N 
ATOM     20  H43 UNL     1     -56.739 -35.087  18.486  1.00  0.00     0.274 HD
ATOM     21  H42 UNL     1     -57.700 -35.070  19.711  1.00  0.00     0.274 HD
ATOM     22  H41 UNL     1     -56.158 -34.436  19.922  1.00  0.00     0.274 HD
ENDBRANCH  18  19
ENDBRANCH  17  18
ENDBRANCH  14  17
ENDBRANCH  13  14
ENDBRANCH  12  13
ENDBRANCH   1  12
TORSDOF 7
ENDMDL
MODEL 5
REMARK VINA RESULT: -4.883906894      7.279     10.737
REMARK  7 active torsions:
REMARK  status: ('A' for Active; 'I' for Inactive)
REMARK    1  A    between atoms: C3_5  and  N2_6 
REMARK    2  A    between atoms: N2_6  and  C4_8 
REMARK    3  A    between atoms: C4_8  and  C5_9 
REMARK    4  A    between atoms: C5_9  and  N3_10 
REMARK    5  A    between atoms: N3_10  and  C6_13 
REMARK    6  A    between atoms: C6_13  and  C7_14 
REMARK    7  A    between atoms: C7_14  and  N4_15 
ROOT
HETATM    1  N2  UNL     1     -50.158 -36.939  28.868  1.00  0.00    -0.223 N 
ATOM      2  H2  UNL     1     -50.025 -36.120  29.461  1.00  0.00     0.177 HD
ENDROOT
BRANCH   1   3
HETATM    3  C3  UNL     1     -50.921 -36.818  27.850  1.00  0.00     0.694 A 
HETATM    4  N1  UNL     1     -50.909 -37.530  26.708  1.00  0.00    -0.179 N 
HETATM    5  C2  UNL     1     -51.887 -37.063  25.916  1.00  0.00     0.108 A 
ATOM      6  H1  UNL     1     -50.268 -38.291  26.483  1.00  0.00     0.185 HD
HETATM    7  C1  UNL     1     -52.197 -37.583  24.560  1.00  0.00     0.091 C 
HETATM    8  N6  UNL     1     -52.506 -36.063  26.568  1.00  0.00    -0.275 N 
HETATM    9  N5  UNL     1     -51.928 -35.903  27.744  1.00  0.00    -0.131 N 
ATOM     10  H6  UNL     1     -53.292 -35.519  26.213  1.00  0.00     0.189 HD
ATOM     11  H5  UNL     1     -52.188 -35.216  28.451  1.00  0.00     0.205 HD
ENDBRANCH   1   3
BRANCH   1  12
HETATM   12  C4  UNL     1     -49.473 -38.149  29.237  1.00  0.00     0.165 C 
BRANCH  12  13
HETATM   13  C5  UNL     1     -48.026 -38.180  28.877  1.00  0.00     0.252 C 
BRANCH  13  14
HETATM   14  N3  UNL     1     -47.408 -36.925  29.298  1.00  0.00    -0.072 N 
ATOM     15  H32 UNL     1     -47.254 -36.294  28.511  1.00  0.00     0.277 HD
ATOM     16  H31 UNL     1     -48.053 -36.344  29.833  1.00  0.00     0.277 HD
BRANCH  14  17
HETATM   17  C6  UNL     1     -46.178 -37.190  30.032  1.00  0.00     0.259 C 
BRANCH  17  18
HETATM   18  C7  UNL     1     -45.751 -38.610  29.726  1.00  0.00     0.257 C 
BRANCH  18  19
HETATM   19  N4  UNL     1     -44.333 -38.787  29.760  1.00  0.00    -0.078 N 
ATOM     20  H43 UNL     1     -44.000 -39.224  28.901  1.00  0.00     0.274 HD
ATOM     21  H42 UNL     1     -43.853 -37.890  29.690  1.00  0.00     0.274 HD
ATOM     22  H41 UNL     1     -44.016 -39.306  30.579  1.00  0.00     0.274 HD
ENDBRANCH  18  19
ENDBRANCH  17  18
ENDBRANCH  14  17
ENDBRANCH  13  14
ENDBRANCH  12  13
ENDBRANCH   1  12
TORSDOF 7
ENDMDL
