MODEL 1
REMARK VINA RESULT: -5.143526728      0.000      0.000
REMARK  6 active torsions:
REMARK  status: ('A' for Active; 'I' for Inactive)
REMARK    1  A    between atoms: N1_2  and  C2_5 
REMARK    2  A    between atoms: C2_5  and  C3_6 
REMARK    3  A    between atoms: C3_6  and  N2_8 
REMARK    4  A    between atoms: N2_8  and  C5_11 
REMARK    5  A    between atoms: C5_11  and  N3_12 
REMARK    6  A    between atoms: C5_11  and  C6_16 
ROOT
HETATM    1  C5  UNL     1     -48.899 -38.176  28.136  1.00  0.00     0.411 C 
ENDROOT
BRANCH   1   2
HETATM    2  N2  UNL     1     -47.555 -37.679  28.207  1.00  0.00    -0.039 N 
ATOM      3  H22 UNL     1     -47.532 -36.661  28.142  1.00  0.00     0.280 HD
ATOM      4  H21 UNL     1     -47.032 -37.905  27.361  1.00  0.00     0.280 HD
BRANCH   2   5
HETATM    5  C3  UNL     1     -46.873 -38.140  29.380  1.00  0.00     0.210 C 
HETATM    6  C4  UNL     1     -45.906 -39.268  29.119  1.00  0.00     0.042 C 
BRANCH   5   7
HETATM    7  C2  UNL     1     -46.206 -37.049  30.180  1.00  0.00     0.264 C 
BRANCH   7   8
HETATM    8  N1  UNL     1     -46.789 -35.751  29.944  1.00  0.00    -0.077 N 
HETATM    9  C1  UNL     1     -45.842 -34.698  30.237  1.00  0.00     0.267 C 
ATOM     10  H12 UNL     1     -47.659 -35.629  30.463  1.00  0.00     0.276 HD
ATOM     11  H11 UNL     1     -47.161 -35.671  28.997  1.00  0.00     0.276 HD
ENDBRANCH   7   8
ENDBRANCH   5   7
ENDBRANCH   2   5
ENDBRANCH   1   2
BRANCH   1  12
HETATM   12  N3  UNL     1     -49.415 -38.473  29.447  1.00  0.00    -0.048 N 
ATOM     13  H33 UNL     1     -49.483 -39.479  29.603  1.00  0.00     0.276 HD
ATOM     14  H32 UNL     1     -48.738 -38.247  30.176  1.00  0.00     0.276 HD
ATOM     15  H31 UNL     1     -50.308 -38.008  29.607  1.00  0.00     0.276 HD
ENDBRANCH   1  12
BRANCH   1  16
HETATM   16  C6  UNL     1     -49.861 -37.301  27.423  1.00  0.00     0.243 C 
HETATM   17  C7  UNL     1     -51.185 -37.969  27.102  1.00  0.00     0.038 C 
HETATM   18  C8  UNL     1     -51.832 -36.845  26.296  1.00  0.00     0.030 C 
HETATM   19  C9  UNL     1     -50.635 -36.123  25.694  1.00  0.00     0.233 C 
HETATM   20  N4  UNL     1     -49.460 -36.896  26.101  1.00  0.00    -0.067 N 
ATOM     21  H42 UNL     1     -48.567 -36.408  26.040  1.00  0.00     0.277 HD
ATOM     22  H41 UNL     1     -49.186 -37.650  25.471  1.00  0.00     0.277 HD
ENDBRANCH   1  16
TORSDOF 6
ENDMDL
MODEL 2
REMARK VINA RESULT: -5.099838000      1.664      2.463
REMARK  6 active torsions:
REMARK  status: ('A' for Active; 'I' for Inactive)
REMARK    1  A    between atoms: N1_2  and  C2_5 
REMARK    2  A    between atoms: C2_5  and  C3_6 
REMARK    3  A    between atoms: C3_6  and  N2_8 
REMARK    4  A    between atoms: N2_8  and  C5_11 
REMARK    5  A    between atoms: C5_11  and  N3_12 
REMARK    6  A    between atoms: C5_11  and  C6_16 
ROOT
HETATM    1  C5  UNL     1     -50.459 -36.369  27.787  1.00  0.00     0.411 C 
ENDROOT
BRANCH   1   2
HETATM    2  N2  UNL     1     -49.048 -36.254  28.019  1.00  0.00    -0.039 N 
ATOM      3  H22 UNL     1     -48.765 -35.277  28.105  1.00  0.00     0.280 HD
ATOM      4  H21 UNL     1     -48.514 -36.502  27.186  1.00  0.00     0.280 HD
BRANCH   2   5
HETATM    5  C3  UNL     1     -48.626 -37.019  29.155  1.00  0.00     0.210 C 
HETATM    6  C4  UNL     1     -49.270 -38.380  29.246  1.00  0.00     0.042 C 
BRANCH   5   7
HETATM    7  C2  UNL     1     -47.130 -37.134  29.306  1.00  0.00     0.264 C 
BRANCH   7   8
HETATM    8  N1  UNL     1     -46.671 -38.501  29.288  1.00  0.00    -0.077 N 
HETATM    9  C1  UNL     1     -45.282 -38.586  29.680  1.00  0.00     0.267 C 
ATOM     10  H12 UNL     1     -46.834 -38.941  28.383  1.00  0.00     0.276 HD
ATOM     11  H11 UNL     1     -47.262 -39.104  29.862  1.00  0.00     0.276 HD
ENDBRANCH   7   8
ENDBRANCH   5   7
ENDBRANCH   2   5
ENDBRANCH   1   2
BRANCH   1  12
HETATM   12  N3  UNL     1     -51.148 -35.158  28.149  1.00  0.00    -0.048 N 
ATOM     13  H33 UNL     1     -50.526 -34.499  28.617  1.00  0.00     0.276 HD
ATOM     14  H32 UNL     1     -51.380 -34.599  27.328  1.00  0.00     0.276 HD
ATOM     15  H31 UNL     1     -51.975 -35.357  28.713  1.00  0.00     0.276 HD
ENDBRANCH   1  12
BRANCH   1  16
HETATM   16  C6  UNL     1     -50.844 -36.752  26.406  1.00  0.00     0.243 C 
HETATM   17  C7  UNL     1     -51.452 -38.137  26.295  1.00  0.00     0.038 C 
HETATM   18  C8  UNL     1     -51.596 -38.215  24.777  1.00  0.00     0.030 C 
HETATM   19  C9  UNL     1     -50.475 -37.314  24.280  1.00  0.00     0.233 C 
HETATM   20  N4  UNL     1     -49.752 -36.883  25.478  1.00  0.00    -0.067 N 
ATOM     21  H42 UNL     1     -49.164 -36.057  25.366  1.00  0.00     0.277 HD
ATOM     22  H41 UNL     1     -48.988 -37.489  25.776  1.00  0.00     0.277 HD
ENDBRANCH   1  16
TORSDOF 6
ENDMDL
MODEL 3
REMARK VINA RESULT: -5.088105019      1.147      2.239
REMARK  6 active torsions:
REMARK  status: ('A' for Active; 'I' for Inactive)
REMARK    1  A    between atoms: N1_2  and  C2_5 
REMARK    2  A    between atoms: C2_5  and  C3_6 
REMARK    3  A    between atoms: C3_6  and  N2_8 
REMARK    4  A    between atoms: N2_8  and  C5_11 
REMARK    5  A    between atoms: C5_11  and  N3_12 
REMARK    6  A    between atoms: C5_11  and  C6_16 
ROOT
HETATM    1  C5  UNL     1     -48.427 -37.163  28.631  1.00  0.00     0.411 C 
ENDROOT
BRANCH   1   2
HETATM    2  N2  UNL     1     -47.909 -36.301  29.654  1.00  0.00    -0.039 N 
ATOM      3  H22 UNL     1     -48.321 -36.515  30.563  1.00  0.00     0.280 HD
ATOM      4  H21 UNL     1     -48.252 -35.347  29.544  1.00  0.00     0.280 HD
BRANCH   2   5
HETATM    5  C3  UNL     1     -46.477 -36.336  29.711  1.00  0.00     0.210 C 
HETATM    6  C4  UNL     1     -45.855 -35.060  30.221  1.00  0.00     0.042 C 
BRANCH   5   7
HETATM    7  C2  UNL     1     -45.913 -37.526  30.447  1.00  0.00     0.264 C 
BRANCH   7   8
HETATM    8  N1  UNL     1     -44.922 -38.237  29.678  1.00  0.00    -0.077 N 
HETATM    9  C1  UNL     1     -45.501 -39.393  29.030  1.00  0.00     0.267 C 
ATOM     10  H12 UNL     1     -44.114 -38.491  30.247  1.00  0.00     0.276 HD
ATOM     11  H11 UNL     1     -44.454 -37.626  29.008  1.00  0.00     0.276 HD
ENDBRANCH   7   8
ENDBRANCH   5   7
ENDBRANCH   2   5
ENDBRANCH   1   2
BRANCH   1  12
HETATM   12  N3  UNL     1     -49.009 -38.352  29.196  1.00  0.00    -0.048 N 
ATOM     13  H33 UNL     1     -49.230 -39.039  28.476  1.00  0.00     0.276 HD
ATOM     14  H32 UNL     1     -48.323 -38.892  29.723  1.00  0.00     0.276 HD
ATOM     15  H31 UNL     1     -49.827 -38.130  29.764  1.00  0.00     0.276 HD
ENDBRANCH   1  12
BRANCH   1  16
HETATM   16  C6  UNL     1     -49.405 -36.535  27.710  1.00  0.00     0.243 C 
HETATM   17  C7  UNL     1     -50.812 -37.090  27.828  1.00  0.00     0.038 C 
HETATM   18  C8  UNL     1     -51.471 -36.319  26.687  1.00  0.00     0.030 C 
HETATM   19  C9  UNL     1     -50.317 -36.075  25.727  1.00  0.00     0.233 C 
HETATM   20  N4  UNL     1     -49.164 -36.765  26.309  1.00  0.00    -0.067 N 
ATOM     21  H42 UNL     1     -48.251 -36.470  25.963  1.00  0.00     0.277 HD
ATOM     22  H41 UNL     1     -49.046 -37.740  26.034  1.00  0.00     0.277 HD
ENDBRANCH   1  16
TORSDOF 6
ENDMDL
MODEL 4
REMARK VINA RESULT: -4.977798347      1.559      5.103
REMARK  6 active torsions:
REMARK  status: ('A' for Active; 'I' for Inactive)
REMARK    1  A    between atoms: N1_2  and  C2_5 
REMARK    2  A    between atoms: C2_5  and  C3_6 
REMARK    3  A    between atoms: C3_6  and  N2_8 
REMARK    4  A    between atoms: N2_8  and  C5_11 
REMARK    5  A    between atoms: C5_11  and  N3_12 
REMARK    6  A    between atoms: C5_11  and  C6_16 
ROOT
HETATM    1  C5  UNL     1     -48.949 -37.038  28.158  1.00  0.00     0.411 C 
ENDROOT
BRANCH   1   2
HETATM    2  N2  UNL     1     -49.879 -38.001  27.641  1.00  0.00    -0.039 N 
ATOM      3  H22 UNL     1     -50.697 -38.088  28.246  1.00  0.00     0.280 HD
ATOM      4  H21 UNL     1     -49.515 -38.950  27.727  1.00  0.00     0.280 HD
BRANCH   2   5
HETATM    5  C3  UNL     1     -50.260 -37.709  26.290  1.00  0.00     0.210 C 
HETATM    6  C4  UNL     1     -51.182 -38.735  25.682  1.00  0.00     0.042 C 
BRANCH   5   7
HETATM    7  C2  UNL     1     -50.810 -36.320  26.087  1.00  0.00     0.264 C 
BRANCH   7   8
HETATM    8  N1  UNL     1     -52.231 -36.243  26.325  1.00  0.00    -0.077 N 
HETATM    9  C1  UNL     1     -52.513 -35.520  27.544  1.00  0.00     0.267 C 
ATOM     10  H12 UNL     1     -52.662 -37.167  26.327  1.00  0.00     0.276 HD
ATOM     11  H11 UNL     1     -52.725 -35.843  25.527  1.00  0.00     0.276 HD
ENDBRANCH   7   8
ENDBRANCH   5   7
ENDBRANCH   2   5
ENDBRANCH   1   2
BRANCH   1  12
HETATM   12  N3  UNL     1     -49.488 -36.356  29.305  1.00  0.00    -0.048 N 
ATOM     13  H33 UNL     1     -50.405 -36.721  29.562  1.00  0.00     0.276 HD
ATOM     14  H32 UNL     1     -48.980 -36.595  30.156  1.00  0.00     0.276 HD
ATOM     15  H31 UNL     1     -49.516 -35.347  29.156  1.00  0.00     0.276 HD
ENDBRANCH   1  12
BRANCH   1  16
HETATM   16  C6  UNL     1     -47.608 -37.572  28.497  1.00  0.00     0.243 C 
HETATM   17  C7  UNL     1     -47.616 -39.015  28.966  1.00  0.00     0.038 C 
HETATM   18  C8  UNL     1     -46.139 -39.159  29.325  1.00  0.00     0.030 C 
HETATM   19  C9  UNL     1     -45.738 -37.741  29.702  1.00  0.00     0.233 C 
HETATM   20  N4  UNL     1     -46.967 -36.948  29.625  1.00  0.00    -0.067 N 
ATOM     21  H42 UNL     1     -46.838 -35.938  29.558  1.00  0.00     0.277 HD
ATOM     22  H41 UNL     1     -47.520 -36.905  30.481  1.00  0.00     0.277 HD
ENDBRANCH   1  16
TORSDOF 6
ENDMDL
MODEL 5
REMARK VINA RESULT: -4.956704005      1.951      5.107
REMARK  6 active torsions:
REMARK  status: ('A' for Active; 'I' for Inactive)
REMARK    1  A    between atoms: N1_2  and  C2_5 
REMARK    2  A    between atoms: C2_5  and  C3_6 
REMARK    3  A    between atoms: C3_6  and  N2_8 
REMARK    4  A    between atoms: N2_8  and  C5_11 
REMARK    5  A    between atoms: C5_11  and  N3_12 
REMARK    6  A    between atoms: C5_11  and  C6_16 
ROOT
HETATM    1  C5  UNL     1     -50.337 -36.178  27.144  1.00  0.00     0.411 C 
ENDROOT
BRANCH   1   2
HETATM    2  N2  UNL     1     -51.322 -36.928  26.419  1.00  0.00    -0.039 N 
ATOM      3  H22 UNL     1     -52.094 -36.334  26.119  1.00  0.00     0.280 HD
ATOM      4  H21 UNL     1     -51.835 -37.558  27.036  1.00  0.00     0.280 HD
BRANCH   2   5
HETATM    5  C3  UNL     1     -50.750 -37.637  25.312  1.00  0.00     0.210 C 
HETATM    6  C4  UNL     1     -51.324 -39.016  25.108  1.00  0.00     0.042 C 
BRANCH   5   7
HETATM    7  C2  UNL     1     -50.753 -36.868  24.015  1.00  0.00     0.264 C 
BRANCH   7   8
HETATM    8  N1  UNL     1     -49.451 -36.813  23.396  1.00  0.00    -0.077 N 
HETATM    9  C1  UNL     1     -48.822 -35.533  23.627  1.00  0.00     0.267 C 
ATOM     10  H12 UNL     1     -49.497 -37.036  22.402  1.00  0.00     0.276 HD
ATOM     11  H11 UNL     1     -48.857 -37.585  23.700  1.00  0.00     0.276 HD
ENDBRANCH   7   8
ENDBRANCH   5   7
ENDBRANCH   2   5
ENDBRANCH   1   2
BRANCH   1  12
HETATM   12  N3  UNL     1     -50.952 -35.323  28.126  1.00  0.00    -0.048 N 
ATOM     13  H33 UNL     1     -51.959 -35.475  28.178  1.00  0.00     0.276 HD
ATOM     14  H32 UNL     1     -50.702 -35.602  29.075  1.00  0.00     0.276 HD
ATOM     15  H31 UNL     1     -50.730 -34.342  27.954  1.00  0.00     0.276 HD
ENDBRANCH   1  12
BRANCH   1  16
HETATM   16  C6  UNL     1     -49.280 -36.986  27.799  1.00  0.00     0.243 C 
HETATM   17  C7  UNL     1     -49.810 -38.107  28.673  1.00  0.00     0.038 C 
HETATM   18  C8  UNL     1     -48.487 -38.610  29.247  1.00  0.00     0.030 C 
HETATM   19  C9  UNL     1     -47.612 -37.365  29.230  1.00  0.00     0.233 C 
HETATM   20  N4  UNL     1     -48.475 -36.279  28.760  1.00  0.00    -0.067 N 
ATOM     21  H42 UNL     1     -47.993 -35.452  28.411  1.00  0.00     0.277 HD
ATOM     22  H41 UNL     1     -48.988 -35.778  29.485  1.00  0.00     0.277 HD
ENDBRANCH   1  16
TORSDOF 6
ENDMDL
