MODEL 1
REMARK VINA RESULT: -4.887805047      0.000      0.000
REMARK  8 active torsions:
REMARK  status: ('A' for Active; 'I' for Inactive)
REMARK    1  A    between atoms: N1_2  and  C2_4 
REMARK    2  A    between atoms: C2_4  and  C3_5 
REMARK    3  A    between atoms: C2_4  and  C6_18 
REMARK    4  A    between atoms: C3_5  and  O1_6 
REMARK    5  A    between atoms: C3_5  and  C4_8 
REMARK    6  A    between atoms: C4_8  and  N2_9 
REMARK    7  A    between atoms: C4_8  and  C5_13 
REMARK    8  A    between atoms: C5_13  and  N3_14 
ROOT
HETATM    1  C3  UNL     1     -53.289 -38.291  20.672  1.00  0.00     0.195 C 
ENDROOT
BRANCH   1   2
HETATM    2  C2  UNL     1     -52.313 -37.829  21.687  1.00  0.00     0.017 C 
BRANCH   2   3
HETATM    3  N1  UNL     1     -51.043 -37.493  21.165  1.00  0.00    -0.398 N 
HETATM    4  C1  UNL     1     -50.588 -38.215  20.046  1.00  0.00     0.145 C 
ATOM      5  H1  UNL     1     -50.478 -36.754  21.584  1.00  0.00     0.158 HD
ENDBRANCH   2   3
BRANCH   2   6
HETATM    6  C6  UNL     1     -52.439 -38.457  23.003  1.00  0.00     0.038 A 
HETATM    7  C7  UNL     1     -52.277 -37.536  24.215  1.00  0.00     0.016 A 
HETATM    8  C8  UNL     1     -51.270 -38.616  23.929  1.00  0.00    -0.008 A 
HETATM    9  C9  UNL     1     -51.321 -39.792  24.873  1.00  0.00     0.011 C 
ENDBRANCH   2   6
ENDBRANCH   1   2
BRANCH   1  10
HETATM   10  O1  UNL     1     -53.874 -39.546  21.183  1.00  0.00    -0.388 OA
ATOM     11  H1  UNL     1     -53.176 -40.191  21.193  1.00  0.00     0.210 HD
ENDBRANCH   1  10
BRANCH   1  12
HETATM   12  C4  UNL     1     -54.463 -37.486  20.310  1.00  0.00     0.242 C 
BRANCH  12  13
HETATM   13  N2  UNL     1     -53.994 -36.108  20.013  1.00  0.00    -0.071 N 
ATOM     14  H23 UNL     1     -53.723 -35.594  20.851  1.00  0.00     0.274 HD
ATOM     15  H22 UNL     1     -53.088 -36.090  19.544  1.00  0.00     0.274 HD
ATOM     16  H21 UNL     1     -54.725 -35.638  19.479  1.00  0.00     0.274 HD
ENDBRANCH  12  13
BRANCH  12  17
HETATM   17  C5  UNL     1     -55.634 -37.422  21.210  1.00  0.00     0.265 C 
BRANCH  17  18
HETATM   18  N3  UNL     1     -56.529 -38.519  21.088  1.00  0.00    -0.077 N 
ATOM     19  H33 UNL     1     -57.289 -38.289  20.448  1.00  0.00     0.274 HD
ATOM     20  H32 UNL     1     -56.089 -39.281  20.571  1.00  0.00     0.274 HD
ATOM     21  H31 UNL     1     -56.901 -38.860  21.974  1.00  0.00     0.274 HD
ENDBRANCH  17  18
ENDBRANCH  12  17
ENDBRANCH   1  12
TORSDOF 8
ENDMDL
MODEL 2
REMARK VINA RESULT: -4.826337446      2.416      3.334
REMARK  8 active torsions:
REMARK  status: ('A' for Active; 'I' for Inactive)
REMARK    1  A    between atoms: N1_2  and  C2_4 
REMARK    2  A    between atoms: C2_4  and  C3_5 
REMARK    3  A    between atoms: C2_4  and  C6_18 
REMARK    4  A    between atoms: C3_5  and  O1_6 
REMARK    5  A    between atoms: C3_5  and  C4_8 
REMARK    6  A    between atoms: C4_8  and  N2_9 
REMARK    7  A    between atoms: C4_8  and  C5_13 
REMARK    8  A    between atoms: C5_13  and  N3_14 
ROOT
HETATM    1  C3  UNL     1     -50.334 -38.325  22.659  1.00  0.00     0.195 C 
ENDROOT
BRANCH   1   2
HETATM    2  C2  UNL     1     -50.334 -37.354  23.778  1.00  0.00     0.017 C 
BRANCH   2   3
HETATM    3  N1  UNL     1     -49.219 -36.484  23.796  1.00  0.00    -0.398 N 
HETATM    4  C1  UNL     1     -49.430 -35.149  23.404  1.00  0.00     0.145 C 
ATOM      5  H1  UNL     1     -48.297 -36.813  24.082  1.00  0.00     0.158 HD
ENDBRANCH   2   3
BRANCH   2   6
HETATM    6  C6  UNL     1     -50.922 -37.843  25.027  1.00  0.00     0.038 A 
HETATM    7  C7  UNL     1     -52.153 -37.091  25.539  1.00  0.00     0.016 A 
HETATM    8  C8  UNL     1     -50.857 -37.057  26.302  1.00  0.00    -0.008 A 
HETATM    9  C9  UNL     1     -50.858 -37.859  27.581  1.00  0.00     0.011 C 
ENDBRANCH   2   6
ENDBRANCH   1   2
BRANCH   1  10
HETATM   10  O1  UNL     1     -50.863 -39.594  23.195  1.00  0.00    -0.388 OA
ATOM     11  H1  UNL     1     -50.787 -40.239  22.501  1.00  0.00     0.210 HD
ENDBRANCH   1  10
BRANCH   1  12
HETATM   12  C4  UNL     1     -51.133 -38.103  21.447  1.00  0.00     0.242 C 
BRANCH  12  13
HETATM   13  N2  UNL     1     -50.303 -37.326  20.492  1.00  0.00    -0.071 N 
ATOM     14  H23 UNL     1     -49.772 -36.581  20.944  1.00  0.00     0.274 HD
ATOM     15  H22 UNL     1     -49.510 -37.857  20.132  1.00  0.00     0.274 HD
ATOM     16  H21 UNL     1     -50.916 -36.982  19.753  1.00  0.00     0.274 HD
ENDBRANCH  12  13
BRANCH  12  17
HETATM   17  C5  UNL     1     -52.477 -37.493  21.537  1.00  0.00     0.265 C 
BRANCH  17  18
HETATM   18  N3  UNL     1     -53.467 -38.335  22.110  1.00  0.00    -0.077 N 
ATOM     19  H33 UNL     1     -53.277 -39.312  21.884  1.00  0.00     0.274 HD
ATOM     20  H32 UNL     1     -53.364 -38.368  23.125  1.00  0.00     0.274 HD
ATOM     21  H31 UNL     1     -54.425 -38.092  21.858  1.00  0.00     0.274 HD
ENDBRANCH  17  18
ENDBRANCH  12  17
ENDBRANCH   1  12
TORSDOF 8
ENDMDL
MODEL 3
REMARK VINA RESULT: -4.790614546      2.775      4.180
REMARK  8 active torsions:
REMARK  status: ('A' for Active; 'I' for Inactive)
REMARK    1  A    between atoms: N1_2  and  C2_4 
REMARK    2  A    between atoms: C2_4  and  C3_5 
REMARK    3  A    between atoms: C2_4  and  C6_18 
REMARK    4  A    between atoms: C3_5  and  O1_6 
REMARK    5  A    between atoms: C3_5  and  C4_8 
REMARK    6  A    between atoms: C4_8  and  N2_9 
REMARK    7  A    between atoms: C4_8  and  C5_13 
REMARK    8  A    between atoms: C5_13  and  N3_14 
ROOT
HETATM    1  C3  UNL     1     -50.621 -38.378  23.511  1.00  0.00     0.195 C 
ENDROOT
BRANCH   1   2
HETATM    2  C2  UNL     1     -50.493 -37.451  24.660  1.00  0.00     0.017 C 
BRANCH   2   3
HETATM    3  N1  UNL     1     -49.589 -36.385  24.452  1.00  0.00    -0.398 N 
HETATM    4  C1  UNL     1     -50.131 -35.097  24.278  1.00  0.00     0.145 C 
ATOM      5  H1  UNL     1     -48.581 -36.542  24.429  1.00  0.00     0.158 HD
ENDBRANCH   2   3
BRANCH   2   6
HETATM    6  C6  UNL     1     -50.627 -38.073  25.979  1.00  0.00     0.038 A 
HETATM    7  C7  UNL     1     -51.712 -37.500  26.894  1.00  0.00     0.016 A 
HETATM    8  C8  UNL     1     -50.255 -37.356  27.242  1.00  0.00    -0.008 A 
HETATM    9  C9  UNL     1     -49.793 -38.220  28.390  1.00  0.00     0.011 C 
ENDBRANCH   2   6
ENDBRANCH   1   2
BRANCH   1  10
HETATM   10  O1  UNL     1     -51.138 -39.653  24.045  1.00  0.00    -0.388 OA
ATOM     11  H1  UNL     1     -52.003 -39.473  24.396  1.00  0.00     0.210 HD
ENDBRANCH   1  10
BRANCH   1  12
HETATM   12  C4  UNL     1     -51.516 -38.089  22.384  1.00  0.00     0.242 C 
BRANCH  12  13
HETATM   13  N2  UNL     1     -52.884 -38.520  22.769  1.00  0.00    -0.071 N 
ATOM     14  H23 UNL     1     -53.428 -38.866  21.978  1.00  0.00     0.274 HD
ATOM     15  H22 UNL     1     -52.889 -39.377  23.321  1.00  0.00     0.274 HD
ATOM     16  H21 UNL     1     -53.334 -37.739  23.247  1.00  0.00     0.274 HD
ENDBRANCH  12  13
BRANCH  12  17
HETATM   17  C5  UNL     1     -51.205 -38.597  21.031  1.00  0.00     0.265 C 
BRANCH  17  18
HETATM   18  N3  UNL     1     -50.087 -39.472  20.975  1.00  0.00    -0.077 N 
ATOM     19  H33 UNL     1     -49.219 -38.938  20.923  1.00  0.00     0.274 HD
ATOM     20  H32 UNL     1     -49.953 -39.936  21.874  1.00  0.00     0.274 HD
ATOM     21  H31 UNL     1     -50.127 -40.159  20.223  1.00  0.00     0.274 HD
ENDBRANCH  17  18
ENDBRANCH  12  17
ENDBRANCH   1  12
TORSDOF 8
ENDMDL
MODEL 4
REMARK VINA RESULT: -4.761663655      5.884      8.270
REMARK  8 active torsions:
REMARK  status: ('A' for Active; 'I' for Inactive)
REMARK    1  A    between atoms: N1_2  and  C2_4 
REMARK    2  A    between atoms: C2_4  and  C3_5 
REMARK    3  A    between atoms: C2_4  and  C6_18 
REMARK    4  A    between atoms: C3_5  and  O1_6 
REMARK    5  A    between atoms: C3_5  and  C4_8 
REMARK    6  A    between atoms: C4_8  and  N2_9 
REMARK    7  A    between atoms: C4_8  and  C5_13 
REMARK    8  A    between atoms: C5_13  and  N3_14 
ROOT
HETATM    1  C3  UNL     1     -49.198 -36.735  28.282  1.00  0.00     0.195 C 
ENDROOT
BRANCH   1   2
HETATM    2  C2  UNL     1     -50.368 -36.800  27.376  1.00  0.00     0.017 C 
BRANCH   2   3
HETATM    3  N1  UNL     1     -51.612 -36.574  28.011  1.00  0.00    -0.398 N 
HETATM    4  C1  UNL     1     -52.351 -35.446  27.610  1.00  0.00     0.145 C 
ATOM      5  H1  UNL     1     -51.959 -37.205  28.733  1.00  0.00     0.158 HD
ENDBRANCH   2   3
BRANCH   2   6
HETATM    6  C6  UNL     1     -50.253 -37.761  26.278  1.00  0.00     0.038 A 
HETATM    7  C7  UNL     1     -50.481 -37.213  24.867  1.00  0.00     0.016 A 
HETATM    8  C8  UNL     1     -51.439 -38.202  25.473  1.00  0.00    -0.008 A 
HETATM    9  C9  UNL     1     -51.368 -39.590  24.884  1.00  0.00     0.011 C 
ENDBRANCH   2   6
ENDBRANCH   1   2
BRANCH   1  10
HETATM   10  O1  UNL     1     -49.700 -36.294  29.598  1.00  0.00    -0.388 OA
ATOM     11  H1  UNL     1     -50.378 -36.908  29.854  1.00  0.00     0.210 HD
ENDBRANCH   1  10
BRANCH   1  12
HETATM   12  C4  UNL     1     -48.403 -37.929  28.600  1.00  0.00     0.242 C 
BRANCH  12  13
HETATM   13  N2  UNL     1     -49.195 -38.766  29.537  1.00  0.00    -0.071 N 
ATOM     14  H23 UNL     1     -50.201 -38.634  29.432  1.00  0.00     0.274 HD
ATOM     15  H22 UNL     1     -49.165 -39.759  29.304  1.00  0.00     0.274 HD
ATOM     16  H21 UNL     1     -48.867 -38.571  30.483  1.00  0.00     0.274 HD
ENDBRANCH  12  13
BRANCH  12  17
HETATM   17  C5  UNL     1     -47.022 -37.795  29.111  1.00  0.00     0.265 C 
BRANCH  17  18
HETATM   18  N3  UNL     1     -46.749 -36.552  29.745  1.00  0.00    -0.077 N 
ATOM     19  H33 UNL     1     -46.255 -36.703  30.625  1.00  0.00     0.274 HD
ATOM     20  H32 UNL     1     -46.035 -36.039  29.229  1.00  0.00     0.274 HD
ATOM     21  H31 UNL     1     -47.570 -35.966  29.895  1.00  0.00     0.274 HD
ENDBRANCH  17  18
ENDBRANCH  12  17
ENDBRANCH   1  12
TORSDOF 8
ENDMDL
MODEL 5
REMARK VINA RESULT: -4.743185347      2.388      3.549
REMARK  8 active torsions:
REMARK  status: ('A' for Active; 'I' for Inactive)
REMARK    1  A    between atoms: N1_2  and  C2_4 
REMARK    2  A    between atoms: C2_4  and  C3_5 
REMARK    3  A    between atoms: C2_4  and  C6_18 
REMARK    4  A    between atoms: C3_5  and  O1_6 
REMARK    5  A    between atoms: C3_5  and  C4_8 
REMARK    6  A    between atoms: C4_8  and  N2_9 
REMARK    7  A    between atoms: C4_8  and  C5_13 
REMARK    8  A    between atoms: C5_13  and  N3_14 
ROOT
HETATM    1  C3  UNL     1     -56.468 -38.647  20.208  1.00  0.00     0.195 C 
ENDROOT
BRANCH   1   2
HETATM    2  C2  UNL     1     -55.007 -38.859  20.331  1.00  0.00     0.017 C 
BRANCH   2   3
HETATM    3  N1  UNL     1     -54.575 -40.162  19.994  1.00  0.00    -0.398 N 
HETATM    4  C1  UNL     1     -55.479 -40.986  19.297  1.00  0.00     0.145 C 
ATOM      5  H1  UNL     1     -53.644 -40.493  20.246  1.00  0.00     0.158 HD
ENDBRANCH   2   3
BRANCH   2   6
HETATM    6  C6  UNL     1     -54.359 -38.112  21.411  1.00  0.00     0.038 A 
HETATM    7  C7  UNL     1     -53.198 -37.200  21.005  1.00  0.00     0.016 A 
HETATM    8  C8  UNL     1     -52.961 -38.412  21.864  1.00  0.00    -0.008 A 
HETATM    9  C9  UNL     1     -52.648 -38.109  23.309  1.00  0.00     0.011 C 
ENDBRANCH   2   6
ENDBRANCH   1   2
BRANCH   1  10
HETATM   10  O1  UNL     1     -57.072 -39.077  21.484  1.00  0.00    -0.388 OA
ATOM     11  H1  UNL     1     -56.787 -38.458  22.146  1.00  0.00     0.210 HD
ENDBRANCH   1  10
BRANCH   1  12
HETATM   12  C4  UNL     1     -57.037 -37.310  19.991  1.00  0.00     0.242 C 
BRANCH  12  13
HETATM   13  N2  UNL     1     -58.257 -37.466  19.158  1.00  0.00    -0.071 N 
ATOM     14  H23 UNL     1     -58.736 -38.352  19.319  1.00  0.00     0.274 HD
ATOM     15  H22 UNL     1     -59.016 -36.848  19.447  1.00  0.00     0.274 HD
ATOM     16  H21 UNL     1     -57.988 -37.333  18.183  1.00  0.00     0.274 HD
ENDBRANCH  12  13
BRANCH  12  17
HETATM   17  C5  UNL     1     -56.203 -36.222  19.439  1.00  0.00     0.265 C 
BRANCH  17  18
HETATM   18  N3  UNL     1     -56.753 -34.922  19.600  1.00  0.00    -0.077 N 
ATOM     19  H33 UNL     1     -56.491 -34.534  20.507  1.00  0.00     0.274 HD
ATOM     20  H32 UNL     1     -56.284 -34.257  18.984  1.00  0.00     0.274 HD
ATOM     21  H31 UNL     1     -57.763 -34.872  19.472  1.00  0.00     0.274 HD
ENDBRANCH  17  18
ENDBRANCH  12  17
ENDBRANCH   1  12
TORSDOF 8
ENDMDL
