MODEL 1
REMARK VINA RESULT: -10.016368821      0.000      0.000
REMARK  8 active torsions:
REMARK  status: ('A' for Active; 'I' for Inactive)
REMARK    1  A    between atoms: C2_2  and  O1_3 
REMARK    2  A    between atoms: O1_3  and  C3_4 
REMARK    3  A    between atoms: C3_4  and  O3_6 
REMARK    4  A    between atoms: O3_6  and  C4_7 
REMARK    5  A    between atoms: C7_10  and  C8_11 
REMARK    6  A    between atoms: C24_29  and  C25_30 
REMARK    7  A    between atoms: C25_30  and  O7_32 
REMARK    8  A    between atoms: O7_32  and  C26_33 
ROOT
HETATM    1  C4  UNL     1      -5.146 -11.746  23.847  1.00  0.00     0.144 C 
HETATM    2  C5  UNL     1      -4.528 -11.404  25.233  1.00  0.00     0.035 C 
HETATM    3  C6  UNL     1      -4.099 -12.722  25.758  1.00  0.00     0.024 C 
HETATM    4  C7  UNL     1      -4.092 -13.717  24.604  1.00  0.00     0.058 C 
HETATM    5  C9  UNL     1      -5.208 -14.690  24.681  1.00  0.00     0.022 C 
HETATM    6  C10 UNL     1      -5.241 -15.578  23.490  1.00  0.00     0.011 C 
HETATM    7  C11 UNL     1      -5.435 -14.763  22.218  1.00  0.00    -0.032 C 
HETATM    8  C12 UNL     1      -6.899 -14.487  22.129  1.00  0.00     0.016 C 
HETATM    9  C13 UNL     1      -4.556 -13.568  22.149  1.00  0.00     0.006 C 
HETATM   10  C14 UNL     1      -4.954 -12.695  21.000  1.00  0.00     0.007 C 
HETATM   11  C15 UNL     1      -5.401 -13.440  19.800  1.00  0.00     0.006 C 
HETATM   12  C16 UNL     1      -5.182 -14.884  19.736  1.00  0.00    -0.000 C 
HETATM   13  C17 UNL     1      -6.295 -15.567  18.917  1.00  0.00     0.009 C 
HETATM   14  C18 UNL     1      -6.051 -15.430  17.467  1.00  0.00     0.015 C 
HETATM   15  C19 UNL     1      -5.934 -16.635  16.640  1.00  0.00    -0.047 C 
HETATM   16  C20 UNL     1      -6.954 -16.647  15.489  1.00  0.00     0.015 C 
HETATM   17  C21 UNL     1      -4.573 -16.724  15.926  1.00  0.00     0.015 C 
HETATM   18  C22 UNL     1      -6.099 -17.950  17.347  1.00  0.00     0.010 C 
HETATM   19  C23 UNL     1      -5.401 -17.825  18.677  1.00  0.00     0.021 C 
HETATM   20  C24 UNL     1      -6.323 -16.915  19.502  1.00  0.00     0.053 C 
HETATM   21  C30 UNL     1      -5.879 -16.883  20.927  1.00  0.00     0.030 C 
HETATM   22  C31 UNL     1      -5.048 -15.639  21.013  1.00  0.00    -0.031 C 
HETATM   23  C32 UNL     1      -3.599 -16.094  21.097  1.00  0.00     0.016 C 
HETATM   24  C33 UNL     1      -4.276 -12.843  23.412  1.00  0.00     0.005 C 
HETATM   25  C34 UNL     1      -2.932 -12.109  23.180  1.00  0.00     0.020 C 
ENDROOT
BRANCH  20  26
HETATM   26  C25 UNL     1      -7.661 -17.563  19.461  1.00  0.00     0.268 C 
HETATM   27  O6  UNL     1      -7.884 -18.717  19.892  1.00  0.00    -0.264 OA
BRANCH  26  28
HETATM   28  O7  UNL     1      -8.737 -16.873  18.923  1.00  0.00    -0.314 OA
BRANCH  28  29
HETATM   29  C26 UNL     1      -9.916 -17.587  18.520  1.00  0.00     0.159 C 
HETATM   30  C27 UNL     1     -10.433 -17.119  17.200  1.00  0.00     0.061 C 
HETATM   31  C28 UNL     1     -11.912 -16.972  17.404  1.00  0.00     0.235 C 
HETATM   32  N1  UNL     1     -12.158 -16.860  18.810  1.00  0.00    -0.073 N 
HETATM   33  C29 UNL     1     -10.989 -17.277  19.510  1.00  0.00     0.264 C 
ATOM     34  H12 UNL     1     -12.463 -15.925  19.081  1.00  0.00     0.277 HD
ATOM     35  H11 UNL     1     -12.991 -17.370  19.103  1.00  0.00     0.277 HD
ENDBRANCH  28  29
ENDBRANCH  26  28
ENDBRANCH  20  26
BRANCH   4  36
HETATM   36  C8  UNL     1      -2.803 -14.421  24.721  1.00  0.00     0.182 C 
HETATM   37  O4  UNL     1      -1.899 -13.934  25.438  1.00  0.00    -0.647 OA
HETATM   38  O5  UNL     1      -2.460 -15.611  24.104  1.00  0.00    -0.647 OA
ENDBRANCH   4  36
BRANCH   1  39
HETATM   39  O3  UNL     1      -6.471 -11.929  24.118  1.00  0.00    -0.292 OA
BRANCH  39  40
HETATM   40  C3  UNL     1      -7.430 -11.177  23.461  1.00  0.00     0.406 C 
HETATM   41  O2  UNL     1      -7.273 -10.965  22.232  1.00  0.00    -0.229 OA
BRANCH  40  42
HETATM   42  O1  UNL     1      -8.546 -10.645  24.073  1.00  0.00    -0.298 OA
BRANCH  42  43
HETATM   43  C2  UNL     1      -8.512 -10.402  25.488  1.00  0.00     0.176 C 
HETATM   44  C1  UNL     1      -7.548  -9.259  25.705  1.00  0.00     0.034 C 
ENDBRANCH  42  43
ENDBRANCH  40  42
ENDBRANCH  39  40
ENDBRANCH   1  39
TORSDOF 8
ENDMDL
MODEL 2
REMARK VINA RESULT: -9.799527017      2.852      5.484
REMARK  8 active torsions:
REMARK  status: ('A' for Active; 'I' for Inactive)
REMARK    1  A    between atoms: C2_2  and  O1_3 
REMARK    2  A    between atoms: O1_3  and  C3_4 
REMARK    3  A    between atoms: C3_4  and  O3_6 
REMARK    4  A    between atoms: O3_6  and  C4_7 
REMARK    5  A    between atoms: C7_10  and  C8_11 
REMARK    6  A    between atoms: C24_29  and  C25_30 
REMARK    7  A    between atoms: C25_30  and  O7_32 
REMARK    8  A    between atoms: O7_32  and  C26_33 
ROOT
HETATM    1  C4  UNL     1      -3.502 -11.800  25.995  1.00  0.00     0.144 C 
HETATM    2  C5  UNL     1      -3.642 -10.520  26.869  1.00  0.00     0.035 C 
HETATM    3  C6  UNL     1      -4.533  -9.647  26.068  1.00  0.00     0.024 C 
HETATM    4  C7  UNL     1      -5.198 -10.499  24.994  1.00  0.00     0.058 C 
HETATM    5  C9  UNL     1      -4.663 -10.230  23.638  1.00  0.00     0.022 C 
HETATM    6  C10 UNL     1      -5.250 -11.148  22.628  1.00  0.00     0.011 C 
HETATM    7  C11 UNL     1      -4.925 -12.596  22.965  1.00  0.00    -0.032 C 
HETATM    8  C12 UNL     1      -3.539 -12.832  22.463  1.00  0.00     0.016 C 
HETATM    9  C13 UNL     1      -5.151 -12.929  24.395  1.00  0.00     0.006 C 
HETATM   10  C14 UNL     1      -4.600 -14.285  24.707  1.00  0.00     0.007 C 
HETATM   11  C15 UNL     1      -4.763 -15.271  23.613  1.00  0.00     0.006 C 
HETATM   12  C16 UNL     1      -5.630 -14.943  22.483  1.00  0.00    -0.000 C 
HETATM   13  C17 UNL     1      -5.119 -15.614  21.192  1.00  0.00     0.009 C 
HETATM   14  C18 UNL     1      -5.519 -17.034  21.133  1.00  0.00     0.015 C 
HETATM   15  C19 UNL     1      -6.320 -17.510  20.002  1.00  0.00    -0.047 C 
HETATM   16  C20 UNL     1      -5.637 -18.670  19.258  1.00  0.00     0.015 C 
HETATM   17  C21 UNL     1      -7.669 -18.102  20.448  1.00  0.00     0.015 C 
HETATM   18  C22 UNL     1      -6.661 -16.494  18.950  1.00  0.00     0.010 C 
HETATM   19  C23 UNL     1      -6.981 -15.207  19.668  1.00  0.00     0.021 C 
HETATM   20  C24 UNL     1      -5.616 -14.699  20.155  1.00  0.00     0.053 C 
HETATM   21  C30 UNL     1      -5.741 -13.310  20.689  1.00  0.00     0.030 C 
HETATM   22  C31 UNL     1      -5.875 -13.508  22.168  1.00  0.00    -0.031 C 
HETATM   23  C32 UNL     1      -7.331 -13.231  22.509  1.00  0.00     0.016 C 
HETATM   24  C33 UNL     1      -4.841 -11.886  25.403  1.00  0.00     0.005 C 
HETATM   25  C34 UNL     1      -5.712 -12.230  26.637  1.00  0.00     0.020 C 
ENDROOT
BRANCH  20  26
HETATM   26  C25 UNL     1      -4.757 -14.640  18.941  1.00  0.00     0.268 C 
HETATM   27  O6  UNL     1      -5.083 -14.037  17.893  1.00  0.00    -0.264 OA
BRANCH  26  28
HETATM   28  O7  UNL     1      -3.526 -15.278  18.944  1.00  0.00    -0.314 OA
BRANCH  28  29
HETATM   29  C26 UNL     1      -2.865 -15.566  17.703  1.00  0.00     0.159 C 
HETATM   30  C27 UNL     1      -3.337 -16.846  17.099  1.00  0.00     0.061 C 
HETATM   31  C28 UNL     1      -2.081 -17.550  16.678  1.00  0.00     0.235 C 
HETATM   32  N1  UNL     1      -0.988 -16.991  17.415  1.00  0.00    -0.073 N 
HETATM   33  C29 UNL     1      -1.417 -15.765  18.001  1.00  0.00     0.264 C 
ATOM     34  H12 UNL     1      -0.608 -17.641  18.104  1.00  0.00     0.277 HD
ATOM     35  H11 UNL     1      -0.148 -16.881  16.847  1.00  0.00     0.277 HD
ENDBRANCH  28  29
ENDBRANCH  26  28
ENDBRANCH  20  26
BRANCH   4  36
HETATM   36  C8  UNL     1      -6.624 -10.134  25.052  1.00  0.00     0.182 C 
HETATM   37  O4  UNL     1      -6.974  -9.122  25.703  1.00  0.00    -0.647 OA
HETATM   38  O5  UNL     1      -7.669 -10.808  24.446  1.00  0.00    -0.647 OA
ENDBRANCH   4  36
BRANCH   1  39
HETATM   39  O3  UNL     1      -2.387 -11.561  25.245  1.00  0.00    -0.292 OA
BRANCH  39  40
HETATM   40  C3  UNL     1      -1.139 -11.520  25.843  1.00  0.00     0.406 C 
HETATM   41  O2  UNL     1      -0.743 -12.545  26.454  1.00  0.00    -0.229 OA
BRANCH  40  42
HETATM   42  O1  UNL     1      -0.303 -10.422  25.809  1.00  0.00    -0.298 OA
BRANCH  42  43
HETATM   43  C2  UNL     1      -0.582  -9.366  24.878  1.00  0.00     0.176 C 
HETATM   44  C1  UNL     1      -1.018  -8.173  25.696  1.00  0.00     0.034 C 
ENDBRANCH  42  43
ENDBRANCH  40  42
ENDBRANCH  39  40
ENDBRANCH   1  39
TORSDOF 8
ENDMDL
MODEL 3
REMARK VINA RESULT: -9.467416281      0.890      1.282
REMARK  8 active torsions:
REMARK  status: ('A' for Active; 'I' for Inactive)
REMARK    1  A    between atoms: C2_2  and  O1_3 
REMARK    2  A    between atoms: O1_3  and  C3_4 
REMARK    3  A    between atoms: C3_4  and  O3_6 
REMARK    4  A    between atoms: O3_6  and  C4_7 
REMARK    5  A    between atoms: C7_10  and  C8_11 
REMARK    6  A    between atoms: C24_29  and  C25_30 
REMARK    7  A    between atoms: C25_30  and  O7_32 
REMARK    8  A    between atoms: O7_32  and  C26_33 
ROOT
HETATM    1  C4  UNL     1      -5.020 -11.320  24.269  1.00  0.00     0.144 C 
HETATM    2  C5  UNL     1      -4.429 -10.924  25.652  1.00  0.00     0.035 C 
HETATM    3  C6  UNL     1      -3.913 -12.205  26.191  1.00  0.00     0.024 C 
HETATM    4  C7  UNL     1      -3.838 -13.208  25.047  1.00  0.00     0.058 C 
HETATM    5  C9  UNL     1      -4.886 -14.253  25.132  1.00  0.00     0.022 C 
HETATM    6  C10 UNL     1      -4.857 -15.152  23.949  1.00  0.00     0.011 C 
HETATM    7  C11 UNL     1      -5.103 -14.365  22.670  1.00  0.00    -0.032 C 
HETATM    8  C12 UNL     1      -6.582 -14.189  22.576  1.00  0.00     0.016 C 
HETATM    9  C13 UNL     1      -4.305 -13.115  22.589  1.00  0.00     0.006 C 
HETATM   10  C14 UNL     1      -4.759 -12.282  21.432  1.00  0.00     0.007 C 
HETATM   11  C15 UNL     1      -5.153 -13.066  20.238  1.00  0.00     0.006 C 
HETATM   12  C16 UNL     1      -4.838 -14.493  20.189  1.00  0.00    -0.000 C 
HETATM   13  C17 UNL     1      -5.902 -15.257  19.375  1.00  0.00     0.009 C 
HETATM   14  C18 UNL     1      -5.665 -15.119  17.924  1.00  0.00     0.015 C 
HETATM   15  C19 UNL     1      -5.465 -16.321  17.109  1.00  0.00    -0.047 C 
HETATM   16  C20 UNL     1      -6.481 -16.413  15.958  1.00  0.00     0.015 C 
HETATM   17  C21 UNL     1      -4.100 -16.325  16.398  1.00  0.00     0.015 C 
HETATM   18  C22 UNL     1      -5.543 -17.637  17.829  1.00  0.00     0.010 C 
HETATM   19  C23 UNL     1      -4.857 -17.452  19.159  1.00  0.00     0.021 C 
HETATM   20  C24 UNL     1      -5.840 -16.598  19.974  1.00  0.00     0.053 C 
HETATM   21  C30 UNL     1      -5.401 -16.522  21.399  1.00  0.00     0.030 C 
HETATM   22  C31 UNL     1      -4.656 -15.225  21.474  1.00  0.00    -0.031 C 
HETATM   23  C32 UNL     1      -3.180 -15.581  21.564  1.00  0.00     0.016 C 
HETATM   24  C33 UNL     1      -4.077 -12.360  23.846  1.00  0.00     0.005 C 
HETATM   25  C34 UNL     1      -2.785 -11.540  23.608  1.00  0.00     0.020 C 
ENDROOT
BRANCH  20  26
HETATM   26  C25 UNL     1      -7.132 -17.335  19.938  1.00  0.00     0.268 C 
HETATM   27  O6  UNL     1      -7.264 -18.516  20.330  1.00  0.00    -0.264 OA
BRANCH  26  28
HETATM   28  O7  UNL     1      -8.265 -16.702  19.450  1.00  0.00    -0.314 OA
BRANCH  28  29
HETATM   29  C26 UNL     1      -9.371 -17.482  18.972  1.00  0.00     0.159 C 
HETATM   30  C27 UNL     1      -9.833 -17.037  17.624  1.00  0.00     0.061 C 
HETATM   31  C28 UNL     1     -11.327 -16.980  17.736  1.00  0.00     0.235 C 
HETATM   32  N1  UNL     1     -11.666 -16.894  19.125  1.00  0.00    -0.073 N 
HETATM   33  C29 UNL     1     -10.520 -17.245  19.894  1.00  0.00     0.264 C 
ATOM     34  H12 UNL     1     -12.044 -15.981  19.379  1.00  0.00     0.277 HD
ATOM     35  H11 UNL     1     -12.484 -17.455  19.363  1.00  0.00     0.277 HD
ENDBRANCH  28  29
ENDBRANCH  26  28
ENDBRANCH  20  26
BRANCH   4  36
HETATM   36  C8  UNL     1      -2.504 -13.823  25.172  1.00  0.00     0.182 C 
HETATM   37  O4  UNL     1      -1.560 -13.153  25.649  1.00  0.00    -0.647 OA
HETATM   38  O5  UNL     1      -2.159 -15.113  24.808  1.00  0.00    -0.647 OA
ENDBRANCH   4  36
BRANCH   1  39
HETATM   39  O3  UNL     1      -6.330 -11.589  24.541  1.00  0.00    -0.292 OA
BRANCH  39  40
HETATM   40  C3  UNL     1      -7.297 -10.617  24.348  1.00  0.00     0.406 C 
HETATM   41  O2  UNL     1      -7.371  -9.684  25.187  1.00  0.00    -0.229 OA
BRANCH  40  42
HETATM   42  O1  UNL     1      -8.186 -10.612  23.293  1.00  0.00    -0.298 OA
BRANCH  42  43
HETATM   43  C2  UNL     1      -8.116 -11.667  22.322  1.00  0.00     0.176 C 
HETATM   44  C1  UNL     1      -8.148 -11.006  20.964  1.00  0.00     0.034 C 
ENDBRANCH  42  43
ENDBRANCH  40  42
ENDBRANCH  39  40
ENDBRANCH   1  39
TORSDOF 8
ENDMDL
MODEL 4
REMARK VINA RESULT: -9.225867194      3.373      8.992
REMARK  8 active torsions:
REMARK  status: ('A' for Active; 'I' for Inactive)
REMARK    1  A    between atoms: C2_2  and  O1_3 
REMARK    2  A    between atoms: O1_3  and  C3_4 
REMARK    3  A    between atoms: C3_4  and  O3_6 
REMARK    4  A    between atoms: O3_6  and  C4_7 
REMARK    5  A    between atoms: C7_10  and  C8_11 
REMARK    6  A    between atoms: C24_29  and  C25_30 
REMARK    7  A    between atoms: C25_30  and  O7_32 
REMARK    8  A    between atoms: O7_32  and  C26_33 
ROOT
HETATM    1  C4  UNL     1      -5.197 -16.176  18.375  1.00  0.00     0.144 C 
HETATM    2  C5  UNL     1      -5.608 -17.563  17.801  1.00  0.00     0.035 C 
HETATM    3  C6  UNL     1      -5.825 -18.391  19.012  1.00  0.00     0.024 C 
HETATM    4  C7  UNL     1      -5.931 -17.460  20.214  1.00  0.00     0.058 C 
HETATM    5  C9  UNL     1      -4.735 -17.515  21.088  1.00  0.00     0.022 C 
HETATM    6  C10 UNL     1      -4.818 -16.521  22.190  1.00  0.00     0.011 C 
HETATM    7  C11 UNL     1      -4.910 -15.108  21.633  1.00  0.00    -0.032 C 
HETATM    8  C12 UNL     1      -3.511 -14.709  21.298  1.00  0.00     0.016 C 
HETATM    9  C13 UNL     1      -5.893 -14.977  20.527  1.00  0.00     0.006 C 
HETATM   10  C14 UNL     1      -5.768 -13.635  19.877  1.00  0.00     0.007 C 
HETATM   11  C15 UNL     1      -5.460 -12.532  20.817  1.00  0.00     0.006 C 
HETATM   12  C16 UNL     1      -5.555 -12.776  22.256  1.00  0.00    -0.000 C 
HETATM   13  C17 UNL     1      -4.534 -11.912  23.022  1.00  0.00     0.009 C 
HETATM   14  C18 UNL     1      -5.025 -10.529  23.189  1.00  0.00     0.015 C 
HETATM   15  C19 UNL     1      -5.167  -9.973  24.538  1.00  0.00    -0.047 C 
HETATM   16  C20 UNL     1      -4.353  -8.681  24.719  1.00  0.00     0.015 C 
HETATM   17  C21 UNL     1      -6.613  -9.542  24.843  1.00  0.00     0.015 C 
HETATM   18  C22 UNL     1      -4.771 -10.869  25.676  1.00  0.00     0.010 C 
HETATM   19  C23 UNL     1      -5.250 -12.257  25.330  1.00  0.00     0.021 C 
HETATM   20  C24 UNL     1      -4.290 -12.721  24.225  1.00  0.00     0.053 C 
HETATM   21  C30 UNL     1      -4.496 -14.172  23.937  1.00  0.00     0.030 C 
HETATM   22  C31 UNL     1      -5.409 -14.174  22.750  1.00  0.00    -0.031 C 
HETATM   23  C32 UNL     1      -6.778 -14.598  23.261  1.00  0.00     0.016 C 
HETATM   24  C33 UNL     1      -6.025 -16.114  19.584  1.00  0.00     0.005 C 
HETATM   25  C34 UNL     1      -7.450 -15.993  18.987  1.00  0.00     0.020 C 
ENDROOT
BRANCH  20  26
HETATM   26  C25 UNL     1      -2.924 -12.563  24.792  1.00  0.00     0.268 C 
HETATM   27  O6  UNL     1      -2.408 -13.377  25.590  1.00  0.00    -0.264 OA
BRANCH  26  28
HETATM   28  O7  UNL     1      -2.160 -11.463  24.432  1.00  0.00    -0.314 OA
BRANCH  28  29
HETATM   29  C26 UNL     1      -1.102 -11.014  25.292  1.00  0.00     0.159 C 
HETATM   30  C27 UNL     1      -1.622 -10.404  26.551  1.00  0.00     0.061 C 
HETATM   31  C28 UNL     1      -0.822  -9.145  26.720  1.00  0.00     0.235 C 
HETATM   32  N1  UNL     1      -0.271  -8.795  25.446  1.00  0.00    -0.073 N 
HETATM   33  C29 UNL     1      -0.376  -9.922  24.580  1.00  0.00     0.264 C 
ATOM     34  H12 UNL     1      -0.699  -7.957  25.052  1.00  0.00     0.277 HD
ATOM     35  H11 UNL     1       0.684  -8.444  25.517  1.00  0.00     0.277 HD
ENDBRANCH  28  29
ENDBRANCH  26  28
ENDBRANCH  20  26
BRANCH   4  36
HETATM   36  C8  UNL     1      -7.115 -17.933  20.953  1.00  0.00     0.182 C 
HETATM   37  O4  UNL     1      -7.841 -18.820  20.448  1.00  0.00    -0.647 OA
HETATM   38  O5  UNL     1      -7.536 -17.492  22.195  1.00  0.00    -0.647 OA
ENDBRANCH   4  36
BRANCH   1  39
HETATM   39  O3  UNL     1      -3.835 -16.236  18.426  1.00  0.00    -0.292 OA
BRANCH  39  40
HETATM   40  C3  UNL     1      -3.073 -15.693  17.405  1.00  0.00     0.406 C 
HETATM   41  O2  UNL     1      -2.066 -15.009  17.720  1.00  0.00    -0.229 OA
BRANCH  40  42
HETATM   42  O1  UNL     1      -3.352 -15.855  16.064  1.00  0.00    -0.298 OA
BRANCH  42  43
HETATM   43  C2  UNL     1      -2.850 -17.017  15.386  1.00  0.00     0.176 C 
HETATM   44  C1  UNL     1      -3.934 -17.463  14.434  1.00  0.00     0.034 C 
ENDBRANCH  42  43
ENDBRANCH  40  42
ENDBRANCH  39  40
ENDBRANCH   1  39
TORSDOF 8
ENDMDL
MODEL 5
REMARK VINA RESULT: -9.063926097      2.000      3.311
REMARK  8 active torsions:
REMARK  status: ('A' for Active; 'I' for Inactive)
REMARK    1  A    between atoms: C2_2  and  O1_3 
REMARK    2  A    between atoms: O1_3  and  C3_4 
REMARK    3  A    between atoms: C3_4  and  O3_6 
REMARK    4  A    between atoms: O3_6  and  C4_7 
REMARK    5  A    between atoms: C7_10  and  C8_11 
REMARK    6  A    between atoms: C24_29  and  C25_30 
REMARK    7  A    between atoms: C25_30  and  O7_32 
REMARK    8  A    between atoms: O7_32  and  C26_33 
ROOT
HETATM    1  C4  UNL     1      -4.797 -13.672  21.935  1.00  0.00     0.144 C 
HETATM    2  C5  UNL     1      -4.987 -13.678  23.480  1.00  0.00     0.035 C 
HETATM    3  C6  UNL     1      -5.712 -14.945  23.737  1.00  0.00     0.024 C 
HETATM    4  C7  UNL     1      -5.604 -15.819  22.493  1.00  0.00     0.058 C 
HETATM    5  C9  UNL     1      -6.879 -15.907  21.743  1.00  0.00     0.022 C 
HETATM    6  C10 UNL     1      -6.718 -16.674  20.481  1.00  0.00     0.011 C 
HETATM    7  C11 UNL     1      -5.701 -16.002  19.570  1.00  0.00    -0.032 C 
HETATM    8  C12 UNL     1      -6.436 -14.902  18.879  1.00  0.00     0.016 C 
HETATM    9  C13 UNL     1      -4.461 -15.594  20.278  1.00  0.00     0.006 C 
HETATM   10  C14 UNL     1      -3.610 -14.742  19.388  1.00  0.00     0.007 C 
HETATM   11  C15 UNL     1      -3.630 -15.146  17.963  1.00  0.00     0.006 C 
HETATM   12  C16 UNL     1      -4.232 -16.427  17.595  1.00  0.00    -0.000 C 
HETATM   13  C17 UNL     1      -4.854 -16.350  16.186  1.00  0.00     0.009 C 
HETATM   14  C18 UNL     1      -3.824 -16.493  15.138  1.00  0.00     0.015 C 
HETATM   15  C19 UNL     1      -3.939 -17.577  14.158  1.00  0.00    -0.047 C 
HETATM   16  C20 UNL     1      -3.959 -17.049  12.714  1.00  0.00     0.015 C 
HETATM   17  C21 UNL     1      -2.725 -18.523  14.188  1.00  0.00     0.015 C 
HETATM   18  C22 UNL     1      -5.141 -18.468  14.285  1.00  0.00     0.010 C 
HETATM   19  C23 UNL     1      -5.365 -18.698  15.758  1.00  0.00     0.021 C 
HETATM   20  C24 UNL     1      -5.920 -17.360  16.268  1.00  0.00     0.053 C 
HETATM   21  C30 UNL     1      -6.408 -17.503  17.671  1.00  0.00     0.030 C 
HETATM   22  C31 UNL     1      -5.258 -17.015  18.500  1.00  0.00    -0.031 C 
HETATM   23  C32 UNL     1      -4.626 -18.249  19.127  1.00  0.00     0.016 C 
HETATM   24  C33 UNL     1      -4.592 -15.100  21.670  1.00  0.00     0.005 C 
HETATM   25  C34 UNL     1      -3.213 -15.350  22.330  1.00  0.00     0.020 C 
ENDROOT
BRANCH  20  26
HETATM   26  C25 UNL     1      -7.098 -17.064  15.408  1.00  0.00     0.268 C 
HETATM   27  O6  UNL     1      -7.091 -16.205  14.498  1.00  0.00    -0.264 OA
BRANCH  26  28
HETATM   28  O7  UNL     1      -8.279 -17.764  15.605  1.00  0.00    -0.314 OA
BRANCH  28  29
HETATM   29  C26 UNL     1      -9.519 -17.053  15.735  1.00  0.00     0.159 C 
HETATM   30  C27 UNL     1     -10.087 -17.161  17.111  1.00  0.00     0.061 C 
HETATM   31  C28 UNL     1     -11.540 -17.469  16.897  1.00  0.00     0.235 C 
HETATM   32  N1  UNL     1     -11.693 -17.994  15.574  1.00  0.00    -0.073 N 
HETATM   33  C29 UNL     1     -10.510 -17.709  14.833  1.00  0.00     0.264 C 
ATOM     34  H12 UNL     1     -11.927 -18.987  15.572  1.00  0.00     0.277 HD
ATOM     35  H11 UNL     1     -12.536 -17.650  15.113  1.00  0.00     0.277 HD
ENDBRANCH  28  29
ENDBRANCH  26  28
ENDBRANCH  20  26
BRANCH   4  36
HETATM   36  C8  UNL     1      -5.226 -17.150  23.000  1.00  0.00     0.182 C 
HETATM   37  O4  UNL     1      -6.019 -17.774  23.741  1.00  0.00    -0.647 OA
HETATM   38  O5  UNL     1      -4.044 -17.820  22.741  1.00  0.00    -0.647 OA
ENDBRANCH   4  36
BRANCH   1  39
HETATM   39  O3  UNL     1      -5.889 -12.995  21.477  1.00  0.00    -0.292 OA
BRANCH  39  40
HETATM   40  C3  UNL     1      -5.976 -11.622  21.632  1.00  0.00     0.406 C 
HETATM   41  O2  UNL     1      -4.966 -10.930  21.345  1.00  0.00    -0.229 OA
BRANCH  40  42
HETATM   42  O1  UNL     1      -7.103 -10.966  22.084  1.00  0.00    -0.298 OA
BRANCH  42  43
HETATM   43  C2  UNL     1      -7.656 -11.334  23.357  1.00  0.00     0.176 C 
HETATM   44  C1  UNL     1      -6.863 -10.588  24.403  1.00  0.00     0.034 C 
ENDBRANCH  42  43
ENDBRANCH  40  42
ENDBRANCH  39  40
ENDBRANCH   1  39
TORSDOF 8
ENDMDL
