MODEL 1
REMARK VINA RESULT: -8.887084018      0.000      0.000
REMARK  1 active torsions:
REMARK  status: ('A' for Active; 'I' for Inactive)
REMARK    1  A    between atoms: C5_6  and  C6_7 
ROOT
HETATM    1  C1  UNL     1      53.641 -45.623  -9.996  1.00  0.00     0.026 C 
HETATM    2  C2  UNL     1      52.540 -45.030  -9.564  1.00  0.00     0.018 C 
HETATM    3  C3  UNL     1      52.473 -44.401  -8.248  1.00  0.00     0.196 C 
HETATM    4  O1  UNL     1      53.545 -43.987  -7.714  1.00  0.00    -0.287 OA
HETATM    5  C4  UNL     1      51.185 -44.269  -7.595  1.00  0.00     0.090 C 
HETATM    6  C5  UNL     1      50.990 -43.733  -6.434  1.00  0.00     0.022 C 
HETATM    7  C10 UNL     1      50.014 -44.797  -8.334  1.00  0.00     0.298 C 
HETATM    8  O2  UNL     1      48.838 -44.726  -7.836  1.00  0.00    -0.259 OA
HETATM    9  O3  UNL     1      50.187 -45.375  -9.578  1.00  0.00    -0.302 OA
HETATM   10  C11 UNL     1      51.300 -44.971 -10.397  1.00  0.00     0.094 C 
HETATM   11  C12 UNL     1      51.107 -43.529 -10.808  1.00  0.00     0.052 C 
HETATM   12  C13 UNL     1      51.375 -45.851 -11.601  1.00  0.00     0.052 C 
ENDROOT
BRANCH   6  13
HETATM   13  C6  UNL     1      51.906 -43.143  -5.491  1.00  0.00     0.003 C 
HETATM   14  C7  UNL     1      51.868 -43.504  -4.194  1.00  0.00    -0.088 C 
HETATM   15  C8  UNL     1      50.909 -44.498  -3.693  1.00  0.00     0.043 C 
HETATM   16  C9  UNL     1      52.828 -42.872  -3.261  1.00  0.00     0.043 C 
ENDBRANCH   6  13
TORSDOF 1
ENDMDL
MODEL 2
REMARK VINA RESULT: -8.668813729      3.156      5.942
REMARK  1 active torsions:
REMARK  status: ('A' for Active; 'I' for Inactive)
REMARK    1  A    between atoms: C5_6  and  C6_7 
ROOT
HETATM    1  C1  UNL     1      53.940 -47.113  -3.693  1.00  0.00     0.026 C 
HETATM    2  C2  UNL     1      52.707 -46.657  -3.539  1.00  0.00     0.018 C 
HETATM    3  C3  UNL     1      52.053 -45.850  -4.564  1.00  0.00     0.196 C 
HETATM    4  O1  UNL     1      52.428 -45.971  -5.769  1.00  0.00    -0.287 OA
HETATM    5  C4  UNL     1      50.997 -44.936  -4.174  1.00  0.00     0.090 C 
HETATM    6  C5  UNL     1      50.341 -44.168  -4.981  1.00  0.00     0.022 C 
HETATM    7  C10 UNL     1      50.660 -44.895  -2.731  1.00  0.00     0.298 C 
HETATM    8  O2  UNL     1      49.743 -44.118  -2.293  1.00  0.00    -0.259 OA
HETATM    9  O3  UNL     1      51.342 -45.703  -1.841  1.00  0.00    -0.302 OA
HETATM   10  C11 UNL     1      51.914 -46.942  -2.305  1.00  0.00     0.094 C 
HETATM   11  C12 UNL     1      50.795 -47.879  -2.700  1.00  0.00     0.052 C 
HETATM   12  C13 UNL     1      52.739 -47.544  -1.217  1.00  0.00     0.052 C 
ENDROOT
BRANCH   6  13
HETATM   13  C6  UNL     1      50.433 -43.983  -6.407  1.00  0.00     0.003 C 
HETATM   14  C7  UNL     1      51.324 -43.113  -6.921  1.00  0.00    -0.088 C 
HETATM   15  C8  UNL     1      52.225 -42.328  -6.065  1.00  0.00     0.043 C 
HETATM   16  C9  UNL     1      51.385 -42.956  -8.391  1.00  0.00     0.043 C 
ENDBRANCH   6  13
TORSDOF 1
ENDMDL
MODEL 3
REMARK VINA RESULT: -8.245187375      1.897      5.254
REMARK  1 active torsions:
REMARK  status: ('A' for Active; 'I' for Inactive)
REMARK    1  A    between atoms: C5_6  and  C6_7 
ROOT
HETATM    1  C1  UNL     1      52.609 -42.953  -2.965  1.00  0.00     0.026 C 
HETATM    2  C2  UNL     1      52.150 -43.584  -4.033  1.00  0.00     0.018 C 
HETATM    3  C3  UNL     1      52.662 -43.302  -5.371  1.00  0.00     0.196 C 
HETATM    4  O1  UNL     1      53.836 -42.839  -5.490  1.00  0.00    -0.287 OA
HETATM    5  C4  UNL     1      51.815 -43.561  -6.519  1.00  0.00     0.090 C 
HETATM    6  C5  UNL     1      52.148 -43.356  -7.751  1.00  0.00     0.022 C 
HETATM    7  C10 UNL     1      50.465 -44.103  -6.233  1.00  0.00     0.298 C 
HETATM    8  O2  UNL     1      49.648 -44.361  -7.183  1.00  0.00    -0.259 OA
HETATM    9  O3  UNL     1      50.078 -44.336  -4.927  1.00  0.00    -0.302 OA
HETATM   10  C11 UNL     1      51.080 -44.623  -3.932  1.00  0.00     0.094 C 
HETATM   11  C12 UNL     1      51.719 -45.955  -4.252  1.00  0.00     0.052 C 
HETATM   12  C13 UNL     1      50.442 -44.662  -2.583  1.00  0.00     0.052 C 
ENDROOT
BRANCH   6  13
HETATM   13  C6  UNL     1      53.361 -42.847  -8.339  1.00  0.00     0.003 C 
HETATM   14  C7  UNL     1      54.166 -43.665  -9.046  1.00  0.00    -0.088 C 
HETATM   15  C8  UNL     1      53.846 -45.085  -9.245  1.00  0.00     0.043 C 
HETATM   16  C9  UNL     1      55.401 -43.100  -9.632  1.00  0.00     0.043 C 
ENDBRANCH   6  13
TORSDOF 1
ENDMDL
MODEL 4
REMARK VINA RESULT: -8.007752175      2.466      4.059
REMARK  1 active torsions:
REMARK  status: ('A' for Active; 'I' for Inactive)
REMARK    1  A    between atoms: C5_6  and  C6_7 
ROOT
HETATM    1  C1  UNL     1      50.412 -44.822  -7.929  1.00  0.00     0.026 C 
HETATM    2  C2  UNL     1      51.372 -44.377  -7.134  1.00  0.00     0.018 C 
HETATM    3  C3  UNL     1      51.831 -45.144  -5.980  1.00  0.00     0.196 C 
HETATM    4  O1  UNL     1      51.689 -46.403  -5.988  1.00  0.00    -0.287 OA
HETATM    5  C4  UNL     1      52.434 -44.443  -4.863  1.00  0.00     0.090 C 
HETATM    6  C5  UNL     1      52.880 -45.002  -3.786  1.00  0.00     0.022 C 
HETATM    7  C10 UNL     1      52.537 -42.969  -4.987  1.00  0.00     0.298 C 
HETATM    8  O2  UNL     1      53.054 -42.267  -4.052  1.00  0.00    -0.259 OA
HETATM    9  O3  UNL     1      52.071 -42.340  -6.126  1.00  0.00    -0.302 OA
HETATM   10  C11 UNL     1      52.041 -43.062  -7.372  1.00  0.00     0.094 C 
HETATM   11  C12 UNL     1      53.461 -43.355  -7.803  1.00  0.00     0.052 C 
HETATM   12  C13 UNL     1      51.343 -42.240  -8.404  1.00  0.00     0.052 C 
ENDROOT
BRANCH   6  13
HETATM   13  C6  UNL     1      52.921 -46.383  -3.376  1.00  0.00     0.003 C 
HETATM   14  C7  UNL     1      51.899 -46.913  -2.676  1.00  0.00    -0.088 C 
HETATM   15  C8  UNL     1      50.718 -46.120  -2.307  1.00  0.00     0.043 C 
HETATM   16  C9  UNL     1      51.983 -48.335  -2.277  1.00  0.00     0.043 C 
ENDBRANCH   6  13
TORSDOF 1
ENDMDL
MODEL 5
REMARK VINA RESULT: -7.871830527      2.022      2.913
REMARK  1 active torsions:
REMARK  status: ('A' for Active; 'I' for Inactive)
REMARK    1  A    between atoms: C5_6  and  C6_7 
ROOT
HETATM    1  C1  UNL     1      50.057 -45.644  -9.723  1.00  0.00     0.026 C 
HETATM    2  C2  UNL     1      50.886 -44.950  -8.962  1.00  0.00     0.018 C 
HETATM    3  C3  UNL     1      51.397 -45.479  -7.701  1.00  0.00     0.196 C 
HETATM    4  O1  UNL     1      51.460 -46.735  -7.547  1.00  0.00    -0.287 OA
HETATM    5  C4  UNL     1      51.817 -44.553  -6.667  1.00  0.00     0.090 C 
HETATM    6  C5  UNL     1      52.286 -44.892  -5.510  1.00  0.00     0.022 C 
HETATM    7  C10 UNL     1      51.689 -43.110  -6.981  1.00  0.00     0.298 C 
HETATM    8  O2  UNL     1      52.033 -42.220  -6.129  1.00  0.00    -0.259 OA
HETATM    9  O3  UNL     1      51.192 -42.715  -8.209  1.00  0.00    -0.302 OA
HETATM   10  C11 UNL     1      51.348 -43.581  -9.349  1.00  0.00     0.094 C 
HETATM   11  C12 UNL     1      52.818 -43.685  -9.687  1.00  0.00     0.052 C 
HETATM   12  C13 UNL     1      50.586 -43.023 -10.504  1.00  0.00     0.052 C 
ENDROOT
BRANCH   6  13
HETATM   13  C6  UNL     1      52.525 -46.185  -4.919  1.00  0.00     0.003 C 
HETATM   14  C7  UNL     1      51.937 -46.516  -3.753  1.00  0.00    -0.088 C 
HETATM   15  C8  UNL     1      51.042 -45.591  -3.045  1.00  0.00     0.043 C 
HETATM   16  C9  UNL     1      52.211 -47.854  -3.184  1.00  0.00     0.043 C 
ENDBRANCH   6  13
TORSDOF 1
ENDMDL
