MODEL 1
REMARK VINA RESULT: -7.574784018      0.000      0.000
REMARK  4 active torsions:
REMARK  status: ('A' for Active; 'I' for Inactive)
REMARK    1  A    between atoms: C5_5  and  C6_6 
REMARK    2  A    between atoms: C6_6  and  C9_9 
REMARK    3  A    between atoms: C9_9  and  O2_11 
REMARK    4  A    between atoms: O2_11  and  C10_12 
ROOT
HETATM    1  C6  UNL     1      51.128 -43.685  -7.722  1.00  0.00     0.079 C 
HETATM    2  C7  UNL     1      50.448 -42.554  -8.505  1.00  0.00     0.032 C 
HETATM    3  C8  UNL     1      50.243 -44.899  -7.726  1.00  0.00     0.032 C 
ENDROOT
BRANCH   1   4
HETATM    4  C5  UNL     1      52.404 -43.964  -8.481  1.00  0.00     0.003 A 
HETATM    5  C4  UNL     1      52.715 -43.864  -9.920  1.00  0.00     0.083 A 
HETATM    6  C2  UNL     1      54.041 -44.331  -9.396  1.00  0.00     0.027 A 
HETATM    7  C1  UNL     1      55.173 -43.330  -9.511  1.00  0.00     0.038 C 
HETATM    8  C3  UNL     1      54.403 -45.703  -9.960  1.00  0.00     0.038 C 
HETATM    9  N1  UNL     1      53.544 -44.359  -8.070  1.00  0.00    -0.386 N 
ATOM     10  H1  UNL     1      53.938 -44.598  -7.160  1.00  0.00     0.160 HD
ENDBRANCH   1   4
BRANCH   1  11
HETATM   11  C9  UNL     1      51.399 -43.179  -6.361  1.00  0.00     0.273 C 
HETATM   12  O1  UNL     1      52.195 -42.258  -6.076  1.00  0.00    -0.264 OA
BRANCH  11  13
HETATM   13  O2  UNL     1      50.725 -43.762  -5.306  1.00  0.00    -0.310 OA
BRANCH  13  14
HETATM   14  C10 UNL     1      51.432 -44.348  -4.239  1.00  0.00     0.060 C 
HETATM   15  C11 UNL     1      52.277 -43.348  -3.481  1.00  0.00     0.045 C 
HETATM   16  C12 UNL     1      52.229 -45.552  -4.658  1.00  0.00     0.045 C 
HETATM   17  C13 UNL     1      50.353 -44.867  -3.283  1.00  0.00     0.045 C 
ENDBRANCH  13  14
ENDBRANCH  11  13
ENDBRANCH   1  11
TORSDOF 4
ENDMDL
MODEL 2
REMARK VINA RESULT: -7.473119591      1.557      1.883
REMARK  4 active torsions:
REMARK  status: ('A' for Active; 'I' for Inactive)
REMARK    1  A    between atoms: C5_5  and  C6_6 
REMARK    2  A    between atoms: C6_6  and  C9_9 
REMARK    3  A    between atoms: C9_9  and  O2_11 
REMARK    4  A    between atoms: O2_11  and  C10_12 
ROOT
HETATM    1  C6  UNL     1      50.609 -43.746  -8.421  1.00  0.00     0.079 C 
HETATM    2  C7  UNL     1      50.037 -42.685  -9.371  1.00  0.00     0.032 C 
HETATM    3  C8  UNL     1      49.484 -44.535  -7.816  1.00  0.00     0.032 C 
ENDROOT
BRANCH   1   4
HETATM    4  C5  UNL     1      51.459 -44.632  -9.300  1.00  0.00     0.003 A 
HETATM    5  C4  UNL     1      51.685 -46.090  -9.272  1.00  0.00     0.083 A 
HETATM    6  C2  UNL     1      52.548 -45.712 -10.440  1.00  0.00     0.027 A 
HETATM    7  C1  UNL     1      52.085 -46.233 -11.785  1.00  0.00     0.038 C 
HETATM    8  C3  UNL     1      54.018 -46.019 -10.158  1.00  0.00     0.038 C 
HETATM    9  N1  UNL     1      52.202 -44.346 -10.296  1.00  0.00    -0.386 N 
ATOM     10  H1  UNL     1      52.445 -43.487 -10.788  1.00  0.00     0.160 HD
ENDBRANCH   1   4
BRANCH   1  11
HETATM   11  C9  UNL     1      51.420 -43.039  -7.407  1.00  0.00     0.273 C 
HETATM   12  O1  UNL     1      52.428 -42.338  -7.647  1.00  0.00    -0.264 OA
BRANCH  11  13
HETATM   13  O2  UNL     1      51.048 -43.154  -6.083  1.00  0.00    -0.310 OA
BRANCH  13  14
HETATM   14  C10 UNL     1      51.884 -43.804  -5.156  1.00  0.00     0.060 C 
HETATM   15  C11 UNL     1      52.797 -42.846  -4.423  1.00  0.00     0.045 C 
HETATM   16  C12 UNL     1      52.645 -44.951  -5.761  1.00  0.00     0.045 C 
HETATM   17  C13 UNL     1      50.933 -44.424  -4.127  1.00  0.00     0.045 C 
ENDBRANCH  13  14
ENDBRANCH  11  13
ENDBRANCH   1  11
TORSDOF 4
ENDMDL
MODEL 3
REMARK VINA RESULT: -7.393200395      2.002      5.432
REMARK  4 active torsions:
REMARK  status: ('A' for Active; 'I' for Inactive)
REMARK    1  A    between atoms: C5_5  and  C6_6 
REMARK    2  A    between atoms: C6_6  and  C9_9 
REMARK    3  A    between atoms: C9_9  and  O2_11 
REMARK    4  A    between atoms: O2_11  and  C10_12 
ROOT
HETATM    1  C6  UNL     1      51.800 -44.361  -6.227  1.00  0.00     0.079 C 
HETATM    2  C7  UNL     1      50.287 -44.210  -6.437  1.00  0.00     0.032 C 
HETATM    3  C8  UNL     1      52.415 -43.005  -6.031  1.00  0.00     0.032 C 
ENDROOT
BRANCH   1   4
HETATM    4  C5  UNL     1      51.933 -45.185  -4.968  1.00  0.00     0.003 A 
HETATM    5  C4  UNL     1      51.944 -44.784  -3.548  1.00  0.00     0.083 A 
HETATM    6  C2  UNL     1      52.105 -46.270  -3.404  1.00  0.00     0.027 A 
HETATM    7  C1  UNL     1      50.938 -46.989  -2.758  1.00  0.00     0.038 C 
HETATM    8  C3  UNL     1      53.447 -46.617  -2.762  1.00  0.00     0.038 C 
HETATM    9  N1  UNL     1      52.070 -46.442  -4.810  1.00  0.00    -0.386 N 
ATOM     10  H1  UNL     1      52.129 -47.244  -5.437  1.00  0.00     0.160 HD
ENDBRANCH   1   4
BRANCH   1  11
HETATM   11  C9  UNL     1      52.341 -45.069  -7.405  1.00  0.00     0.273 C 
HETATM   12  O1  UNL     1      51.802 -46.042  -7.977  1.00  0.00    -0.264 OA
BRANCH  11  13
HETATM   13  O2  UNL     1      53.542 -44.632  -7.930  1.00  0.00    -0.310 OA
BRANCH  13  14
HETATM   14  C10 UNL     1      53.661 -44.338  -9.301  1.00  0.00     0.060 C 
HETATM   15  C11 UNL     1      52.367 -43.837  -9.904  1.00  0.00     0.045 C 
HETATM   16  C12 UNL     1      54.245 -45.475 -10.093  1.00  0.00     0.045 C 
HETATM   17  C13 UNL     1      54.684 -43.200  -9.378  1.00  0.00     0.045 C 
ENDBRANCH  13  14
ENDBRANCH  11  13
ENDBRANCH   1  11
TORSDOF 4
ENDMDL
MODEL 4
REMARK VINA RESULT: -7.316813722      1.933      2.668
REMARK  4 active torsions:
REMARK  status: ('A' for Active; 'I' for Inactive)
REMARK    1  A    between atoms: C5_5  and  C6_6 
REMARK    2  A    between atoms: C6_6  and  C9_9 
REMARK    3  A    between atoms: C9_9  and  O2_11 
REMARK    4  A    between atoms: O2_11  and  C10_12 
ROOT
HETATM    1  C6  UNL     1      52.221 -44.463  -5.505  1.00  0.00     0.079 C 
HETATM    2  C7  UNL     1      52.882 -43.351  -4.679  1.00  0.00     0.032 C 
HETATM    3  C8  UNL     1      50.745 -44.201  -5.605  1.00  0.00     0.032 C 
ENDROOT
BRANCH   1   4
HETATM    4  C5  UNL     1      52.865 -44.366  -6.867  1.00  0.00     0.003 A 
HETATM    5  C4  UNL     1      52.289 -44.050  -8.189  1.00  0.00     0.083 A 
HETATM    6  C2  UNL     1      53.726 -44.255  -8.570  1.00  0.00     0.027 A 
HETATM    7  C1  UNL     1      54.451 -43.017  -9.057  1.00  0.00     0.038 C 
HETATM    8  C3  UNL     1      53.879 -45.444  -9.516  1.00  0.00     0.038 C 
HETATM    9  N1  UNL     1      54.077 -44.532  -7.226  1.00  0.00    -0.386 N 
ATOM     10  H1  UNL     1      54.944 -44.767  -6.743  1.00  0.00     0.160 HD
ENDBRANCH   1   4
BRANCH   1  11
HETATM   11  C9  UNL     1      52.529 -45.747  -4.843  1.00  0.00     0.273 C 
HETATM   12  O1  UNL     1      53.655 -46.290  -4.804  1.00  0.00    -0.264 OA
BRANCH  11  13
HETATM   13  O2  UNL     1      51.499 -46.416  -4.210  1.00  0.00    -0.310 OA
BRANCH  13  14
HETATM   14  C10 UNL     1      51.494 -46.564  -2.810  1.00  0.00     0.060 C 
HETATM   15  C11 UNL     1      50.831 -45.403  -2.104  1.00  0.00     0.045 C 
HETATM   16  C12 UNL     1      52.857 -46.858  -2.249  1.00  0.00     0.045 C 
HETATM   17  C13 UNL     1      50.649 -47.815  -2.546  1.00  0.00     0.045 C 
ENDBRANCH  13  14
ENDBRANCH  11  13
ENDBRANCH   1  11
TORSDOF 4
ENDMDL
MODEL 5
REMARK VINA RESULT: -7.314505227      2.274      4.154
REMARK  4 active torsions:
REMARK  status: ('A' for Active; 'I' for Inactive)
REMARK    1  A    between atoms: C5_5  and  C6_6 
REMARK    2  A    between atoms: C6_6  and  C9_9 
REMARK    3  A    between atoms: C9_9  and  O2_11 
REMARK    4  A    between atoms: O2_11  and  C10_12 
ROOT
HETATM    1  C6  UNL     1      51.018 -43.612  -8.156  1.00  0.00     0.079 C 
HETATM    2  C7  UNL     1      51.199 -43.291  -6.666  1.00  0.00     0.032 C 
HETATM    3  C8  UNL     1      50.397 -42.434  -8.850  1.00  0.00     0.032 C 
ENDROOT
BRANCH   1   4
HETATM    4  C5  UNL     1      52.418 -43.847  -8.672  1.00  0.00     0.003 A 
HETATM    5  C4  UNL     1      53.649 -44.261  -7.971  1.00  0.00     0.083 A 
HETATM    6  C2  UNL     1      54.173 -44.132  -9.372  1.00  0.00     0.027 A 
HETATM    7  C1  UNL     1      54.609 -45.429 -10.024  1.00  0.00     0.038 C 
HETATM    8  C3  UNL     1      55.233 -43.035  -9.464  1.00  0.00     0.038 C 
HETATM    9  N1  UNL     1      52.896 -43.748  -9.850  1.00  0.00    -0.386 N 
ATOM     10  H1  UNL     1      52.515 -43.497 -10.761  1.00  0.00     0.160 HD
ENDBRANCH   1   4
BRANCH   1  11
HETATM   11  C9  UNL     1      50.188 -44.831  -8.247  1.00  0.00     0.273 C 
HETATM   12  O1  UNL     1      48.962 -44.892  -8.009  1.00  0.00    -0.264 OA
BRANCH  11  13
HETATM   13  O2  UNL     1      50.803 -46.009  -8.624  1.00  0.00    -0.310 OA
BRANCH  13  14
HETATM   14  C10 UNL     1      50.437 -46.659  -9.818  1.00  0.00     0.060 C 
HETATM   15  C11 UNL     1      50.288 -45.703 -10.980  1.00  0.00     0.045 C 
HETATM   16  C12 UNL     1      49.227 -47.538  -9.656  1.00  0.00     0.045 C 
HETATM   17  C13 UNL     1      51.604 -47.601 -10.133  1.00  0.00     0.045 C 
ENDBRANCH  13  14
ENDBRANCH  11  13
ENDBRANCH   1  11
TORSDOF 4
ENDMDL
