MODEL 1
REMARK VINA RESULT: -8.059628998      0.000      0.000
REMARK  1 active torsions:
REMARK  status: ('A' for Active; 'I' for Inactive)
REMARK    1  A    between atoms: C3_3  and  C5_5 
ROOT
HETATM    1  C5  UNL     1      51.940 -45.314  -8.359  1.00  0.00     0.178 C 
HETATM    2  O1  UNL     1      51.412 -45.605  -7.115  1.00  0.00    -0.354 OA
HETATM    3  C6  UNL     1      52.155 -45.000  -6.149  1.00  0.00     0.056 C 
HETATM    4  C7  UNL     1      51.534 -43.747  -5.580  1.00  0.00     0.045 C 
HETATM    5  C8  UNL     1      52.287 -45.985  -4.979  1.00  0.00     0.045 C 
HETATM    6  C9  UNL     1      53.544 -44.779  -6.681  1.00  0.00     0.048 C 
HETATM    7  C10 UNL     1      53.343 -44.802  -8.155  1.00  0.00     0.067 C 
HETATM    8  C11 UNL     1      53.336 -43.448  -8.770  1.00  0.00     0.136 C 
HETATM    9  C12 UNL     1      54.624 -43.106  -9.478  1.00  0.00     0.040 C 
HETATM   10  O2  UNL     1      52.234 -43.476  -9.654  1.00  0.00    -0.313 OA
HETATM   11  C13 UNL     1      51.246 -44.197  -9.023  1.00  0.00     0.299 C 
HETATM   12  O3  UNL     1      50.024 -43.955  -9.016  1.00  0.00    -0.261 OA
ENDROOT
BRANCH   1  13
HETATM   13  C3  UNL     1      51.923 -46.492  -9.259  1.00  0.00    -0.043 C 
HETATM   14  C2  UNL     1      51.047 -47.454  -9.082  1.00  0.00    -0.025 C 
HETATM   15  C1  UNL     1      51.008 -48.637  -9.970  1.00  0.00     0.036 C 
HETATM   16  C4  UNL     1      52.902 -46.620 -10.400  1.00  0.00     0.047 C 
ENDBRANCH   1  13
TORSDOF 1
ENDMDL
MODEL 2
REMARK VINA RESULT: -7.732726203      1.272      4.106
REMARK  1 active torsions:
REMARK  status: ('A' for Active; 'I' for Inactive)
REMARK    1  A    between atoms: C3_3  and  C5_5 
ROOT
HETATM    1  C5  UNL     1      51.252 -44.908  -7.938  1.00  0.00     0.178 C 
HETATM    2  O1  UNL     1      51.871 -43.773  -8.431  1.00  0.00    -0.354 OA
HETATM    3  C6  UNL     1      52.480 -44.060  -9.613  1.00  0.00     0.056 C 
HETATM    4  C7  UNL     1      51.726 -43.589 -10.832  1.00  0.00     0.045 C 
HETATM    5  C8  UNL     1      53.828 -43.329  -9.630  1.00  0.00     0.045 C 
HETATM    6  C9  UNL     1      52.790 -45.532  -9.647  1.00  0.00     0.048 C 
HETATM    7  C10 UNL     1      51.829 -46.097  -8.662  1.00  0.00     0.067 C 
HETATM    8  C11 UNL     1      50.653 -46.751  -9.295  1.00  0.00     0.136 C 
HETATM    9  C12 UNL     1      50.733 -48.257  -9.294  1.00  0.00     0.040 C 
HETATM   10  O2  UNL     1      49.551 -46.275  -8.549  1.00  0.00    -0.313 OA
HETATM   11  C13 UNL     1      49.816 -44.956  -8.259  1.00  0.00     0.299 C 
HETATM   12  O3  UNL     1      49.010 -44.006  -8.267  1.00  0.00    -0.261 OA
ENDROOT
BRANCH   1  13
HETATM   13  C3  UNL     1      51.420 -45.038  -6.470  1.00  0.00    -0.043 C 
HETATM   14  C2  UNL     1      52.211 -45.957  -5.967  1.00  0.00    -0.025 C 
HETATM   15  C1  UNL     1      52.397 -46.103  -4.506  1.00  0.00     0.036 C 
HETATM   16  C4  UNL     1      50.693 -44.123  -5.516  1.00  0.00     0.047 C 
ENDBRANCH   1  13
TORSDOF 1
ENDMDL
MODEL 3
REMARK VINA RESULT: -7.715348370      1.701      3.275
REMARK  1 active torsions:
REMARK  status: ('A' for Active; 'I' for Inactive)
REMARK    1  A    between atoms: C3_3  and  C5_5 
ROOT
HETATM    1  C5  UNL     1      52.434 -44.202  -7.990  1.00  0.00     0.178 C 
HETATM    2  O1  UNL     1      52.720 -44.412  -6.653  1.00  0.00    -0.354 OA
HETATM    3  C6  UNL     1      51.945 -43.598  -5.885  1.00  0.00     0.056 C 
HETATM    4  C7  UNL     1      50.768 -44.287  -5.241  1.00  0.00     0.045 C 
HETATM    5  C8  UNL     1      52.818 -43.072  -4.739  1.00  0.00     0.045 C 
HETATM    6  C9  UNL     1      51.549 -42.401  -6.706  1.00  0.00     0.048 C 
HETATM    7  C10 UNL     1      51.701 -42.891  -8.102  1.00  0.00     0.067 C 
HETATM    8  C11 UNL     1      50.408 -43.244  -8.746  1.00  0.00     0.136 C 
HETATM    9  C12 UNL     1      49.920 -42.201  -9.722  1.00  0.00     0.040 C 
HETATM   10  O2  UNL     1      50.663 -44.483  -9.377  1.00  0.00    -0.313 OA
HETATM   11  C13 UNL     1      51.484 -45.191  -8.528  1.00  0.00     0.299 C 
HETATM   12  O3  UNL     1      51.432 -46.409  -8.271  1.00  0.00    -0.261 OA
ENDROOT
BRANCH   1  13
HETATM   13  C3  UNL     1      53.658 -44.209  -8.826  1.00  0.00    -0.043 C 
HETATM   14  C2  UNL     1      54.457 -43.167  -8.849  1.00  0.00    -0.025 C 
HETATM   15  C1  UNL     1      55.686 -43.153  -9.674  1.00  0.00     0.036 C 
HETATM   16  C4  UNL     1      54.023 -45.406  -9.670  1.00  0.00     0.047 C 
ENDBRANCH   1  13
TORSDOF 1
ENDMDL
MODEL 4
REMARK VINA RESULT: -7.621688307      1.328      4.175
REMARK  1 active torsions:
REMARK  status: ('A' for Active; 'I' for Inactive)
REMARK    1  A    between atoms: C3_3  and  C5_5 
ROOT
HETATM    1  C5  UNL     1      51.234 -44.859  -7.923  1.00  0.00     0.178 C 
HETATM    2  O1  UNL     1      51.861 -43.731  -8.422  1.00  0.00    -0.354 OA
HETATM    3  C6  UNL     1      52.496 -44.037  -9.586  1.00  0.00     0.056 C 
HETATM    4  C7  UNL     1      51.767 -43.586 -10.828  1.00  0.00     0.045 C 
HETATM    5  C8  UNL     1      53.844 -43.303  -9.586  1.00  0.00     0.045 C 
HETATM    6  C9  UNL     1      52.809 -45.508  -9.589  1.00  0.00     0.048 C 
HETATM    7  C10 UNL     1      51.828 -46.058  -8.616  1.00  0.00     0.067 C 
HETATM    8  C11 UNL     1      50.666 -46.724  -9.263  1.00  0.00     0.136 C 
HETATM    9  C12 UNL     1      50.747 -48.231  -9.235  1.00  0.00     0.040 C 
HETATM   10  O2  UNL     1      49.548 -46.239  -8.548  1.00  0.00    -0.313 OA
HETATM   11  C13 UNL     1      49.805 -44.915  -8.274  1.00  0.00     0.299 C 
HETATM   12  O3  UNL     1      48.998 -43.966  -8.315  1.00  0.00    -0.261 OA
ENDROOT
BRANCH   1  13
HETATM   13  C3  UNL     1      51.371 -44.965  -6.451  1.00  0.00    -0.043 C 
HETATM   14  C2  UNL     1      50.684 -44.175  -5.658  1.00  0.00    -0.025 C 
HETATM   15  C1  UNL     1      50.801 -44.264  -4.186  1.00  0.00     0.036 C 
HETATM   16  C4  UNL     1      52.295 -45.978  -5.821  1.00  0.00     0.047 C 
ENDBRANCH   1  13
TORSDOF 1
ENDMDL
MODEL 5
REMARK VINA RESULT: -7.620413758      1.772      2.425
REMARK  1 active torsions:
REMARK  status: ('A' for Active; 'I' for Inactive)
REMARK    1  A    between atoms: C3_3  and  C5_5 
ROOT
HETATM    1  C5  UNL     1      50.878 -45.985  -9.487  1.00  0.00     0.178 C 
HETATM    2  O1  UNL     1      50.076 -45.173  -8.705  1.00  0.00    -0.354 OA
HETATM    3  C6  UNL     1      50.854 -44.331  -7.972  1.00  0.00     0.056 C 
HETATM    4  C7  UNL     1      50.922 -42.923  -8.507  1.00  0.00     0.045 C 
HETATM    5  C8  UNL     1      50.236 -44.231  -6.571  1.00  0.00     0.045 C 
HETATM    6  C9  UNL     1      52.209 -44.961  -7.798  1.00  0.00     0.048 C 
HETATM    7  C10 UNL     1      52.277 -45.922  -8.931  1.00  0.00     0.067 C 
HETATM    8  C11 UNL     1      53.105 -45.435 -10.066  1.00  0.00     0.136 C 
HETATM    9  C12 UNL     1      54.471 -46.074 -10.129  1.00  0.00     0.040 C 
HETATM   10  O2  UNL     1      52.328 -45.729 -11.210  1.00  0.00    -0.313 OA
HETATM   11  C13 UNL     1      51.018 -45.485 -10.865  1.00  0.00     0.299 C 
HETATM   12  O3  UNL     1      50.139 -44.955 -11.571  1.00  0.00    -0.261 OA
ENDROOT
BRANCH   1  13
HETATM   13  C3  UNL     1      50.379 -47.380  -9.531  1.00  0.00    -0.043 C 
HETATM   14  C2  UNL     1      49.094 -47.626  -9.641  1.00  0.00    -0.025 C 
HETATM   15  C1  UNL     1      48.573 -49.010  -9.691  1.00  0.00     0.036 C 
HETATM   16  C4  UNL     1      51.325 -48.553  -9.455  1.00  0.00     0.047 C 
ENDBRANCH   1  13
TORSDOF 1
ENDMDL
