MODEL 1
REMARK VINA RESULT: -6.649962123      0.000      0.000
REMARK  4 active torsions:
REMARK  status: ('A' for Active; 'I' for Inactive)
REMARK    1  A    between atoms: N2_9  and  O1_11 
REMARK    2  A    between atoms: C8_18  and  O3_19 
REMARK    3  A    between atoms: C10_22  and  C11_23 
REMARK    4  A    between atoms: C14_26  and  O4_27 
ROOT
HETATM    1  C1  UNL     1       6.822  32.075  27.900  1.00  0.00     0.046 C 
HETATM    2  C2  UNL     1       5.751  31.056  27.629  1.00  0.00     0.235 C 
HETATM    3  N1  UNL     1       5.723  30.647  26.235  1.00  0.00    -0.014 N 
ATOM      4  H11 UNL     1       6.563  30.178  25.900  1.00  0.00     0.283 HD
ATOM      5  H12 UNL     1       5.767  31.407  25.556  1.00  0.00     0.283 HD
HETATM    6  C3  UNL     1       4.522  29.860  26.200  1.00  0.00     0.313 C 
HETATM    7  C4  UNL     1       3.521  30.786  26.904  1.00  0.00     0.150 C 
HETATM    8  C5  UNL     1       4.387  31.600  27.787  1.00  0.00     0.046 C 
HETATM    9  N2  UNL     1       4.067  32.578  28.546  1.00  0.00    -0.275 N 
ATOM     10  H2  UNL     1       4.796  33.032  29.094  1.00  0.00     0.193 HD
HETATM   11  N3  UNL     1       4.098  29.502  24.885  1.00  0.00    -0.333 N 
ATOM     12  H3  UNL     1       3.370  30.026  24.400  1.00  0.00     0.164 HD
HETATM   13  C6  UNL     1       4.737  28.380  24.276  1.00  0.00     0.068 A 
HETATM   14  C7  UNL     1       4.799  27.826  23.031  1.00  0.00     0.174 A 
HETATM   15  O2  UNL     1       5.567  26.761  23.058  1.00  0.00    -0.298 OA
HETATM   16  C8  UNL     1       6.026  26.582  24.287  1.00  0.00     0.194 A 
HETATM   17  C9  UNL     1       5.526  27.586  25.098  1.00  0.00     0.063 A 
HETATM   18  C10 UNL     1       5.693  27.901  26.559  1.00  0.00     0.216 C 
HETATM   19  O5  UNL     1       4.650  28.726  26.963  1.00  0.00    -0.321 OA
ENDROOT
BRANCH  18  20
HETATM   20  C11 UNL     1       5.578  26.649  27.360  1.00  0.00     0.045 A 
HETATM   21  C12 UNL     1       4.471  26.240  28.071  1.00  0.00     0.032 A 
HETATM   22  C13 UNL     1       4.813  25.037  28.650  1.00  0.00     0.058 A 
HETATM   23  C14 UNL     1       6.098  24.708  28.307  1.00  0.00     0.140 A 
HETATM   24  N4  UNL     1       6.547  25.699  27.522  1.00  0.00    -0.338 N 
ATOM     25  H4  UNL     1       7.478  25.738  27.107  1.00  0.00     0.168 HD
BRANCH  23  26
HETATM   26  O4  UNL     1       6.847  23.578  28.672  1.00  0.00    -0.346 OA
ATOM     27  H4  UNL     1       6.771  22.685  28.357  1.00  0.00     0.219 HD
ENDBRANCH  23  26
ENDBRANCH  18  20
BRANCH   9  28
HETATM   28  O1  UNL     1       2.776  33.040  28.650  1.00  0.00    -0.290 OA
ATOM     29  H1  UNL     1       2.562  33.861  29.076  1.00  0.00     0.244 HD
ENDBRANCH   9  28
BRANCH  16  30
HETATM   30  O3  UNL     1       6.872  25.564  24.732  1.00  0.00    -0.340 OA
ATOM     31  H3  UNL     1       6.642  24.825  25.282  1.00  0.00     0.220 HD
ENDBRANCH  16  30
TORSDOF 4
ENDMDL
MODEL 2
REMARK VINA RESULT: -6.649704569      2.477      3.790
REMARK  4 active torsions:
REMARK  status: ('A' for Active; 'I' for Inactive)
REMARK    1  A    between atoms: N2_9  and  O1_11 
REMARK    2  A    between atoms: C8_18  and  O3_19 
REMARK    3  A    between atoms: C10_22  and  C11_23 
REMARK    4  A    between atoms: C14_26  and  O4_27 
ROOT
HETATM    1  C1  UNL     1       6.387  31.058  28.234  1.00  0.00     0.046 C 
HETATM    2  C2  UNL     1       5.425  29.927  28.002  1.00  0.00     0.235 C 
HETATM    3  N1  UNL     1       6.088  28.737  27.498  1.00  0.00    -0.014 N 
ATOM      4  H11 UNL     1       6.772  28.318  28.128  1.00  0.00     0.283 HD
ATOM      5  H12 UNL     1       6.750  28.894  26.738  1.00  0.00     0.283 HD
HETATM    6  C3  UNL     1       4.962  27.907  27.173  1.00  0.00     0.313 C 
HETATM    7  C4  UNL     1       4.084  28.875  26.369  1.00  0.00     0.150 C 
HETATM    8  C5  UNL     1       4.472  30.199  26.905  1.00  0.00     0.046 C 
HETATM    9  N2  UNL     1       4.090  31.360  26.532  1.00  0.00    -0.275 N 
ATOM     10  H2  UNL     1       4.461  32.177  27.016  1.00  0.00     0.193 HD
HETATM   11  N3  UNL     1       5.298  26.735  26.430  1.00  0.00    -0.333 N 
ATOM     12  H3  UNL     1       5.192  26.699  25.416  1.00  0.00     0.164 HD
HETATM   13  C6  UNL     1       5.788  25.615  27.166  1.00  0.00     0.068 A 
HETATM   14  C7  UNL     1       6.389  24.423  26.880  1.00  0.00     0.174 A 
HETATM   15  O2  UNL     1       6.625  23.768  27.995  1.00  0.00    -0.298 OA
HETATM   16  C8  UNL     1       6.200  24.485  29.024  1.00  0.00     0.194 A 
HETATM   17  C9  UNL     1       5.661  25.668  28.548  1.00  0.00     0.063 A 
HETATM   18  C10 UNL     1       5.034  26.853  29.228  1.00  0.00     0.216 C 
HETATM   19  O5  UNL     1       4.267  27.549  28.301  1.00  0.00    -0.321 OA
ENDROOT
BRANCH  18  20
HETATM   20  C11 UNL     1       4.097  26.388  30.289  1.00  0.00     0.045 A 
HETATM   21  C12 UNL     1       3.534  27.170  31.275  1.00  0.00     0.032 A 
HETATM   22  C13 UNL     1       2.742  26.327  32.024  1.00  0.00     0.058 A 
HETATM   23  C14 UNL     1       2.811  25.056  31.517  1.00  0.00     0.140 A 
HETATM   24  N4  UNL     1       3.639  25.112  30.463  1.00  0.00    -0.338 N 
ATOM     25  H4  UNL     1       3.890  24.317  29.876  1.00  0.00     0.168 HD
BRANCH  23  26
HETATM   26  O4  UNL     1       2.169  23.891  31.967  1.00  0.00    -0.346 OA
ATOM     27  H4  UNL     1       2.482  23.235  32.579  1.00  0.00     0.219 HD
ENDBRANCH  23  26
ENDBRANCH  18  20
BRANCH   9  28
HETATM   28  O1  UNL     1       3.199  31.549  25.502  1.00  0.00    -0.290 OA
ATOM     29  H1  UNL     1       2.550  32.242  25.510  1.00  0.00     0.244 HD
ENDBRANCH   9  28
BRANCH  16  30
HETATM   30  O3  UNL     1       6.267  24.142  30.376  1.00  0.00    -0.340 OA
ATOM     31  H3  UNL     1       6.935  23.620  30.803  1.00  0.00     0.220 HD
ENDBRANCH  16  30
TORSDOF 4
ENDMDL
MODEL 3
REMARK VINA RESULT: -6.619052938      2.252      5.351
REMARK  4 active torsions:
REMARK  status: ('A' for Active; 'I' for Inactive)
REMARK    1  A    between atoms: N2_9  and  O1_11 
REMARK    2  A    between atoms: C8_18  and  O3_19 
REMARK    3  A    between atoms: C10_22  and  C11_23 
REMARK    4  A    between atoms: C14_26  and  O4_27 
ROOT
HETATM    1  C1  UNL     1       8.200  26.905  29.821  1.00  0.00     0.046 C 
HETATM    2  C2  UNL     1       6.943  26.673  29.031  1.00  0.00     0.235 C 
HETATM    3  N1  UNL     1       6.068  27.833  29.040  1.00  0.00    -0.014 N 
ATOM      4  H11 UNL     1       6.450  28.672  28.605  1.00  0.00     0.283 HD
ATOM      5  H12 UNL     1       5.922  28.264  29.953  1.00  0.00     0.283 HD
HETATM    6  C3  UNL     1       4.889  27.297  28.417  1.00  0.00     0.313 C 
HETATM    7  C4  UNL     1       4.688  25.993  29.199  1.00  0.00     0.150 C 
HETATM    8  C5  UNL     1       6.061  25.655  29.640  1.00  0.00     0.046 C 
HETATM    9  N2  UNL     1       6.451  24.696  30.389  1.00  0.00    -0.275 N 
ATOM     10  H2  UNL     1       7.445  24.608  30.595  1.00  0.00     0.193 HD
HETATM   11  N3  UNL     1       3.751  28.155  28.490  1.00  0.00    -0.333 N 
ATOM     12  H3  UNL     1       3.030  28.022  29.200  1.00  0.00     0.164 HD
HETATM   13  C6  UNL     1       3.664  29.208  27.530  1.00  0.00     0.068 A 
HETATM   14  C7  UNL     1       2.906  30.328  27.349  1.00  0.00     0.174 A 
HETATM   15  O2  UNL     1       3.280  30.942  26.250  1.00  0.00    -0.298 OA
HETATM   16  C8  UNL     1       4.270  30.267  25.685  1.00  0.00     0.194 A 
HETATM   17  C9  UNL     1       4.550  29.157  26.462  1.00  0.00     0.063 A 
HETATM   18  C10 UNL     1       5.549  28.041  26.331  1.00  0.00     0.216 C 
HETATM   19  O5  UNL     1       5.128  26.967  27.106  1.00  0.00    -0.321 OA
ENDROOT
BRANCH  18  20
HETATM   20  C11 UNL     1       5.584  27.559  24.921  1.00  0.00     0.045 A 
HETATM   21  C12 UNL     1       6.553  26.753  24.364  1.00  0.00     0.032 A 
HETATM   22  C13 UNL     1       6.180  26.563  23.050  1.00  0.00     0.058 A 
HETATM   23  C14 UNL     1       5.012  27.234  22.800  1.00  0.00     0.140 A 
HETATM   24  N4  UNL     1       4.664  27.833  23.948  1.00  0.00    -0.338 N 
ATOM     25  H4  UNL     1       3.833  28.410  24.077  1.00  0.00     0.168 HD
BRANCH  23  26
HETATM   26  O4  UNL     1       4.280  27.315  21.604  1.00  0.00    -0.346 OA
ATOM     27  H4  UNL     1       3.964  26.612  21.049  1.00  0.00     0.219 HD
ENDBRANCH  23  26
ENDBRANCH  18  20
BRANCH   9  28
HETATM   28  O1  UNL     1       5.580  23.778  30.927  1.00  0.00    -0.290 OA
ATOM     29  H1  UNL     1       4.660  23.970  31.065  1.00  0.00     0.244 HD
ENDBRANCH   9  28
BRANCH  16  30
HETATM   30  O3  UNL     1       4.944  30.588  24.504  1.00  0.00    -0.340 OA
ATOM     31  H3  UNL     1       5.827  30.338  24.262  1.00  0.00     0.220 HD
ENDBRANCH  16  30
TORSDOF 4
ENDMDL
MODEL 4
REMARK VINA RESULT: -6.532702375      2.550      4.759
REMARK  4 active torsions:
REMARK  status: ('A' for Active; 'I' for Inactive)
REMARK    1  A    between atoms: N2_9  and  O1_11 
REMARK    2  A    between atoms: C8_18  and  O3_19 
REMARK    3  A    between atoms: C10_22  and  C11_23 
REMARK    4  A    between atoms: C14_26  and  O4_27 
ROOT
HETATM    1  C1  UNL     1       5.398  30.455  26.466  1.00  0.00     0.046 C 
HETATM    2  C2  UNL     1       4.999  29.017  26.651  1.00  0.00     0.235 C 
HETATM    3  N1  UNL     1       6.145  28.156  26.884  1.00  0.00    -0.014 N 
ATOM      4  H11 UNL     1       6.671  28.349  27.735  1.00  0.00     0.283 HD
ATOM      5  H12 UNL     1       6.934  28.300  26.254  1.00  0.00     0.283 HD
HETATM    6  C3  UNL     1       5.534  26.857  26.818  1.00  0.00     0.313 C 
HETATM    7  C4  UNL     1       4.715  26.962  25.525  1.00  0.00     0.150 C 
HETATM    8  C5  UNL     1       4.441  28.413  25.423  1.00  0.00     0.046 C 
HETATM    9  N2  UNL     1       3.850  29.055  24.488  1.00  0.00    -0.275 N 
ATOM     10  H2  UNL     1       3.745  30.065  24.578  1.00  0.00     0.193 HD
HETATM   11  N3  UNL     1       6.466  25.776  26.784  1.00  0.00    -0.333 N 
ATOM     12  H3  UNL     1       6.728  25.328  25.906  1.00  0.00     0.164 HD
HETATM   13  C6  UNL     1       7.017  25.349  28.030  1.00  0.00     0.068 A 
HETATM   14  C7  UNL     1       8.034  24.538  28.441  1.00  0.00     0.174 A 
HETATM   15  O2  UNL     1       8.079  24.517  29.754  1.00  0.00    -0.298 OA
HETATM   16  C8  UNL     1       7.120  25.292  30.240  1.00  0.00     0.194 A 
HETATM   17  C9  UNL     1       6.418  25.843  29.182  1.00  0.00     0.063 A 
HETATM   18  C10 UNL     1       5.246  26.782  29.110  1.00  0.00     0.216 C 
HETATM   19  O5  UNL     1       4.656  26.669  27.856  1.00  0.00    -0.321 OA
ENDROOT
BRANCH  18  20
HETATM   20  C11 UNL     1       4.213  26.374  30.103  1.00  0.00     0.045 A 
HETATM   21  C12 UNL     1       3.477  27.223  30.902  1.00  0.00     0.032 A 
HETATM   22  C13 UNL     1       2.652  26.415  31.656  1.00  0.00     0.058 A 
HETATM   23  C14 UNL     1       2.871  25.102  31.333  1.00  0.00     0.140 A 
HETATM   24  N4  UNL     1       3.822  25.096  30.388  1.00  0.00    -0.338 N 
ATOM     25  H4  UNL     1       4.200  24.258  29.945  1.00  0.00     0.168 HD
BRANCH  23  26
HETATM   26  O4  UNL     1       2.255  23.952  31.852  1.00  0.00    -0.346 OA
ATOM     27  H4  UNL     1       1.423  23.872  32.304  1.00  0.00     0.219 HD
ENDBRANCH  23  26
ENDBRANCH  18  20
BRANCH   9  28
HETATM   28  O1  UNL     1       3.352  28.435  23.367  1.00  0.00    -0.290 OA
ATOM     29  H1  UNL     1       3.871  28.307  22.583  1.00  0.00     0.244 HD
ENDBRANCH   9  28
BRANCH  16  30
HETATM   30  O3  UNL     1       6.833  25.537  31.584  1.00  0.00    -0.340 OA
ATOM     31  H3  UNL     1       7.265  25.159  32.341  1.00  0.00     0.220 HD
ENDBRANCH  16  30
TORSDOF 4
ENDMDL
MODEL 5
REMARK VINA RESULT: -6.528218813      3.091      7.109
REMARK  4 active torsions:
REMARK  status: ('A' for Active; 'I' for Inactive)
REMARK    1  A    between atoms: N2_9  and  O1_11 
REMARK    2  A    between atoms: C8_18  and  O3_19 
REMARK    3  A    between atoms: C10_22  and  C11_23 
REMARK    4  A    between atoms: C14_26  and  O4_27 
ROOT
HETATM    1  C1  UNL     1       9.232  25.753  29.886  1.00  0.00     0.046 C 
HETATM    2  C2  UNL     1       7.868  25.639  29.265  1.00  0.00     0.235 C 
HETATM    3  N1  UNL     1       6.856  25.254  30.233  1.00  0.00    -0.014 N 
ATOM      4  H11 UNL     1       6.699  25.919  30.989  1.00  0.00     0.283 HD
ATOM      5  H12 UNL     1       7.110  24.479  30.846  1.00  0.00     0.283 HD
HETATM    6  C3  UNL     1       5.728  25.017  29.376  1.00  0.00     0.313 C 
HETATM    7  C4  UNL     1       6.343  24.124  28.290  1.00  0.00     0.150 C 
HETATM    8  C5  UNL     1       7.768  24.525  28.299  1.00  0.00     0.046 C 
HETATM    9  N2  UNL     1       8.743  24.039  27.631  1.00  0.00    -0.275 N 
ATOM     10  H2  UNL     1       9.673  24.437  27.759  1.00  0.00     0.193 HD
HETATM   11  N3  UNL     1       4.622  24.393  30.029  1.00  0.00    -0.333 N 
ATOM     12  H3  UNL     1       4.461  23.388  29.959  1.00  0.00     0.164 HD
HETATM   13  C6  UNL     1       3.750  25.235  30.783  1.00  0.00     0.068 A 
HETATM   14  C7  UNL     1       2.741  25.067  31.686  1.00  0.00     0.174 A 
HETATM   15  O2  UNL     1       2.284  26.240  32.062  1.00  0.00    -0.298 OA
HETATM   16  C8  UNL     1       2.958  27.195  31.439  1.00  0.00     0.194 A 
HETATM   17  C9  UNL     1       3.901  26.605  30.615  1.00  0.00     0.063 A 
HETATM   18  C10 UNL     1       4.936  27.166  29.680  1.00  0.00     0.216 C 
HETATM   19  O5  UNL     1       5.308  26.178  28.776  1.00  0.00    -0.321 OA
ENDROOT
BRANCH  18  20
HETATM   20  C11 UNL     1       4.342  28.273  28.877  1.00  0.00     0.045 A 
HETATM   21  C12 UNL     1       3.731  28.145  27.648  1.00  0.00     0.032 A 
HETATM   22  C13 UNL     1       3.337  29.416  27.286  1.00  0.00     0.058 A 
HETATM   23  C14 UNL     1       3.694  30.306  28.264  1.00  0.00     0.140 A 
HETATM   24  N4  UNL     1       4.304  29.594  29.223  1.00  0.00    -0.338 N 
ATOM     25  H4  UNL     1       4.684  29.983  30.086  1.00  0.00     0.168 HD
BRANCH  23  26
HETATM   26  O4  UNL     1       3.490  31.695  28.309  1.00  0.00    -0.346 OA
ATOM     27  H4  UNL     1       3.416  32.311  27.590  1.00  0.00     0.219 HD
ENDBRANCH  23  26
ENDBRANCH  18  20
BRANCH   9  28
HETATM   28  O1  UNL     1       8.585  22.999  26.745  1.00  0.00    -0.290 OA
ATOM     29  H1  UNL     1       8.954  22.138  26.900  1.00  0.00     0.244 HD
ENDBRANCH   9  28
BRANCH  16  30
HETATM   30  O3  UNL     1       2.778  28.574  31.564  1.00  0.00    -0.340 OA
ATOM     31  H3  UNL     1       2.453  29.043  32.323  1.00  0.00     0.220 HD
ENDBRANCH  16  30
TORSDOF 4
ENDMDL
