MODEL 1
REMARK VINA RESULT: -7.313839738      0.000      0.000
REMARK  6 active torsions:
REMARK  status: ('A' for Active; 'I' for Inactive)
REMARK    1  A    between atoms: C3_3  and  O1_4 
REMARK    2  A    between atoms: C4_7  and  O3_8 
REMARK    3  A    between atoms: C5_10  and  C6_11 
REMARK    4  A    between atoms: C11_16  and  O4_17 
REMARK    5  A    between atoms: N1_20  and  O5_22 
REMARK    6  A    between atoms: C14_28  and  O6_29 
ROOT
HETATM    1  C6  UNL     1       5.705  27.194  25.683  1.00  0.00    -0.030 C 
HETATM    2  C7  UNL     1       5.607  25.924  26.430  1.00  0.00     0.016 C 
HETATM    3  C8  UNL     1       6.834  25.055  26.475  1.00  0.00     0.015 C 
HETATM    4  C9  UNL     1       5.245  26.158  27.894  1.00  0.00     0.013 C 
HETATM    5  C10 UNL     1       4.263  27.245  28.169  1.00  0.00     0.050 C 
HETATM    6  C11 UNL     1       4.488  28.543  27.449  1.00  0.00     0.131 C 
HETATM    7  C12 UNL     1       4.914  29.678  28.287  1.00  0.00     0.095 C 
HETATM    8  N1  UNL     1       4.477  30.106  29.426  1.00  0.00    -0.268 N 
ATOM      9  H1  UNL     1       4.911  30.921  29.860  1.00  0.00     0.194 HD
HETATM   10  C13 UNL     1       6.006  30.348  27.532  1.00  0.00     0.064 C 
HETATM   11  N2  UNL     1       6.789  31.264  27.864  1.00  0.00    -0.398 N 
ATOM     12  H21 UNL     1       7.537  31.725  27.346  1.00  0.00     0.156 HD
ATOM     13  H22 UNL     1       6.770  31.701  28.786  1.00  0.00     0.156 HD
HETATM   14  C14 UNL     1       6.034  29.692  26.146  1.00  0.00     0.202 C 
HETATM   15  C15 UNL     1       5.673  28.343  26.587  1.00  0.00     0.002 C 
ENDROOT
BRANCH   1  16
HETATM   16  C5  UNL     1       5.416  27.283  24.274  1.00  0.00     0.040 A 
HETATM   17  C2  UNL     1       6.075  26.708  23.174  1.00  0.00     0.012 A 
HETATM   18  C1  UNL     1       7.416  26.125  23.188  1.00  0.00     0.054 C 
HETATM   19  C3  UNL     1       5.302  26.896  22.061  1.00  0.00     0.192 A 
HETATM   20  O2  UNL     1       4.218  27.547  22.388  1.00  0.00    -0.264 OA
HETATM   21  C4  UNL     1       4.261  27.781  23.653  1.00  0.00     0.197 A 
BRANCH  19  22
HETATM   22  O1  UNL     1       5.674  26.435  20.788  1.00  0.00    -0.340 OA
ATOM     23  H1  UNL     1       5.766  27.010  20.037  1.00  0.00     0.220 HD
ENDBRANCH  19  22
BRANCH  21  24
HETATM   24  O3  UNL     1       3.213  28.473  24.297  1.00  0.00    -0.340 OA
ATOM     25  H3  UNL     1       3.135  28.466  25.243  1.00  0.00     0.220 HD
ENDBRANCH  21  24
ENDBRANCH   1  16
BRANCH   6  26
HETATM   26  O4  UNL     1       3.351  29.053  26.824  1.00  0.00    -0.379 OA
ATOM     27  H4  UNL     1       2.741  29.480  27.415  1.00  0.00     0.211 HD
ENDBRANCH   6  26
BRANCH  14  28
HETATM   28  O6  UNL     1       5.134  30.391  25.386  1.00  0.00    -0.385 OA
ATOM     29  H6  UNL     1       5.288  31.308  25.584  1.00  0.00     0.210 HD
ENDBRANCH  14  28
BRANCH   8  30
HETATM   30  O5  UNL     1       3.443  29.478  30.050  1.00  0.00    -0.290 OA
ATOM     31  H5  UNL     1       3.167  29.748  30.918  1.00  0.00     0.244 HD
ENDBRANCH   8  30
TORSDOF 6
ENDMDL
MODEL 2
REMARK VINA RESULT: -7.005854426      1.139      1.273
REMARK  6 active torsions:
REMARK  status: ('A' for Active; 'I' for Inactive)
REMARK    1  A    between atoms: C3_3  and  O1_4 
REMARK    2  A    between atoms: C4_7  and  O3_8 
REMARK    3  A    between atoms: C5_10  and  C6_11 
REMARK    4  A    between atoms: C11_16  and  O4_17 
REMARK    5  A    between atoms: N1_20  and  O5_22 
REMARK    6  A    between atoms: C14_28  and  O6_29 
ROOT
HETATM    1  C6  UNL     1       5.111  27.723  25.641  1.00  0.00    -0.030 C 
HETATM    2  C7  UNL     1       4.489  26.737  26.547  1.00  0.00     0.016 C 
HETATM    3  C8  UNL     1       5.374  25.654  27.100  1.00  0.00     0.015 C 
HETATM    4  C9  UNL     1       3.883  27.408  27.778  1.00  0.00     0.013 C 
HETATM    5  C10 UNL     1       3.214  28.721  27.557  1.00  0.00     0.050 C 
HETATM    6  C11 UNL     1       3.958  29.711  26.706  1.00  0.00     0.131 C 
HETATM    7  C12 UNL     1       4.485  30.894  27.410  1.00  0.00     0.095 C 
HETATM    8  N1  UNL     1       3.939  31.681  28.277  1.00  0.00    -0.268 N 
ATOM      9  H1  UNL     1       4.476  32.460  28.661  1.00  0.00     0.194 HD
HETATM   10  C13 UNL     1       5.865  31.089  26.890  1.00  0.00     0.064 C 
HETATM   11  N2  UNL     1       6.778  31.858  27.260  1.00  0.00    -0.398 N 
ATOM     12  H21 UNL     1       7.724  31.992  26.904  1.00  0.00     0.156 HD
ATOM     13  H22 UNL     1       6.674  32.505  28.042  1.00  0.00     0.156 HD
HETATM   14  C14 UNL     1       6.022  30.116  25.715  1.00  0.00     0.202 C 
HETATM   15  C15 UNL     1       5.201  29.039  26.273  1.00  0.00     0.002 C 
ENDROOT
BRANCH   1  16
HETATM   16  C5  UNL     1       5.190  27.517  24.217  1.00  0.00     0.040 A 
HETATM   17  C2  UNL     1       6.046  26.696  23.464  1.00  0.00     0.012 A 
HETATM   18  C1  UNL     1       7.284  26.081  23.944  1.00  0.00     0.054 C 
HETATM   19  C3  UNL     1       5.594  26.668  22.174  1.00  0.00     0.192 A 
HETATM   20  O2  UNL     1       4.526  27.413  22.070  1.00  0.00    -0.264 OA
HETATM   21  C4  UNL     1       4.275  27.911  23.229  1.00  0.00     0.197 A 
BRANCH  19  22
HETATM   22  O1  UNL     1       6.227  25.931  21.159  1.00  0.00    -0.340 OA
ATOM     23  H1  UNL     1       6.240  24.981  21.143  1.00  0.00     0.220 HD
ENDBRANCH  19  22
BRANCH  21  24
HETATM   24  O3  UNL     1       3.167  28.763  23.427  1.00  0.00    -0.340 OA
ATOM     25  H3  UNL     1       3.083  29.277  24.221  1.00  0.00     0.220 HD
ENDBRANCH  21  24
ENDBRANCH   1  16
BRANCH   6  26
HETATM   26  O4  UNL     1       3.186  30.290  25.700  1.00  0.00    -0.379 OA
ATOM     27  H4  UNL     1       3.324  31.224  25.594  1.00  0.00     0.211 HD
ENDBRANCH   6  26
BRANCH  14  28
HETATM   28  O6  UNL     1       5.556  30.786  24.614  1.00  0.00    -0.385 OA
ATOM     29  H6  UNL     1       6.287  30.823  24.007  1.00  0.00     0.210 HD
ENDBRANCH  14  28
BRANCH   8  30
HETATM   30  O5  UNL     1       2.656  31.480  28.683  1.00  0.00    -0.290 OA
ATOM     31  H5  UNL     1       2.433  31.493  29.606  1.00  0.00     0.244 HD
ENDBRANCH   8  30
TORSDOF 6
ENDMDL
MODEL 3
REMARK VINA RESULT: -6.789486745      5.552      7.645
REMARK  6 active torsions:
REMARK  status: ('A' for Active; 'I' for Inactive)
REMARK    1  A    between atoms: C3_3  and  O1_4 
REMARK    2  A    between atoms: C4_7  and  O3_8 
REMARK    3  A    between atoms: C5_10  and  C6_11 
REMARK    4  A    between atoms: C11_16  and  O4_17 
REMARK    5  A    between atoms: N1_20  and  O5_22 
REMARK    6  A    between atoms: C14_28  and  O6_29 
ROOT
HETATM    1  C6  UNL     1       6.121  26.455  31.729  1.00  0.00    -0.030 C 
HETATM    2  C7  UNL     1       7.582  26.655  31.652  1.00  0.00     0.016 C 
HETATM    3  C8  UNL     1       8.080  28.072  31.576  1.00  0.00     0.015 C 
HETATM    4  C9  UNL     1       8.296  26.058  32.862  1.00  0.00     0.013 C 
HETATM    5  C10 UNL     1       7.762  24.765  33.376  1.00  0.00     0.050 C 
HETATM    6  C11 UNL     1       6.270  24.674  33.524  1.00  0.00     0.131 C 
HETATM    7  C12 UNL     1       5.762  24.626  34.907  1.00  0.00     0.095 C 
HETATM    8  N1  UNL     1       6.150  23.940  35.932  1.00  0.00    -0.268 N 
ATOM      9  H1  UNL     1       5.666  24.047  36.824  1.00  0.00     0.194 HD
HETATM   10  C13 UNL     1       4.596  25.548  34.940  1.00  0.00     0.064 C 
HETATM   11  N2  UNL     1       3.911  25.967  35.897  1.00  0.00    -0.398 N 
ATOM     12  H21 UNL     1       3.111  26.599  35.920  1.00  0.00     0.156 HD
ATOM     13  H22 UNL     1       4.091  25.701  36.866  1.00  0.00     0.156 HD
HETATM   14  C14 UNL     1       4.326  25.949  33.485  1.00  0.00     0.202 C 
HETATM   15  C15 UNL     1       5.723  25.962  33.047  1.00  0.00     0.002 C 
ENDROOT
BRANCH   1  16
HETATM   16  C5  UNL     1       5.297  26.333  30.552  1.00  0.00     0.040 A 
HETATM   17  C2  UNL     1       4.555  27.304  29.859  1.00  0.00     0.012 A 
HETATM   18  C1  UNL     1       4.194  28.628  30.364  1.00  0.00     0.054 C 
HETATM   19  C3  UNL     1       4.120  26.757  28.683  1.00  0.00     0.192 A 
HETATM   20  O2  UNL     1       4.534  25.521  28.598  1.00  0.00    -0.264 OA
HETATM   21  C4  UNL     1       5.211  25.254  29.659  1.00  0.00     0.197 A 
BRANCH  19  22
HETATM   22  O1  UNL     1       3.348  27.469  27.750  1.00  0.00    -0.340 OA
ATOM     23  H1  UNL     1       2.711  27.052  27.182  1.00  0.00     0.220 HD
ENDBRANCH  19  22
BRANCH  21  24
HETATM   24  O3  UNL     1       5.791  23.982  29.847  1.00  0.00    -0.340 OA
ATOM     25  H3  UNL     1       5.464  23.391  30.515  1.00  0.00     0.220 HD
ENDBRANCH  21  24
ENDBRANCH   1  16
BRANCH   6  26
HETATM   26  O4  UNL     1       5.712  23.523  32.968  1.00  0.00    -0.379 OA
ATOM     27  H4  UNL     1       4.773  23.448  33.094  1.00  0.00     0.211 HD
ENDBRANCH   6  26
BRANCH  14  28
HETATM   28  O6  UNL     1       3.495  24.982  32.982  1.00  0.00    -0.385 OA
ATOM     29  H6  UNL     1       2.845  25.445  32.466  1.00  0.00     0.210 HD
ENDBRANCH  14  28
BRANCH   8  30
HETATM   30  O5  UNL     1       7.197  23.076  35.830  1.00  0.00    -0.290 OA
ATOM     31  H5  UNL     1       7.428  22.510  36.557  1.00  0.00     0.244 HD
ENDBRANCH   8  30
TORSDOF 6
ENDMDL
MODEL 4
REMARK VINA RESULT: -6.729251653      1.789      2.152
REMARK  6 active torsions:
REMARK  status: ('A' for Active; 'I' for Inactive)
REMARK    1  A    between atoms: C3_3  and  O1_4 
REMARK    2  A    between atoms: C4_7  and  O3_8 
REMARK    3  A    between atoms: C5_10  and  C6_11 
REMARK    4  A    between atoms: C11_16  and  O4_17 
REMARK    5  A    between atoms: N1_20  and  O5_22 
REMARK    6  A    between atoms: C14_28  and  O6_29 
ROOT
HETATM    1  C6  UNL     1       5.918  26.615  26.577  1.00  0.00    -0.030 C 
HETATM    2  C7  UNL     1       6.031  25.150  26.726  1.00  0.00     0.016 C 
HETATM    3  C8  UNL     1       7.229  24.485  26.106  1.00  0.00     0.015 C 
HETATM    4  C9  UNL     1       6.077  24.736  28.195  1.00  0.00     0.013 C 
HETATM    5  C10 UNL     1       5.199  25.500  29.127  1.00  0.00     0.050 C 
HETATM    6  C11 UNL     1       5.215  26.994  28.982  1.00  0.00     0.131 C 
HETATM    7  C12 UNL     1       5.847  27.741  30.085  1.00  0.00     0.095 C 
HETATM    8  N1  UNL     1       5.731  27.624  31.367  1.00  0.00    -0.268 N 
ATOM      9  H1  UNL     1       6.261  28.242  31.981  1.00  0.00     0.194 HD
HETATM   10  C13 UNL     1       6.691  28.779  29.437  1.00  0.00     0.064 C 
HETATM   11  N2  UNL     1       7.530  29.571  29.919  1.00  0.00    -0.398 N 
ATOM     12  H21 UNL     1       8.109  30.283  29.475  1.00  0.00     0.156 HD
ATOM     13  H22 UNL     1       7.758  29.597  30.913  1.00  0.00     0.156 HD
HETATM   14  C14 UNL     1       6.348  28.739  27.943  1.00  0.00     0.202 C 
HETATM   15  C15 UNL     1       6.125  27.294  27.855  1.00  0.00     0.002 C 
ENDROOT
BRANCH   1  16
HETATM   16  C5  UNL     1       5.260  27.226  25.449  1.00  0.00     0.040 A 
HETATM   17  C2  UNL     1       5.613  27.239  24.090  1.00  0.00     0.012 A 
HETATM   18  C1  UNL     1       6.923  26.887  23.542  1.00  0.00     0.054 C 
HETATM   19  C3  UNL     1       4.566  27.754  23.377  1.00  0.00     0.192 A 
HETATM   20  O2  UNL     1       3.593  28.064  24.192  1.00  0.00    -0.264 OA
HETATM   21  C4  UNL     1       3.968  27.771  25.387  1.00  0.00     0.197 A 
BRANCH  19  22
HETATM   22  O1  UNL     1       4.594  27.902  21.980  1.00  0.00    -0.340 OA
ATOM     23  H1  UNL     1       4.981  28.654  21.548  1.00  0.00     0.220 HD
ENDBRANCH  19  22
BRANCH  21  24
HETATM   24  O3  UNL     1       3.116  27.995  26.489  1.00  0.00    -0.340 OA
ATOM     25  H3  UNL     1       3.100  28.836  26.929  1.00  0.00     0.220 HD
ENDBRANCH  21  24
ENDBRANCH   1  16
BRANCH   6  26
HETATM   26  O4  UNL     1       3.950  27.575  28.923  1.00  0.00    -0.379 OA
ATOM     27  H4  UNL     1       3.408  27.255  28.212  1.00  0.00     0.211 HD
ENDBRANCH   6  26
BRANCH  14  28
HETATM   28  O6  UNL     1       5.273  29.574  27.787  1.00  0.00    -0.385 OA
ATOM     29  H6  UNL     1       5.432  30.050  26.980  1.00  0.00     0.210 HD
ENDBRANCH  14  28
BRANCH   8  30
HETATM   30  O5  UNL     1       4.906  26.683  31.904  1.00  0.00    -0.290 OA
ATOM     31  H5  UNL     1       4.509  26.818  32.756  1.00  0.00     0.244 HD
ENDBRANCH   8  30
TORSDOF 6
ENDMDL
MODEL 5
REMARK VINA RESULT: -6.698171438      1.064      1.191
REMARK  6 active torsions:
REMARK  status: ('A' for Active; 'I' for Inactive)
REMARK    1  A    between atoms: C3_3  and  O1_4 
REMARK    2  A    between atoms: C4_7  and  O3_8 
REMARK    3  A    between atoms: C5_10  and  C6_11 
REMARK    4  A    between atoms: C11_16  and  O4_17 
REMARK    5  A    between atoms: N1_20  and  O5_22 
REMARK    6  A    between atoms: C14_28  and  O6_29 
ROOT
HETATM    1  C6  UNL     1       5.584  27.713  26.375  1.00  0.00    -0.030 C 
HETATM    2  C7  UNL     1       5.383  26.432  27.081  1.00  0.00     0.016 C 
HETATM    3  C8  UNL     1       6.428  25.368  26.888  1.00  0.00     0.015 C 
HETATM    4  C9  UNL     1       5.305  26.629  28.593  1.00  0.00     0.013 C 
HETATM    5  C10 UNL     1       4.587  27.846  29.067  1.00  0.00     0.050 C 
HETATM    6  C11 UNL     1       4.921  29.131  28.366  1.00  0.00     0.131 C 
HETATM    7  C12 UNL     1       5.669  30.121  29.162  1.00  0.00     0.095 C 
HETATM    8  N1  UNL     1       5.501  30.542  30.373  1.00  0.00    -0.268 N 
ATOM      9  H1  UNL     1       6.135  31.242  30.757  1.00  0.00     0.194 HD
HETATM   10  C13 UNL     1       6.728  30.645  28.260  1.00  0.00     0.064 C 
HETATM   11  N2  UNL     1       7.704  31.392  28.489  1.00  0.00    -0.398 N 
ATOM     12  H21 UNL     1       8.431  31.752  27.871  1.00  0.00     0.156 HD
ATOM     13  H22 UNL     1       7.909  31.765  29.417  1.00  0.00     0.156 HD
HETATM   14  C14 UNL     1       6.420  30.084  26.866  1.00  0.00     0.202 C 
HETATM   15  C15 UNL     1       5.900  28.790  27.312  1.00  0.00     0.002 C 
ENDROOT
BRANCH   1  16
HETATM   16  C5  UNL     1       5.097  27.941  25.037  1.00  0.00     0.040 A 
HETATM   17  C2  UNL     1       5.490  27.366  23.817  1.00  0.00     0.012 A 
HETATM   18  C1  UNL     1       6.722  26.614  23.583  1.00  0.00     0.054 C 
HETATM   19  C3  UNL     1       4.589  27.734  22.856  1.00  0.00     0.192 A 
HETATM   20  O2  UNL     1       3.670  28.494  23.389  1.00  0.00    -0.264 OA
HETATM   21  C4  UNL     1       3.941  28.629  24.639  1.00  0.00     0.197 A 
BRANCH  19  22
HETATM   22  O1  UNL     1       4.691  27.321  21.518  1.00  0.00    -0.340 OA
ATOM     23  H1  UNL     1       4.525  27.902  20.785  1.00  0.00     0.220 HD
ENDBRANCH  19  22
BRANCH  21  24
HETATM   24  O3  UNL     1       3.113  29.403  25.480  1.00  0.00    -0.340 OA
ATOM     25  H3  UNL     1       2.479  30.009  25.115  1.00  0.00     0.220 HD
ENDBRANCH  21  24
ENDBRANCH   1  16
BRANCH   6  26
HETATM   26  O4  UNL     1       3.808  29.865  27.960  1.00  0.00    -0.379 OA
ATOM     27  H4  UNL     1       4.018  30.640  27.453  1.00  0.00     0.211 HD
ENDBRANCH   6  26
BRANCH  14  28
HETATM   28  O6  UNL     1       5.550  30.973  26.293  1.00  0.00    -0.385 OA
ATOM     29  H6  UNL     1       4.846  30.447  25.930  1.00  0.00     0.210 HD
ENDBRANCH  14  28
BRANCH   8  30
HETATM   30  O5  UNL     1       4.484  30.058  31.138  1.00  0.00    -0.290 OA
ATOM     31  H5  UNL     1       4.404  30.310  32.051  1.00  0.00     0.244 HD
ENDBRANCH   8  30
TORSDOF 6
ENDMDL
