MODEL 1
REMARK VINA RESULT: -7.123263268      0.000      0.000
REMARK  14 active torsions:
REMARK  status: ('A' for Active; 'I' for Inactive)
REMARK    1  A    between atoms: C2_2  and  C4_4 
REMARK    2  A    between atoms: C4_4  and  C5_5 
REMARK    3  A    between atoms: C5_5  and  N1_7 
REMARK       I    between atoms: N1_7  and  C7_9 
REMARK    4  A    between atoms: C7_9  and  C8_11 
REMARK    5  A    between atoms: C9_12  and  C10_13 
REMARK       I    between atoms: N3_16  and  C11_17 
REMARK    6  A    between atoms: C11_17  and  C12_19 
REMARK    7  A    between atoms: C12_19  and  C13_20 
REMARK    8  A    between atoms: C12_19  and  N4_24 
REMARK    9  A    between atoms: C13_20  and  C14_21 
REMARK       I    between atoms: N4_24  and  C17_26 
REMARK   10  A    between atoms: C17_26  and  O5_28 
REMARK   11  A    between atoms: O5_28  and  C18_29 
REMARK   12  A    between atoms: C22_33  and  C23_34 
REMARK   13  A    between atoms: C23_34  and  O7_36 
REMARK   14  A    between atoms: O7_36  and  C24_37 
ROOT
HETATM    1  C8  UNL     1      -3.371 -40.050  17.960  1.00  0.00     0.142 C 
HETATM    2  C9  UNL     1      -3.430 -41.467  17.507  1.00  0.00     0.193 C 
HETATM    3  N3  UNL     1      -2.215 -41.325  16.822  1.00  0.00    -0.321 N 
HETATM    4  C11 UNL     1      -1.400 -42.109  15.955  1.00  0.00     0.244 C 
HETATM    5  O3  UNL     1      -0.380 -41.630  15.396  1.00  0.00    -0.271 OA
HETATM    6  C22 UNL     1      -2.008 -40.041  17.401  1.00  0.00     0.203 C 
ENDROOT
BRANCH   2   7
HETATM    7  C10 UNL     1      -4.662 -41.737  16.690  1.00  0.00     0.255 C 
HETATM    8  N2  UNL     1      -4.808 -41.179  15.413  1.00  0.00    -0.060 NA
HETATM    9  O2  UNL     1      -5.541 -42.461  17.179  1.00  0.00    -0.275 OA
ENDBRANCH   2   7
BRANCH   4  10
HETATM   10  C12 UNL     1      -1.695 -43.559  15.643  1.00  0.00     0.179 C 
BRANCH  10  11
HETATM   11  C13 UNL     1      -1.419 -44.299  16.936  1.00  0.00     0.038 C 
BRANCH  11  12
HETATM   12  C14 UNL     1      -0.309 -45.269  16.939  1.00  0.00    -0.020 C 
HETATM   13  C15 UNL     1      -0.542 -46.650  17.405  1.00  0.00     0.009 C 
HETATM   14  C16 UNL     1       0.926 -44.737  17.673  1.00  0.00     0.009 C 
ENDBRANCH  11  12
ENDBRANCH  10  11
BRANCH  10  15
HETATM   15  N4  UNL     1      -0.886 -43.987  14.535  1.00  0.00    -0.324 N 
HETATM   16  C17 UNL     1      -1.286 -44.515  13.304  1.00  0.00     0.362 C 
HETATM   17  O4  UNL     1      -2.476 -44.701  12.950  1.00  0.00    -0.238 OA
ATOM     18  H4  UNL     1       0.121 -43.893  14.664  1.00  0.00     0.165 HD
BRANCH  16  19
HETATM   19  O5  UNL     1      -0.333 -44.897  12.329  1.00  0.00    -0.294 OA
BRANCH  19  20
HETATM   20  C18 UNL     1       0.129 -46.227  12.246  1.00  0.00     0.061 C 
HETATM   21  C19 UNL     1       1.623 -46.170  11.942  1.00  0.00     0.046 C 
HETATM   22  C20 UNL     1      -0.098 -46.947  13.587  1.00  0.00     0.046 C 
HETATM   23  C21 UNL     1      -0.553 -46.977  11.123  1.00  0.00     0.046 C 
ENDBRANCH  19  20
ENDBRANCH  16  19
ENDBRANCH  10  15
ENDBRANCH   4  10
BRANCH   6  24
HETATM   24  C23 UNL     1      -1.696 -38.947  16.442  1.00  0.00     0.283 C 
HETATM   25  O6  UNL     1      -2.357 -38.732  15.399  1.00  0.00    -0.263 OA
BRANCH  24  26
HETATM   26  O7  UNL     1      -0.618 -38.105  16.687  1.00  0.00    -0.310 OA
BRANCH  26  27
HETATM   27  C24 UNL     1      -0.615 -37.192  17.772  1.00  0.00     0.060 C 
HETATM   28  C25 UNL     1      -0.263 -37.955  19.021  1.00  0.00     0.045 C 
HETATM   29  C26 UNL     1      -1.934 -36.473  17.906  1.00  0.00     0.045 C 
HETATM   30  C27 UNL     1       0.466 -36.172  17.511  1.00  0.00     0.045 C 
ENDBRANCH  26  27
ENDBRANCH  24  26
ENDBRANCH   6  24
BRANCH   1  31
HETATM   31  C7  UNL     1      -3.431 -39.785  19.402  1.00  0.00     0.227 C 
HETATM   32  N1  UNL     1      -2.697 -40.384  20.427  1.00  0.00    -0.356 N 
ATOM     33  H1  UNL     1      -2.014 -41.109  20.203  1.00  0.00     0.162 HD
HETATM   34  O1  UNL     1      -4.276 -38.880  19.742  1.00  0.00    -0.273 OA
BRANCH  32  35
HETATM   35  C5  UNL     1      -2.896 -39.982  21.820  1.00  0.00     0.080 C 
HETATM   36  C6  UNL     1      -1.618 -39.515  22.429  1.00  0.00     0.032 C 
BRANCH  35  37
HETATM   37  C4  UNL     1      -3.713 -40.944  22.579  1.00  0.00     0.028 C 
BRANCH  37  38
HETATM   38  C2  UNL     1      -3.436 -41.196  24.002  1.00  0.00    -0.021 C 
HETATM   39  C1  UNL     1      -4.643 -41.003  24.866  1.00  0.00     0.009 C 
HETATM   40  C3  UNL     1      -3.084 -42.695  24.118  1.00  0.00     0.009 C 
ENDBRANCH  37  38
ENDBRANCH  35  37
ENDBRANCH  32  35
ENDBRANCH   1  31
TORSDOF 14
ENDMDL
MODEL 2
REMARK VINA RESULT: -7.107431752      3.182      6.536
REMARK  14 active torsions:
REMARK  status: ('A' for Active; 'I' for Inactive)
REMARK    1  A    between atoms: C2_2  and  C4_4 
REMARK    2  A    between atoms: C4_4  and  C5_5 
REMARK    3  A    between atoms: C5_5  and  N1_7 
REMARK       I    between atoms: N1_7  and  C7_9 
REMARK    4  A    between atoms: C7_9  and  C8_11 
REMARK    5  A    between atoms: C9_12  and  C10_13 
REMARK       I    between atoms: N3_16  and  C11_17 
REMARK    6  A    between atoms: C11_17  and  C12_19 
REMARK    7  A    between atoms: C12_19  and  C13_20 
REMARK    8  A    between atoms: C12_19  and  N4_24 
REMARK    9  A    between atoms: C13_20  and  C14_21 
REMARK       I    between atoms: N4_24  and  C17_26 
REMARK   10  A    between atoms: C17_26  and  O5_28 
REMARK   11  A    between atoms: O5_28  and  C18_29 
REMARK   12  A    between atoms: C22_33  and  C23_34 
REMARK   13  A    between atoms: C23_34  and  O7_36 
REMARK   14  A    between atoms: O7_36  and  C24_37 
ROOT
HETATM    1  C8  UNL     1      -0.241 -43.019  15.477  1.00  0.00     0.142 C 
HETATM    2  C9  UNL     1       0.153 -43.769  14.252  1.00  0.00     0.193 C 
HETATM    3  N3  UNL     1       0.247 -44.962  14.983  1.00  0.00    -0.321 N 
HETATM    4  C11 UNL     1       0.653 -46.308  14.750  1.00  0.00     0.244 C 
HETATM    5  O3  UNL     1       0.727 -47.146  15.685  1.00  0.00    -0.271 OA
HETATM    6  C22 UNL     1      -0.328 -44.338  16.126  1.00  0.00     0.203 C 
ENDROOT
BRANCH   2   7
HETATM    7  C10 UNL     1       1.416 -43.221  13.649  1.00  0.00     0.255 C 
HETATM    8  N2  UNL     1       1.630 -43.277  12.266  1.00  0.00    -0.060 NA
HETATM    9  O2  UNL     1       2.258 -42.725  14.410  1.00  0.00    -0.275 OA
ENDBRANCH   2   7
BRANCH   4  10
HETATM   10  C12 UNL     1       1.020 -46.826  13.378  1.00  0.00     0.179 C 
BRANCH  10  11
HETATM   11  C13 UNL     1      -0.141 -47.710  12.972  1.00  0.00     0.038 C 
BRANCH  11  12
HETATM   12  C14 UNL     1      -0.741 -47.476  11.647  1.00  0.00    -0.020 C 
HETATM   13  C15 UNL     1      -0.157 -48.118  10.452  1.00  0.00     0.009 C 
HETATM   14  C16 UNL     1      -0.900 -45.984  11.336  1.00  0.00     0.009 C 
ENDBRANCH  11  12
ENDBRANCH  10  11
BRANCH  10  15
HETATM   15  N4  UNL     1       2.285 -47.506  13.442  1.00  0.00    -0.324 N 
HETATM   16  C17 UNL     1       3.571 -46.968  13.544  1.00  0.00     0.362 C 
HETATM   17  O4  UNL     1       3.839 -45.743  13.606  1.00  0.00    -0.238 OA
ATOM     18  H4  UNL     1       2.238 -48.524  13.410  1.00  0.00     0.165 HD
BRANCH  16  19
HETATM   19  O5  UNL     1       4.712 -47.806  13.581  1.00  0.00    -0.294 OA
BRANCH  19  20
HETATM   20  C18 UNL     1       5.396 -48.050  14.790  1.00  0.00     0.061 C 
HETATM   21  C19 UNL     1       5.943 -49.472  14.723  1.00  0.00     0.046 C 
HETATM   22  C20 UNL     1       6.561 -47.056  14.944  1.00  0.00     0.046 C 
HETATM   23  C21 UNL     1       4.464 -47.957  15.977  1.00  0.00     0.046 C 
ENDBRANCH  19  20
ENDBRANCH  16  19
ENDBRANCH  10  15
ENDBRANCH   4  10
BRANCH   6  24
HETATM   24  C23 UNL     1       0.432 -44.499  17.396  1.00  0.00     0.283 C 
HETATM   25  O6  UNL     1       1.664 -44.296  17.495  1.00  0.00    -0.263 OA
BRANCH  24  26
HETATM   26  O7  UNL     1      -0.234 -44.898  18.549  1.00  0.00    -0.310 OA
BRANCH  26  27
HETATM   27  C24 UNL     1      -0.531 -43.985  19.593  1.00  0.00     0.060 C 
HETATM   28  C25 UNL     1      -1.591 -44.606  20.465  1.00  0.00     0.045 C 
HETATM   29  C26 UNL     1      -0.958 -42.641  19.060  1.00  0.00     0.045 C 
HETATM   30  C27 UNL     1       0.721 -43.803  20.415  1.00  0.00     0.045 C 
ENDBRANCH  26  27
ENDBRANCH  24  26
ENDBRANCH   6  24
BRANCH   1  31
HETATM   31  C7  UNL     1      -1.506 -42.276  15.452  1.00  0.00     0.227 C 
HETATM   32  N1  UNL     1      -1.733 -40.959  15.049  1.00  0.00    -0.356 N 
ATOM     33  H1  UNL     1      -0.953 -40.390  14.720  1.00  0.00     0.162 HD
HETATM   34  O1  UNL     1      -2.524 -42.945  15.860  1.00  0.00    -0.273 OA
BRANCH  32  35
HETATM   35  C5  UNL     1      -3.079 -40.387  15.095  1.00  0.00     0.080 C 
HETATM   36  C6  UNL     1      -3.602 -40.143  13.720  1.00  0.00     0.032 C 
BRANCH  35  37
HETATM   37  C4  UNL     1      -3.205 -39.304  16.085  1.00  0.00     0.028 C 
BRANCH  37  38
HETATM   38  C2  UNL     1      -2.017 -38.551  16.518  1.00  0.00    -0.021 C 
HETATM   39  C1  UNL     1      -2.201 -37.070  16.403  1.00  0.00     0.009 C 
HETATM   40  C3  UNL     1      -1.854 -38.827  18.029  1.00  0.00     0.009 C 
ENDBRANCH  37  38
ENDBRANCH  35  37
ENDBRANCH  32  35
ENDBRANCH   1  31
TORSDOF 14
ENDMDL
MODEL 3
REMARK VINA RESULT: -7.074686486      3.559      6.971
REMARK  14 active torsions:
REMARK  status: ('A' for Active; 'I' for Inactive)
REMARK    1  A    between atoms: C2_2  and  C4_4 
REMARK    2  A    between atoms: C4_4  and  C5_5 
REMARK    3  A    between atoms: C5_5  and  N1_7 
REMARK       I    between atoms: N1_7  and  C7_9 
REMARK    4  A    between atoms: C7_9  and  C8_11 
REMARK    5  A    between atoms: C9_12  and  C10_13 
REMARK       I    between atoms: N3_16  and  C11_17 
REMARK    6  A    between atoms: C11_17  and  C12_19 
REMARK    7  A    between atoms: C12_19  and  C13_20 
REMARK    8  A    between atoms: C12_19  and  N4_24 
REMARK    9  A    between atoms: C13_20  and  C14_21 
REMARK       I    between atoms: N4_24  and  C17_26 
REMARK   10  A    between atoms: C17_26  and  O5_28 
REMARK   11  A    between atoms: O5_28  and  C18_29 
REMARK   12  A    between atoms: C22_33  and  C23_34 
REMARK   13  A    between atoms: C23_34  and  O7_36 
REMARK   14  A    between atoms: O7_36  and  C24_37 
ROOT
HETATM    1  C8  UNL     1      -0.103 -43.124  15.495  1.00  0.00     0.142 C 
HETATM    2  C9  UNL     1       0.409 -43.782  14.261  1.00  0.00     0.193 C 
HETATM    3  N3  UNL     1       0.450 -45.024  14.912  1.00  0.00    -0.321 N 
HETATM    4  C11 UNL     1       0.891 -46.348  14.622  1.00  0.00     0.244 C 
HETATM    5  O3  UNL     1       0.890 -47.251  15.497  1.00  0.00    -0.271 OA
HETATM    6  C22 UNL     1      -0.234 -44.487  16.038  1.00  0.00     0.203 C 
ENDROOT
BRANCH   2   7
HETATM    7  C10 UNL     1       1.716 -43.187  13.817  1.00  0.00     0.255 C 
HETATM    8  N2  UNL     1       2.736 -42.933  14.742  1.00  0.00    -0.060 NA
HETATM    9  O2  UNL     1       1.859 -42.926  12.614  1.00  0.00    -0.275 OA
ENDBRANCH   2   7
BRANCH   4  10
HETATM   10  C12 UNL     1       1.388 -46.765  13.256  1.00  0.00     0.179 C 
BRANCH  10  11
HETATM   11  C13 UNL     1       0.233 -47.523  12.636  1.00  0.00     0.038 C 
BRANCH  11  12
HETATM   12  C14 UNL     1      -0.187 -47.128  11.280  1.00  0.00    -0.020 C 
HETATM   13  C15 UNL     1      -1.433 -46.357  11.092  1.00  0.00     0.009 C 
HETATM   14  C16 UNL     1      -0.232 -48.317  10.315  1.00  0.00     0.009 C 
ENDBRANCH  11  12
ENDBRANCH  10  11
BRANCH  10  15
HETATM   15  N4  UNL     1       2.593 -47.536  13.396  1.00  0.00    -0.324 N 
HETATM   16  C17 UNL     1       3.891 -47.102  13.679  1.00  0.00     0.362 C 
HETATM   17  O4  UNL     1       4.226 -45.908  13.873  1.00  0.00    -0.238 OA
ATOM     18  H4  UNL     1       2.485 -48.543  13.272  1.00  0.00     0.165 HD
BRANCH  16  19
HETATM   19  O5  UNL     1       4.965 -48.020  13.766  1.00  0.00    -0.294 OA
BRANCH  19  20
HETATM   20  C18 UNL     1       5.476 -48.425  15.016  1.00  0.00     0.061 C 
HETATM   21  C19 UNL     1       5.831 -49.904  14.904  1.00  0.00     0.046 C 
HETATM   22  C20 UNL     1       6.741 -47.615  15.353  1.00  0.00     0.046 C 
HETATM   23  C21 UNL     1       4.443 -48.268  16.110  1.00  0.00     0.046 C 
ENDBRANCH  19  20
ENDBRANCH  16  19
ENDBRANCH  10  15
ENDBRANCH   4  10
BRANCH   6  24
HETATM   24  C23 UNL     1       0.408 -44.735  17.357  1.00  0.00     0.283 C 
HETATM   25  O6  UNL     1       1.617 -44.502  17.594  1.00  0.00    -0.263 OA
BRANCH  24  26
HETATM   26  O7  UNL     1      -0.346 -45.255  18.403  1.00  0.00    -0.310 OA
BRANCH  26  27
HETATM   27  C24 UNL     1      -0.700 -44.472  19.531  1.00  0.00     0.060 C 
HETATM   28  C25 UNL     1      -2.031 -44.962  20.038  1.00  0.00     0.045 C 
HETATM   29  C26 UNL     1      -0.729 -42.999  19.206  1.00  0.00     0.045 C 
HETATM   30  C27 UNL     1       0.339 -44.710  20.599  1.00  0.00     0.045 C 
ENDBRANCH  26  27
ENDBRANCH  24  26
ENDBRANCH   6  24
BRANCH   1  31
HETATM   31  C7  UNL     1      -1.369 -42.388  15.407  1.00  0.00     0.227 C 
HETATM   32  N1  UNL     1      -2.524 -42.549  16.176  1.00  0.00    -0.356 N 
ATOM     33  H1  UNL     1      -2.547 -43.257  16.910  1.00  0.00     0.162 HD
HETATM   34  O1  UNL     1      -1.397 -41.483  14.496  1.00  0.00    -0.273 OA
BRANCH  32  35
HETATM   35  C5  UNL     1      -3.700 -41.711  15.939  1.00  0.00     0.080 C 
HETATM   36  C6  UNL     1      -3.944 -40.797  17.091  1.00  0.00     0.032 C 
BRANCH  35  37
HETATM   37  C4  UNL     1      -4.842 -42.472  15.405  1.00  0.00     0.028 C 
BRANCH  37  38
HETATM   38  C2  UNL     1      -5.100 -42.510  13.957  1.00  0.00    -0.021 C 
HETATM   39  C1  UNL     1      -4.633 -41.272  13.256  1.00  0.00     0.009 C 
HETATM   40  C3  UNL     1      -4.231 -43.653  13.390  1.00  0.00     0.009 C 
ENDBRANCH  37  38
ENDBRANCH  35  37
ENDBRANCH  32  35
ENDBRANCH   1  31
TORSDOF 14
ENDMDL
MODEL 4
REMARK VINA RESULT: -7.037956983      3.600      6.674
REMARK  14 active torsions:
REMARK  status: ('A' for Active; 'I' for Inactive)
REMARK    1  A    between atoms: C2_2  and  C4_4 
REMARK    2  A    between atoms: C4_4  and  C5_5 
REMARK    3  A    between atoms: C5_5  and  N1_7 
REMARK       I    between atoms: N1_7  and  C7_9 
REMARK    4  A    between atoms: C7_9  and  C8_11 
REMARK    5  A    between atoms: C9_12  and  C10_13 
REMARK       I    between atoms: N3_16  and  C11_17 
REMARK    6  A    between atoms: C11_17  and  C12_19 
REMARK    7  A    between atoms: C12_19  and  C13_20 
REMARK    8  A    between atoms: C12_19  and  N4_24 
REMARK    9  A    between atoms: C13_20  and  C14_21 
REMARK       I    between atoms: N4_24  and  C17_26 
REMARK   10  A    between atoms: C17_26  and  O5_28 
REMARK   11  A    between atoms: O5_28  and  C18_29 
REMARK   12  A    between atoms: C22_33  and  C23_34 
REMARK   13  A    between atoms: C23_34  and  O7_36 
REMARK   14  A    between atoms: O7_36  and  C24_37 
ROOT
HETATM    1  C8  UNL     1      -0.300 -43.227  15.330  1.00  0.00     0.142 C 
HETATM    2  C9  UNL     1       0.256 -43.877  14.111  1.00  0.00     0.193 C 
HETATM    3  N3  UNL     1       0.430 -45.084  14.804  1.00  0.00    -0.321 N 
HETATM    4  C11 UNL     1       0.996 -46.367  14.552  1.00  0.00     0.244 C 
HETATM    5  O3  UNL     1       1.099 -47.233  15.459  1.00  0.00    -0.271 OA
HETATM    6  C22 UNL     1      -0.286 -44.575  15.924  1.00  0.00     0.203 C 
ENDROOT
BRANCH   2   7
HETATM    7  C10 UNL     1       1.489 -43.172  13.620  1.00  0.00     0.255 C 
HETATM    8  N2  UNL     1       2.497 -42.789  14.514  1.00  0.00    -0.060 NA
HETATM    9  O2  UNL     1       1.584 -42.939  12.407  1.00  0.00    -0.275 OA
ENDBRANCH   2   7
BRANCH   4  10
HETATM   10  C12 UNL     1       1.511 -46.783  13.192  1.00  0.00     0.179 C 
BRANCH  10  11
HETATM   11  C13 UNL     1       0.386 -47.593  12.582  1.00  0.00     0.038 C 
BRANCH  11  12
HETATM   12  C14 UNL     1      -0.116 -47.170  11.262  1.00  0.00    -0.020 C 
HETATM   13  C15 UNL     1      -1.367 -46.393  11.166  1.00  0.00     0.009 C 
HETATM   14  C16 UNL     1      -0.224 -48.340  10.279  1.00  0.00     0.009 C 
ENDBRANCH  11  12
ENDBRANCH  10  11
BRANCH  10  15
HETATM   15  N4  UNL     1       2.743 -47.506  13.343  1.00  0.00    -0.324 N 
HETATM   16  C17 UNL     1       4.015 -47.024  13.667  1.00  0.00     0.362 C 
HETATM   17  O4  UNL     1       4.295 -45.822  13.895  1.00  0.00    -0.238 OA
ATOM     18  H4  UNL     1       2.682 -48.513  13.194  1.00  0.00     0.165 HD
BRANCH  16  19
HETATM   19  O5  UNL     1       5.125 -47.897  13.758  1.00  0.00    -0.294 OA
BRANCH  19  20
HETATM   20  C18 UNL     1       5.738 -48.167  14.999  1.00  0.00     0.061 C 
HETATM   21  C19 UNL     1       6.282 -49.591  14.937  1.00  0.00     0.046 C 
HETATM   22  C20 UNL     1       6.897 -47.183  15.238  1.00  0.00     0.046 C 
HETATM   23  C21 UNL     1       4.740 -48.092  16.133  1.00  0.00     0.046 C 
ENDBRANCH  19  20
ENDBRANCH  16  19
ENDBRANCH  10  15
ENDBRANCH   4  10
BRANCH   6  24
HETATM   24  C23 UNL     1       0.400 -44.710  17.238  1.00  0.00     0.283 C 
HETATM   25  O6  UNL     1       1.603 -44.413  17.425  1.00  0.00    -0.263 OA
BRANCH  24  26
HETATM   26  O7  UNL     1      -0.306 -45.189  18.335  1.00  0.00    -0.310 OA
BRANCH  26  27
HETATM   27  C24 UNL     1      -0.736 -44.332  19.380  1.00  0.00     0.060 C 
HETATM   28  C25 UNL     1      -2.011 -44.896  19.949  1.00  0.00     0.045 C 
HETATM   29  C26 UNL     1      -0.911 -42.911  18.906  1.00  0.00     0.045 C 
HETATM   30  C27 UNL     1       0.321 -44.355  20.456  1.00  0.00     0.045 C 
ENDBRANCH  26  27
ENDBRANCH  24  26
ENDBRANCH   6  24
BRANCH   1  31
HETATM   31  C7  UNL     1      -1.634 -42.624  15.241  1.00  0.00     0.227 C 
HETATM   32  N1  UNL     1      -1.973 -41.273  15.149  1.00  0.00    -0.356 N 
ATOM     33  H1  UNL     1      -1.237 -40.567  15.138  1.00  0.00     0.162 HD
HETATM   34  O1  UNL     1      -2.602 -43.469  15.252  1.00  0.00    -0.273 OA
BRANCH  32  35
HETATM   35  C5  UNL     1      -3.374 -40.860  15.067  1.00  0.00     0.080 C 
HETATM   36  C6  UNL     1      -3.614 -40.023  13.857  1.00  0.00     0.032 C 
BRANCH  35  37
HETATM   37  C4  UNL     1      -3.903 -40.380  16.355  1.00  0.00     0.028 C 
BRANCH  37  38
HETATM   38  C2  UNL     1      -5.014 -41.085  17.013  1.00  0.00    -0.021 C 
HETATM   39  C1  UNL     1      -5.550 -42.214  16.187  1.00  0.00     0.009 C 
HETATM   40  C3  UNL     1      -4.423 -41.748  18.276  1.00  0.00     0.009 C 
ENDBRANCH  37  38
ENDBRANCH  35  37
ENDBRANCH  32  35
ENDBRANCH   1  31
TORSDOF 14
ENDMDL
MODEL 5
REMARK VINA RESULT: -6.905662928      3.089      6.165
REMARK  14 active torsions:
REMARK  status: ('A' for Active; 'I' for Inactive)
REMARK    1  A    between atoms: C2_2  and  C4_4 
REMARK    2  A    between atoms: C4_4  and  C5_5 
REMARK    3  A    between atoms: C5_5  and  N1_7 
REMARK       I    between atoms: N1_7  and  C7_9 
REMARK    4  A    between atoms: C7_9  and  C8_11 
REMARK    5  A    between atoms: C9_12  and  C10_13 
REMARK       I    between atoms: N3_16  and  C11_17 
REMARK    6  A    between atoms: C11_17  and  C12_19 
REMARK    7  A    between atoms: C12_19  and  C13_20 
REMARK    8  A    between atoms: C12_19  and  N4_24 
REMARK    9  A    between atoms: C13_20  and  C14_21 
REMARK       I    between atoms: N4_24  and  C17_26 
REMARK   10  A    between atoms: C17_26  and  O5_28 
REMARK   11  A    between atoms: O5_28  and  C18_29 
REMARK   12  A    between atoms: C22_33  and  C23_34 
REMARK   13  A    between atoms: C23_34  and  O7_36 
REMARK   14  A    between atoms: O7_36  and  C24_37 
ROOT
HETATM    1  C8  UNL     1      -0.239 -42.446  15.307  1.00  0.00     0.142 C 
HETATM    2  C9  UNL     1       0.231 -43.300  14.182  1.00  0.00     0.193 C 
HETATM    3  N3  UNL     1      -0.090 -44.462  14.898  1.00  0.00    -0.321 N 
HETATM    4  C11 UNL     1       0.055 -45.870  14.734  1.00  0.00     0.244 C 
HETATM    5  O3  UNL     1      -0.252 -46.676  15.650  1.00  0.00    -0.271 OA
HETATM    6  C22 UNL     1      -0.744 -43.695  15.903  1.00  0.00     0.203 C 
ENDROOT
BRANCH   2   7
HETATM    7  C10 UNL     1       1.681 -43.055  13.868  1.00  0.00     0.255 C 
HETATM    8  N2  UNL     1       2.614 -42.874  14.897  1.00  0.00    -0.060 NA
HETATM    9  O2  UNL     1       2.022 -43.016  12.678  1.00  0.00    -0.275 OA
ENDBRANCH   2   7
BRANCH   4  10
HETATM   10  C12 UNL     1       0.581 -46.498  13.463  1.00  0.00     0.179 C 
BRANCH  10  11
HETATM   11  C13 UNL     1      -0.475 -47.506  13.060  1.00  0.00     0.038 C 
BRANCH  11  12
HETATM   12  C14 UNL     1      -0.893 -47.522  11.647  1.00  0.00    -0.020 C 
HETATM   13  C15 UNL     1       0.003 -48.096  10.623  1.00  0.00     0.009 C 
HETATM   14  C16 UNL     1      -1.329 -46.139  11.153  1.00  0.00     0.009 C 
ENDBRANCH  11  12
ENDBRANCH  10  11
BRANCH  10  15
HETATM   15  N4  UNL     1       1.878 -47.067  13.707  1.00  0.00    -0.324 N 
HETATM   16  C17 UNL     1       3.084 -46.834  13.040  1.00  0.00     0.362 C 
HETATM   17  O4  UNL     1       3.235 -46.044  12.077  1.00  0.00    -0.238 OA
ATOM     18  H4  UNL     1       1.925 -47.736  14.476  1.00  0.00     0.165 HD
BRANCH  16  19
HETATM   19  O5  UNL     1       4.270 -47.508  13.420  1.00  0.00    -0.294 OA
BRANCH  19  20
HETATM   20  C18 UNL     1       4.967 -47.148  14.592  1.00  0.00     0.061 C 
HETATM   21  C19 UNL     1       4.246 -47.801  15.767  1.00  0.00     0.046 C 
HETATM   22  C20 UNL     1       6.414 -47.667  14.522  1.00  0.00     0.046 C 
HETATM   23  C21 UNL     1       4.953 -45.651  14.802  1.00  0.00     0.046 C 
ENDBRANCH  19  20
ENDBRANCH  16  19
ENDBRANCH  10  15
ENDBRANCH   4  10
BRANCH   6  24
HETATM   24  C23 UNL     1      -0.320 -43.977  17.301  1.00  0.00     0.283 C 
HETATM   25  O6  UNL     1       0.878 -44.074  17.656  1.00  0.00    -0.263 OA
BRANCH  24  26
HETATM   26  O7  UNL     1      -1.283 -44.148  18.290  1.00  0.00    -0.310 OA
BRANCH  26  27
HETATM   27  C24 UNL     1      -1.377 -43.272  19.401  1.00  0.00     0.060 C 
HETATM   28  C25 UNL     1      -1.518 -41.867  18.875  1.00  0.00     0.045 C 
HETATM   29  C26 UNL     1      -0.195 -43.409  20.327  1.00  0.00     0.045 C 
HETATM   30  C27 UNL     1      -2.630 -43.629  20.161  1.00  0.00     0.045 C 
ENDBRANCH  26  27
ENDBRANCH  24  26
ENDBRANCH   6  24
BRANCH   1  31
HETATM   31  C7  UNL     1      -1.279 -41.451  15.027  1.00  0.00     0.227 C 
HETATM   32  N1  UNL     1      -1.733 -40.413  15.845  1.00  0.00    -0.356 N 
ATOM     33  H1  UNL     1      -1.324 -40.283  16.770  1.00  0.00     0.162 HD
HETATM   34  O1  UNL     1      -1.832 -41.568  13.874  1.00  0.00    -0.273 OA
BRANCH  32  35
HETATM   35  C5  UNL     1      -2.791 -39.511  15.387  1.00  0.00     0.080 C 
HETATM   36  C6  UNL     1      -2.541 -38.117  15.853  1.00  0.00     0.032 C 
BRANCH  35  37
HETATM   37  C4  UNL     1      -4.139 -40.073  15.575  1.00  0.00     0.028 C 
BRANCH  37  38
HETATM   38  C2  UNL     1      -4.471 -40.817  16.800  1.00  0.00    -0.021 C 
HETATM   39  C1  UNL     1      -5.434 -40.081  17.679  1.00  0.00     0.009 C 
HETATM   40  C3  UNL     1      -5.219 -42.089  16.347  1.00  0.00     0.009 C 
ENDBRANCH  37  38
ENDBRANCH  35  37
ENDBRANCH  32  35
ENDBRANCH   1  31
TORSDOF 14
ENDMDL
