MODEL 1
REMARK VINA RESULT: -8.742284446      0.000      0.000
REMARK  12 active torsions:
REMARK  status: ('A' for Active; 'I' for Inactive)
REMARK    1  A    between atoms: O1_2  and  C2_3 
REMARK    2  A    between atoms: C7_8  and  N1_9 
REMARK       I    between atoms: N1_9  and  C8_11 
REMARK    3  A    between atoms: C8_11  and  C9_13 
REMARK    4  A    between atoms: N2_17  and  C13_18 
REMARK    5  A    between atoms: C13_18  and  O3_19 
REMARK    6  A    between atoms: C13_18  and  C14_21 
REMARK    7  A    between atoms: C14_21  and  C15_23 
REMARK       I    between atoms: C15_23  and  N3_25 
REMARK    8  A    between atoms: N3_25  and  C16_27 
REMARK    9  A    between atoms: C16_27  and  C17_28 
REMARK   10  A    between atoms: C16_27  and  C28_40 
REMARK   11  A    between atoms: C17_28  and  C18_30 
REMARK   12  A    between atoms: C19_31  and  C21_33 
ROOT
HETATM    1  C14 UNL     1      -5.277 -40.130  17.582  1.00  0.00     0.264 C 
HETATM    2  O4  UNL     1      -6.242 -40.349  18.358  1.00  0.00    -0.282 OA
ENDROOT
BRANCH   1   3
HETATM    3  C13 UNL     1      -4.940 -38.731  17.305  1.00  0.00     0.297 C 
BRANCH   3   4
HETATM    4  N2  UNL     1      -3.667 -38.373  17.617  1.00  0.00    -0.368 N 
HETATM    5  C9  UNL     1      -2.866 -38.541  18.692  1.00  0.00     0.174 C 
HETATM    6  C10 UNL     1      -2.045 -37.205  18.682  1.00  0.00     0.036 C 
HETATM    7  C11 UNL     1      -1.634 -37.256  17.204  1.00  0.00     0.022 C 
HETATM    8  C12 UNL     1      -2.936 -37.735  16.566  1.00  0.00     0.120 C 
BRANCH   5   9
HETATM    9  C8  UNL     1      -3.261 -38.907  20.030  1.00  0.00     0.240 C 
HETATM   10  N1  UNL     1      -3.218 -40.188  20.634  1.00  0.00    -0.352 N 
ATOM     11  H1  UNL     1      -2.885 -40.967  20.067  1.00  0.00     0.163 HD
HETATM   12  O2  UNL     1      -3.711 -37.994  20.828  1.00  0.00    -0.271 OA
BRANCH  10  13
HETATM   13  C7  UNL     1      -3.612 -40.471  22.001  1.00  0.00     0.113 C 
HETATM   14  C2  UNL     1      -4.466 -41.694  22.165  1.00  0.00     0.143 C 
HETATM   15  C3  UNL     1      -5.204 -41.501  23.494  1.00  0.00     0.034 C 
HETATM   16  C4  UNL     1      -4.243 -41.024  24.562  1.00  0.00     0.003 C 
HETATM   17  C5  UNL     1      -2.810 -41.258  24.179  1.00  0.00     0.002 C 
HETATM   18  C6  UNL     1      -2.406 -40.631  22.895  1.00  0.00     0.028 C 
BRANCH  14  19
HETATM   19  O1  UNL     1      -3.657 -42.806  22.158  1.00  0.00    -0.389 OA
HETATM   20  C1  UNL     1      -4.007 -43.736  21.189  1.00  0.00     0.202 C 
ENDBRANCH  14  19
ENDBRANCH  10  13
ENDBRANCH   5   9
ENDBRANCH   3   4
BRANCH   3  21
HETATM   21  O3  UNL     1      -5.188 -38.417  15.945  1.00  0.00    -0.369 OA
ATOM     22  H3  UNL     1      -4.454 -38.714  15.420  1.00  0.00     0.212 HD
ENDBRANCH   3  21
ENDBRANCH   1   3
BRANCH   1  23
HETATM   23  C15 UNL     1      -4.595 -41.301  17.042  1.00  0.00     0.296 C 
HETATM   24  O5  UNL     1      -4.482 -42.341  17.715  1.00  0.00    -0.264 OA
HETATM   25  N3  UNL     1      -4.045 -41.283  15.721  1.00  0.00    -0.320 N 
ATOM     26  H3  UNL     1      -4.117 -40.421  15.182  1.00  0.00     0.169 HD
BRANCH  25  27
HETATM   27  C16 UNL     1      -3.387 -42.427  15.106  1.00  0.00     0.066 C 
BRANCH  27  28
HETATM   28  C17 UNL     1      -2.008 -42.024  14.665  1.00  0.00     0.195 C 
HETATM   29  O6  UNL     1      -1.999 -41.108  13.797  1.00  0.00    -0.286 OA
BRANCH  28  30
HETATM   30  C18 UNL     1      -0.786 -42.589  15.148  1.00  0.00     0.059 C 
HETATM   31  C19 UNL     1      -0.121 -43.668  14.967  1.00  0.00    -0.076 C 
HETATM   32  C20 UNL     1       1.201 -43.709  15.819  1.00  0.00     0.044 C 
BRANCH  31  33
HETATM   33  C21 UNL     1      -0.220 -44.875  14.169  1.00  0.00     0.014 C 
HETATM   34  C22 UNL     1       0.179 -44.495  12.731  1.00  0.00     0.009 C 
HETATM   35  C23 UNL     1       0.917 -45.575  12.022  1.00  0.00     0.005 C 
HETATM   36  C24 UNL     1       0.272 -46.931  12.156  1.00  0.00    -0.019 C 
HETATM   37  C25 UNL     1      -0.850 -47.164  11.184  1.00  0.00     0.010 C 
HETATM   38  C26 UNL     1      -0.166 -47.215  13.556  1.00  0.00     0.005 C 
HETATM   39  C27 UNL     1       0.354 -46.159  14.556  1.00  0.00     0.009 C 
ENDBRANCH  31  33
ENDBRANCH  28  30
ENDBRANCH  27  28
BRANCH  27  40
HETATM   40  C28 UNL     1      -4.233 -43.247  14.275  1.00  0.00     0.031 C 
HETATM   41  C29 UNL     1      -3.552 -44.215  13.351  1.00  0.00     0.016 C 
HETATM   42  C30 UNL     1      -5.315 -42.472  13.519  1.00  0.00     0.016 C 
ENDBRANCH  27  40
ENDBRANCH  25  27
ENDBRANCH   1  23
TORSDOF 12
ENDMDL
MODEL 2
REMARK VINA RESULT: -8.537709568      4.028      9.819
REMARK  12 active torsions:
REMARK  status: ('A' for Active; 'I' for Inactive)
REMARK    1  A    between atoms: O1_2  and  C2_3 
REMARK    2  A    between atoms: C7_8  and  N1_9 
REMARK       I    between atoms: N1_9  and  C8_11 
REMARK    3  A    between atoms: C8_11  and  C9_13 
REMARK    4  A    between atoms: N2_17  and  C13_18 
REMARK    5  A    between atoms: C13_18  and  O3_19 
REMARK    6  A    between atoms: C13_18  and  C14_21 
REMARK    7  A    between atoms: C14_21  and  C15_23 
REMARK       I    between atoms: C15_23  and  N3_25 
REMARK    8  A    between atoms: N3_25  and  C16_27 
REMARK    9  A    between atoms: C16_27  and  C17_28 
REMARK   10  A    between atoms: C16_27  and  C28_40 
REMARK   11  A    between atoms: C17_28  and  C18_30 
REMARK   12  A    between atoms: C19_31  and  C21_33 
ROOT
HETATM    1  C14 UNL     1       1.226 -43.106  13.630  1.00  0.00     0.264 C 
HETATM    2  O4  UNL     1       2.372 -43.146  14.145  1.00  0.00    -0.282 OA
ENDROOT
BRANCH   1   3
HETATM    3  C13 UNL     1       1.078 -43.648  12.276  1.00  0.00     0.297 C 
BRANCH   3   4
HETATM    4  N2  UNL     1       0.653 -44.938  12.215  1.00  0.00    -0.368 N 
HETATM    5  C9  UNL     1       1.187 -46.134  12.546  1.00  0.00     0.174 C 
HETATM    6  C10 UNL     1       0.586 -47.063  11.435  1.00  0.00     0.036 C 
HETATM    7  C11 UNL     1      -0.876 -46.623  11.603  1.00  0.00     0.022 C 
HETATM    8  C12 UNL     1      -0.697 -45.117  11.780  1.00  0.00     0.120 C 
BRANCH   5   9
HETATM    9  C8  UNL     1       2.577 -46.435  12.788  1.00  0.00     0.240 C 
HETATM   10  N1  UNL     1       3.216 -46.666  14.032  1.00  0.00    -0.352 N 
ATOM     11  H1  UNL     1       2.647 -46.599  14.876  1.00  0.00     0.163 HD
HETATM   12  O2  UNL     1       3.388 -46.528  11.786  1.00  0.00    -0.271 OA
BRANCH  10  13
HETATM   13  C7  UNL     1       4.620 -46.990  14.191  1.00  0.00     0.113 C 
HETATM   14  C2  UNL     1       5.293 -46.308  15.347  1.00  0.00     0.143 C 
HETATM   15  C3  UNL     1       6.788 -46.321  15.015  1.00  0.00     0.034 C 
HETATM   16  C4  UNL     1       7.203 -47.691  14.520  1.00  0.00     0.003 C 
HETATM   17  C5  UNL     1       6.191 -48.746  14.865  1.00  0.00     0.002 C 
HETATM   18  C6  UNL     1       4.822 -48.477  14.358  1.00  0.00     0.028 C 
BRANCH  14  19
HETATM   19  O1  UNL     1       4.994 -46.991  16.503  1.00  0.00    -0.389 OA
HETATM   20  C1  UNL     1       5.278 -46.274  17.657  1.00  0.00     0.202 C 
ENDBRANCH  14  19
ENDBRANCH  10  13
ENDBRANCH   5   9
ENDBRANCH   3   4
BRANCH   3  21
HETATM   21  O3  UNL     1       0.207 -42.838  11.506  1.00  0.00    -0.369 OA
ATOM     22  H3  UNL     1       0.709 -42.141  11.101  1.00  0.00     0.212 HD
ENDBRANCH   3  21
ENDBRANCH   1   3
BRANCH   1  23
HETATM   23  C15 UNL     1       0.164 -42.524  14.443  1.00  0.00     0.296 C 
HETATM   24  O5  UNL     1       0.269 -41.374  14.901  1.00  0.00    -0.264 OA
HETATM   25  N3  UNL     1      -1.028 -43.263  14.727  1.00  0.00    -0.320 N 
ATOM     26  H3  UNL     1      -1.100 -44.216  14.371  1.00  0.00     0.169 HD
BRANCH  25  27
HETATM   27  C16 UNL     1      -2.143 -42.730  15.496  1.00  0.00     0.066 C 
BRANCH  27  28
HETATM   28  C17 UNL     1      -1.868 -42.925  16.962  1.00  0.00     0.195 C 
HETATM   29  O6  UNL     1      -1.866 -44.135  17.322  1.00  0.00    -0.286 OA
BRANCH  28  30
HETATM   30  C18 UNL     1      -1.625 -41.879  17.905  1.00  0.00     0.059 C 
HETATM   31  C19 UNL     1      -2.148 -40.747  18.200  1.00  0.00    -0.076 C 
HETATM   32  C20 UNL     1      -1.398 -40.028  19.381  1.00  0.00     0.044 C 
BRANCH  31  33
HETATM   33  C21 UNL     1      -3.269 -39.933  17.771  1.00  0.00     0.014 C 
HETATM   34  C22 UNL     1      -3.974 -39.435  19.046  1.00  0.00     0.009 C 
HETATM   35  C23 UNL     1      -4.526 -38.060  18.912  1.00  0.00     0.005 C 
HETATM   36  C24 UNL     1      -5.308 -37.848  17.641  1.00  0.00    -0.019 C 
HETATM   37  C25 UNL     1      -6.729 -38.330  17.719  1.00  0.00     0.010 C 
HETATM   38  C26 UNL     1      -4.614 -38.419  16.447  1.00  0.00     0.005 C 
HETATM   39  C27 UNL     1      -3.174 -38.876  16.771  1.00  0.00     0.009 C 
ENDBRANCH  31  33
ENDBRANCH  28  30
ENDBRANCH  27  28
BRANCH  27  40
HETATM   40  C28 UNL     1      -3.448 -42.977  14.937  1.00  0.00     0.031 C 
HETATM   41  C29 UNL     1      -3.536 -43.972  13.816  1.00  0.00     0.016 C 
HETATM   42  C30 UNL     1      -4.229 -41.711  14.578  1.00  0.00     0.016 C 
ENDBRANCH  27  40
ENDBRANCH  25  27
ENDBRANCH   1  23
TORSDOF 12
ENDMDL
MODEL 3
REMARK VINA RESULT: -8.515910640      3.935      9.778
REMARK  12 active torsions:
REMARK  status: ('A' for Active; 'I' for Inactive)
REMARK    1  A    between atoms: O1_2  and  C2_3 
REMARK    2  A    between atoms: C7_8  and  N1_9 
REMARK       I    between atoms: N1_9  and  C8_11 
REMARK    3  A    between atoms: C8_11  and  C9_13 
REMARK    4  A    between atoms: N2_17  and  C13_18 
REMARK    5  A    between atoms: C13_18  and  O3_19 
REMARK    6  A    between atoms: C13_18  and  C14_21 
REMARK    7  A    between atoms: C14_21  and  C15_23 
REMARK       I    between atoms: C15_23  and  N3_25 
REMARK    8  A    between atoms: N3_25  and  C16_27 
REMARK    9  A    between atoms: C16_27  and  C17_28 
REMARK   10  A    between atoms: C16_27  and  C28_40 
REMARK   11  A    between atoms: C17_28  and  C18_30 
REMARK   12  A    between atoms: C19_31  and  C21_33 
ROOT
HETATM    1  C14 UNL     1       0.958 -43.161  13.792  1.00  0.00     0.264 C 
HETATM    2  O4  UNL     1       1.888 -43.544  14.547  1.00  0.00    -0.282 OA
ENDROOT
BRANCH   1   3
HETATM    3  C13 UNL     1       0.967 -43.653  12.411  1.00  0.00     0.297 C 
BRANCH   3   4
HETATM    4  N2  UNL     1       0.559 -44.940  12.256  1.00  0.00    -0.368 N 
HETATM    5  C9  UNL     1       1.102 -46.150  12.515  1.00  0.00     0.174 C 
HETATM    6  C10 UNL     1       0.531 -47.008  11.333  1.00  0.00     0.036 C 
HETATM    7  C11 UNL     1      -0.939 -46.596  11.504  1.00  0.00     0.022 C 
HETATM    8  C12 UNL     1      -0.782 -45.104  11.785  1.00  0.00     0.120 C 
BRANCH   5   9
HETATM    9  C8  UNL     1       2.491 -46.452  12.762  1.00  0.00     0.240 C 
HETATM   10  N1  UNL     1       3.140 -46.611  14.011  1.00  0.00    -0.352 N 
ATOM     11  H1  UNL     1       2.582 -46.485  14.855  1.00  0.00     0.163 HD
HETATM   12  O2  UNL     1       3.290 -46.617  11.759  1.00  0.00    -0.271 OA
BRANCH  10  13
HETATM   13  C7  UNL     1       4.543 -46.941  14.176  1.00  0.00     0.113 C 
HETATM   14  C2  UNL     1       5.212 -46.265  15.337  1.00  0.00     0.143 C 
HETATM   15  C3  UNL     1       6.709 -46.283  15.012  1.00  0.00     0.034 C 
HETATM   16  C4  UNL     1       7.121 -47.652  14.515  1.00  0.00     0.003 C 
HETATM   17  C5  UNL     1       6.104 -48.705  14.852  1.00  0.00     0.002 C 
HETATM   18  C6  UNL     1       4.739 -48.429  14.338  1.00  0.00     0.028 C 
BRANCH  14  19
HETATM   19  O1  UNL     1       4.905 -46.950  16.489  1.00  0.00    -0.389 OA
HETATM   20  C1  UNL     1       5.362 -46.326  17.642  1.00  0.00     0.202 C 
ENDBRANCH  14  19
ENDBRANCH  10  13
ENDBRANCH   5   9
ENDBRANCH   3   4
BRANCH   3  21
HETATM   21  O3  UNL     1       0.183 -42.817  11.578  1.00  0.00    -0.369 OA
ATOM     22  H3  UNL     1      -0.302 -42.206  12.120  1.00  0.00     0.212 HD
ENDBRANCH   3  21
ENDBRANCH   1   3
BRANCH   1  23
HETATM   23  C15 UNL     1      -0.033 -42.266  14.379  1.00  0.00     0.296 C 
HETATM   24  O5  UNL     1       0.311 -41.219  14.953  1.00  0.00    -0.264 OA
HETATM   25  N3  UNL     1      -1.430 -42.570  14.301  1.00  0.00    -0.320 N 
ATOM     26  H3  UNL     1      -1.708 -43.442  13.852  1.00  0.00     0.169 HD
BRANCH  25  27
HETATM   27  C16 UNL     1      -2.474 -41.705  14.829  1.00  0.00     0.066 C 
BRANCH  27  28
HETATM   28  C17 UNL     1      -2.848 -42.168  16.210  1.00  0.00     0.195 C 
HETATM   29  O6  UNL     1      -2.455 -43.337  16.477  1.00  0.00    -0.286 OA
BRANCH  28  30
HETATM   30  C18 UNL     1      -3.576 -41.401  17.172  1.00  0.00     0.059 C 
HETATM   31  C19 UNL     1      -3.360 -40.372  17.903  1.00  0.00    -0.076 C 
HETATM   32  C20 UNL     1      -4.602 -39.996  18.793  1.00  0.00     0.044 C 
BRANCH  31  33
HETATM   33  C21 UNL     1      -2.292 -39.418  18.134  1.00  0.00     0.014 C 
HETATM   34  C22 UNL     1      -2.241 -38.497  16.901  1.00  0.00     0.009 C 
HETATM   35  C23 UNL     1      -1.887 -37.090  17.234  1.00  0.00     0.005 C 
HETATM   36  C24 UNL     1      -0.700 -36.971  18.155  1.00  0.00    -0.019 C 
HETATM   37  C25 UNL     1       0.623 -37.057  17.448  1.00  0.00     0.010 C 
HETATM   38  C26 UNL     1      -0.763 -37.941  19.290  1.00  0.00     0.005 C 
HETATM   39  C27 UNL     1      -2.129 -38.659  19.368  1.00  0.00     0.009 C 
ENDBRANCH  31  33
ENDBRANCH  28  30
ENDBRANCH  27  28
BRANCH  27  40
HETATM   40  C28 UNL     1      -3.476 -41.301  13.875  1.00  0.00     0.031 C 
HETATM   41  C29 UNL     1      -3.852 -39.847  13.850  1.00  0.00     0.016 C 
HETATM   42  C30 UNL     1      -4.737 -42.169  13.880  1.00  0.00     0.016 C 
ENDBRANCH  27  40
ENDBRANCH  25  27
ENDBRANCH   1  23
TORSDOF 12
ENDMDL
MODEL 4
REMARK VINA RESULT: -8.324112694      1.394      1.917
REMARK  12 active torsions:
REMARK  status: ('A' for Active; 'I' for Inactive)
REMARK    1  A    between atoms: O1_2  and  C2_3 
REMARK    2  A    between atoms: C7_8  and  N1_9 
REMARK       I    between atoms: N1_9  and  C8_11 
REMARK    3  A    between atoms: C8_11  and  C9_13 
REMARK    4  A    between atoms: N2_17  and  C13_18 
REMARK    5  A    between atoms: C13_18  and  O3_19 
REMARK    6  A    between atoms: C13_18  and  C14_21 
REMARK    7  A    between atoms: C14_21  and  C15_23 
REMARK       I    between atoms: C15_23  and  N3_25 
REMARK    8  A    between atoms: N3_25  and  C16_27 
REMARK    9  A    between atoms: C16_27  and  C17_28 
REMARK   10  A    between atoms: C16_27  and  C28_40 
REMARK   11  A    between atoms: C17_28  and  C18_30 
REMARK   12  A    between atoms: C19_31  and  C21_33 
ROOT
HETATM    1  C14 UNL     1      -4.499 -38.737  16.781  1.00  0.00     0.264 C 
HETATM    2  O4  UNL     1      -5.427 -38.386  16.008  1.00  0.00    -0.282 OA
ENDROOT
BRANCH   1   3
HETATM    3  C13 UNL     1      -4.014 -37.745  17.745  1.00  0.00     0.297 C 
BRANCH   3   4
HETATM    4  N2  UNL     1      -2.702 -37.412  17.618  1.00  0.00    -0.368 N 
HETATM    5  C9  UNL     1      -1.557 -37.807  18.215  1.00  0.00     0.174 C 
HETATM    6  C10 UNL     1      -0.735 -36.471  18.228  1.00  0.00     0.036 C 
HETATM    7  C11 UNL     1      -0.935 -36.121  16.746  1.00  0.00     0.022 C 
HETATM    8  C12 UNL     1      -2.405 -36.489  16.566  1.00  0.00     0.120 C 
BRANCH   5   9
HETATM    9  C8  UNL     1      -1.419 -38.522  19.460  1.00  0.00     0.240 C 
HETATM   10  N1  UNL     1      -1.699 -39.887  19.718  1.00  0.00    -0.352 N 
ATOM     11  H1  UNL     1      -2.060 -40.450  18.948  1.00  0.00     0.163 HD
HETATM   12  O2  UNL     1      -0.983 -37.896  20.503  1.00  0.00    -0.271 OA
BRANCH  10  13
HETATM   13  C7  UNL     1      -1.510 -40.541  20.999  1.00  0.00     0.113 C 
HETATM   14  C2  UNL     1      -2.737 -40.598  21.860  1.00  0.00     0.143 C 
HETATM   15  C3  UNL     1      -2.224 -40.784  23.291  1.00  0.00     0.034 C 
HETATM   16  C4  UNL     1      -1.149 -41.850  23.327  1.00  0.00     0.003 C 
HETATM   17  C5  UNL     1      -1.161 -42.706  22.092  1.00  0.00     0.002 C 
HETATM   18  C6  UNL     1      -1.010 -41.954  20.821  1.00  0.00     0.028 C 
BRANCH  14  19
HETATM   19  O1  UNL     1      -3.532 -41.637  21.436  1.00  0.00    -0.389 OA
HETATM   20  C1  UNL     1      -4.870 -41.290  21.302  1.00  0.00     0.202 C 
ENDBRANCH  14  19
ENDBRANCH  10  13
ENDBRANCH   5   9
ENDBRANCH   3   4
BRANCH   3  21
HETATM   21  O3  UNL     1      -4.798 -36.566  17.686  1.00  0.00    -0.369 OA
ATOM     22  H3  UNL     1      -5.466 -36.672  17.020  1.00  0.00     0.212 HD
ENDBRANCH   3  21
ENDBRANCH   1   3
BRANCH   1  23
HETATM   23  C15 UNL     1      -4.008 -40.103  16.634  1.00  0.00     0.296 C 
HETATM   24  O5  UNL     1      -3.677 -40.773  17.627  1.00  0.00    -0.264 OA
HETATM   25  N3  UNL     1      -3.902 -40.706  15.340  1.00  0.00    -0.320 N 
ATOM     26  H3  UNL     1      -4.150 -40.145  14.526  1.00  0.00     0.169 HD
BRANCH  25  27
HETATM   27  C16 UNL     1      -3.459 -42.075  15.123  1.00  0.00     0.066 C 
BRANCH  27  28
HETATM   28  C17 UNL     1      -1.976 -42.080  14.874  1.00  0.00     0.195 C 
HETATM   29  O6  UNL     1      -1.628 -41.401  13.869  1.00  0.00    -0.286 OA
BRANCH  28  30
HETATM   30  C18 UNL     1      -1.005 -42.769  15.666  1.00  0.00     0.059 C 
HETATM   31  C19 UNL     1      -0.105 -43.659  15.473  1.00  0.00    -0.076 C 
HETATM   32  C20 UNL     1       0.670 -44.025  16.793  1.00  0.00     0.044 C 
BRANCH  31  33
HETATM   33  C21 UNL     1       0.438 -44.422  14.366  1.00  0.00     0.014 C 
HETATM   34  C22 UNL     1      -0.576 -45.538  14.052  1.00  0.00     0.009 C 
HETATM   35  C23 UNL     1      -0.671 -45.854  12.601  1.00  0.00     0.005 C 
HETATM   36  C24 UNL     1       0.670 -46.019  11.933  1.00  0.00    -0.019 C 
HETATM   37  C25 UNL     1       1.270 -47.385  12.113  1.00  0.00     0.010 C 
HETATM   38  C26 UNL     1       1.638 -44.953  12.333  1.00  0.00     0.005 C 
HETATM   39  C27 UNL     1       0.962 -43.825  13.143  1.00  0.00     0.009 C 
ENDBRANCH  31  33
ENDBRANCH  28  30
ENDBRANCH  27  28
BRANCH  27  40
HETATM   40  C28 UNL     1      -4.354 -42.894  14.345  1.00  0.00     0.031 C 
HETATM   41  C29 UNL     1      -3.750 -44.043  13.591  1.00  0.00     0.016 C 
HETATM   42  C30 UNL     1      -5.297 -42.105  13.434  1.00  0.00     0.016 C 
ENDBRANCH  27  40
ENDBRANCH  25  27
ENDBRANCH   1  23
TORSDOF 12
ENDMDL
MODEL 5
REMARK VINA RESULT: -8.203506745      1.527      2.615
REMARK  12 active torsions:
REMARK  status: ('A' for Active; 'I' for Inactive)
REMARK    1  A    between atoms: O1_2  and  C2_3 
REMARK    2  A    between atoms: C7_8  and  N1_9 
REMARK       I    between atoms: N1_9  and  C8_11 
REMARK    3  A    between atoms: C8_11  and  C9_13 
REMARK    4  A    between atoms: N2_17  and  C13_18 
REMARK    5  A    between atoms: C13_18  and  O3_19 
REMARK    6  A    between atoms: C13_18  and  C14_21 
REMARK    7  A    between atoms: C14_21  and  C15_23 
REMARK       I    between atoms: C15_23  and  N3_25 
REMARK    8  A    between atoms: N3_25  and  C16_27 
REMARK    9  A    between atoms: C16_27  and  C17_28 
REMARK   10  A    between atoms: C16_27  and  C28_40 
REMARK   11  A    between atoms: C17_28  and  C18_30 
REMARK   12  A    between atoms: C19_31  and  C21_33 
ROOT
HETATM    1  C14 UNL     1      -3.768 -40.375  16.366  1.00  0.00     0.264 C 
HETATM    2  O4  UNL     1      -3.967 -41.177  17.315  1.00  0.00    -0.282 OA
ENDROOT
BRANCH   1   3
HETATM    3  C13 UNL     1      -4.235 -38.997  16.541  1.00  0.00     0.297 C 
BRANCH   3   4
HETATM    4  N2  UNL     1      -3.310 -38.135  17.042  1.00  0.00    -0.368 N 
HETATM    5  C9  UNL     1      -2.736 -37.951  18.251  1.00  0.00     0.174 C 
HETATM    6  C10 UNL     1      -2.557 -36.394  18.278  1.00  0.00     0.036 C 
HETATM    7  C11 UNL     1      -1.884 -36.265  16.904  1.00  0.00     0.022 C 
HETATM    8  C12 UNL     1      -2.721 -37.248  16.088  1.00  0.00     0.120 C 
BRANCH   5   9
HETATM    9  C8  UNL     1      -3.196 -38.451  19.524  1.00  0.00     0.240 C 
HETATM   10  N1  UNL     1      -3.017 -39.746  20.069  1.00  0.00    -0.352 N 
ATOM     11  H1  UNL     1      -2.520 -40.434  19.503  1.00  0.00     0.163 HD
HETATM   12  O2  UNL     1      -3.850 -37.663  20.313  1.00  0.00    -0.271 OA
BRANCH  10  13
HETATM   13  C7  UNL     1      -3.490 -40.166  21.375  1.00  0.00     0.113 C 
HETATM   14  C2  UNL     1      -4.239 -41.466  21.380  1.00  0.00     0.143 C 
HETATM   15  C3  UNL     1      -5.094 -41.439  22.651  1.00  0.00     0.034 C 
HETATM   16  C4  UNL     1      -4.269 -40.966  23.828  1.00  0.00     0.003 C 
HETATM   17  C5  UNL     1      -2.794 -41.047  23.553  1.00  0.00     0.002 C 
HETATM   18  C6  UNL     1      -2.349 -40.291  22.355  1.00  0.00     0.028 C 
BRANCH  14  19
HETATM   19  O1  UNL     1      -3.335 -42.502  21.365  1.00  0.00    -0.389 OA
HETATM   20  C1  UNL     1      -3.482 -43.348  20.274  1.00  0.00     0.202 C 
ENDBRANCH  14  19
ENDBRANCH  10  13
ENDBRANCH   5   9
ENDBRANCH   3   4
BRANCH   3  21
HETATM   21  O3  UNL     1      -4.733 -38.480  15.319  1.00  0.00    -0.369 OA
ATOM     22  H3  UNL     1      -5.665 -38.652  15.267  1.00  0.00     0.212 HD
ENDBRANCH   3  21
ENDBRANCH   1   3
BRANCH   1  23
HETATM   23  C15 UNL     1      -3.088 -40.910  15.192  1.00  0.00     0.296 C 
HETATM   24  O5  UNL     1      -3.044 -40.265  14.130  1.00  0.00    -0.264 OA
HETATM   25  N3  UNL     1      -2.449 -42.190  15.236  1.00  0.00    -0.320 N 
ATOM     26  H3  UNL     1      -2.509 -42.728  16.100  1.00  0.00     0.169 HD
BRANCH  25  27
HETATM   27  C16 UNL     1      -1.720 -42.766  14.116  1.00  0.00     0.066 C 
BRANCH  27  28
HETATM   28  C17 UNL     1      -2.087 -44.218  13.983  1.00  0.00     0.195 C 
HETATM   29  O6  UNL     1      -2.770 -44.659  14.948  1.00  0.00    -0.286 OA
BRANCH  28  30
HETATM   30  C18 UNL     1      -1.725 -45.068  12.892  1.00  0.00     0.059 C 
HETATM   31  C19 UNL     1      -0.787 -45.900  12.627  1.00  0.00    -0.076 C 
HETATM   32  C20 UNL     1      -0.941 -46.544  11.200  1.00  0.00     0.044 C 
BRANCH  31  33
HETATM   33  C21 UNL     1       0.382 -46.452  13.285  1.00  0.00     0.014 C 
HETATM   34  C22 UNL     1       1.612 -45.784  12.644  1.00  0.00     0.009 C 
HETATM   35  C23 UNL     1       2.719 -45.545  13.610  1.00  0.00     0.005 C 
HETATM   36  C24 UNL     1       3.032 -46.740  14.473  1.00  0.00    -0.019 C 
HETATM   37  C25 UNL     1       3.931 -47.745  13.808  1.00  0.00     0.010 C 
HETATM   38  C26 UNL     1       1.799 -47.396  15.004  1.00  0.00     0.005 C 
HETATM   39  C27 UNL     1       0.530 -46.558  14.732  1.00  0.00     0.009 C 
ENDBRANCH  31  33
ENDBRANCH  28  30
ENDBRANCH  27  28
BRANCH  27  40
HETATM   40  C28 UNL     1      -0.356 -42.320  13.977  1.00  0.00     0.031 C 
HETATM   41  C29 UNL     1       0.265 -42.432  12.614  1.00  0.00     0.016 C 
HETATM   42  C30 UNL     1       0.598 -42.873  15.037  1.00  0.00     0.016 C 
ENDBRANCH  27  40
ENDBRANCH  25  27
ENDBRANCH   1  23
TORSDOF 12
ENDMDL
