MODEL 1
REMARK VINA RESULT: -8.162546783      0.000      0.000
REMARK  12 active torsions:
REMARK  status: ('A' for Active; 'I' for Inactive)
REMARK    1  A    between atoms: C2_2  and  S1_4 
REMARK    2  A    between atoms: S1_4  and  C3_5 
REMARK    3  A    between atoms: C3_5  and  C4_6 
REMARK    4  A    between atoms: C4_6  and  C5_7 
REMARK    5  A    between atoms: C5_7  and  C7_9 
REMARK       I    between atoms: C7_9  and  N1_11 
REMARK    6  A    between atoms: N1_11  and  C8_13 
REMARK    7  A    between atoms: C13_18  and  N2_19 
REMARK       I    between atoms: N2_19  and  C14_21 
REMARK    8  A    between atoms: C14_21  and  C15_23 
REMARK       I    between atoms: N3_26  and  C18_27 
REMARK    9  A    between atoms: C18_27  and  O5_29 
REMARK   10  A    between atoms: O5_29  and  C19_30 
REMARK   11  A    between atoms: C19_30  and  C20_31 
REMARK   12  A    between atoms: C20_31  and  O6_32 
ROOT
HETATM    1  C8  UNL     1       0.481 -43.731  14.841  1.00  0.00     0.034 C 
HETATM    2  C9  UNL     1      -0.635 -44.743  14.706  1.00  0.00     0.035 C 
HETATM    3  C10 UNL     1      -1.702 -44.428  13.743  1.00  0.00    -0.012 C 
HETATM    4  C11 UNL     1      -3.024 -44.064  14.400  1.00  0.00     0.007 C 
HETATM    5  C12 UNL     1      -2.873 -42.967  15.412  1.00  0.00     0.026 C 
HETATM    6  C13 UNL     1      -2.244 -41.729  14.839  1.00  0.00     0.089 C 
HETATM    7  C23 UNL     1      -0.792 -41.799  14.559  1.00  0.00     0.015 C 
HETATM    8  C24 UNL     1       0.024 -42.514  15.594  1.00  0.00     0.038 C 
HETATM    9  C25 UNL     1      -0.422 -42.352  13.206  1.00  0.00    -0.006 C 
HETATM   10  C26 UNL     1      -1.406 -43.386  12.720  1.00  0.00     0.010 C 
HETATM   11  C27 UNL     1       0.867 -43.142  13.506  1.00  0.00     0.036 C 
ENDROOT
BRANCH   6  12
HETATM   12  N2  UNL     1      -2.532 -40.551  15.632  1.00  0.00    -0.356 N 
HETATM   13  C14 UNL     1      -3.101 -39.375  15.143  1.00  0.00     0.222 C 
HETATM   14  O3  UNL     1      -3.396 -39.309  13.922  1.00  0.00    -0.273 OA
ATOM     15  H2  UNL     1      -2.300 -40.584  16.625  1.00  0.00     0.162 HD
BRANCH  13  16
HETATM   16  C15 UNL     1      -3.370 -38.213  15.987  1.00  0.00     0.081 C 
HETATM   17  C16 UNL     1      -3.836 -38.526  17.378  1.00  0.00     0.034 C 
HETATM   18  C17 UNL     1      -2.717 -39.024  18.275  1.00  0.00     0.129 C 
HETATM   19  N3  UNL     1      -1.678 -38.017  18.263  1.00  0.00    -0.328 N 
HETATM   20  C18 UNL     1      -1.205 -37.431  19.480  1.00  0.00     0.362 C 
HETATM   21  C21 UNL     1      -1.142 -37.632  16.975  1.00  0.00     0.129 C 
HETATM   22  O4  UNL     1      -0.302 -36.558  19.467  1.00  0.00    -0.238 OA
HETATM   23  C22 UNL     1      -2.251 -37.208  16.036  1.00  0.00     0.034 C 
BRANCH  20  24
HETATM   24  O5  UNL     1      -1.721 -37.803  20.713  1.00  0.00    -0.302 OA
BRANCH  24  25
HETATM   25  C19 UNL     1      -0.868 -38.397  21.654  1.00  0.00     0.206 C 
BRANCH  25  26
HETATM   26  C20 UNL     1      -0.442 -37.440  22.738  1.00  0.00     0.191 C 
BRANCH  26  27
HETATM   27  O6  UNL     1       0.467 -36.495  22.312  1.00  0.00    -0.399 OA
ATOM     28  H6  UNL     1       1.355 -36.827  22.243  1.00  0.00     0.209 HD
ENDBRANCH  26  27
ENDBRANCH  25  26
ENDBRANCH  24  25
ENDBRANCH  20  24
ENDBRANCH  13  16
ENDBRANCH   6  12
BRANCH   1  29
HETATM   29  N1  UNL     1       1.615 -44.411  15.451  1.00  0.00    -0.351 N 
HETATM   30  C7  UNL     1       2.926 -43.961  15.498  1.00  0.00     0.222 C 
HETATM   31  O2  UNL     1       3.285 -42.843  14.968  1.00  0.00    -0.273 OA
ATOM     32  H1  UNL     1       1.425 -45.312  15.890  1.00  0.00     0.163 HD
BRANCH  30  33
HETATM   33  C5  UNL     1       4.037 -44.722  16.163  1.00  0.00     0.074 C 
HETATM   34  C6  UNL     1       3.273 -45.768  17.091  1.00  0.00     0.020 C 
BRANCH  33  35
HETATM   35  C4  UNL     1       4.805 -45.570  15.235  1.00  0.00     0.024 C 
BRANCH  35  36
HETATM   36  C3  UNL     1       4.517 -47.025  15.185  1.00  0.00     0.083 C 
BRANCH  36  37
HETATM   37  S1  UNL     1       3.611 -47.549  13.813  1.00  0.00    -0.093 SA
BRANCH  37  38
HETATM   38  C2  UNL     1       2.516 -46.737  12.841  1.00  0.00     0.182 C 
HETATM   39  C1  UNL     1       1.091 -47.048  12.563  1.00  0.00     0.104 C 
HETATM   40  O1  UNL     1       2.897 -45.673  12.207  1.00  0.00    -0.286 OA
ENDBRANCH  37  38
ENDBRANCH  36  37
ENDBRANCH  35  36
ENDBRANCH  33  35
ENDBRANCH  30  33
ENDBRANCH   1  29
TORSDOF 12
ENDMDL
MODEL 2
REMARK VINA RESULT: -7.964758146      1.413      1.869
REMARK  12 active torsions:
REMARK  status: ('A' for Active; 'I' for Inactive)
REMARK    1  A    between atoms: C2_2  and  S1_4 
REMARK    2  A    between atoms: S1_4  and  C3_5 
REMARK    3  A    between atoms: C3_5  and  C4_6 
REMARK    4  A    between atoms: C4_6  and  C5_7 
REMARK    5  A    between atoms: C5_7  and  C7_9 
REMARK       I    between atoms: C7_9  and  N1_11 
REMARK    6  A    between atoms: N1_11  and  C8_13 
REMARK    7  A    between atoms: C13_18  and  N2_19 
REMARK       I    between atoms: N2_19  and  C14_21 
REMARK    8  A    between atoms: C14_21  and  C15_23 
REMARK       I    between atoms: N3_26  and  C18_27 
REMARK    9  A    between atoms: C18_27  and  O5_29 
REMARK   10  A    between atoms: O5_29  and  C19_30 
REMARK   11  A    between atoms: C19_30  and  C20_31 
REMARK   12  A    between atoms: C20_31  and  O6_32 
ROOT
HETATM    1  C8  UNL     1       0.620 -43.894  14.646  1.00  0.00     0.034 C 
HETATM    2  C9  UNL     1      -0.415 -44.965  14.386  1.00  0.00     0.035 C 
HETATM    3  C10 UNL     1      -1.391 -44.699  13.317  1.00  0.00    -0.012 C 
HETATM    4  C11 UNL     1      -2.793 -44.418  13.832  1.00  0.00     0.007 C 
HETATM    5  C12 UNL     1      -2.814 -43.328  14.863  1.00  0.00     0.026 C 
HETATM    6  C13 UNL     1      -2.201 -42.050  14.368  1.00  0.00     0.089 C 
HETATM    7  C23 UNL     1      -0.726 -42.033  14.244  1.00  0.00     0.015 C 
HETATM    8  C24 UNL     1       0.016 -42.715  15.355  1.00  0.00     0.038 C 
HETATM    9  C25 UNL     1      -0.183 -42.547  12.933  1.00  0.00    -0.006 C 
HETATM   10  C26 UNL     1      -1.049 -43.629  12.339  1.00  0.00     0.010 C 
HETATM   11  C27 UNL     1       1.110 -43.266  13.364  1.00  0.00     0.036 C 
ENDROOT
BRANCH   6  12
HETATM   12  N2  UNL     1      -2.638 -40.900  15.134  1.00  0.00    -0.356 N 
HETATM   13  C14 UNL     1      -3.204 -39.744  14.594  1.00  0.00     0.222 C 
HETATM   14  O3  UNL     1      -3.356 -39.673  13.347  1.00  0.00    -0.273 OA
ATOM     15  H2  UNL     1      -2.524 -40.938  16.147  1.00  0.00     0.162 HD
BRANCH  13  16
HETATM   16  C15 UNL     1      -3.628 -38.612  15.412  1.00  0.00     0.081 C 
HETATM   17  C16 UNL     1      -4.590 -38.942  16.514  1.00  0.00     0.034 C 
HETATM   18  C17 UNL     1      -3.927 -39.646  17.683  1.00  0.00     0.129 C 
HETATM   19  N3  UNL     1      -2.849 -38.795  18.140  1.00  0.00    -0.328 N 
HETATM   20  C18 UNL     1      -2.780 -38.358  19.501  1.00  0.00     0.362 C 
HETATM   21  C21 UNL     1      -1.850 -38.410  17.166  1.00  0.00     0.129 C 
HETATM   22  O4  UNL     1      -1.843 -37.620  19.895  1.00  0.00    -0.238 OA
HETATM   23  C22 UNL     1      -2.497 -37.778  15.953  1.00  0.00     0.034 C 
BRANCH  20  24
HETATM   24  O5  UNL     1      -3.740 -38.730  20.432  1.00  0.00    -0.302 OA
BRANCH  24  25
HETATM   25  C19 UNL     1      -3.418 -39.709  21.382  1.00  0.00     0.206 C 
BRANCH  25  26
HETATM   26  C20 UNL     1      -4.274 -40.944  21.256  1.00  0.00     0.191 C 
BRANCH  26  27
HETATM   27  O6  UNL     1      -5.539 -40.689  20.768  1.00  0.00    -0.399 OA
ATOM     28  H6  UNL     1      -5.770 -41.223  20.018  1.00  0.00     0.209 HD
ENDBRANCH  26  27
ENDBRANCH  25  26
ENDBRANCH  24  25
ENDBRANCH  20  24
ENDBRANCH  13  16
ENDBRANCH   6  12
BRANCH   1  29
HETATM   29  N1  UNL     1       1.720 -44.517  15.369  1.00  0.00    -0.351 N 
HETATM   30  C7  UNL     1       3.002 -44.010  15.527  1.00  0.00     0.222 C 
HETATM   31  O2  UNL     1       3.361 -42.885  15.012  1.00  0.00    -0.273 OA
ATOM     32  H1  UNL     1       1.529 -45.418  15.805  1.00  0.00     0.163 HD
BRANCH  30  33
HETATM   33  C5  UNL     1       4.077 -44.714  16.303  1.00  0.00     0.074 C 
HETATM   34  C6  UNL     1       3.277 -45.787  17.166  1.00  0.00     0.020 C 
BRANCH  33  35
HETATM   35  C4  UNL     1       4.969 -45.531  15.463  1.00  0.00     0.024 C 
BRANCH  35  36
HETATM   36  C3  UNL     1       4.832 -47.009  15.494  1.00  0.00     0.083 C 
BRANCH  36  37
HETATM   37  S1  UNL     1       4.044 -47.705  14.126  1.00  0.00    -0.093 SA
BRANCH  37  38
HETATM   38  C2  UNL     1       2.765 -47.157  13.196  1.00  0.00     0.182 C 
HETATM   39  C1  UNL     1       2.746 -46.114  12.140  1.00  0.00     0.104 C 
HETATM   40  O1  UNL     1       1.588 -47.674  13.367  1.00  0.00    -0.286 OA
ENDBRANCH  37  38
ENDBRANCH  36  37
ENDBRANCH  35  36
ENDBRANCH  33  35
ENDBRANCH  30  33
ENDBRANCH   1  29
TORSDOF 12
ENDMDL
MODEL 3
REMARK VINA RESULT: -7.895320917      1.390      1.852
REMARK  12 active torsions:
REMARK  status: ('A' for Active; 'I' for Inactive)
REMARK    1  A    between atoms: C2_2  and  S1_4 
REMARK    2  A    between atoms: S1_4  and  C3_5 
REMARK    3  A    between atoms: C3_5  and  C4_6 
REMARK    4  A    between atoms: C4_6  and  C5_7 
REMARK    5  A    between atoms: C5_7  and  C7_9 
REMARK       I    between atoms: C7_9  and  N1_11 
REMARK    6  A    between atoms: N1_11  and  C8_13 
REMARK    7  A    between atoms: C13_18  and  N2_19 
REMARK       I    between atoms: N2_19  and  C14_21 
REMARK    8  A    between atoms: C14_21  and  C15_23 
REMARK       I    between atoms: N3_26  and  C18_27 
REMARK    9  A    between atoms: C18_27  and  O5_29 
REMARK   10  A    between atoms: O5_29  and  C19_30 
REMARK   11  A    between atoms: C19_30  and  C20_31 
REMARK   12  A    between atoms: C20_31  and  O6_32 
ROOT
HETATM    1  C8  UNL     1       0.741 -44.058  14.595  1.00  0.00     0.034 C 
HETATM    2  C9  UNL     1      -0.412 -45.034  14.651  1.00  0.00     0.035 C 
HETATM    3  C10 UNL     1      -1.539 -44.781  13.739  1.00  0.00    -0.012 C 
HETATM    4  C11 UNL     1      -2.796 -44.299  14.446  1.00  0.00     0.007 C 
HETATM    5  C12 UNL     1      -2.535 -43.108  15.321  1.00  0.00     0.026 C 
HETATM    6  C13 UNL     1      -1.914 -41.963  14.573  1.00  0.00     0.089 C 
HETATM    7  C23 UNL     1      -0.490 -42.118  14.199  1.00  0.00     0.015 C 
HETATM    8  C24 UNL     1       0.380 -42.751  15.244  1.00  0.00     0.038 C 
HETATM    9  C25 UNL     1      -0.240 -42.825  12.890  1.00  0.00    -0.006 C 
HETATM   10  C26 UNL     1      -1.289 -43.865  12.591  1.00  0.00     0.010 C 
HETATM   11  C27 UNL     1       1.043 -43.627  13.181  1.00  0.00     0.036 C 
ENDROOT
BRANCH   6  12
HETATM   12  N2  UNL     1      -2.104 -40.698  15.253  1.00  0.00    -0.356 N 
HETATM   13  C14 UNL     1      -3.333 -40.060  15.430  1.00  0.00     0.222 C 
HETATM   14  O3  UNL     1      -4.369 -40.607  14.972  1.00  0.00    -0.273 OA
ATOM     15  H2  UNL     1      -1.276 -40.237  15.632  1.00  0.00     0.162 HD
BRANCH  13  16
HETATM   16  C15 UNL     1      -3.471 -38.782  16.123  1.00  0.00     0.081 C 
HETATM   17  C16 UNL     1      -3.945 -38.872  17.543  1.00  0.00     0.034 C 
HETATM   18  C17 UNL     1      -2.870 -39.367  18.493  1.00  0.00     0.129 C 
HETATM   19  N3  UNL     1      -1.735 -38.480  18.354  1.00  0.00    -0.328 N 
HETATM   20  C18 UNL     1      -1.187 -37.800  19.488  1.00  0.00     0.362 C 
HETATM   21  C21 UNL     1      -1.182 -38.314  17.027  1.00  0.00     0.129 C 
HETATM   22  O4  UNL     1      -0.201 -37.031  19.365  1.00  0.00    -0.238 OA
HETATM   23  C22 UNL     1      -2.255 -37.898  16.045  1.00  0.00     0.034 C 
BRANCH  20  24
HETATM   24  O5  UNL     1      -1.720 -37.962  20.759  1.00  0.00    -0.302 OA
BRANCH  24  25
HETATM   25  C19 UNL     1      -0.887 -38.418  21.790  1.00  0.00     0.206 C 
BRANCH  25  26
HETATM   26  C20 UNL     1      -0.482 -37.318  22.738  1.00  0.00     0.191 C 
BRANCH  26  27
HETATM   27  O6  UNL     1       0.512 -36.501  22.242  1.00  0.00    -0.399 OA
ATOM     28  H6  UNL     1       0.257 -35.588  22.182  1.00  0.00     0.209 HD
ENDBRANCH  26  27
ENDBRANCH  25  26
ENDBRANCH  24  25
ENDBRANCH  20  24
ENDBRANCH  13  16
ENDBRANCH   6  12
BRANCH   1  29
HETATM   29  N1  UNL     1       1.897 -44.713  15.193  1.00  0.00    -0.351 N 
HETATM   30  C7  UNL     1       3.174 -44.189  15.321  1.00  0.00     0.222 C 
HETATM   31  O2  UNL     1       3.477 -43.012  14.890  1.00  0.00    -0.273 OA
ATOM     32  H1  UNL     1       1.751 -45.655  15.555  1.00  0.00     0.163 HD
BRANCH  30  33
HETATM   33  C5  UNL     1       4.310 -44.930  15.965  1.00  0.00     0.074 C 
HETATM   34  C6  UNL     1       3.582 -45.969  16.928  1.00  0.00     0.020 C 
BRANCH  33  35
HETATM   35  C4  UNL     1       5.060 -45.784  15.029  1.00  0.00     0.024 C 
BRANCH  35  36
HETATM   36  C3  UNL     1       4.361 -46.912  14.366  1.00  0.00     0.083 C 
BRANCH  36  37
HETATM   37  S1  UNL     1       5.141 -48.445  14.506  1.00  0.00    -0.093 SA
BRANCH  37  38
HETATM   38  C2  UNL     1       6.762 -48.863  14.481  1.00  0.00     0.182 C 
HETATM   39  C1  UNL     1       7.476 -49.918  15.243  1.00  0.00     0.104 C 
HETATM   40  O1  UNL     1       7.574 -48.213  13.705  1.00  0.00    -0.286 OA
ENDBRANCH  37  38
ENDBRANCH  36  37
ENDBRANCH  35  36
ENDBRANCH  33  35
ENDBRANCH  30  33
ENDBRANCH   1  29
TORSDOF 12
ENDMDL
MODEL 4
REMARK VINA RESULT: -7.671811303      1.850      2.484
REMARK  12 active torsions:
REMARK  status: ('A' for Active; 'I' for Inactive)
REMARK    1  A    between atoms: C2_2  and  S1_4 
REMARK    2  A    between atoms: S1_4  and  C3_5 
REMARK    3  A    between atoms: C3_5  and  C4_6 
REMARK    4  A    between atoms: C4_6  and  C5_7 
REMARK    5  A    between atoms: C5_7  and  C7_9 
REMARK       I    between atoms: C7_9  and  N1_11 
REMARK    6  A    between atoms: N1_11  and  C8_13 
REMARK    7  A    between atoms: C13_18  and  N2_19 
REMARK       I    between atoms: N2_19  and  C14_21 
REMARK    8  A    between atoms: C14_21  and  C15_23 
REMARK       I    between atoms: N3_26  and  C18_27 
REMARK    9  A    between atoms: C18_27  and  O5_29 
REMARK   10  A    between atoms: O5_29  and  C19_30 
REMARK   11  A    between atoms: C19_30  and  C20_31 
REMARK   12  A    between atoms: C20_31  and  O6_32 
ROOT
HETATM    1  C8  UNL     1       0.733 -44.066  14.521  1.00  0.00     0.034 C 
HETATM    2  C9  UNL     1      -0.372 -45.092  14.415  1.00  0.00     0.035 C 
HETATM    3  C10 UNL     1      -1.408 -44.848  13.399  1.00  0.00    -0.012 C 
HETATM    4  C11 UNL     1      -2.753 -44.452  13.986  1.00  0.00     0.007 C 
HETATM    5  C12 UNL     1      -2.643 -43.291  14.930  1.00  0.00     0.026 C 
HETATM    6  C13 UNL     1      -2.001 -42.089  14.298  1.00  0.00     0.089 C 
HETATM    7  C23 UNL     1      -0.540 -42.165  14.072  1.00  0.00     0.015 C 
HETATM    8  C24 UNL     1       0.245 -42.806  15.178  1.00  0.00     0.038 C 
HETATM    9  C25 UNL     1      -0.122 -42.802  12.770  1.00  0.00    -0.006 C 
HETATM   10  C26 UNL     1      -1.083 -43.873  12.320  1.00  0.00     0.010 C 
HETATM   11  C27 UNL     1       1.160 -43.561  13.165  1.00  0.00     0.036 C 
ENDROOT
BRANCH   6  12
HETATM   12  N2  UNL     1      -2.322 -40.864  15.003  1.00  0.00    -0.356 N 
HETATM   13  C14 UNL     1      -3.428 -40.054  14.742  1.00  0.00     0.222 C 
HETATM   14  O3  UNL     1      -4.222 -40.394  13.827  1.00  0.00    -0.273 OA
ATOM     15  H2  UNL     1      -1.690 -40.570  15.749  1.00  0.00     0.162 HD
BRANCH  13  16
HETATM   16  C15 UNL     1      -3.705 -38.826  15.482  1.00  0.00     0.081 C 
HETATM   17  C16 UNL     1      -4.638 -38.978  16.646  1.00  0.00     0.034 C 
HETATM   18  C17 UNL     1      -3.986 -39.650  17.840  1.00  0.00     0.129 C 
HETATM   19  N3  UNL     1      -2.814 -38.873  18.181  1.00  0.00    -0.328 N 
HETATM   20  C18 UNL     1      -2.639 -38.342  19.498  1.00  0.00     0.362 C 
HETATM   21  C21 UNL     1      -1.833 -38.661  17.138  1.00  0.00     0.129 C 
HETATM   22  O4  UNL     1      -1.619 -37.669  19.792  1.00  0.00    -0.238 OA
HETATM   23  C22 UNL     1      -2.478 -38.065  15.906  1.00  0.00     0.034 C 
BRANCH  20  24
HETATM   24  O5  UNL     1      -3.581 -38.548  20.496  1.00  0.00    -0.302 OA
BRANCH  24  25
HETATM   25  C19 UNL     1      -3.272 -39.418  21.551  1.00  0.00     0.206 C 
BRANCH  25  26
HETATM   26  C20 UNL     1      -3.978 -40.745  21.435  1.00  0.00     0.191 C 
BRANCH  26  27
HETATM   27  O6  UNL     1      -5.296 -40.635  21.040  1.00  0.00    -0.399 OA
ATOM     28  H6  UNL     1      -5.652 -41.439  20.682  1.00  0.00     0.209 HD
ENDBRANCH  26  27
ENDBRANCH  25  26
ENDBRANCH  24  25
ENDBRANCH  20  24
ENDBRANCH  13  16
ENDBRANCH   6  12
BRANCH   1  29
HETATM   29  N1  UNL     1       1.850 -44.696  15.212  1.00  0.00    -0.351 N 
HETATM   30  C7  UNL     1       3.127 -44.180  15.369  1.00  0.00     0.222 C 
HETATM   31  O2  UNL     1       3.467 -43.035  14.884  1.00  0.00    -0.273 OA
ATOM     32  H1  UNL     1       1.674 -45.613  15.623  1.00  0.00     0.163 HD
BRANCH  30  33
HETATM   33  C5  UNL     1       4.220 -44.893  16.111  1.00  0.00     0.074 C 
HETATM   34  C6  UNL     1       3.440 -45.978  16.978  1.00  0.00     0.020 C 
BRANCH  33  35
HETATM   35  C4  UNL     1       5.092 -45.699  15.240  1.00  0.00     0.024 C 
BRANCH  35  36
HETATM   36  C3  UNL     1       4.489 -46.773  14.413  1.00  0.00     0.083 C 
BRANCH  36  37
HETATM   37  S1  UNL     1       5.238 -48.321  14.555  1.00  0.00    -0.093 SA
BRANCH  37  38
HETATM   38  C2  UNL     1       6.846 -48.778  14.467  1.00  0.00     0.182 C 
HETATM   39  C1  UNL     1       7.570 -49.830  15.224  1.00  0.00     0.104 C 
HETATM   40  O1  UNL     1       7.635 -48.169  13.637  1.00  0.00    -0.286 OA
ENDBRANCH  37  38
ENDBRANCH  36  37
ENDBRANCH  35  36
ENDBRANCH  33  35
ENDBRANCH  30  33
ENDBRANCH   1  29
TORSDOF 12
ENDMDL
MODEL 5
REMARK VINA RESULT: -7.635776673      1.792      2.410
REMARK  12 active torsions:
REMARK  status: ('A' for Active; 'I' for Inactive)
REMARK    1  A    between atoms: C2_2  and  S1_4 
REMARK    2  A    between atoms: S1_4  and  C3_5 
REMARK    3  A    between atoms: C3_5  and  C4_6 
REMARK    4  A    between atoms: C4_6  and  C5_7 
REMARK    5  A    between atoms: C5_7  and  C7_9 
REMARK       I    between atoms: C7_9  and  N1_11 
REMARK    6  A    between atoms: N1_11  and  C8_13 
REMARK    7  A    between atoms: C13_18  and  N2_19 
REMARK       I    between atoms: N2_19  and  C14_21 
REMARK    8  A    between atoms: C14_21  and  C15_23 
REMARK       I    between atoms: N3_26  and  C18_27 
REMARK    9  A    between atoms: C18_27  and  O5_29 
REMARK   10  A    between atoms: O5_29  and  C19_30 
REMARK   11  A    between atoms: C19_30  and  C20_31 
REMARK   12  A    between atoms: C20_31  and  O6_32 
ROOT
HETATM    1  C8  UNL     1       0.844 -44.528  14.551  1.00  0.00     0.034 C 
HETATM    2  C9  UNL     1      -0.207 -45.354  13.845  1.00  0.00     0.035 C 
HETATM    3  C10 UNL     1      -0.981 -44.681  12.790  1.00  0.00    -0.012 C 
HETATM    4  C11 UNL     1      -2.424 -44.405  13.176  1.00  0.00     0.007 C 
HETATM    5  C12 UNL     1      -2.534 -43.665  14.477  1.00  0.00     0.026 C 
HETATM    6  C13 UNL     1      -1.763 -42.376  14.478  1.00  0.00     0.089 C 
HETATM    7  C23 UNL     1      -0.289 -42.492  14.560  1.00  0.00     0.015 C 
HETATM    8  C24 UNL     1       0.218 -43.545  15.499  1.00  0.00     0.038 C 
HETATM    9  C25 UNL     1       0.418 -42.661  13.238  1.00  0.00    -0.006 C 
HETATM   10  C26 UNL     1      -0.414 -43.419  12.235  1.00  0.00     0.010 C 
HETATM   11  C27 UNL     1       1.574 -43.616  13.596  1.00  0.00     0.036 C 
ENDROOT
BRANCH   6  12
HETATM   12  N2  UNL     1      -2.237 -41.456  15.493  1.00  0.00    -0.356 N 
HETATM   13  C14 UNL     1      -2.742 -40.180  15.245  1.00  0.00     0.222 C 
HETATM   14  O3  UNL     1      -2.801 -39.775  14.055  1.00  0.00    -0.273 OA
ATOM     15  H2  UNL     1      -2.197 -41.766  16.464  1.00  0.00     0.162 HD
BRANCH  13  16
HETATM   16  C15 UNL     1      -3.206 -39.290  16.305  1.00  0.00     0.081 C 
HETATM   17  C16 UNL     1      -3.140 -39.858  17.692  1.00  0.00     0.034 C 
HETATM   18  C17 UNL     1      -1.726 -39.911  18.240  1.00  0.00     0.129 C 
HETATM   19  N3  UNL     1      -1.192 -38.567  18.177  1.00  0.00    -0.328 N 
HETATM   20  C18 UNL     1      -0.681 -37.921  19.347  1.00  0.00     0.362 C 
HETATM   21  C21 UNL     1      -1.196 -37.912  16.887  1.00  0.00     0.129 C 
HETATM   22  O4  UNL     1      -0.217 -36.755  19.289  1.00  0.00    -0.238 OA
HETATM   23  C22 UNL     1      -2.584 -37.919  16.284  1.00  0.00     0.034 C 
BRANCH  20  24
HETATM   24  O5  UNL     1      -0.678 -38.553  20.583  1.00  0.00    -0.302 OA
BRANCH  24  25
HETATM   25  C19 UNL     1      -1.313 -37.928  21.665  1.00  0.00     0.206 C 
BRANCH  25  26
HETATM   26  C20 UNL     1      -0.343 -37.476  22.726  1.00  0.00     0.191 C 
BRANCH  26  27
HETATM   27  O6  UNL     1       0.455 -36.422  22.330  1.00  0.00    -0.399 OA
ATOM     28  H6  UNL     1       0.389 -35.663  22.897  1.00  0.00     0.209 HD
ENDBRANCH  26  27
ENDBRANCH  25  26
ENDBRANCH  24  25
ENDBRANCH  20  24
ENDBRANCH  13  16
ENDBRANCH   6  12
BRANCH   1  29
HETATM   29  N1  UNL     1       1.771 -45.454  15.189  1.00  0.00    -0.351 N 
HETATM   30  C7  UNL     1       2.590 -46.377  14.556  1.00  0.00     0.222 C 
HETATM   31  O2  UNL     1       2.603 -46.514  13.274  1.00  0.00    -0.273 OA
ATOM     32  H1  UNL     1       1.821 -45.421  16.207  1.00  0.00     0.163 HD
BRANCH  30  33
HETATM   33  C5  UNL     1       3.530 -47.287  15.292  1.00  0.00     0.074 C 
HETATM   34  C6  UNL     1       3.637 -48.563  14.344  1.00  0.00     0.020 C 
BRANCH  33  35
HETATM   35  C4  UNL     1       4.910 -46.779  15.356  1.00  0.00     0.024 C 
BRANCH  35  36
HETATM   36  C3  UNL     1       5.777 -47.192  16.488  1.00  0.00     0.083 C 
BRANCH  36  37
HETATM   37  S1  UNL     1       7.043 -48.291  16.083  1.00  0.00    -0.093 SA
BRANCH  37  38
HETATM   38  C2  UNL     1       7.366 -49.128  14.669  1.00  0.00     0.182 C 
HETATM   39  C1  UNL     1       7.378 -50.592  14.421  1.00  0.00     0.104 C 
HETATM   40  O1  UNL     1       7.654 -48.467  13.591  1.00  0.00    -0.286 OA
ENDBRANCH  37  38
ENDBRANCH  36  37
ENDBRANCH  35  36
ENDBRANCH  33  35
ENDBRANCH  30  33
ENDBRANCH   1  29
TORSDOF 12
ENDMDL
