MODEL 1
REMARK VINA RESULT: -8.107328828      0.000      0.000
REMARK  14 active torsions:
REMARK  status: ('A' for Active; 'I' for Inactive)
REMARK    1  A    between atoms: C3_3  and  C4_4 
REMARK    2  A    between atoms: C4_4  and  C6_6 
REMARK    3  A    between atoms: C6_6  and  N1_7 
REMARK    4  A    between atoms: C6_6  and  C19_25 
REMARK       I    between atoms: N1_7  and  C7_9 
REMARK    5  A    between atoms: C7_9  and  O2_11 
REMARK    6  A    between atoms: O2_11  and  C8_12 
REMARK    7  A    between atoms: C15_19  and  C16_20 
REMARK       I    between atoms: C19_25  and  N3_27 
REMARK    8  A    between atoms: N3_27  and  C20_29 
REMARK    9  A    between atoms: C20_29  and  C21_30 
REMARK   10  A    between atoms: C20_29  and  C24_34 
REMARK   11  A    between atoms: C21_30  and  C22_31 
REMARK   12  A    between atoms: C22_31  and  S1_32 
REMARK   13  A    between atoms: C24_34  and  O6_36 
REMARK   14  A    between atoms: O6_36  and  C25_37 
ROOT
HETATM    1  C1  UNL     1      -3.597 -44.003  13.396  1.00  0.00     0.012 C 
HETATM    2  C2  UNL     1      -2.773 -44.339  14.210  1.00  0.00    -0.117 C 
HETATM    3  C3  UNL     1      -1.751 -44.772  15.165  1.00  0.00     0.099 C 
ENDROOT
BRANCH   3   4
HETATM    4  C4  UNL     1      -0.621 -43.862  15.366  1.00  0.00     0.025 C 
HETATM    5  C5  UNL     1      -0.742 -43.119  16.736  1.00  0.00     0.013 C 
BRANCH   4   6
HETATM    6  C6  UNL     1      -0.489 -42.687  14.327  1.00  0.00     0.183 C 
BRANCH   6   7
HETATM    7  N1  UNL     1      -1.106 -41.596  14.830  1.00  0.00    -0.323 N 
HETATM    8  C7  UNL     1      -2.093 -40.618  14.774  1.00  0.00     0.361 C 
HETATM    9  O1  UNL     1      -2.937 -40.568  13.859  1.00  0.00    -0.238 OA
ATOM     10  H1  UNL     1      -0.586 -41.381  15.680  1.00  0.00     0.165 HD
BRANCH   8  11
HETATM   11  O2  UNL     1      -2.204 -39.614  15.713  1.00  0.00    -0.298 OA
BRANCH  11  12
HETATM   12  C8  UNL     1      -3.122 -39.109  16.542  1.00  0.00     0.142 C 
HETATM   13  C9  UNL     1      -2.928 -39.748  17.934  1.00  0.00     0.017 C 
HETATM   14  C10 UNL     1      -4.053 -39.263  18.803  1.00  0.00     0.012 C 
HETATM   15  C18 UNL     1      -1.562 -39.362  18.435  1.00  0.00     0.026 C 
HETATM   16  C11 UNL     1      -3.936 -37.758  18.978  1.00  0.00    -0.013 C 
HETATM   17  C12 UNL     1      -4.072 -37.107  17.623  1.00  0.00     0.012 C 
HETATM   18  C17 UNL     1      -2.612 -37.495  19.632  1.00  0.00     0.023 C 
HETATM   19  C13 UNL     1      -2.983 -37.598  16.710  1.00  0.00     0.017 C 
HETATM   20  C14 UNL     1      -1.672 -37.172  17.343  1.00  0.00     0.026 C 
HETATM   21  C15 UNL     1      -1.512 -37.881  18.668  1.00  0.00     0.040 C 
BRANCH  21  22
HETATM   22  C16 UNL     1      -0.215 -37.474  19.268  1.00  0.00     0.239 C 
HETATM   23  N2  UNL     1      -0.101 -37.102  20.607  1.00  0.00    -0.061 NA
HETATM   24  O3  UNL     1       0.832 -37.460  18.566  1.00  0.00    -0.276 OA
ENDBRANCH  21  22
ENDBRANCH  11  12
ENDBRANCH   8  11
ENDBRANCH   6   7
BRANCH   6  25
HETATM   25  C19 UNL     1       1.016 -42.824  14.099  1.00  0.00     0.245 C 
HETATM   26  O4  UNL     1       1.798 -41.896  14.189  1.00  0.00    -0.271 OA
HETATM   27  N3  UNL     1       1.433 -44.119  13.784  1.00  0.00    -0.324 N 
ATOM     28  H3  UNL     1       0.600 -44.700  13.679  1.00  0.00     0.169 HD
BRANCH  27  29
HETATM   29  C20 UNL     1       2.552 -44.927  13.557  1.00  0.00     0.088 C 
BRANCH  29  30
HETATM   30  C21 UNL     1       3.553 -44.743  14.624  1.00  0.00     0.074 C 
BRANCH  30  31
HETATM   31  C22 UNL     1       3.259 -45.094  16.023  1.00  0.00     0.080 C 
BRANCH  31  32
HETATM   32  S1  UNL     1       4.886 -45.616  16.748  1.00  0.00    -0.173 SA
HETATM   33  C23 UNL     1       5.944 -46.133  15.367  1.00  0.00     0.089 C 
ENDBRANCH  31  32
ENDBRANCH  30  31
ENDBRANCH  29  30
BRANCH  29  34
HETATM   34  C24 UNL     1       2.563 -46.066  12.689  1.00  0.00     0.306 C 
HETATM   35  O5  UNL     1       3.538 -46.910  12.763  1.00  0.00    -0.258 OA
BRANCH  34  36
HETATM   36  O6  UNL     1       1.647 -46.430  11.692  1.00  0.00    -0.306 OA
BRANCH  36  37
HETATM   37  C25 UNL     1       0.358 -46.910  11.904  1.00  0.00     0.060 C 
HETATM   38  C26 UNL     1       0.111 -47.993  10.847  1.00  0.00     0.046 C 
HETATM   39  C27 UNL     1      -0.669 -45.813  11.520  1.00  0.00     0.046 C 
HETATM   40  C28 UNL     1      -0.015 -47.413  13.243  1.00  0.00     0.046 C 
ENDBRANCH  36  37
ENDBRANCH  34  36
ENDBRANCH  29  34
ENDBRANCH  27  29
ENDBRANCH   6  25
ENDBRANCH   4   6
ENDBRANCH   3   4
TORSDOF 14
ENDMDL
MODEL 2
REMARK VINA RESULT: -8.068954571      2.778      5.187
REMARK  14 active torsions:
REMARK  status: ('A' for Active; 'I' for Inactive)
REMARK    1  A    between atoms: C3_3  and  C4_4 
REMARK    2  A    between atoms: C4_4  and  C6_6 
REMARK    3  A    between atoms: C6_6  and  N1_7 
REMARK    4  A    between atoms: C6_6  and  C19_25 
REMARK       I    between atoms: N1_7  and  C7_9 
REMARK    5  A    between atoms: C7_9  and  O2_11 
REMARK    6  A    between atoms: O2_11  and  C8_12 
REMARK    7  A    between atoms: C15_19  and  C16_20 
REMARK       I    between atoms: C19_25  and  N3_27 
REMARK    8  A    between atoms: N3_27  and  C20_29 
REMARK    9  A    between atoms: C20_29  and  C21_30 
REMARK   10  A    between atoms: C20_29  and  C24_34 
REMARK   11  A    between atoms: C21_30  and  C22_31 
REMARK   12  A    between atoms: C22_31  and  S1_32 
REMARK   13  A    between atoms: C24_34  and  O6_36 
REMARK   14  A    between atoms: O6_36  and  C25_37 
ROOT
HETATM    1  C1  UNL     1      -0.216 -48.508  10.107  1.00  0.00     0.012 C 
HETATM    2  C2  UNL     1      -0.554 -47.537  10.739  1.00  0.00    -0.117 C 
HETATM    3  C3  UNL     1      -0.989 -46.386  11.533  1.00  0.00     0.099 C 
ENDROOT
BRANCH   3   4
HETATM    4  C4  UNL     1      -0.109 -45.984  12.632  1.00  0.00     0.025 C 
HETATM    5  C5  UNL     1      -0.940 -45.459  13.847  1.00  0.00     0.013 C 
BRANCH   4   6
HETATM    6  C6  UNL     1       0.876 -44.794  12.327  1.00  0.00     0.183 C 
BRANCH   6   7
HETATM    7  N1  UNL     1       0.534 -43.743  13.101  1.00  0.00    -0.323 N 
HETATM    8  C7  UNL     1       0.866 -42.704  13.965  1.00  0.00     0.361 C 
HETATM    9  O1  UNL     1       2.039 -42.469  14.312  1.00  0.00    -0.238 OA
ATOM     10  H1  UNL     1      -0.479 -43.676  13.005  1.00  0.00     0.165 HD
BRANCH   8  11
HETATM   11  O2  UNL     1      -0.077 -41.866  14.523  1.00  0.00    -0.298 OA
BRANCH  11  12
HETATM   12  C8  UNL     1      -0.740 -41.723  15.674  1.00  0.00     0.142 C 
HETATM   13  C9  UNL     1      -1.412 -40.333  15.681  1.00  0.00     0.017 C 
HETATM   14  C10 UNL     1      -2.033 -40.149  17.036  1.00  0.00     0.012 C 
HETATM   15  C18 UNL     1      -2.401 -40.291  14.547  1.00  0.00     0.026 C 
HETATM   16  C11 UNL     1      -3.132 -41.182  17.226  1.00  0.00    -0.013 C 
HETATM   17  C12 UNL     1      -2.510 -42.557  17.174  1.00  0.00     0.012 C 
HETATM   18  C17 UNL     1      -4.144 -40.948  16.144  1.00  0.00     0.023 C 
HETATM   19  C13 UNL     1      -1.843 -42.764  15.842  1.00  0.00     0.017 C 
HETATM   20  C14 UNL     1      -2.938 -42.668  14.797  1.00  0.00     0.026 C 
HETATM   21  C15 UNL     1      -3.508 -41.268  14.810  1.00  0.00     0.040 C 
BRANCH  21  22
HETATM   22  C16 UNL     1      -4.563 -41.179  13.768  1.00  0.00     0.239 C 
HETATM   23  N2  UNL     1      -4.644 -40.103  12.884  1.00  0.00    -0.061 NA
HETATM   24  O3  UNL     1      -5.423 -42.094  13.656  1.00  0.00    -0.276 OA
ENDBRANCH  21  22
ENDBRANCH  11  12
ENDBRANCH   8  11
ENDBRANCH   6   7
BRANCH   6  25
HETATM   25  C19 UNL     1       2.168 -45.601  12.451  1.00  0.00     0.245 C 
HETATM   26  O4  UNL     1       2.689 -46.185  11.519  1.00  0.00    -0.271 OA
HETATM   27  N3  UNL     1       2.718 -45.608  13.735  1.00  0.00    -0.324 N 
ATOM     28  H3  UNL     1       2.066 -45.132  14.359  1.00  0.00     0.169 HD
BRANCH  27  29
HETATM   29  C20 UNL     1       3.820 -46.017  14.494  1.00  0.00     0.088 C 
BRANCH  29  30
HETATM   30  C21 UNL     1       4.082 -45.062  15.588  1.00  0.00     0.074 C 
BRANCH  30  31
HETATM   31  C22 UNL     1       4.234 -45.512  16.981  1.00  0.00     0.080 C 
BRANCH  31  32
HETATM   32  S1  UNL     1       2.521 -45.955  17.542  1.00  0.00    -0.173 SA
HETATM   33  C23 UNL     1       1.433 -44.583  17.065  1.00  0.00     0.089 C 
ENDBRANCH  31  32
ENDBRANCH  30  31
ENDBRANCH  29  30
BRANCH  29  34
HETATM   34  C24 UNL     1       4.347 -47.348  14.502  1.00  0.00     0.306 C 
HETATM   35  O5  UNL     1       3.634 -48.310  14.985  1.00  0.00    -0.258 OA
BRANCH  34  36
HETATM   36  O6  UNL     1       5.597 -47.809  14.065  1.00  0.00    -0.306 OA
BRANCH  36  37
HETATM   37  C25 UNL     1       6.729 -47.971  14.856  1.00  0.00     0.060 C 
HETATM   38  C26 UNL     1       7.529 -46.667  14.754  1.00  0.00     0.046 C 
HETATM   39  C27 UNL     1       7.675 -49.008  14.197  1.00  0.00     0.046 C 
HETATM   40  C28 UNL     1       6.571 -48.360  16.275  1.00  0.00     0.046 C 
ENDBRANCH  36  37
ENDBRANCH  34  36
ENDBRANCH  29  34
ENDBRANCH  27  29
ENDBRANCH   6  25
ENDBRANCH   4   6
ENDBRANCH   3   4
TORSDOF 14
ENDMDL
MODEL 3
REMARK VINA RESULT: -7.838960510      2.991      5.385
REMARK  14 active torsions:
REMARK  status: ('A' for Active; 'I' for Inactive)
REMARK    1  A    between atoms: C3_3  and  C4_4 
REMARK    2  A    between atoms: C4_4  and  C6_6 
REMARK    3  A    between atoms: C6_6  and  N1_7 
REMARK    4  A    between atoms: C6_6  and  C19_25 
REMARK       I    between atoms: N1_7  and  C7_9 
REMARK    5  A    between atoms: C7_9  and  O2_11 
REMARK    6  A    between atoms: O2_11  and  C8_12 
REMARK    7  A    between atoms: C15_19  and  C16_20 
REMARK       I    between atoms: C19_25  and  N3_27 
REMARK    8  A    between atoms: N3_27  and  C20_29 
REMARK    9  A    between atoms: C20_29  and  C21_30 
REMARK   10  A    between atoms: C20_29  and  C24_34 
REMARK   11  A    between atoms: C21_30  and  C22_31 
REMARK   12  A    between atoms: C22_31  and  S1_32 
REMARK   13  A    between atoms: C24_34  and  O6_36 
REMARK   14  A    between atoms: O6_36  and  C25_37 
ROOT
HETATM    1  C1  UNL     1      -0.210 -48.498  10.056  1.00  0.00     0.012 C 
HETATM    2  C2  UNL     1      -0.354 -47.631  10.883  1.00  0.00    -0.117 C 
HETATM    3  C3  UNL     1      -0.552 -46.610  11.914  1.00  0.00     0.099 C 
ENDROOT
BRANCH   3   4
HETATM    4  C4  UNL     1       0.537 -46.441  12.879  1.00  0.00     0.025 C 
HETATM    5  C5  UNL     1      -0.026 -46.163  14.310  1.00  0.00     0.013 C 
BRANCH   4   6
HETATM    6  C6  UNL     1       1.499 -45.221  12.625  1.00  0.00     0.183 C 
BRANCH   6   7
HETATM    7  N1  UNL     1       0.974 -44.128  13.217  1.00  0.00    -0.323 N 
HETATM    8  C7  UNL     1       1.110 -42.947  13.939  1.00  0.00     0.361 C 
HETATM    9  O1  UNL     1       2.215 -42.515  14.317  1.00  0.00    -0.238 OA
ATOM     10  H1  UNL     1      -0.029 -44.208  13.051  1.00  0.00     0.165 HD
BRANCH   8  11
HETATM   11  O2  UNL     1       0.032 -42.171  14.311  1.00  0.00    -0.298 OA
BRANCH  11  12
HETATM   12  C8  UNL     1      -0.644 -41.853  15.419  1.00  0.00     0.142 C 
HETATM   13  C9  UNL     1      -1.714 -40.802  15.054  1.00  0.00     0.017 C 
HETATM   14  C10 UNL     1      -2.363 -40.369  16.338  1.00  0.00     0.012 C 
HETATM   15  C18 UNL     1      -2.667 -41.431  14.073  1.00  0.00     0.026 C 
HETATM   16  C11 UNL     1      -3.087 -41.553  16.956  1.00  0.00    -0.013 C 
HETATM   17  C12 UNL     1      -2.069 -42.621  17.279  1.00  0.00     0.012 C 
HETATM   18  C17 UNL     1      -4.121 -42.000  15.965  1.00  0.00     0.023 C 
HETATM   19  C13 UNL     1      -1.369 -43.054  16.020  1.00  0.00     0.017 C 
HETATM   20  C14 UNL     1      -2.439 -43.636  15.116  1.00  0.00     0.026 C 
HETATM   21  C15 UNL     1      -3.416 -42.545  14.743  1.00  0.00     0.040 C 
BRANCH  21  22
HETATM   22  C16 UNL     1      -4.445 -43.120  13.841  1.00  0.00     0.239 C 
HETATM   23  N2  UNL     1      -5.755 -42.640  13.807  1.00  0.00    -0.061 NA
HETATM   24  O3  UNL     1      -4.151 -44.071  13.067  1.00  0.00    -0.276 OA
ENDBRANCH  21  22
ENDBRANCH  11  12
ENDBRANCH   8  11
ENDBRANCH   6   7
BRANCH   6  25
HETATM   25  C19 UNL     1       2.788 -45.924  13.052  1.00  0.00     0.245 C 
HETATM   26  O4  UNL     1       3.272 -46.865  12.450  1.00  0.00    -0.271 OA
HETATM   27  N3  UNL     1       3.381 -45.389  14.197  1.00  0.00    -0.324 N 
ATOM     28  H3  UNL     1       2.755 -44.676  14.571  1.00  0.00     0.169 HD
BRANCH  27  29
HETATM   29  C20 UNL     1       4.503 -45.455  15.029  1.00  0.00     0.088 C 
BRANCH  29  30
HETATM   30  C21 UNL     1       4.167 -45.009  16.395  1.00  0.00     0.074 C 
BRANCH  30  31
HETATM   31  C22 UNL     1       2.772 -44.924  16.854  1.00  0.00     0.080 C 
BRANCH  31  32
HETATM   32  S1  UNL     1       2.516 -46.423  17.919  1.00  0.00    -0.173 SA
HETATM   33  C23 UNL     1       2.142 -47.808  16.807  1.00  0.00     0.089 C 
ENDBRANCH  31  32
ENDBRANCH  30  31
ENDBRANCH  29  30
BRANCH  29  34
HETATM   34  C24 UNL     1       5.674 -46.230  14.747  1.00  0.00     0.306 C 
HETATM   35  O5  UNL     1       6.840 -45.725  14.978  1.00  0.00    -0.258 OA
BRANCH  34  36
HETATM   36  O6  UNL     1       5.775 -47.520  14.206  1.00  0.00    -0.306 OA
BRANCH  36  37
HETATM   37  C25 UNL     1       5.750 -48.710  14.926  1.00  0.00     0.060 C 
HETATM   38  C26 UNL     1       6.974 -49.520  14.480  1.00  0.00     0.046 C 
HETATM   39  C27 UNL     1       4.564 -49.582  14.440  1.00  0.00     0.046 C 
HETATM   40  C28 UNL     1       5.684 -48.662  16.403  1.00  0.00     0.046 C 
ENDBRANCH  36  37
ENDBRANCH  34  36
ENDBRANCH  29  34
ENDBRANCH  27  29
ENDBRANCH   6  25
ENDBRANCH   4   6
ENDBRANCH   3   4
TORSDOF 14
ENDMDL
MODEL 4
REMARK VINA RESULT: -7.823633483      2.212      3.435
REMARK  14 active torsions:
REMARK  status: ('A' for Active; 'I' for Inactive)
REMARK    1  A    between atoms: C3_3  and  C4_4 
REMARK    2  A    between atoms: C4_4  and  C6_6 
REMARK    3  A    between atoms: C6_6  and  N1_7 
REMARK    4  A    between atoms: C6_6  and  C19_25 
REMARK       I    between atoms: N1_7  and  C7_9 
REMARK    5  A    between atoms: C7_9  and  O2_11 
REMARK    6  A    between atoms: O2_11  and  C8_12 
REMARK    7  A    between atoms: C15_19  and  C16_20 
REMARK       I    between atoms: C19_25  and  N3_27 
REMARK    8  A    between atoms: N3_27  and  C20_29 
REMARK    9  A    between atoms: C20_29  and  C21_30 
REMARK   10  A    between atoms: C20_29  and  C24_34 
REMARK   11  A    between atoms: C21_30  and  C22_31 
REMARK   12  A    between atoms: C22_31  and  S1_32 
REMARK   13  A    between atoms: C24_34  and  O6_36 
REMARK   14  A    between atoms: O6_36  and  C25_37 
ROOT
HETATM    1  C1  UNL     1      -5.594 -42.672  13.691  1.00  0.00     0.012 C 
HETATM    2  C2  UNL     1      -4.542 -43.263  13.728  1.00  0.00    -0.117 C 
HETATM    3  C3  UNL     1      -3.254 -43.959  13.734  1.00  0.00     0.099 C 
ENDROOT
BRANCH   3   4
HETATM    4  C4  UNL     1      -2.166 -43.310  14.468  1.00  0.00     0.025 C 
HETATM    5  C5  UNL     1      -2.607 -42.958  15.925  1.00  0.00     0.013 C 
BRANCH   4   6
HETATM    6  C6  UNL     1      -1.677 -41.927  13.894  1.00  0.00     0.183 C 
BRANCH   6   7
HETATM    7  N1  UNL     1      -2.479 -40.954  14.377  1.00  0.00    -0.323 N 
HETATM    8  C7  UNL     1      -3.328 -39.868  14.190  1.00  0.00     0.361 C 
HETATM    9  O1  UNL     1      -3.617 -39.429  13.061  1.00  0.00    -0.238 OA
ATOM     10  H1  UNL     1      -2.444 -41.076  15.389  1.00  0.00     0.165 HD
BRANCH   8  11
HETATM   11  O2  UNL     1      -3.900 -39.179  15.239  1.00  0.00    -0.298 OA
BRANCH  11  12
HETATM   12  C8  UNL     1      -3.673 -38.079  15.962  1.00  0.00     0.142 C 
HETATM   13  C9  UNL     1      -4.465 -38.190  17.283  1.00  0.00     0.017 C 
HETATM   14  C10 UNL     1      -4.298 -36.887  18.010  1.00  0.00     0.012 C 
HETATM   15  C18 UNL     1      -3.941 -39.381  18.039  1.00  0.00     0.026 C 
HETATM   16  C11 UNL     1      -2.834 -36.704  18.376  1.00  0.00    -0.013 C 
HETATM   17  C12 UNL     1      -2.026 -36.642  17.103  1.00  0.00     0.012 C 
HETATM   18  C17 UNL     1      -2.458 -37.856  19.261  1.00  0.00     0.023 C 
HETATM   19  C13 UNL     1      -2.200 -37.918  16.326  1.00  0.00     0.017 C 
HETATM   20  C14 UNL     1      -1.663 -39.030  17.207  1.00  0.00     0.026 C 
HETATM   21  C15 UNL     1      -2.520 -39.130  18.449  1.00  0.00     0.040 C 
BRANCH  21  22
HETATM   22  C16 UNL     1      -2.000 -40.236  19.293  1.00  0.00     0.239 C 
HETATM   23  N2  UNL     1      -1.114 -40.011  20.348  1.00  0.00    -0.061 NA
HETATM   24  O3  UNL     1      -2.357 -41.425  19.073  1.00  0.00    -0.276 OA
ENDBRANCH  21  22
ENDBRANCH  11  12
ENDBRANCH   8  11
ENDBRANCH   6   7
BRANCH   6  25
HETATM   25  C19 UNL     1      -0.199 -42.107  14.240  1.00  0.00     0.245 C 
HETATM   26  O4  UNL     1       0.434 -41.319  14.917  1.00  0.00    -0.271 OA
HETATM   27  N3  UNL     1       0.374 -43.270  13.721  1.00  0.00    -0.324 N 
ATOM     28  H3  UNL     1      -0.318 -43.721  13.122  1.00  0.00     0.169 HD
BRANCH  27  29
HETATM   29  C20 UNL     1       1.532 -44.054  13.706  1.00  0.00     0.088 C 
BRANCH  29  30
HETATM   30  C21 UNL     1       1.749 -44.638  12.368  1.00  0.00     0.074 C 
BRANCH  30  31
HETATM   31  C22 UNL     1       2.318 -45.984  12.200  1.00  0.00     0.080 C 
BRANCH  31  32
HETATM   32  S1  UNL     1       0.864 -47.092  11.874  1.00  0.00    -0.173 SA
HETATM   33  C23 UNL     1      -0.551 -46.017  11.505  1.00  0.00     0.089 C 
ENDBRANCH  31  32
ENDBRANCH  30  31
ENDBRANCH  29  30
BRANCH  29  34
HETATM   34  C24 UNL     1       2.579 -43.969  14.679  1.00  0.00     0.306 C 
HETATM   35  O5  UNL     1       3.354 -42.936  14.688  1.00  0.00    -0.258 OA
BRANCH  34  36
HETATM   36  O6  UNL     1       2.941 -44.888  15.674  1.00  0.00    -0.306 OA
BRANCH  36  37
HETATM   37  C25 UNL     1       2.165 -45.252  16.770  1.00  0.00     0.060 C 
HETATM   38  C26 UNL     1       3.131 -45.473  17.940  1.00  0.00     0.046 C 
HETATM   39  C27 UNL     1       1.576 -46.667  16.537  1.00  0.00     0.046 C 
HETATM   40  C28 UNL     1       1.050 -44.375  17.191  1.00  0.00     0.046 C 
ENDBRANCH  36  37
ENDBRANCH  34  36
ENDBRANCH  29  34
ENDBRANCH  27  29
ENDBRANCH   6  25
ENDBRANCH   4   6
ENDBRANCH   3   4
TORSDOF 14
ENDMDL
MODEL 5
REMARK VINA RESULT: -7.734444828      2.299      3.480
REMARK  14 active torsions:
REMARK  status: ('A' for Active; 'I' for Inactive)
REMARK    1  A    between atoms: C3_3  and  C4_4 
REMARK    2  A    between atoms: C4_4  and  C6_6 
REMARK    3  A    between atoms: C6_6  and  N1_7 
REMARK    4  A    between atoms: C6_6  and  C19_25 
REMARK       I    between atoms: N1_7  and  C7_9 
REMARK    5  A    between atoms: C7_9  and  O2_11 
REMARK    6  A    between atoms: O2_11  and  C8_12 
REMARK    7  A    between atoms: C15_19  and  C16_20 
REMARK       I    between atoms: C19_25  and  N3_27 
REMARK    8  A    between atoms: N3_27  and  C20_29 
REMARK    9  A    between atoms: C20_29  and  C21_30 
REMARK   10  A    between atoms: C20_29  and  C24_34 
REMARK   11  A    between atoms: C21_30  and  C22_31 
REMARK   12  A    between atoms: C22_31  and  S1_32 
REMARK   13  A    between atoms: C24_34  and  O6_36 
REMARK   14  A    between atoms: O6_36  and  C25_37 
ROOT
HETATM    1  C1  UNL     1      -1.338 -45.574  11.608  1.00  0.00     0.012 C 
HETATM    2  C2  UNL     1      -2.086 -45.031  12.384  1.00  0.00    -0.117 C 
HETATM    3  C3  UNL     1      -2.986 -44.408  13.356  1.00  0.00     0.099 C 
ENDROOT
BRANCH   3   4
HETATM    4  C4  UNL     1      -2.389 -43.417  14.254  1.00  0.00     0.025 C 
HETATM    5  C5  UNL     1      -3.461 -42.831  15.229  1.00  0.00     0.013 C 
BRANCH   4   6
HETATM    6  C6  UNL     1      -1.789 -42.136  13.564  1.00  0.00     0.183 C 
BRANCH   6   7
HETATM    7  N1  UNL     1      -2.332 -41.042  14.140  1.00  0.00    -0.323 N 
HETATM    8  C7  UNL     1      -3.084 -39.874  14.073  1.00  0.00     0.361 C 
HETATM    9  O1  UNL     1      -3.611 -39.474  13.017  1.00  0.00    -0.238 OA
ATOM     10  H1  UNL     1      -2.048 -41.103  15.118  1.00  0.00     0.165 HD
BRANCH   8  11
HETATM   11  O2  UNL     1      -3.289 -39.054  15.163  1.00  0.00    -0.298 OA
BRANCH  11  12
HETATM   12  C8  UNL     1      -2.569 -38.368  16.055  1.00  0.00     0.142 C 
HETATM   13  C9  UNL     1      -3.516 -37.421  16.823  1.00  0.00     0.017 C 
HETATM   14  C10 UNL     1      -2.660 -36.572  17.719  1.00  0.00     0.012 C 
HETATM   15  C18 UNL     1      -4.519 -38.265  17.561  1.00  0.00     0.026 C 
HETATM   16  C11 UNL     1      -1.980 -37.460  18.748  1.00  0.00    -0.013 C 
HETATM   17  C12 UNL     1      -1.083 -38.433  18.022  1.00  0.00     0.012 C 
HETATM   18  C17 UNL     1      -3.068 -38.130  19.535  1.00  0.00     0.023 C 
HETATM   19  C13 UNL     1      -1.901 -39.277  17.083  1.00  0.00     0.017 C 
HETATM   20  C14 UNL     1      -2.882 -40.047  17.947  1.00  0.00     0.026 C 
HETATM   21  C15 UNL     1      -3.820 -39.069  18.617  1.00  0.00     0.040 C 
BRANCH  21  22
HETATM   22  C16 UNL     1      -4.789 -39.834  19.442  1.00  0.00     0.239 C 
HETATM   23  N2  UNL     1      -5.957 -40.376  18.904  1.00  0.00    -0.061 NA
HETATM   24  O3  UNL     1      -4.572 -40.017  20.671  1.00  0.00    -0.276 OA
ENDBRANCH  21  22
ENDBRANCH  11  12
ENDBRANCH   8  11
ENDBRANCH   6   7
BRANCH   6  25
HETATM   25  C19 UNL     1      -0.322 -42.553  13.668  1.00  0.00     0.245 C 
HETATM   26  O4  UNL     1       0.480 -42.426  12.761  1.00  0.00    -0.271 OA
HETATM   27  N3  UNL     1       0.036 -43.090  14.907  1.00  0.00    -0.324 N 
ATOM     28  H3  UNL     1      -0.812 -43.177  15.467  1.00  0.00     0.169 HD
BRANCH  27  29
HETATM   29  C20 UNL     1       1.109 -43.553  15.675  1.00  0.00     0.088 C 
BRANCH  29  30
HETATM   30  C21 UNL     1       0.628 -44.149  16.936  1.00  0.00     0.074 C 
BRANCH  30  31
HETATM   31  C22 UNL     1       1.559 -44.744  17.909  1.00  0.00     0.080 C 
BRANCH  31  32
HETATM   32  S1  UNL     1       0.547 -45.037  19.437  1.00  0.00    -0.173 SA
HETATM   33  C23 UNL     1       0.677 -43.542  20.457  1.00  0.00     0.089 C 
ENDBRANCH  31  32
ENDBRANCH  30  31
ENDBRANCH  29  30
BRANCH  29  34
HETATM   34  C24 UNL     1       2.418 -43.815  15.158  1.00  0.00     0.306 C 
HETATM   35  O5  UNL     1       3.196 -42.826  14.870  1.00  0.00    -0.258 OA
BRANCH  34  36
HETATM   36  O6  UNL     1       3.029 -45.045  14.873  1.00  0.00    -0.306 OA
BRANCH  36  37
HETATM   37  C25 UNL     1       2.682 -45.908  13.839  1.00  0.00     0.060 C 
HETATM   38  C26 UNL     1       1.567 -46.813  14.375  1.00  0.00     0.046 C 
HETATM   39  C27 UNL     1       3.843 -46.904  13.588  1.00  0.00     0.046 C 
HETATM   40  C28 UNL     1       2.293 -45.346  12.527  1.00  0.00     0.046 C 
ENDBRANCH  36  37
ENDBRANCH  34  36
ENDBRANCH  29  34
ENDBRANCH  27  29
ENDBRANCH   6  25
ENDBRANCH   4   6
ENDBRANCH   3   4
TORSDOF 14
ENDMDL
