MODEL 1
REMARK VINA RESULT: -8.976650914      0.000      0.000
REMARK  16 active torsions:
REMARK  status: ('A' for Active; 'I' for Inactive)
REMARK    1  A    between atoms: O1_2  and  C2_3 
REMARK       I    between atoms: C2_3  and  N1_5 
REMARK    2  A    between atoms: N1_5  and  C3_6 
REMARK    3  A    between atoms: C3_6  and  C5_8 
REMARK       I    between atoms: C5_8  and  N2_10 
REMARK    4  A    between atoms: N2_10  and  C6_12 
REMARK    5  A    between atoms: C6_12  and  C7_13 
REMARK    6  A    between atoms: C6_12  and  C14_20 
REMARK    7  A    between atoms: C7_13  and  C8_14 
REMARK    8  A    between atoms: C14_20  and  O5_22 
REMARK    9  A    between atoms: O5_22  and  C15_23 
REMARK   10  A    between atoms: C15_23  and  C16_24 
REMARK   11  A    between atoms: C15_23  and  C26_43 
REMARK       I    between atoms: C16_24  and  N3_26 
REMARK   12  A    between atoms: N3_26  and  C17_28 
REMARK   13  A    between atoms: C17_28  and  C18_29 
REMARK   14  A    between atoms: C17_28  and  C23_40 
REMARK       I    between atoms: C18_29  and  N4_31 
REMARK   15  A    between atoms: N4_31  and  C19_33 
REMARK   16  A    between atoms: C19_33  and  C20_34 
ROOT
HETATM    1  C15 UNL     1      -1.820 -42.610  14.141  1.00  0.00     0.228 C 
ENDROOT
BRANCH   1   2
HETATM    2  O5  UNL     1      -1.497 -41.933  15.329  1.00  0.00    -0.304 OA
BRANCH   2   3
HETATM    3  C14 UNL     1      -2.237 -41.332  16.274  1.00  0.00     0.282 C 
HETATM    4  O4  UNL     1      -2.595 -41.998  17.278  1.00  0.00    -0.263 OA
BRANCH   3   5
HETATM    5  C6  UNL     1      -2.653 -39.899  16.185  1.00  0.00     0.184 C 
BRANCH   5   6
HETATM    6  N2  UNL     1      -3.585 -39.629  17.279  1.00  0.00    -0.345 N 
HETATM    7  C5  UNL     1      -4.745 -38.841  17.170  1.00  0.00     0.254 C 
HETATM    8  O3  UNL     1      -5.043 -38.370  16.070  1.00  0.00    -0.270 OA
ATOM      9  H2  UNL     1      -3.379 -40.043  18.188  1.00  0.00     0.163 HD
BRANCH   7  10
HETATM   10  C3  UNL     1      -5.547 -38.611  18.415  1.00  0.00     0.256 C 
HETATM   11  C4  UNL     1      -6.935 -38.104  17.827  1.00  0.00     0.058 C 
BRANCH  10  12
HETATM   12  N1  UNL     1      -5.750 -39.746  19.169  1.00  0.00    -0.376 NA
HETATM   13  C2  UNL     1      -5.951 -40.869  19.916  1.00  0.00     0.435 C 
HETATM   14  O2  UNL     1      -6.722 -40.976  20.945  1.00  0.00    -0.221 OA
BRANCH  13  15
HETATM   15  O1  UNL     1      -5.299 -42.094  19.613  1.00  0.00    -0.298 OA
HETATM   16  C1  UNL     1      -4.565 -42.747  20.618  1.00  0.00     0.216 C 
ENDBRANCH  13  15
ENDBRANCH  10  12
ENDBRANCH   7  10
ENDBRANCH   5   6
BRANCH   5  17
HETATM   17  C7  UNL     1      -1.506 -38.966  16.438  1.00  0.00     0.040 C 
BRANCH  17  18
HETATM   18  C8  UNL     1      -1.747 -37.786  17.323  1.00  0.00    -0.012 C 
HETATM   19  C9  UNL     1      -0.649 -37.612  18.363  1.00  0.00     0.005 C 
HETATM   20  C10 UNL     1       0.372 -36.612  17.839  1.00  0.00     0.000 C 
HETATM   21  C11 UNL     1      -0.293 -35.262  17.858  1.00  0.00     0.000 C 
HETATM   22  C12 UNL     1      -1.500 -35.272  16.988  1.00  0.00     0.000 C 
HETATM   23  C13 UNL     1      -1.851 -36.593  16.397  1.00  0.00     0.005 C 
ENDBRANCH  17  18
ENDBRANCH   5  17
ENDBRANCH   3   5
ENDBRANCH   2   3
ENDBRANCH   1   2
BRANCH   1  24
HETATM   24  C16 UNL     1      -0.516 -42.940  13.416  1.00  0.00     0.252 C 
HETATM   25  O6  UNL     1      -0.392 -42.321  12.298  1.00  0.00    -0.270 OA
HETATM   26  N3  UNL     1       0.441 -43.807  13.884  1.00  0.00    -0.323 N 
ATOM     27  H3  UNL     1       0.193 -44.224  14.781  1.00  0.00     0.169 HD
BRANCH  26  28
HETATM   28  C17 UNL     1       1.715 -44.260  13.393  1.00  0.00     0.083 C 
BRANCH  28  29
HETATM   29  C18 UNL     1       2.790 -44.157  14.353  1.00  0.00     0.264 C 
HETATM   30  O7  UNL     1       3.357 -43.057  14.544  1.00  0.00    -0.266 OA
HETATM   31  N4  UNL     1       3.333 -45.214  15.164  1.00  0.00    -0.348 N 
ATOM     32  H4  UNL     1       2.898 -46.135  15.105  1.00  0.00     0.163 HD
BRANCH  31  33
HETATM   33  C19 UNL     1       4.452 -45.051  16.055  1.00  0.00     0.207 C 
BRANCH  33  34
HETATM   34  C20 UNL     1       5.576 -45.969  15.658  1.00  0.00     0.140 A 
HETATM   35  N5  UNL     1       6.668 -45.687  14.956  1.00  0.00    -0.347 N 
HETATM   36  C21 UNL     1       7.393 -46.821  14.857  1.00  0.00     0.114 A 
ATOM     37  H5  UNL     1       6.914 -44.779  14.563  1.00  0.00     0.167 HD
HETATM   38  C22 UNL     1       6.705 -47.800  15.521  1.00  0.00     0.161 A 
HETATM   39  O8  UNL     1       5.618 -47.230  15.982  1.00  0.00    -0.307 OA
ENDBRANCH  33  34
ENDBRANCH  31  33
ENDBRANCH  28  29
BRANCH  28  40
HETATM   40  C23 UNL     1       1.621 -45.481  12.557  1.00  0.00     0.033 C 
HETATM   41  C24 UNL     1       0.853 -46.600  13.152  1.00  0.00     0.016 C 
HETATM   42  C25 UNL     1       2.921 -45.956  11.979  1.00  0.00     0.016 C 
ENDBRANCH  28  40
ENDBRANCH  26  28
ENDBRANCH   1  24
BRANCH   1  43
HETATM   43  C26 UNL     1      -2.613 -43.804  14.552  1.00  0.00     0.024 C 
HETATM   44  C27 UNL     1      -3.248 -44.413  13.315  1.00  0.00     0.007 C 
HETATM   45  C28 UNL     1      -2.721 -45.767  12.944  1.00  0.00     0.000 C 
HETATM   46  C29 UNL     1      -2.833 -46.762  14.072  1.00  0.00     0.000 C 
HETATM   47  C30 UNL     1      -3.061 -46.024  15.391  1.00  0.00     0.000 C 
HETATM   48  C31 UNL     1      -2.018 -44.882  15.345  1.00  0.00     0.007 C 
ENDBRANCH   1  43
TORSDOF 16
ENDMDL
MODEL 2
REMARK VINA RESULT: -8.921719952      1.690      2.122
REMARK  16 active torsions:
REMARK  status: ('A' for Active; 'I' for Inactive)
REMARK    1  A    between atoms: O1_2  and  C2_3 
REMARK       I    between atoms: C2_3  and  N1_5 
REMARK    2  A    between atoms: N1_5  and  C3_6 
REMARK    3  A    between atoms: C3_6  and  C5_8 
REMARK       I    between atoms: C5_8  and  N2_10 
REMARK    4  A    between atoms: N2_10  and  C6_12 
REMARK    5  A    between atoms: C6_12  and  C7_13 
REMARK    6  A    between atoms: C6_12  and  C14_20 
REMARK    7  A    between atoms: C7_13  and  C8_14 
REMARK    8  A    between atoms: C14_20  and  O5_22 
REMARK    9  A    between atoms: O5_22  and  C15_23 
REMARK   10  A    between atoms: C15_23  and  C16_24 
REMARK   11  A    between atoms: C15_23  and  C26_43 
REMARK       I    between atoms: C16_24  and  N3_26 
REMARK   12  A    between atoms: N3_26  and  C17_28 
REMARK   13  A    between atoms: C17_28  and  C18_29 
REMARK   14  A    between atoms: C17_28  and  C23_40 
REMARK       I    between atoms: C18_29  and  N4_31 
REMARK   15  A    between atoms: N4_31  and  C19_33 
REMARK   16  A    between atoms: C19_33  and  C20_34 
ROOT
HETATM    1  C15 UNL     1      -1.858 -42.416  13.862  1.00  0.00     0.228 C 
ENDROOT
BRANCH   1   2
HETATM    2  O5  UNL     1      -2.166 -41.280  14.628  1.00  0.00    -0.304 OA
BRANCH   2   3
HETATM    3  C14 UNL     1      -2.918 -40.193  14.397  1.00  0.00     0.282 C 
HETATM    4  O4  UNL     1      -3.211 -39.900  13.211  1.00  0.00    -0.263 OA
BRANCH   3   5
HETATM    5  C6  UNL     1      -3.427 -39.314  15.494  1.00  0.00     0.184 C 
BRANCH   5   6
HETATM    6  N2  UNL     1      -3.296 -40.041  16.756  1.00  0.00    -0.345 N 
HETATM    7  C5  UNL     1      -4.368 -40.381  17.602  1.00  0.00     0.254 C 
HETATM    8  O3  UNL     1      -5.515 -40.095  17.252  1.00  0.00    -0.270 OA
ATOM      9  H2  UNL     1      -2.359 -40.323  17.044  1.00  0.00     0.163 HD
BRANCH   7  10
HETATM   10  C3  UNL     1      -4.041 -41.065  18.894  1.00  0.00     0.256 C 
HETATM   11  C4  UNL     1      -2.744 -41.901  18.507  1.00  0.00     0.058 C 
BRANCH  10  12
HETATM   12  N1  UNL     1      -3.744 -40.202  19.926  1.00  0.00    -0.376 NA
HETATM   13  C2  UNL     1      -3.452 -39.349  20.949  1.00  0.00     0.435 C 
HETATM   14  O2  UNL     1      -3.797 -39.488  22.185  1.00  0.00    -0.221 OA
BRANCH  13  15
HETATM   15  O1  UNL     1      -2.697 -38.164  20.740  1.00  0.00    -0.298 OA
HETATM   16  C1  UNL     1      -1.425 -38.050  21.325  1.00  0.00     0.216 C 
ENDBRANCH  13  15
ENDBRANCH  10  12
ENDBRANCH   7  10
ENDBRANCH   5   6
BRANCH   5  17
HETATM   17  C7  UNL     1      -2.570 -38.097  15.678  1.00  0.00     0.040 C 
BRANCH  17  18
HETATM   18  C8  UNL     1      -2.343 -37.605  17.072  1.00  0.00    -0.012 C 
HETATM   19  C9  UNL     1      -0.932 -37.893  17.561  1.00  0.00     0.005 C 
HETATM   20  C10 UNL     1      -0.068 -36.662  17.325  1.00  0.00     0.000 C 
HETATM   21  C11 UNL     1      -0.529 -35.614  18.302  1.00  0.00     0.000 C 
HETATM   22  C12 UNL     1      -1.963 -35.292  18.068  1.00  0.00     0.000 C 
HETATM   23  C13 UNL     1      -2.646 -36.123  17.039  1.00  0.00     0.005 C 
ENDBRANCH  17  18
ENDBRANCH   5  17
ENDBRANCH   3   5
ENDBRANCH   2   3
ENDBRANCH   1   2
BRANCH   1  24
HETATM   24  C16 UNL     1      -0.339 -42.584  13.855  1.00  0.00     0.252 C 
HETATM   25  O6  UNL     1       0.273 -41.649  14.487  1.00  0.00    -0.270 OA
HETATM   26  N3  UNL     1       0.331 -43.614  13.242  1.00  0.00    -0.323 N 
ATOM     27  H3  UNL     1      -0.295 -44.272  12.777  1.00  0.00     0.169 HD
BRANCH  26  28
HETATM   28  C17 UNL     1       1.717 -43.975  13.109  1.00  0.00     0.083 C 
BRANCH  28  29
HETATM   29  C18 UNL     1       2.468 -43.906  14.341  1.00  0.00     0.264 C 
HETATM   30  O7  UNL     1       3.403 -43.081  14.461  1.00  0.00    -0.266 OA
HETATM   31  N4  UNL     1       2.279 -44.711  15.519  1.00  0.00    -0.348 N 
ATOM     32  H4  UNL     1       1.507 -45.378  15.524  1.00  0.00     0.163 HD
BRANCH  31  33
HETATM   33  C19 UNL     1       3.111 -44.631  16.691  1.00  0.00     0.207 C 
BRANCH  33  34
HETATM   34  C20 UNL     1       4.288 -45.559  16.562  1.00  0.00     0.140 A 
HETATM   35  N5  UNL     1       5.222 -45.588  15.619  1.00  0.00    -0.347 N 
HETATM   36  C21 UNL     1       6.079 -46.585  15.924  1.00  0.00     0.114 A 
ATOM     37  H5  UNL     1       5.282 -44.968  14.811  1.00  0.00     0.167 HD
HETATM   38  C22 UNL     1       5.633 -47.160  17.082  1.00  0.00     0.161 A 
HETATM   39  O8  UNL     1       4.550 -46.503  17.421  1.00  0.00    -0.307 OA
ENDBRANCH  33  34
ENDBRANCH  31  33
ENDBRANCH  28  29
BRANCH  28  40
HETATM   40  C23 UNL     1       1.939 -45.127  12.203  1.00  0.00     0.033 C 
HETATM   41  C24 UNL     1       0.741 -45.952  11.921  1.00  0.00     0.016 C 
HETATM   42  C25 UNL     1       3.125 -45.981  12.541  1.00  0.00     0.016 C 
ENDBRANCH  28  40
ENDBRANCH  26  28
ENDBRANCH   1  24
BRANCH   1  43
HETATM   43  C26 UNL     1      -2.597 -43.548  14.492  1.00  0.00     0.024 C 
HETATM   44  C27 UNL     1      -3.269 -44.357  13.396  1.00  0.00     0.007 C 
HETATM   45  C28 UNL     1      -2.721 -45.741  13.216  1.00  0.00     0.000 C 
HETATM   46  C29 UNL     1      -2.753 -46.550  14.488  1.00  0.00     0.000 C 
HETATM   47  C30 UNL     1      -2.943 -45.619  15.687  1.00  0.00     0.000 C 
HETATM   48  C31 UNL     1      -1.937 -44.476  15.412  1.00  0.00     0.007 C 
ENDBRANCH   1  43
TORSDOF 16
ENDMDL
MODEL 3
REMARK VINA RESULT: -8.866084898      1.164      1.324
REMARK  16 active torsions:
REMARK  status: ('A' for Active; 'I' for Inactive)
REMARK    1  A    between atoms: O1_2  and  C2_3 
REMARK       I    between atoms: C2_3  and  N1_5 
REMARK    2  A    between atoms: N1_5  and  C3_6 
REMARK    3  A    between atoms: C3_6  and  C5_8 
REMARK       I    between atoms: C5_8  and  N2_10 
REMARK    4  A    between atoms: N2_10  and  C6_12 
REMARK    5  A    between atoms: C6_12  and  C7_13 
REMARK    6  A    between atoms: C6_12  and  C14_20 
REMARK    7  A    between atoms: C7_13  and  C8_14 
REMARK    8  A    between atoms: C14_20  and  O5_22 
REMARK    9  A    between atoms: O5_22  and  C15_23 
REMARK   10  A    between atoms: C15_23  and  C16_24 
REMARK   11  A    between atoms: C15_23  and  C26_43 
REMARK       I    between atoms: C16_24  and  N3_26 
REMARK   12  A    between atoms: N3_26  and  C17_28 
REMARK   13  A    between atoms: C17_28  and  C18_29 
REMARK   14  A    between atoms: C17_28  and  C23_40 
REMARK       I    between atoms: C18_29  and  N4_31 
REMARK   15  A    between atoms: N4_31  and  C19_33 
REMARK   16  A    between atoms: C19_33  and  C20_34 
ROOT
HETATM    1  C15 UNL     1      -1.808 -42.604  14.168  1.00  0.00     0.228 C 
ENDROOT
BRANCH   1   2
HETATM    2  O5  UNL     1      -1.464 -41.941  15.357  1.00  0.00    -0.304 OA
BRANCH   2   3
HETATM    3  C14 UNL     1      -2.185 -41.304  16.294  1.00  0.00     0.282 C 
HETATM    4  O4  UNL     1      -2.466 -41.911  17.358  1.00  0.00    -0.263 OA
BRANCH   3   5
HETATM    5  C6  UNL     1      -2.667 -39.899  16.127  1.00  0.00     0.184 C 
BRANCH   5   6
HETATM    6  N2  UNL     1      -3.531 -39.578  17.262  1.00  0.00    -0.345 N 
HETATM    7  C5  UNL     1      -4.700 -38.800  17.187  1.00  0.00     0.254 C 
HETATM    8  O3  UNL     1      -5.068 -38.385  16.085  1.00  0.00    -0.270 OA
ATOM      9  H2  UNL     1      -3.266 -39.946  18.176  1.00  0.00     0.163 HD
BRANCH   7  10
HETATM   10  C3  UNL     1      -5.425 -38.511  18.466  1.00  0.00     0.256 C 
HETATM   11  C4  UNL     1      -6.575 -39.610  18.450  1.00  0.00     0.058 C 
BRANCH  10  12
HETATM   12  N1  UNL     1      -4.652 -38.666  19.596  1.00  0.00    -0.376 NA
HETATM   13  C2  UNL     1      -3.887 -38.819  20.714  1.00  0.00     0.435 C 
HETATM   14  O2  UNL     1      -4.042 -39.713  21.632  1.00  0.00    -0.221 OA
BRANCH  13  15
HETATM   15  O1  UNL     1      -2.785 -37.965  20.988  1.00  0.00    -0.298 OA
HETATM   16  C1  UNL     1      -1.660 -38.488  21.646  1.00  0.00     0.216 C 
ENDBRANCH  13  15
ENDBRANCH  10  12
ENDBRANCH   7  10
ENDBRANCH   5   6
BRANCH   5  17
HETATM   17  C7  UNL     1      -1.545 -38.908  16.225  1.00  0.00     0.040 C 
BRANCH  17  18
HETATM   18  C8  UNL     1      -1.698 -37.771  17.184  1.00  0.00    -0.012 C 
HETATM   19  C9  UNL     1      -0.560 -37.711  18.191  1.00  0.00     0.005 C 
HETATM   20  C10 UNL     1       0.491 -36.730  17.688  1.00  0.00     0.000 C 
HETATM   21  C11 UNL     1      -0.106 -35.353  17.809  1.00  0.00     0.000 C 
HETATM   22  C12 UNL     1      -1.341 -35.256  16.984  1.00  0.00     0.000 C 
HETATM   23  C13 UNL     1      -1.776 -36.522  16.332  1.00  0.00     0.005 C 
ENDBRANCH  17  18
ENDBRANCH   5  17
ENDBRANCH   3   5
ENDBRANCH   2   3
ENDBRANCH   1   2
BRANCH   1  24
HETATM   24  C16 UNL     1      -0.515 -42.934  13.421  1.00  0.00     0.252 C 
HETATM   25  O6  UNL     1      -0.437 -42.361  12.275  1.00  0.00    -0.270 OA
HETATM   26  N3  UNL     1       0.476 -43.757  13.899  1.00  0.00    -0.323 N 
ATOM     27  H3  UNL     1       0.262 -44.139  14.820  1.00  0.00     0.169 HD
BRANCH  26  28
HETATM   28  C17 UNL     1       1.747 -44.200  13.393  1.00  0.00     0.083 C 
BRANCH  28  29
HETATM   29  C18 UNL     1       2.824 -44.126  14.353  1.00  0.00     0.264 C 
HETATM   30  O7  UNL     1       3.379 -43.029  14.591  1.00  0.00    -0.266 OA
HETATM   31  N4  UNL     1       3.383 -45.212  15.115  1.00  0.00    -0.348 N 
ATOM     32  H4  UNL     1       2.959 -46.134  15.016  1.00  0.00     0.163 HD
BRANCH  31  33
HETATM   33  C19 UNL     1       4.503 -45.075  16.008  1.00  0.00     0.207 C 
BRANCH  33  34
HETATM   34  C20 UNL     1       5.616 -46.001  15.598  1.00  0.00     0.140 A 
HETATM   35  N5  UNL     1       6.778 -45.700  15.028  1.00  0.00    -0.347 N 
HETATM   36  C21 UNL     1       7.458 -46.853  14.855  1.00  0.00     0.114 A 
ATOM     37  H5  UNL     1       7.098 -44.767  14.769  1.00  0.00     0.167 HD
HETATM   38  C22 UNL     1       6.670 -47.863  15.337  1.00  0.00     0.161 A 
HETATM   39  O8  UNL     1       5.573 -47.291  15.772  1.00  0.00    -0.307 OA
ENDBRANCH  33  34
ENDBRANCH  31  33
ENDBRANCH  28  29
BRANCH  28  40
HETATM   40  C23 UNL     1       1.647 -45.396  12.524  1.00  0.00     0.033 C 
HETATM   41  C24 UNL     1       0.823 -46.504  13.061  1.00  0.00     0.016 C 
HETATM   42  C25 UNL     1       2.954 -45.898  11.983  1.00  0.00     0.016 C 
ENDBRANCH  28  40
ENDBRANCH  26  28
ENDBRANCH   1  24
BRANCH   1  43
HETATM   43  C26 UNL     1      -2.601 -43.798  14.577  1.00  0.00     0.024 C 
HETATM   44  C27 UNL     1      -3.247 -44.398  13.340  1.00  0.00     0.007 C 
HETATM   45  C28 UNL     1      -2.728 -45.751  12.958  1.00  0.00     0.000 C 
HETATM   46  C29 UNL     1      -2.835 -46.753  14.081  1.00  0.00     0.000 C 
HETATM   47  C30 UNL     1      -3.051 -46.021  15.406  1.00  0.00     0.000 C 
HETATM   48  C31 UNL     1      -2.005 -44.882  15.359  1.00  0.00     0.007 C 
ENDBRANCH   1  43
TORSDOF 16
ENDMDL
MODEL 4
REMARK VINA RESULT: -8.723436071      3.192      9.879
REMARK  16 active torsions:
REMARK  status: ('A' for Active; 'I' for Inactive)
REMARK    1  A    between atoms: O1_2  and  C2_3 
REMARK       I    between atoms: C2_3  and  N1_5 
REMARK    2  A    between atoms: N1_5  and  C3_6 
REMARK    3  A    between atoms: C3_6  and  C5_8 
REMARK       I    between atoms: C5_8  and  N2_10 
REMARK    4  A    between atoms: N2_10  and  C6_12 
REMARK    5  A    between atoms: C6_12  and  C7_13 
REMARK    6  A    between atoms: C6_12  and  C14_20 
REMARK    7  A    between atoms: C7_13  and  C8_14 
REMARK    8  A    between atoms: C14_20  and  O5_22 
REMARK    9  A    between atoms: O5_22  and  C15_23 
REMARK   10  A    between atoms: C15_23  and  C16_24 
REMARK   11  A    between atoms: C15_23  and  C26_43 
REMARK       I    between atoms: C16_24  and  N3_26 
REMARK   12  A    between atoms: N3_26  and  C17_28 
REMARK   13  A    between atoms: C17_28  and  C18_29 
REMARK   14  A    between atoms: C17_28  and  C23_40 
REMARK       I    between atoms: C18_29  and  N4_31 
REMARK   15  A    between atoms: N4_31  and  C19_33 
REMARK   16  A    between atoms: C19_33  and  C20_34 
ROOT
HETATM    1  C15 UNL     1      -3.119 -37.875  15.857  1.00  0.00     0.228 C 
ENDROOT
BRANCH   1   2
HETATM    2  O5  UNL     1      -2.749 -39.108  15.296  1.00  0.00    -0.304 OA
BRANCH   2   3
HETATM    3  C14 UNL     1      -3.293 -40.335  15.335  1.00  0.00     0.282 C 
HETATM    4  O4  UNL     1      -4.509 -40.467  15.047  1.00  0.00    -0.263 OA
BRANCH   3   5
HETATM    5  C6  UNL     1      -2.512 -41.555  15.705  1.00  0.00     0.184 C 
BRANCH   5   6
HETATM    6  N2  UNL     1      -1.464 -41.743  14.702  1.00  0.00    -0.345 N 
HETATM    7  C5  UNL     1      -1.387 -42.834  13.817  1.00  0.00     0.254 C 
HETATM    8  O3  UNL     1      -2.282 -43.682  13.839  1.00  0.00    -0.270 OA
ATOM      9  H2  UNL     1      -0.736 -41.031  14.640  1.00  0.00     0.163 HD
BRANCH   7  10
HETATM   10  C3  UNL     1      -0.202 -42.902  12.902  1.00  0.00     0.256 C 
HETATM   11  C4  UNL     1       0.989 -42.489  13.873  1.00  0.00     0.058 C 
BRANCH  10  12
HETATM   12  N1  UNL     1       0.036 -44.155  12.384  1.00  0.00    -0.376 NA
HETATM   13  C2  UNL     1       0.272 -45.397  11.870  1.00  0.00     0.435 C 
HETATM   14  O2  UNL     1       1.333 -46.109  12.047  1.00  0.00    -0.221 OA
BRANCH  13  15
HETATM   15  O1  UNL     1      -0.681 -46.059  11.051  1.00  0.00    -0.298 OA
HETATM   16  C1  UNL     1      -0.633 -47.459  10.938  1.00  0.00     0.216 C 
ENDBRANCH  13  15
ENDBRANCH  10  12
ENDBRANCH   7  10
ENDBRANCH   5   6
BRANCH   5  17
HETATM   17  C7  UNL     1      -1.763 -41.370  16.991  1.00  0.00     0.040 C 
BRANCH  17  18
HETATM   18  C8  UNL     1      -1.946 -42.398  18.061  1.00  0.00    -0.012 C 
HETATM   19  C9  UNL     1      -1.502 -43.782  17.612  1.00  0.00     0.005 C 
HETATM   20  C10 UNL     1      -0.070 -44.014  18.076  1.00  0.00     0.000 C 
HETATM   21  C11 UNL     1      -0.118 -44.172  19.572  1.00  0.00     0.000 C 
HETATM   22  C12 UNL     1      -0.672 -42.941  20.199  1.00  0.00     0.000 C 
HETATM   23  C13 UNL     1      -1.152 -41.899  19.250  1.00  0.00     0.005 C 
ENDBRANCH  17  18
ENDBRANCH   5  17
ENDBRANCH   3   5
ENDBRANCH   2   3
ENDBRANCH   1   2
BRANCH   1  24
HETATM   24  C16 UNL     1      -3.995 -38.155  17.077  1.00  0.00     0.252 C 
HETATM   25  O6  UNL     1      -5.232 -37.868  16.885  1.00  0.00    -0.270 OA
HETATM   26  N3  UNL     1      -3.537 -38.657  18.271  1.00  0.00    -0.323 N 
ATOM     27  H3  UNL     1      -2.531 -38.827  18.268  1.00  0.00     0.169 HD
BRANCH  26  28
HETATM   28  C17 UNL     1      -4.156 -38.998  19.524  1.00  0.00     0.083 C 
BRANCH  28  29
HETATM   29  C18 UNL     1      -4.621 -40.363  19.602  1.00  0.00     0.264 C 
HETATM   30  O7  UNL     1      -5.146 -40.906  18.602  1.00  0.00    -0.266 OA
HETATM   31  N4  UNL     1      -4.564 -41.236  20.745  1.00  0.00    -0.348 N 
ATOM     32  H4  UNL     1      -4.110 -40.889  21.590  1.00  0.00     0.163 HD
BRANCH  31  33
HETATM   33  C19 UNL     1      -5.109 -42.568  20.768  1.00  0.00     0.207 C 
BRANCH  33  34
HETATM   34  C20 UNL     1      -6.501 -42.555  21.339  1.00  0.00     0.140 A 
HETATM   35  N5  UNL     1      -7.250 -43.584  21.720  1.00  0.00    -0.347 N 
HETATM   36  C21 UNL     1      -8.420 -43.090  22.176  1.00  0.00     0.114 A 
ATOM     37  H5  UNL     1      -6.989 -44.569  21.676  1.00  0.00     0.167 HD
HETATM   38  C22 UNL     1      -8.356 -41.728  22.059  1.00  0.00     0.161 A 
HETATM   39  O8  UNL     1      -7.178 -41.463  21.548  1.00  0.00    -0.307 OA
ENDBRANCH  33  34
ENDBRANCH  31  33
ENDBRANCH  28  29
BRANCH  28  40
HETATM   40  C23 UNL     1      -3.466 -38.412  20.697  1.00  0.00     0.033 C 
HETATM   41  C24 UNL     1      -3.804 -37.000  20.993  1.00  0.00     0.016 C 
HETATM   42  C25 UNL     1      -1.984 -38.641  20.742  1.00  0.00     0.016 C 
ENDBRANCH  28  40
ENDBRANCH  26  28
ENDBRANCH   1  24
BRANCH   1  43
HETATM   43  C26 UNL     1      -1.845 -37.165  16.167  1.00  0.00     0.024 C 
HETATM   44  C27 UNL     1      -2.171 -35.740  16.577  1.00  0.00     0.007 C 
HETATM   45  C28 UNL     1      -1.877 -35.420  18.011  1.00  0.00     0.000 C 
HETATM   46  C29 UNL     1      -0.444 -35.704  18.388  1.00  0.00     0.000 C 
HETATM   47  C30 UNL     1       0.194 -36.616  17.339  1.00  0.00     0.000 C 
HETATM   48  C31 UNL     1      -0.878 -37.711  17.121  1.00  0.00     0.007 C 
ENDBRANCH   1  43
TORSDOF 16
ENDMDL
MODEL 5
REMARK VINA RESULT: -8.715739163      2.526      9.259
REMARK  16 active torsions:
REMARK  status: ('A' for Active; 'I' for Inactive)
REMARK    1  A    between atoms: O1_2  and  C2_3 
REMARK       I    between atoms: C2_3  and  N1_5 
REMARK    2  A    between atoms: N1_5  and  C3_6 
REMARK    3  A    between atoms: C3_6  and  C5_8 
REMARK       I    between atoms: C5_8  and  N2_10 
REMARK    4  A    between atoms: N2_10  and  C6_12 
REMARK    5  A    between atoms: C6_12  and  C7_13 
REMARK    6  A    between atoms: C6_12  and  C14_20 
REMARK    7  A    between atoms: C7_13  and  C8_14 
REMARK    8  A    between atoms: C14_20  and  O5_22 
REMARK    9  A    between atoms: O5_22  and  C15_23 
REMARK   10  A    between atoms: C15_23  and  C16_24 
REMARK   11  A    between atoms: C15_23  and  C26_43 
REMARK       I    between atoms: C16_24  and  N3_26 
REMARK   12  A    between atoms: N3_26  and  C17_28 
REMARK   13  A    between atoms: C17_28  and  C18_29 
REMARK   14  A    between atoms: C17_28  and  C23_40 
REMARK       I    between atoms: C18_29  and  N4_31 
REMARK   15  A    between atoms: N4_31  and  C19_33 
REMARK   16  A    between atoms: C19_33  and  C20_34 
ROOT
HETATM    1  C15 UNL     1      -2.225 -40.841  16.087  1.00  0.00     0.228 C 
ENDROOT
BRANCH   1   2
HETATM    2  O5  UNL     1      -1.251 -41.415  15.254  1.00  0.00    -0.304 OA
BRANCH   2   3
HETATM    3  C14 UNL     1      -1.200 -41.662  13.936  1.00  0.00     0.282 C 
HETATM    4  O4  UNL     1      -1.978 -41.037  13.172  1.00  0.00    -0.263 OA
BRANCH   3   5
HETATM    5  C6  UNL     1      -0.253 -42.650  13.334  1.00  0.00     0.184 C 
BRANCH   5   6
HETATM    6  N2  UNL     1       0.723 -43.023  14.357  1.00  0.00    -0.345 N 
HETATM    7  C5  UNL     1       2.036 -43.455  14.094  1.00  0.00     0.254 C 
HETATM    8  O3  UNL     1       2.430 -43.485  12.926  1.00  0.00    -0.270 OA
ATOM      9  H2  UNL     1       0.431 -42.966  15.332  1.00  0.00     0.163 HD
BRANCH   7  10
HETATM   10  C3  UNL     1       2.877 -43.867  15.264  1.00  0.00     0.256 C 
HETATM   11  C4  UNL     1       1.802 -44.538  16.225  1.00  0.00     0.058 C 
BRANCH  10  12
HETATM   12  N1  UNL     1       3.859 -44.783  14.955  1.00  0.00    -0.376 NA
HETATM   13  C2  UNL     1       4.831 -45.689  14.649  1.00  0.00     0.435 C 
HETATM   14  O2  UNL     1       6.032 -45.711  15.119  1.00  0.00    -0.221 OA
BRANCH  13  15
HETATM   15  O1  UNL     1       4.599 -46.753  13.737  1.00  0.00    -0.298 OA
HETATM   16  C1  UNL     1       3.302 -46.956  13.236  1.00  0.00     0.216 C 
ENDBRANCH  13  15
ENDBRANCH  10  12
ENDBRANCH   7  10
ENDBRANCH   5   6
BRANCH   5  17
HETATM   17  C7  UNL     1      -0.937 -43.940  12.988  1.00  0.00     0.040 C 
BRANCH  17  18
HETATM   18  C8  UNL     1      -1.464 -44.775  14.110  1.00  0.00    -0.012 C 
HETATM   19  C9  UNL     1      -2.963 -44.598  14.303  1.00  0.00     0.005 C 
HETATM   20  C10 UNL     1      -3.690 -45.709  13.556  1.00  0.00     0.000 C 
HETATM   21  C11 UNL     1      -3.426 -46.984  14.310  1.00  0.00     0.000 C 
HETATM   22  C12 UNL     1      -1.965 -47.261  14.353  1.00  0.00     0.000 C 
HETATM   23  C13 UNL     1      -1.096 -46.203  13.769  1.00  0.00     0.005 C 
ENDBRANCH  17  18
ENDBRANCH   5  17
ENDBRANCH   3   5
ENDBRANCH   2   3
ENDBRANCH   1   2
BRANCH   1  24
HETATM   24  C16 UNL     1      -2.296 -41.668  17.370  1.00  0.00     0.252 C 
HETATM   25  O6  UNL     1      -3.382 -41.481  18.030  1.00  0.00    -0.270 OA
HETATM   26  N3  UNL     1      -1.316 -42.526  17.803  1.00  0.00    -0.323 N 
ATOM     27  H3  UNL     1      -0.513 -42.560  17.174  1.00  0.00     0.169 HD
BRANCH  26  28
HETATM   28  C17 UNL     1      -1.165 -43.390  18.944  1.00  0.00     0.083 C 
BRANCH  28  29
HETATM   29  C18 UNL     1      -1.019 -42.691  20.200  1.00  0.00     0.264 C 
HETATM   30  O7  UNL     1       0.083 -42.693  20.795  1.00  0.00    -0.266 OA
HETATM   31  N4  UNL     1      -2.033 -41.953  20.905  1.00  0.00    -0.348 N 
ATOM     32  H4  UNL     1      -2.950 -41.861  20.468  1.00  0.00     0.163 HD
BRANCH  31  33
HETATM   33  C19 UNL     1      -1.831 -41.335  22.190  1.00  0.00     0.207 C 
BRANCH  33  34
HETATM   34  C20 UNL     1      -1.563 -39.864  22.028  1.00  0.00     0.140 A 
HETATM   35  N5  UNL     1      -2.001 -39.040  21.083  1.00  0.00    -0.347 N 
HETATM   36  C21 UNL     1      -1.510 -37.812  21.352  1.00  0.00     0.114 A 
ATOM     37  H5  UNL     1      -2.600 -39.289  20.296  1.00  0.00     0.167 HD
HETATM   38  C22 UNL     1      -0.759 -37.919  22.491  1.00  0.00     0.161 A 
HETATM   39  O8  UNL     1      -0.826 -39.177  22.854  1.00  0.00    -0.307 OA
ENDBRANCH  33  34
ENDBRANCH  31  33
ENDBRANCH  28  29
BRANCH  28  40
HETATM   40  C23 UNL     1      -2.037 -44.587  18.892  1.00  0.00     0.033 C 
HETATM   41  C24 UNL     1      -2.089 -45.389  20.137  1.00  0.00     0.016 C 
HETATM   42  C25 UNL     1      -1.846 -45.460  17.686  1.00  0.00     0.016 C 
ENDBRANCH  28  40
ENDBRANCH  26  28
ENDBRANCH   1  24
BRANCH   1  43
HETATM   43  C26 UNL     1      -1.807 -39.425  16.292  1.00  0.00     0.024 C 
HETATM   44  C27 UNL     1      -2.927 -38.515  15.819  1.00  0.00     0.007 C 
HETATM   45  C28 UNL     1      -3.601 -37.735  16.908  1.00  0.00     0.000 C 
HETATM   46  C29 UNL     1      -2.631 -36.909  17.716  1.00  0.00     0.000 C 
HETATM   47  C30 UNL     1      -1.205 -37.408  17.478  1.00  0.00     0.000 C 
HETATM   48  C31 UNL     1      -1.342 -38.945  17.595  1.00  0.00     0.007 C 
ENDBRANCH   1  43
TORSDOF 16
ENDMDL
