MODEL 1
REMARK VINA RESULT: -8.368512190      0.000      0.000
REMARK  18 active torsions:
REMARK  status: ('A' for Active; 'I' for Inactive)
REMARK    1  A    between atoms: O1_2  and  C2_3 
REMARK       I    between atoms: C2_3  and  N1_5 
REMARK    2  A    between atoms: N1_5  and  C3_7 
REMARK    3  A    between atoms: C3_7  and  C5_9 
REMARK    4  A    between atoms: C5_9  and  N2_10 
REMARK    5  A    between atoms: C8_13  and  C9_14 
REMARK    6  A    between atoms: C9_14  and  C10_15 
REMARK       I    between atoms: N3_18  and  C13_19 
REMARK    7  A    between atoms: C13_19  and  C14_21 
REMARK    8  A    between atoms: C14_21  and  C15_22 
REMARK    9  A    between atoms: C15_22  and  N4_23 
REMARK   10  A    between atoms: C15_22  and  C21_31 
REMARK       I    between atoms: N4_23  and  C16_24 
REMARK   11  A    between atoms: C16_24  and  O5_26 
REMARK   12  A    between atoms: O5_26  and  C17_27 
REMARK   13  A    between atoms: C21_31  and  C22_32 
REMARK   14  A    between atoms: C21_31  and  N6_40 
REMARK   15  A    between atoms: C22_32  and  C23_33 
REMARK   16  A    between atoms: C23_33  and  C24_34 
REMARK   17  A    between atoms: C24_34  and  C25_35 
REMARK   18  A    between atoms: C25_35  and  N5_36 
REMARK       I    between atoms: N6_40  and  C26_42 
ROOT
HETATM    1  C10 UNL     1      -2.836 -40.998  15.032  1.00  0.00    -0.011 C 
HETATM    2  C11 UNL     1      -2.101 -40.221  16.124  1.00  0.00     0.024 C 
HETATM    3  C12 UNL     1      -2.487 -38.795  16.247  1.00  0.00     0.126 C 
HETATM    4  N3  UNL     1      -3.923 -38.604  16.136  1.00  0.00    -0.349 N 
HETATM    5  C13 UNL     1      -4.739 -38.010  17.126  1.00  0.00     0.246 C 
HETATM    6  O3  UNL     1      -5.988 -37.943  16.848  1.00  0.00    -0.268 OA
HETATM    7  C28 UNL     1      -4.470 -39.064  14.880  1.00  0.00     0.126 C 
HETATM    8  C29 UNL     1      -3.590 -40.089  14.173  1.00  0.00     0.024 C 
ENDROOT
BRANCH   5   9
HETATM    9  C14 UNL     1      -4.312 -37.484  18.397  1.00  0.00     0.121 C 
BRANCH   9  10
HETATM   10  C15 UNL     1      -3.904 -38.346  19.509  1.00  0.00     0.141 C 
BRANCH  10  11
HETATM   11  N4  UNL     1      -4.698 -39.514  19.633  1.00  0.00    -0.344 NA
HETATM   12  C16 UNL     1      -5.453 -40.618  19.751  1.00  0.00     0.441 C 
HETATM   13  O4  UNL     1      -6.564 -40.778  20.315  1.00  0.00    -0.221 OA
BRANCH  12  14
HETATM   14  O5  UNL     1      -4.989 -41.848  19.174  1.00  0.00    -0.282 OA
BRANCH  14  15
HETATM   15  C17 UNL     1      -4.280 -42.821  19.841  1.00  0.00     0.062 C 
HETATM   16  C18 UNL     1      -2.893 -43.035  19.237  1.00  0.00     0.046 C 
HETATM   17  C19 UNL     1      -4.040 -42.490  21.303  1.00  0.00     0.046 C 
HETATM   18  C20 UNL     1      -4.978 -44.150  19.766  1.00  0.00     0.046 C 
ENDBRANCH  14  15
ENDBRANCH  12  14
ENDBRANCH  10  11
BRANCH  10  19
HETATM   19  C21 UNL     1      -2.501 -38.440  19.941  1.00  0.00     0.053 C 
BRANCH  19  20
HETATM   20  C22 UNL     1      -1.540 -37.381  19.530  1.00  0.00     0.061 C 
BRANCH  20  21
HETATM   21  C23 UNL     1      -0.262 -37.749  18.904  1.00  0.00     0.008 C 
BRANCH  21  22
HETATM   22  C24 UNL     1       0.277 -36.877  17.822  1.00  0.00     0.027 C 
BRANCH  22  23
HETATM   23  C25 UNL     1      -0.248 -35.445  18.070  1.00  0.00     0.229 C 
BRANCH  23  24
HETATM   24  N5  UNL     1       0.801 -34.534  18.400  1.00  0.00    -0.079 N 
ATOM     25  H53 UNL     1       1.564 -35.008  18.883  1.00  0.00     0.274 HD
ATOM     26  H52 UNL     1       1.302 -34.230  17.564  1.00  0.00     0.274 HD
ATOM     27  H51 UNL     1       0.465 -33.735  18.938  1.00  0.00     0.274 HD
ENDBRANCH  23  24
ENDBRANCH  22  23
ENDBRANCH  21  22
ENDBRANCH  20  21
ENDBRANCH  19  20
BRANCH  19  28
HETATM   28  N6  UNL     1      -2.352 -38.866  21.312  1.00  0.00    -0.328 N 
HETATM   29  C26 UNL     1      -1.605 -39.959  21.783  1.00  0.00     0.218 C 
HETATM   30  C27 UNL     1      -1.534 -40.264  23.219  1.00  0.00     0.117 C 
HETATM   31  O6  UNL     1      -0.986 -40.684  20.970  1.00  0.00    -0.274 OA
ATOM     32  H6  UNL     1      -2.843 -38.314  22.016  1.00  0.00     0.168 HD
ENDBRANCH  19  28
ENDBRANCH  10  19
ENDBRANCH   9  10
ENDBRANCH   5   9
BRANCH   1  33
HETATM   33  C9  UNL     1      -1.823 -41.863  14.396  1.00  0.00     0.009 C 
BRANCH  33  34
HETATM   34  C8  UNL     1      -1.671 -43.286  14.663  1.00  0.00    -0.011 C 
HETATM   35  C7  UNL     1      -2.503 -44.293  13.958  1.00  0.00     0.035 C 
HETATM   36  C6  UNL     1      -1.823 -44.737  12.642  1.00  0.00     0.273 C 
HETATM   37  N2  UNL     1      -0.632 -45.463  12.953  1.00  0.00     0.090 N 
HETATM   38  C31 UNL     1      -0.130 -45.216  14.258  1.00  0.00     0.273 C 
HETATM   39  C30 UNL     1      -0.207 -43.730  14.606  1.00  0.00     0.035 C 
BRANCH  37  40
HETATM   40  C5  UNL     1      -0.687 -46.808  12.537  1.00  0.00     0.297 C 
BRANCH  40  41
HETATM   41  C3  UNL     1       0.369 -47.105  11.464  1.00  0.00     0.111 C 
HETATM   42  C4  UNL     1      -0.114 -48.207  10.546  1.00  0.00     0.034 C 
BRANCH  41  43
HETATM   43  N1  UNL     1       1.613 -47.477  12.072  1.00  0.00    -0.331 N 
HETATM   44  C2  UNL     1       2.711 -46.616  12.301  1.00  0.00     0.360 C 
HETATM   45  O2  UNL     1       2.680 -45.389  11.973  1.00  0.00    -0.239 OA
ATOM     46  H1  UNL     1       1.714 -48.448  12.366  1.00  0.00     0.165 HD
BRANCH  44  47
HETATM   47  O1  UNL     1       3.880 -47.063  12.893  1.00  0.00    -0.309 OA
HETATM   48  C1  UNL     1       4.329 -46.671  14.165  1.00  0.00     0.215 C 
ENDBRANCH  44  47
ENDBRANCH  41  43
ENDBRANCH  40  41
ENDBRANCH  37  40
ENDBRANCH  33  34
ENDBRANCH   1  33
TORSDOF 18
ENDMDL
MODEL 2
REMARK VINA RESULT: -8.138008675      0.854      1.039
REMARK  18 active torsions:
REMARK  status: ('A' for Active; 'I' for Inactive)
REMARK    1  A    between atoms: O1_2  and  C2_3 
REMARK       I    between atoms: C2_3  and  N1_5 
REMARK    2  A    between atoms: N1_5  and  C3_7 
REMARK    3  A    between atoms: C3_7  and  C5_9 
REMARK    4  A    between atoms: C5_9  and  N2_10 
REMARK    5  A    between atoms: C8_13  and  C9_14 
REMARK    6  A    between atoms: C9_14  and  C10_15 
REMARK       I    between atoms: N3_18  and  C13_19 
REMARK    7  A    between atoms: C13_19  and  C14_21 
REMARK    8  A    between atoms: C14_21  and  C15_22 
REMARK    9  A    between atoms: C15_22  and  N4_23 
REMARK   10  A    between atoms: C15_22  and  C21_31 
REMARK       I    between atoms: N4_23  and  C16_24 
REMARK   11  A    between atoms: C16_24  and  O5_26 
REMARK   12  A    between atoms: O5_26  and  C17_27 
REMARK   13  A    between atoms: C21_31  and  C22_32 
REMARK   14  A    between atoms: C21_31  and  N6_40 
REMARK   15  A    between atoms: C22_32  and  C23_33 
REMARK   16  A    between atoms: C23_33  and  C24_34 
REMARK   17  A    between atoms: C24_34  and  C25_35 
REMARK   18  A    between atoms: C25_35  and  N5_36 
REMARK       I    between atoms: N6_40  and  C26_42 
ROOT
HETATM    1  C10 UNL     1      -2.520 -40.678  14.867  1.00  0.00    -0.011 C 
HETATM    2  C11 UNL     1      -1.887 -39.825  15.966  1.00  0.00     0.024 C 
HETATM    3  C12 UNL     1      -2.481 -38.478  16.137  1.00  0.00     0.126 C 
HETATM    4  N3  UNL     1      -3.932 -38.505  16.058  1.00  0.00    -0.349 N 
HETATM    5  C13 UNL     1      -4.805 -38.067  17.080  1.00  0.00     0.246 C 
HETATM    6  O3  UNL     1      -6.056 -38.184  16.828  1.00  0.00    -0.268 OA
HETATM    7  C28 UNL     1      -4.431 -39.011  14.800  1.00  0.00     0.126 C 
HETATM    8  C29 UNL     1      -3.423 -39.872  14.049  1.00  0.00     0.024 C 
ENDROOT
BRANCH   5   9
HETATM    9  C14 UNL     1      -4.435 -37.514  18.357  1.00  0.00     0.121 C 
BRANCH   9  10
HETATM   10  C15 UNL     1      -4.012 -38.350  19.484  1.00  0.00     0.141 C 
BRANCH  10  11
HETATM   11  N4  UNL     1      -4.799 -39.519  19.640  1.00  0.00    -0.344 NA
HETATM   12  C16 UNL     1      -5.547 -40.624  19.790  1.00  0.00     0.441 C 
HETATM   13  O4  UNL     1      -6.632 -40.786  20.403  1.00  0.00    -0.221 OA
BRANCH  12  14
HETATM   14  O5  UNL     1      -5.109 -41.852  19.191  1.00  0.00    -0.282 OA
BRANCH  14  15
HETATM   15  C17 UNL     1      -4.237 -42.749  19.763  1.00  0.00     0.062 C 
HETATM   16  C18 UNL     1      -2.861 -42.715  19.099  1.00  0.00     0.046 C 
HETATM   17  C19 UNL     1      -3.983 -42.480  21.236  1.00  0.00     0.046 C 
HETATM   18  C20 UNL     1      -4.735 -44.160  19.620  1.00  0.00     0.046 C 
ENDBRANCH  14  15
ENDBRANCH  12  14
ENDBRANCH  10  11
BRANCH  10  19
HETATM   19  C21 UNL     1      -2.604 -38.429  19.905  1.00  0.00     0.053 C 
BRANCH  19  20
HETATM   20  C22 UNL     1      -1.660 -37.355  19.492  1.00  0.00     0.061 C 
BRANCH  20  21
HETATM   21  C23 UNL     1      -0.322 -37.702  18.992  1.00  0.00     0.008 C 
BRANCH  21  22
HETATM   22  C24 UNL     1       0.283 -36.850  17.930  1.00  0.00     0.027 C 
BRANCH  22  23
HETATM   23  C25 UNL     1      -0.196 -35.400  18.162  1.00  0.00     0.229 C 
BRANCH  23  24
HETATM   24  N5  UNL     1       0.887 -34.506  18.419  1.00  0.00    -0.079 N 
ATOM     25  H53 UNL     1       1.768 -35.012  18.514  1.00  0.00     0.274 HD
ATOM     26  H52 UNL     1       1.108 -33.948  17.595  1.00  0.00     0.274 HD
ATOM     27  H51 UNL     1       0.715 -33.913  19.231  1.00  0.00     0.274 HD
ENDBRANCH  23  24
ENDBRANCH  22  23
ENDBRANCH  21  22
ENDBRANCH  20  21
ENDBRANCH  19  20
BRANCH  19  28
HETATM   28  N6  UNL     1      -2.439 -38.860  21.272  1.00  0.00    -0.328 N 
HETATM   29  C26 UNL     1      -1.632 -39.912  21.736  1.00  0.00     0.218 C 
HETATM   30  C27 UNL     1      -1.552 -40.228  23.170  1.00  0.00     0.117 C 
HETATM   31  O6  UNL     1      -0.967 -40.591  20.920  1.00  0.00    -0.274 OA
ATOM     32  H6  UNL     1      -2.965 -38.345  21.978  1.00  0.00     0.168 HD
ENDBRANCH  19  28
ENDBRANCH  10  19
ENDBRANCH   9  10
ENDBRANCH   5   9
BRANCH   1  33
HETATM   33  C9  UNL     1      -1.402 -41.361  14.188  1.00  0.00     0.009 C 
BRANCH  33  34
HETATM   34  C8  UNL     1      -0.609 -42.430  14.780  1.00  0.00    -0.011 C 
HETATM   35  C7  UNL     1      -1.171 -43.791  14.964  1.00  0.00     0.035 C 
HETATM   36  C6  UNL     1      -0.918 -44.660  13.709  1.00  0.00     0.273 C 
HETATM   37  N2  UNL     1       0.485 -44.902  13.583  1.00  0.00     0.090 N 
HETATM   38  C31 UNL     1       1.296 -43.976  14.290  1.00  0.00     0.273 C 
HETATM   39  C30 UNL     1       0.772 -42.550  14.131  1.00  0.00     0.035 C 
BRANCH  37  40
HETATM   40  C5  UNL     1       0.817 -46.266  13.710  1.00  0.00     0.297 C 
BRANCH  40  41
HETATM   41  C3  UNL     1       1.619 -46.760  12.500  1.00  0.00     0.111 C 
HETATM   42  C4  UNL     1       0.714 -47.509  11.545  1.00  0.00     0.034 C 
BRANCH  41  43
HETATM   43  N1  UNL     1       2.699 -47.603  12.922  1.00  0.00    -0.331 N 
HETATM   44  C2  UNL     1       3.915 -47.163  13.495  1.00  0.00     0.360 C 
HETATM   45  O2  UNL     1       4.155 -45.930  13.693  1.00  0.00    -0.239 OA
ATOM     46  H1  UNL     1       2.580 -48.608  12.798  1.00  0.00     0.165 HD
BRANCH  44  47
HETATM   47  O1  UNL     1       4.909 -48.050  13.872  1.00  0.00    -0.309 OA
HETATM   48  C1  UNL     1       4.682 -49.376  14.275  1.00  0.00     0.215 C 
ENDBRANCH  44  47
ENDBRANCH  41  43
ENDBRANCH  40  41
ENDBRANCH  37  40
ENDBRANCH  33  34
ENDBRANCH   1  33
TORSDOF 18
ENDMDL
MODEL 3
REMARK VINA RESULT: -8.123796096      0.980      1.460
REMARK  18 active torsions:
REMARK  status: ('A' for Active; 'I' for Inactive)
REMARK    1  A    between atoms: O1_2  and  C2_3 
REMARK       I    between atoms: C2_3  and  N1_5 
REMARK    2  A    between atoms: N1_5  and  C3_7 
REMARK    3  A    between atoms: C3_7  and  C5_9 
REMARK    4  A    between atoms: C5_9  and  N2_10 
REMARK    5  A    between atoms: C8_13  and  C9_14 
REMARK    6  A    between atoms: C9_14  and  C10_15 
REMARK       I    between atoms: N3_18  and  C13_19 
REMARK    7  A    between atoms: C13_19  and  C14_21 
REMARK    8  A    between atoms: C14_21  and  C15_22 
REMARK    9  A    between atoms: C15_22  and  N4_23 
REMARK   10  A    between atoms: C15_22  and  C21_31 
REMARK       I    between atoms: N4_23  and  C16_24 
REMARK   11  A    between atoms: C16_24  and  O5_26 
REMARK   12  A    between atoms: O5_26  and  C17_27 
REMARK   13  A    between atoms: C21_31  and  C22_32 
REMARK   14  A    between atoms: C21_31  and  N6_40 
REMARK   15  A    between atoms: C22_32  and  C23_33 
REMARK   16  A    between atoms: C23_33  and  C24_34 
REMARK   17  A    between atoms: C24_34  and  C25_35 
REMARK   18  A    between atoms: C25_35  and  N5_36 
REMARK       I    between atoms: N6_40  and  C26_42 
ROOT
HETATM    1  C10 UNL     1      -2.515 -40.957  14.997  1.00  0.00    -0.011 C 
HETATM    2  C11 UNL     1      -1.811 -40.123  16.068  1.00  0.00     0.024 C 
HETATM    3  C12 UNL     1      -2.246 -38.709  16.149  1.00  0.00     0.126 C 
HETATM    4  N3  UNL     1      -3.688 -38.571  16.030  1.00  0.00    -0.349 N 
HETATM    5  C13 UNL     1      -4.526 -37.978  17.001  1.00  0.00     0.246 C 
HETATM    6  O3  UNL     1      -5.777 -37.962  16.719  1.00  0.00    -0.268 OA
HETATM    7  C28 UNL     1      -4.215 -39.085  14.786  1.00  0.00     0.126 C 
HETATM    8  C29 UNL     1      -3.298 -40.099  14.111  1.00  0.00     0.024 C 
ENDROOT
BRANCH   5   9
HETATM    9  C14 UNL     1      -4.122 -37.401  18.257  1.00  0.00     0.121 C 
BRANCH   9  10
HETATM   10  C15 UNL     1      -3.732 -38.219  19.409  1.00  0.00     0.141 C 
BRANCH  10  11
HETATM   11  N4  UNL     1      -4.524 -39.385  19.562  1.00  0.00    -0.344 NA
HETATM   12  C16 UNL     1      -5.273 -40.490  19.703  1.00  0.00     0.441 C 
HETATM   13  O4  UNL     1      -5.647 -41.325  18.843  1.00  0.00    -0.221 OA
BRANCH  12  14
HETATM   14  O5  UNL     1      -5.765 -40.840  21.005  1.00  0.00    -0.282 OA
BRANCH  14  15
HETATM   15  C17 UNL     1      -5.314 -41.891  21.770  1.00  0.00     0.062 C 
HETATM   16  C18 UNL     1      -6.350 -43.009  21.878  1.00  0.00     0.046 C 
HETATM   17  C19 UNL     1      -4.066 -42.548  21.206  1.00  0.00     0.046 C 
HETATM   18  C20 UNL     1      -5.022 -41.454  23.178  1.00  0.00     0.046 C 
ENDBRANCH  14  15
ENDBRANCH  12  14
ENDBRANCH  10  11
BRANCH  10  19
HETATM   19  C21 UNL     1      -2.337 -38.289  19.872  1.00  0.00     0.053 C 
BRANCH  19  20
HETATM   20  C22 UNL     1      -1.396 -37.194  19.515  1.00  0.00     0.061 C 
BRANCH  20  21
HETATM   21  C23 UNL     1      -0.098 -37.509  18.901  1.00  0.00     0.008 C 
BRANCH  21  22
HETATM   22  C24 UNL     1       0.350 -36.700  17.732  1.00  0.00     0.027 C 
BRANCH  22  23
HETATM   23  C25 UNL     1      -0.072 -35.236  17.984  1.00  0.00     0.229 C 
BRANCH  23  24
HETATM   24  N5  UNL     1       1.020 -34.425  18.418  1.00  0.00    -0.079 N 
ATOM     25  H53 UNL     1       1.173 -34.519  19.422  1.00  0.00     0.274 HD
ATOM     26  H52 UNL     1       1.910 -34.795  18.083  1.00  0.00     0.274 HD
ATOM     27  H51 UNL     1       0.905 -33.447  18.154  1.00  0.00     0.274 HD
ENDBRANCH  23  24
ENDBRANCH  22  23
ENDBRANCH  21  22
ENDBRANCH  20  21
ENDBRANCH  19  20
BRANCH  19  28
HETATM   28  N6  UNL     1      -2.209 -38.753  21.233  1.00  0.00    -0.328 N 
HETATM   29  C26 UNL     1      -1.574 -39.926  21.671  1.00  0.00     0.218 C 
HETATM   30  C27 UNL     1      -1.508 -40.262  23.101  1.00  0.00     0.117 C 
HETATM   31  O6  UNL     1      -1.050 -40.698  20.835  1.00  0.00    -0.274 OA
ATOM     32  H6  UNL     1      -2.625 -38.164  21.955  1.00  0.00     0.168 HD
ENDBRANCH  19  28
ENDBRANCH  10  19
ENDBRANCH   9  10
ENDBRANCH   5   9
BRANCH   1  33
HETATM   33  C9  UNL     1      -1.471 -41.803  14.388  1.00  0.00     0.009 C 
BRANCH  33  34
HETATM   34  C8  UNL     1      -1.713 -43.115  13.803  1.00  0.00    -0.011 C 
HETATM   35  C7  UNL     1      -0.706 -43.762  12.926  1.00  0.00     0.035 C 
HETATM   36  C6  UNL     1       0.281 -44.610  13.761  1.00  0.00     0.273 C 
HETATM   37  N2  UNL     1      -0.418 -45.721  14.325  1.00  0.00     0.090 N 
HETATM   38  C31 UNL     1      -1.826 -45.546  14.388  1.00  0.00     0.273 C 
HETATM   39  C30 UNL     1      -2.184 -44.133  14.845  1.00  0.00     0.035 C 
BRANCH  37  40
HETATM   40  C5  UNL     1       0.047 -46.961  13.843  1.00  0.00     0.297 C 
BRANCH  40  41
HETATM   41  C3  UNL     1       1.039 -46.775  12.687  1.00  0.00     0.111 C 
HETATM   42  C4  UNL     1       0.413 -47.229  11.385  1.00  0.00     0.034 C 
BRANCH  41  43
HETATM   43  N1  UNL     1       2.246 -47.505  12.937  1.00  0.00    -0.331 N 
HETATM   44  C2  UNL     1       3.496 -46.942  13.286  1.00  0.00     0.360 C 
HETATM   45  O2  UNL     1       3.652 -45.687  13.414  1.00  0.00    -0.239 OA
ATOM     46  H1  UNL     1       2.200 -48.520  12.856  1.00  0.00     0.165 HD
BRANCH  44  47
HETATM   47  O1  UNL     1       4.616 -47.725  13.506  1.00  0.00    -0.309 OA
HETATM   48  C1  UNL     1       4.682 -48.776  14.436  1.00  0.00     0.215 C 
ENDBRANCH  44  47
ENDBRANCH  41  43
ENDBRANCH  40  41
ENDBRANCH  37  40
ENDBRANCH  33  34
ENDBRANCH   1  33
TORSDOF 18
ENDMDL
MODEL 4
REMARK VINA RESULT: -8.075572847      1.446      2.401
REMARK  18 active torsions:
REMARK  status: ('A' for Active; 'I' for Inactive)
REMARK    1  A    between atoms: O1_2  and  C2_3 
REMARK       I    between atoms: C2_3  and  N1_5 
REMARK    2  A    between atoms: N1_5  and  C3_7 
REMARK    3  A    between atoms: C3_7  and  C5_9 
REMARK    4  A    between atoms: C5_9  and  N2_10 
REMARK    5  A    between atoms: C8_13  and  C9_14 
REMARK    6  A    between atoms: C9_14  and  C10_15 
REMARK       I    between atoms: N3_18  and  C13_19 
REMARK    7  A    between atoms: C13_19  and  C14_21 
REMARK    8  A    between atoms: C14_21  and  C15_22 
REMARK    9  A    between atoms: C15_22  and  N4_23 
REMARK   10  A    between atoms: C15_22  and  C21_31 
REMARK       I    between atoms: N4_23  and  C16_24 
REMARK   11  A    between atoms: C16_24  and  O5_26 
REMARK   12  A    between atoms: O5_26  and  C17_27 
REMARK   13  A    between atoms: C21_31  and  C22_32 
REMARK   14  A    between atoms: C21_31  and  N6_40 
REMARK   15  A    between atoms: C22_32  and  C23_33 
REMARK   16  A    between atoms: C23_33  and  C24_34 
REMARK   17  A    between atoms: C24_34  and  C25_35 
REMARK   18  A    between atoms: C25_35  and  N5_36 
REMARK       I    between atoms: N6_40  and  C26_42 
ROOT
HETATM    1  C10 UNL     1      -2.640 -41.186  15.098  1.00  0.00    -0.011 C 
HETATM    2  C11 UNL     1      -1.935 -40.156  15.981  1.00  0.00     0.024 C 
HETATM    3  C12 UNL     1      -2.419 -38.763  15.829  1.00  0.00     0.126 C 
HETATM    4  N3  UNL     1      -3.867 -38.692  15.738  1.00  0.00    -0.349 N 
HETATM    5  C13 UNL     1      -4.697 -37.963  16.620  1.00  0.00     0.246 C 
HETATM    6  O3  UNL     1      -5.955 -38.035  16.384  1.00  0.00    -0.268 OA
HETATM    7  C28 UNL     1      -4.411 -39.433  14.623  1.00  0.00     0.126 C 
HETATM    8  C29 UNL     1      -3.479 -40.521  14.104  1.00  0.00     0.024 C 
ENDROOT
BRANCH   5   9
HETATM    9  C14 UNL     1      -4.278 -37.163  17.741  1.00  0.00     0.121 C 
BRANCH   9  10
HETATM   10  C15 UNL     1      -4.047 -37.731  19.072  1.00  0.00     0.141 C 
BRANCH  10  11
HETATM   11  N4  UNL     1      -4.695 -38.977  19.268  1.00  0.00    -0.344 NA
HETATM   12  C16 UNL     1      -5.308 -40.157  19.451  1.00  0.00     0.441 C 
HETATM   13  O4  UNL     1      -5.782 -40.958  18.608  1.00  0.00    -0.221 OA
BRANCH  12  14
HETATM   14  O5  UNL     1      -5.494 -40.650  20.787  1.00  0.00    -0.282 OA
BRANCH  14  15
HETATM   15  C17 UNL     1      -4.634 -41.495  21.449  1.00  0.00     0.062 C 
HETATM   16  C18 UNL     1      -5.253 -42.872  21.686  1.00  0.00     0.046 C 
HETATM   17  C19 UNL     1      -3.346 -41.756  20.687  1.00  0.00     0.046 C 
HETATM   18  C20 UNL     1      -4.279 -40.957  22.806  1.00  0.00     0.046 C 
ENDBRANCH  14  15
ENDBRANCH  12  14
ENDBRANCH  10  11
BRANCH  10  19
HETATM   19  C21 UNL     1      -2.790 -37.505  19.803  1.00  0.00     0.053 C 
BRANCH  19  20
HETATM   20  C22 UNL     1      -2.609 -38.120  21.146  1.00  0.00     0.061 C 
BRANCH  20  21
HETATM   21  C23 UNL     1      -1.325 -38.740  21.505  1.00  0.00     0.008 C 
BRANCH  21  22
HETATM   22  C24 UNL     1      -0.748 -38.453  22.848  1.00  0.00     0.027 C 
BRANCH  22  23
HETATM   23  C25 UNL     1      -0.410 -36.947  22.901  1.00  0.00     0.229 C 
BRANCH  23  24
HETATM   24  N5  UNL     1       0.334 -36.519  21.760  1.00  0.00    -0.079 N 
ATOM     25  H53 UNL     1       0.554 -37.304  21.148  1.00  0.00     0.274 HD
ATOM     26  H52 UNL     1      -0.249 -35.974  21.124  1.00  0.00     0.274 HD
ATOM     27  H51 UNL     1       1.177 -36.006  22.018  1.00  0.00     0.274 HD
ENDBRANCH  23  24
ENDBRANCH  22  23
ENDBRANCH  21  22
ENDBRANCH  20  21
ENDBRANCH  19  20
BRANCH  19  28
HETATM   28  N6  UNL     1      -1.619 -37.578  18.962  1.00  0.00    -0.328 N 
HETATM   29  C26 UNL     1      -0.941 -36.505  18.361  1.00  0.00     0.218 C 
HETATM   30  C27 UNL     1       0.255 -36.732  17.537  1.00  0.00     0.117 C 
HETATM   31  O6  UNL     1      -1.356 -35.335  18.531  1.00  0.00    -0.274 OA
ATOM     32  H6  UNL     1      -1.243 -38.510  18.785  1.00  0.00     0.168 HD
ENDBRANCH  19  28
ENDBRANCH  10  19
ENDBRANCH   9  10
ENDBRANCH   5   9
BRANCH   1  33
HETATM   33  C9  UNL     1      -1.584 -42.094  14.610  1.00  0.00     0.009 C 
BRANCH  33  34
HETATM   34  C8  UNL     1      -1.626 -43.545  14.731  1.00  0.00    -0.011 C 
HETATM   35  C7  UNL     1      -2.451 -44.369  13.812  1.00  0.00     0.035 C 
HETATM   36  C6  UNL     1      -1.639 -44.762  12.556  1.00  0.00     0.273 C 
HETATM   37  N2  UNL     1      -0.591 -45.655  12.937  1.00  0.00     0.090 N 
HETATM   38  C31 UNL     1      -0.259 -45.600  14.316  1.00  0.00     0.273 C 
HETATM   39  C30 UNL     1      -0.225 -44.157  14.817  1.00  0.00     0.035 C 
BRANCH  37  40
HETATM   40  C5  UNL     1      -0.729 -46.936  12.367  1.00  0.00     0.297 C 
BRANCH  40  41
HETATM   41  C3  UNL     1       0.380 -47.216  11.345  1.00  0.00     0.111 C 
HETATM   42  C4  UNL     1      -0.030 -48.346  10.425  1.00  0.00     0.034 C 
BRANCH  41  43
HETATM   43  N1  UNL     1       1.607 -47.540  12.011  1.00  0.00    -0.331 N 
HETATM   44  C2  UNL     1       2.683 -46.650  12.242  1.00  0.00     0.360 C 
HETATM   45  O2  UNL     1       2.642 -45.438  11.861  1.00  0.00    -0.239 OA
ATOM     46  H1  UNL     1       1.714 -48.496  12.349  1.00  0.00     0.165 HD
BRANCH  44  47
HETATM   47  O1  UNL     1       3.837 -47.051  12.892  1.00  0.00    -0.309 OA
HETATM   48  C1  UNL     1       4.221 -46.617  14.172  1.00  0.00     0.215 C 
ENDBRANCH  44  47
ENDBRANCH  41  43
ENDBRANCH  40  41
ENDBRANCH  37  40
ENDBRANCH  33  34
ENDBRANCH   1  33
TORSDOF 18
ENDMDL
MODEL 5
REMARK VINA RESULT: -8.067244730      1.286      2.006
REMARK  18 active torsions:
REMARK  status: ('A' for Active; 'I' for Inactive)
REMARK    1  A    between atoms: O1_2  and  C2_3 
REMARK       I    between atoms: C2_3  and  N1_5 
REMARK    2  A    between atoms: N1_5  and  C3_7 
REMARK    3  A    between atoms: C3_7  and  C5_9 
REMARK    4  A    between atoms: C5_9  and  N2_10 
REMARK    5  A    between atoms: C8_13  and  C9_14 
REMARK    6  A    between atoms: C9_14  and  C10_15 
REMARK       I    between atoms: N3_18  and  C13_19 
REMARK    7  A    between atoms: C13_19  and  C14_21 
REMARK    8  A    between atoms: C14_21  and  C15_22 
REMARK    9  A    between atoms: C15_22  and  N4_23 
REMARK   10  A    between atoms: C15_22  and  C21_31 
REMARK       I    between atoms: N4_23  and  C16_24 
REMARK   11  A    between atoms: C16_24  and  O5_26 
REMARK   12  A    between atoms: O5_26  and  C17_27 
REMARK   13  A    between atoms: C21_31  and  C22_32 
REMARK   14  A    between atoms: C21_31  and  N6_40 
REMARK   15  A    between atoms: C22_32  and  C23_33 
REMARK   16  A    between atoms: C23_33  and  C24_34 
REMARK   17  A    between atoms: C24_34  and  C25_35 
REMARK   18  A    between atoms: C25_35  and  N5_36 
REMARK       I    between atoms: N6_40  and  C26_42 
ROOT
HETATM    1  C10 UNL     1      -2.509 -40.884  14.860  1.00  0.00    -0.011 C 
HETATM    2  C11 UNL     1      -1.853 -40.014  15.931  1.00  0.00     0.024 C 
HETATM    3  C12 UNL     1      -2.399 -38.641  16.047  1.00  0.00     0.126 C 
HETATM    4  N3  UNL     1      -3.849 -38.618  15.958  1.00  0.00    -0.349 N 
HETATM    5  C13 UNL     1      -4.712 -38.111  16.956  1.00  0.00     0.246 C 
HETATM    6  O3  UNL     1      -5.965 -38.192  16.698  1.00  0.00    -0.268 OA
HETATM    7  C28 UNL     1      -4.358 -39.153  14.716  1.00  0.00     0.126 C 
HETATM    8  C29 UNL     1      -3.376 -40.078  14.005  1.00  0.00     0.024 C 
ENDROOT
BRANCH   5   9
HETATM    9  C14 UNL     1      -4.330 -37.525  18.214  1.00  0.00     0.121 C 
BRANCH   9  10
HETATM   10  C15 UNL     1      -3.919 -38.332  19.367  1.00  0.00     0.141 C 
BRANCH  10  11
HETATM   11  N4  UNL     1      -4.705 -39.499  19.541  1.00  0.00    -0.344 NA
HETATM   12  C16 UNL     1      -5.452 -40.602  19.708  1.00  0.00     0.441 C 
HETATM   13  O4  UNL     1      -6.543 -40.753  20.312  1.00  0.00    -0.221 OA
BRANCH  12  14
HETATM   14  O5  UNL     1      -5.003 -41.843  19.143  1.00  0.00    -0.282 OA
BRANCH  14  15
HETATM   15  C17 UNL     1      -4.265 -42.797  19.805  1.00  0.00     0.062 C 
HETATM   16  C18 UNL     1      -2.881 -42.984  19.184  1.00  0.00     0.046 C 
HETATM   17  C19 UNL     1      -4.012 -42.453  21.262  1.00  0.00     0.046 C 
HETATM   18  C20 UNL     1      -4.935 -44.141  19.746  1.00  0.00     0.046 C 
ENDBRANCH  14  15
ENDBRANCH  12  14
ENDBRANCH  10  11
BRANCH  10  19
HETATM   19  C21 UNL     1      -2.517 -38.395  19.807  1.00  0.00     0.053 C 
BRANCH  19  20
HETATM   20  C22 UNL     1      -1.579 -37.312  19.407  1.00  0.00     0.061 C 
BRANCH  20  21
HETATM   21  C23 UNL     1      -0.242 -37.647  18.894  1.00  0.00     0.008 C 
BRANCH  21  22
HETATM   22  C24 UNL     1       0.334 -36.805  17.808  1.00  0.00     0.027 C 
BRANCH  22  23
HETATM   23  C25 UNL     1      -0.140 -35.353  18.039  1.00  0.00     0.229 C 
BRANCH  23  24
HETATM   24  N5  UNL     1       0.936 -34.482  18.390  1.00  0.00    -0.079 N 
ATOM     25  H53 UNL     1       1.180 -34.576  19.375  1.00  0.00     0.274 HD
ATOM     26  H52 UNL     1       1.813 -34.794  17.974  1.00  0.00     0.274 HD
ATOM     27  H51 UNL     1       0.740 -33.509  18.150  1.00  0.00     0.274 HD
ENDBRANCH  23  24
ENDBRANCH  22  23
ENDBRANCH  21  22
ENDBRANCH  20  21
ENDBRANCH  19  20
BRANCH  19  28
HETATM   28  N6  UNL     1      -2.367 -38.824  21.177  1.00  0.00    -0.328 N 
HETATM   29  C26 UNL     1      -1.603 -39.906  21.646  1.00  0.00     0.218 C 
HETATM   30  C27 UNL     1      -1.533 -40.215  23.082  1.00  0.00     0.117 C 
HETATM   31  O6  UNL     1      -0.969 -40.617  20.834  1.00  0.00    -0.274 OA
ATOM     32  H6  UNL     1      -2.870 -38.284  21.881  1.00  0.00     0.168 HD
ENDBRANCH  19  28
ENDBRANCH  10  19
ENDBRANCH   9  10
ENDBRANCH   5   9
BRANCH   1  33
HETATM   33  C9  UNL     1      -1.413 -41.633  14.215  1.00  0.00     0.009 C 
BRANCH  33  34
HETATM   34  C8  UNL     1      -0.255 -42.166  14.920  1.00  0.00    -0.011 C 
HETATM   35  C7  UNL     1      -0.373 -43.352  15.803  1.00  0.00     0.035 C 
HETATM   36  C6  UNL     1      -0.150 -44.655  15.000  1.00  0.00     0.273 C 
HETATM   37  N2  UNL     1       1.209 -44.710  14.565  1.00  0.00     0.090 N 
HETATM   38  C31 UNL     1       1.862 -43.449  14.550  1.00  0.00     0.273 C 
HETATM   39  C30 UNL     1       0.946 -42.361  13.990  1.00  0.00     0.035 C 
BRANCH  37  40
HETATM   40  C5  UNL     1       1.921 -45.787  15.129  1.00  0.00     0.297 C 
BRANCH  40  41
HETATM   41  C3  UNL     1       1.349 -47.135  14.671  1.00  0.00     0.111 C 
HETATM   42  C4  UNL     1       2.113 -48.272  15.316  1.00  0.00     0.034 C 
BRANCH  41  43
HETATM   43  N1  UNL     1       1.407 -47.247  13.243  1.00  0.00    -0.331 N 
HETATM   44  C2  UNL     1       0.294 -47.345  12.376  1.00  0.00     0.360 C 
HETATM   45  O2  UNL     1      -0.899 -47.337  12.815  1.00  0.00    -0.239 OA
ATOM     46  H1  UNL     1       2.332 -47.257  12.815  1.00  0.00     0.165 HD
BRANCH  44  47
HETATM   47  O1  UNL     1       0.442 -47.454  11.004  1.00  0.00    -0.309 OA
HETATM   48  C1  UNL     1      -0.274 -48.352  10.195  1.00  0.00     0.215 C 
ENDBRANCH  44  47
ENDBRANCH  41  43
ENDBRANCH  40  41
ENDBRANCH  37  40
ENDBRANCH  33  34
ENDBRANCH   1  33
TORSDOF 18
ENDMDL
