MODEL 1
REMARK VINA RESULT: -8.511201085      0.000      0.000
REMARK  18 active torsions:
REMARK  status: ('A' for Active; 'I' for Inactive)
REMARK    1  A    between atoms: C2_2  and  C4_4 
REMARK    2  A    between atoms: C4_4  and  C5_5 
REMARK    3  A    between atoms: C5_5  and  C6_6 
REMARK    4  A    between atoms: C5_5  and  N1_8 
REMARK       I    between atoms: N1_8  and  C7_10 
REMARK    5  A    between atoms: C7_10  and  C8_12 
REMARK    6  A    between atoms: C8_12  and  C9_13 
REMARK    7  A    between atoms: C8_12  and  N3_40 
REMARK    8  A    between atoms: C9_13  and  C10_14 
REMARK    9  A    between atoms: C11_15  and  O3_16 
REMARK   10  A    between atoms: O3_16  and  C12_17 
REMARK       I    between atoms: C12_17  and  N2_19 
REMARK   11  A    between atoms: N2_19  and  C13_21 
REMARK   12  A    between atoms: C13_21  and  C14_22 
REMARK   13  A    between atoms: C13_21  and  C19_27 
REMARK   14  A    between atoms: C14_22  and  C15_23 
REMARK   15  A    between atoms: C19_27  and  O5_28 
REMARK   16  A    between atoms: C19_27  and  C20_30 
REMARK       I    between atoms: N3_40  and  C29_42 
REMARK   17  A    between atoms: C29_42  and  O8_44 
REMARK   18  A    between atoms: O8_44  and  C30_45 
ROOT
HETATM    1  C10 UNL     1      -3.467 -40.966  16.750  1.00  0.00     0.024 C 
HETATM    2  C11 UNL     1      -2.143 -41.528  16.139  1.00  0.00     0.143 C 
HETATM    3  C24 UNL     1      -2.239 -41.005  14.767  1.00  0.00     0.039 C 
HETATM    4  C25 UNL     1      -2.829 -39.628  14.868  1.00  0.00     0.068 C 
HETATM    5  C26 UNL     1      -3.489 -39.932  13.599  1.00  0.00     0.137 C 
HETATM    6  O6  UNL     1      -3.786 -39.479  12.517  1.00  0.00    -0.297 OA
HETATM    7  C27 UNL     1      -3.640 -41.184  14.333  1.00  0.00     0.068 C 
HETATM    8  C28 UNL     1      -3.990 -40.314  15.525  1.00  0.00     0.016 C 
ENDROOT
BRANCH   1   9
HETATM    9  C9  UNL     1      -3.024 -40.080  17.844  1.00  0.00     0.042 C 
BRANCH   9  10
HETATM   10  C8  UNL     1      -3.926 -39.021  18.379  1.00  0.00     0.179 C 
BRANCH  10  11
HETATM   11  C7  UNL     1      -3.235 -37.778  18.698  1.00  0.00     0.241 C 
HETATM   12  N1  UNL     1      -3.346 -36.660  17.842  1.00  0.00    -0.348 N 
ATOM     13  H1  UNL     1      -3.900 -36.767  16.993  1.00  0.00     0.163 HD
HETATM   14  O2  UNL     1      -2.555 -37.694  19.737  1.00  0.00    -0.271 OA
BRANCH  12  15
HETATM   15  C5  UNL     1      -2.733 -35.382  18.084  1.00  0.00     0.146 C 
BRANCH  15  16
HETATM   16  C4  UNL     1      -1.468 -35.222  17.349  1.00  0.00     0.036 C 
BRANCH  16  17
HETATM   17  C2  UNL     1      -0.195 -35.584  18.026  1.00  0.00    -0.020 C 
HETATM   18  C1  UNL     1       0.851 -34.485  18.040  1.00  0.00     0.009 C 
HETATM   19  C3  UNL     1       0.357 -36.937  17.700  1.00  0.00     0.009 C 
ENDBRANCH  16  17
ENDBRANCH  15  16
BRANCH  15  20
HETATM   20  C6  UNL     1      -3.694 -34.262  17.895  1.00  0.00     0.256 C 
HETATM   21  O1  UNL     1      -3.773 -33.705  16.819  1.00  0.00    -0.305 OA
ENDBRANCH  15  20
ENDBRANCH  12  15
ENDBRANCH  10  11
BRANCH  10  22
HETATM   22  N3  UNL     1      -4.462 -39.622  19.635  1.00  0.00    -0.324 N 
HETATM   23  C29 UNL     1      -5.699 -40.277  19.564  1.00  0.00     0.362 C 
HETATM   24  O7  UNL     1      -6.350 -40.368  18.492  1.00  0.00    -0.238 OA
ATOM     25  H3  UNL     1      -3.947 -39.560  20.513  1.00  0.00     0.165 HD
BRANCH  23  26
HETATM   26  O8  UNL     1      -6.251 -40.852  20.693  1.00  0.00    -0.294 OA
BRANCH  26  27
HETATM   27  C30 UNL     1      -5.660 -41.897  21.431  1.00  0.00     0.061 C 
HETATM   28  C31 UNL     1      -4.777 -41.372  22.543  1.00  0.00     0.046 C 
HETATM   29  C32 UNL     1      -4.890 -42.804  20.511  1.00  0.00     0.046 C 
HETATM   30  C33 UNL     1      -6.817 -42.690  22.050  1.00  0.00     0.046 C 
ENDBRANCH  26  27
ENDBRANCH  23  26
ENDBRANCH  10  22
ENDBRANCH   9  10
ENDBRANCH   1   9
BRANCH   2  31
HETATM   31  O3  UNL     1      -2.227 -42.942  16.128  1.00  0.00    -0.298 OA
BRANCH  31  32
HETATM   32  C12 UNL     1      -1.217 -43.661  15.506  1.00  0.00     0.361 C 
HETATM   33  O4  UNL     1      -0.201 -43.941  16.193  1.00  0.00    -0.238 OA
HETATM   34  N2  UNL     1      -1.269 -44.093  14.152  1.00  0.00    -0.330 N 
ATOM     35  H2  UNL     1      -2.082 -43.878  13.576  1.00  0.00     0.165 HD
BRANCH  34  36
HETATM   36  C13 UNL     1      -0.160 -44.843  13.593  1.00  0.00     0.116 C 
BRANCH  36  37
HETATM   37  C14 UNL     1       0.576 -43.962  12.630  1.00  0.00     0.032 C 
BRANCH  37  38
HETATM   38  C15 UNL     1       2.014 -43.815  13.046  1.00  0.00    -0.013 C 
HETATM   39  C16 UNL     1       2.151 -42.746  14.145  1.00  0.00     0.005 C 
HETATM   40  C17 UNL     1       3.121 -43.650  14.869  1.00  0.00     0.001 C 
HETATM   41  C18 UNL     1       2.519 -44.807  14.062  1.00  0.00     0.005 C 
ENDBRANCH  37  38
ENDBRANCH  36  37
BRANCH  36  42
HETATM   42  C19 UNL     1      -0.782 -46.060  12.938  1.00  0.00     0.145 C 
BRANCH  42  43
HETATM   43  O5  UNL     1      -0.394 -47.155  13.732  1.00  0.00    -0.393 OA
ATOM     44  H5  UNL     1      -0.903 -47.892  13.414  1.00  0.00     0.210 HD
ENDBRANCH  42  43
BRANCH  42  45
HETATM   45  C20 UNL     1      -0.317 -46.320  11.547  1.00  0.00     0.016 C 
HETATM   46  C21 UNL     1       0.611 -47.536  11.551  1.00  0.00     0.007 C 
HETATM   47  C22 UNL     1      -0.219 -48.195  10.491  1.00  0.00     0.001 C 
HETATM   48  C23 UNL     1      -1.233 -47.095  10.646  1.00  0.00     0.007 C 
ENDBRANCH  42  45
ENDBRANCH  36  42
ENDBRANCH  34  36
ENDBRANCH  31  32
ENDBRANCH   2  31
TORSDOF 18
ENDMDL
MODEL 2
REMARK VINA RESULT: -8.236517924      2.680      8.724
REMARK  18 active torsions:
REMARK  status: ('A' for Active; 'I' for Inactive)
REMARK    1  A    between atoms: C2_2  and  C4_4 
REMARK    2  A    between atoms: C4_4  and  C5_5 
REMARK    3  A    between atoms: C5_5  and  C6_6 
REMARK    4  A    between atoms: C5_5  and  N1_8 
REMARK       I    between atoms: N1_8  and  C7_10 
REMARK    5  A    between atoms: C7_10  and  C8_12 
REMARK    6  A    between atoms: C8_12  and  C9_13 
REMARK    7  A    between atoms: C8_12  and  N3_40 
REMARK    8  A    between atoms: C9_13  and  C10_14 
REMARK    9  A    between atoms: C11_15  and  O3_16 
REMARK   10  A    between atoms: O3_16  and  C12_17 
REMARK       I    between atoms: C12_17  and  N2_19 
REMARK   11  A    between atoms: N2_19  and  C13_21 
REMARK   12  A    between atoms: C13_21  and  C14_22 
REMARK   13  A    between atoms: C13_21  and  C19_27 
REMARK   14  A    between atoms: C14_22  and  C15_23 
REMARK   15  A    between atoms: C19_27  and  O5_28 
REMARK   16  A    between atoms: C19_27  and  C20_30 
REMARK       I    between atoms: N3_40  and  C29_42 
REMARK   17  A    between atoms: C29_42  and  O8_44 
REMARK   18  A    between atoms: O8_44  and  C30_45 
ROOT
HETATM    1  C10 UNL     1      -0.013 -44.517  15.623  1.00  0.00     0.024 C 
HETATM    2  C11 UNL     1      -0.044 -43.992  17.094  1.00  0.00     0.143 C 
HETATM    3  C24 UNL     1       1.117 -44.703  17.656  1.00  0.00     0.039 C 
HETATM    4  C25 UNL     1       2.171 -44.725  16.586  1.00  0.00     0.068 C 
HETATM    5  C26 UNL     1       2.527 -46.042  17.113  1.00  0.00     0.137 C 
HETATM    6  O6  UNL     1       3.456 -46.764  17.399  1.00  0.00    -0.297 OA
HETATM    7  C27 UNL     1       1.069 -46.085  17.136  1.00  0.00     0.068 C 
HETATM    8  C28 UNL     1       1.139 -45.441  15.764  1.00  0.00     0.016 C 
ENDROOT
BRANCH   1   9
HETATM    9  C9  UNL     1       0.195 -43.309  14.801  1.00  0.00     0.042 C 
BRANCH   9  10
HETATM   10  C8  UNL     1      -0.795 -42.916  13.759  1.00  0.00     0.179 C 
BRANCH  10  11
HETATM   11  C7  UNL     1      -1.990 -42.285  14.303  1.00  0.00     0.241 C 
HETATM   12  N1  UNL     1      -2.059 -40.880  14.432  1.00  0.00    -0.348 N 
ATOM     13  H1  UNL     1      -1.240 -40.338  14.156  1.00  0.00     0.163 HD
HETATM   14  O2  UNL     1      -2.962 -42.984  14.644  1.00  0.00    -0.271 OA
BRANCH  12  15
HETATM   15  C5  UNL     1      -3.202 -40.160  14.925  1.00  0.00     0.146 C 
BRANCH  15  16
HETATM   16  C4  UNL     1      -2.820 -39.030  15.788  1.00  0.00     0.036 C 
BRANCH  16  17
HETATM   17  C2  UNL     1      -3.892 -38.238  16.446  1.00  0.00    -0.020 C 
HETATM   18  C1  UNL     1      -3.424 -36.938  17.075  1.00  0.00     0.009 C 
HETATM   19  C3  UNL     1      -4.847 -39.012  17.301  1.00  0.00     0.009 C 
ENDBRANCH  16  17
ENDBRANCH  15  16
BRANCH  15  20
HETATM   20  C6  UNL     1      -4.144 -39.801  13.831  1.00  0.00     0.256 C 
HETATM   21  O1  UNL     1      -3.717 -39.514  12.731  1.00  0.00    -0.305 OA
ENDBRANCH  15  20
ENDBRANCH  12  15
ENDBRANCH  10  11
BRANCH  10  22
HETATM   22  N3  UNL     1      -1.169 -44.215  13.127  1.00  0.00    -0.324 N 
HETATM   23  C29 UNL     1      -0.418 -44.640  12.024  1.00  0.00     0.362 C 
HETATM   24  O7  UNL     1       0.543 -43.969  11.566  1.00  0.00    -0.238 OA
ATOM     25  H3  UNL     1      -1.943 -44.773  13.486  1.00  0.00     0.165 HD
BRANCH  23  26
HETATM   26  O8  UNL     1      -0.717 -45.833  11.392  1.00  0.00    -0.294 OA
BRANCH  26  27
HETATM   27  C30 UNL     1      -0.327 -47.105  11.856  1.00  0.00     0.061 C 
HETATM   28  C31 UNL     1      -1.213 -47.589  12.984  1.00  0.00     0.046 C 
HETATM   29  C32 UNL     1       1.117 -47.079  12.276  1.00  0.00     0.046 C 
HETATM   30  C33 UNL     1      -0.477 -48.059  10.665  1.00  0.00     0.046 C 
ENDBRANCH  26  27
ENDBRANCH  23  26
ENDBRANCH  10  22
ENDBRANCH   9  10
ENDBRANCH   1   9
BRANCH   2  31
HETATM   31  O3  UNL     1      -1.237 -44.452  17.702  1.00  0.00    -0.298 OA
BRANCH  31  32
HETATM   32  C12 UNL     1      -1.960 -43.570  18.491  1.00  0.00     0.361 C 
HETATM   33  O4  UNL     1      -3.216 -43.651  18.446  1.00  0.00    -0.238 OA
HETATM   34  N2  UNL     1      -1.367 -42.594  19.338  1.00  0.00    -0.330 N 
ATOM     35  H2  UNL     1      -0.352 -42.510  19.391  1.00  0.00     0.165 HD
BRANCH  34  36
HETATM   36  C13 UNL     1      -2.211 -41.717  20.128  1.00  0.00     0.116 C 
BRANCH  36  37
HETATM   37  C14 UNL     1      -2.349 -40.410  19.409  1.00  0.00     0.032 C 
BRANCH  37  38
HETATM   38  C15 UNL     1      -1.398 -39.394  19.980  1.00  0.00    -0.013 C 
HETATM   39  C16 UNL     1      -0.654 -38.658  18.851  1.00  0.00     0.005 C 
HETATM   40  C17 UNL     1      -0.845 -37.363  19.605  1.00  0.00     0.001 C 
HETATM   41  C18 UNL     1      -1.990 -38.060  20.351  1.00  0.00     0.005 C 
ENDBRANCH  37  38
ENDBRANCH  36  37
BRANCH  36  42
HETATM   42  C19 UNL     1      -1.521 -41.592  21.472  1.00  0.00     0.145 C 
BRANCH  42  43
HETATM   43  O5  UNL     1      -0.418 -42.465  21.413  1.00  0.00    -0.393 OA
ATOM     44  H5  UNL     1      -0.779 -43.338  21.513  1.00  0.00     0.210 HD
ENDBRANCH  42  43
BRANCH  42  45
HETATM   45  C20 UNL     1      -2.356 -41.996  22.637  1.00  0.00     0.016 C 
HETATM   46  C21 UNL     1      -2.311 -40.887  23.690  1.00  0.00     0.007 C 
HETATM   47  C22 UNL     1      -3.809 -40.829  23.719  1.00  0.00     0.001 C 
HETATM   48  C23 UNL     1      -3.835 -41.764  22.540  1.00  0.00     0.007 C 
ENDBRANCH  42  45
ENDBRANCH  36  42
ENDBRANCH  34  36
ENDBRANCH  31  32
ENDBRANCH   2  31
TORSDOF 18
ENDMDL
MODEL 3
REMARK VINA RESULT: -8.190638325      2.366      4.144
REMARK  18 active torsions:
REMARK  status: ('A' for Active; 'I' for Inactive)
REMARK    1  A    between atoms: C2_2  and  C4_4 
REMARK    2  A    between atoms: C4_4  and  C5_5 
REMARK    3  A    between atoms: C5_5  and  C6_6 
REMARK    4  A    between atoms: C5_5  and  N1_8 
REMARK       I    between atoms: N1_8  and  C7_10 
REMARK    5  A    between atoms: C7_10  and  C8_12 
REMARK    6  A    between atoms: C8_12  and  C9_13 
REMARK    7  A    between atoms: C8_12  and  N3_40 
REMARK    8  A    between atoms: C9_13  and  C10_14 
REMARK    9  A    between atoms: C11_15  and  O3_16 
REMARK   10  A    between atoms: O3_16  and  C12_17 
REMARK       I    between atoms: C12_17  and  N2_19 
REMARK   11  A    between atoms: N2_19  and  C13_21 
REMARK   12  A    between atoms: C13_21  and  C14_22 
REMARK   13  A    between atoms: C13_21  and  C19_27 
REMARK   14  A    between atoms: C14_22  and  C15_23 
REMARK   15  A    between atoms: C19_27  and  O5_28 
REMARK   16  A    between atoms: C19_27  and  C20_30 
REMARK       I    between atoms: N3_40  and  C29_42 
REMARK   17  A    between atoms: C29_42  and  O8_44 
REMARK   18  A    between atoms: O8_44  and  C30_45 
ROOT
HETATM    1  C10 UNL     1      -1.129 -42.331  15.725  1.00  0.00     0.024 C 
HETATM    2  C11 UNL     1      -0.156 -42.770  14.584  1.00  0.00     0.143 C 
HETATM    3  C24 UNL     1      -1.064 -43.582  13.757  1.00  0.00     0.039 C 
HETATM    4  C25 UNL     1      -2.398 -42.891  13.771  1.00  0.00     0.068 C 
HETATM    5  C26 UNL     1      -2.975 -44.234  13.734  1.00  0.00     0.137 C 
HETATM    6  O6  UNL     1      -3.848 -44.912  13.239  1.00  0.00    -0.297 OA
HETATM    7  C27 UNL     1      -1.878 -44.397  14.681  1.00  0.00     0.068 C 
HETATM    8  C28 UNL     1      -2.329 -43.068  15.260  1.00  0.00     0.016 C 
ENDROOT
BRANCH   1   9
HETATM    9  C9  UNL     1      -1.171 -40.858  15.630  1.00  0.00     0.042 C 
BRANCH   9  10
HETATM   10  C8  UNL     1      -2.231 -40.080  16.331  1.00  0.00     0.179 C 
BRANCH  10  11
HETATM   11  C7  UNL     1      -1.980 -38.644  16.349  1.00  0.00     0.241 C 
HETATM   12  N1  UNL     1      -1.248 -38.062  17.407  1.00  0.00    -0.348 N 
ATOM     13  H1  UNL     1      -0.930 -38.675  18.157  1.00  0.00     0.163 HD
HETATM   14  O2  UNL     1      -2.400 -37.928  15.422  1.00  0.00    -0.271 OA
BRANCH  12  15
HETATM   15  C5  UNL     1      -0.919 -36.665  17.500  1.00  0.00     0.146 C 
BRANCH  15  16
HETATM   16  C4  UNL     1      -1.716 -35.971  18.526  1.00  0.00     0.036 C 
BRANCH  16  17
HETATM   17  C2  UNL     1      -3.008 -35.351  18.131  1.00  0.00    -0.020 C 
HETATM   18  C1  UNL     1      -4.203 -36.284  18.189  1.00  0.00     0.009 C 
HETATM   19  C3  UNL     1      -2.973 -34.492  16.905  1.00  0.00     0.009 C 
ENDBRANCH  16  17
ENDBRANCH  15  16
BRANCH  15  20
HETATM   20  C6  UNL     1       0.548 -36.448  17.618  1.00  0.00     0.256 C 
HETATM   21  O1  UNL     1       0.972 -35.456  18.176  1.00  0.00    -0.305 OA
ENDBRANCH  15  20
ENDBRANCH  12  15
ENDBRANCH  10  11
BRANCH  10  22
HETATM   22  N3  UNL     1      -2.184 -40.605  17.727  1.00  0.00    -0.324 N 
HETATM   23  C29 UNL     1      -3.403 -40.793  18.391  1.00  0.00     0.362 C 
HETATM   24  O7  UNL     1      -4.509 -40.536  17.850  1.00  0.00    -0.238 OA
ATOM     25  H3  UNL     1      -1.297 -40.821  18.181  1.00  0.00     0.165 HD
BRANCH  23  26
HETATM   26  O8  UNL     1      -3.426 -41.274  19.687  1.00  0.00    -0.294 OA
BRANCH  26  27
HETATM   27  C30 UNL     1      -3.048 -40.534  20.824  1.00  0.00     0.061 C 
HETATM   28  C31 UNL     1      -3.153 -39.042  20.585  1.00  0.00     0.046 C 
HETATM   29  C32 UNL     1      -1.657 -40.917  21.248  1.00  0.00     0.046 C 
HETATM   30  C33 UNL     1      -4.028 -40.927  21.936  1.00  0.00     0.046 C 
ENDBRANCH  26  27
ENDBRANCH  23  26
ENDBRANCH  10  22
ENDBRANCH   9  10
ENDBRANCH   1   9
BRANCH   2  31
HETATM   31  O3  UNL     1       0.849 -43.590  15.151  1.00  0.00    -0.298 OA
BRANCH  31  32
HETATM   32  C12 UNL     1       1.781 -44.175  14.307  1.00  0.00     0.361 C 
HETATM   33  O4  UNL     1       2.598 -43.410  13.731  1.00  0.00    -0.238 OA
HETATM   34  N2  UNL     1       1.863 -45.574  14.064  1.00  0.00    -0.330 N 
ATOM     35  H2  UNL     1       1.212 -46.212  14.520  1.00  0.00     0.165 HD
BRANCH  34  36
HETATM   36  C13 UNL     1       2.877 -46.089  13.163  1.00  0.00     0.116 C 
BRANCH  36  37
HETATM   37  C14 UNL     1       2.242 -46.368  11.836  1.00  0.00     0.032 C 
BRANCH  37  38
HETATM   38  C15 UNL     1       0.882 -46.983  12.024  1.00  0.00    -0.013 C 
HETATM   39  C16 UNL     1      -0.213 -46.051  11.473  1.00  0.00     0.005 C 
HETATM   40  C17 UNL     1      -0.901 -47.255  10.875  1.00  0.00     0.001 C 
HETATM   41  C18 UNL     1       0.448 -47.977  10.978  1.00  0.00     0.005 C 
ENDBRANCH  37  38
ENDBRANCH  36  37
BRANCH  36  42
HETATM   42  C19 UNL     1       3.425 -47.331  13.838  1.00  0.00     0.145 C 
BRANCH  42  43
HETATM   43  O5  UNL     1       2.644 -47.508  14.995  1.00  0.00    -0.393 OA
ATOM     44  H5  UNL     1       2.192 -48.334  14.874  1.00  0.00     0.210 HD
ENDBRANCH  42  43
BRANCH  42  45
HETATM   45  C20 UNL     1       4.849 -47.229  14.264  1.00  0.00     0.016 C 
HETATM   46  C21 UNL     1       5.169 -45.769  14.586  1.00  0.00     0.007 C 
HETATM   47  C22 UNL     1       5.678 -46.160  15.940  1.00  0.00     0.001 C 
HETATM   48  C23 UNL     1       5.168 -47.554  15.692  1.00  0.00     0.007 C 
ENDBRANCH  42  45
ENDBRANCH  36  42
ENDBRANCH  34  36
ENDBRANCH  31  32
ENDBRANCH   2  31
TORSDOF 18
ENDMDL
MODEL 4
REMARK VINA RESULT: -8.018334750      2.482      5.539
REMARK  18 active torsions:
REMARK  status: ('A' for Active; 'I' for Inactive)
REMARK    1  A    between atoms: C2_2  and  C4_4 
REMARK    2  A    between atoms: C4_4  and  C5_5 
REMARK    3  A    between atoms: C5_5  and  C6_6 
REMARK    4  A    between atoms: C5_5  and  N1_8 
REMARK       I    between atoms: N1_8  and  C7_10 
REMARK    5  A    between atoms: C7_10  and  C8_12 
REMARK    6  A    between atoms: C8_12  and  C9_13 
REMARK    7  A    between atoms: C8_12  and  N3_40 
REMARK    8  A    between atoms: C9_13  and  C10_14 
REMARK    9  A    between atoms: C11_15  and  O3_16 
REMARK   10  A    between atoms: O3_16  and  C12_17 
REMARK       I    between atoms: C12_17  and  N2_19 
REMARK   11  A    between atoms: N2_19  and  C13_21 
REMARK   12  A    between atoms: C13_21  and  C14_22 
REMARK   13  A    between atoms: C13_21  and  C19_27 
REMARK   14  A    between atoms: C14_22  and  C15_23 
REMARK   15  A    between atoms: C19_27  and  O5_28 
REMARK   16  A    between atoms: C19_27  and  C20_30 
REMARK       I    between atoms: N3_40  and  C29_42 
REMARK   17  A    between atoms: C29_42  and  O8_44 
REMARK   18  A    between atoms: O8_44  and  C30_45 
ROOT
HETATM    1  C10 UNL     1      -4.190 -39.210  17.544  1.00  0.00     0.024 C 
HETATM    2  C11 UNL     1      -3.034 -40.149  17.073  1.00  0.00     0.143 C 
HETATM    3  C24 UNL     1      -2.062 -39.155  16.591  1.00  0.00     0.039 C 
HETATM    4  C25 UNL     1      -2.129 -37.990  17.535  1.00  0.00     0.068 C 
HETATM    5  C26 UNL     1      -1.870 -37.158  16.360  1.00  0.00     0.137 C 
HETATM    6  O6  UNL     1      -1.247 -36.202  15.955  1.00  0.00    -0.297 OA
HETATM    7  C27 UNL     1      -2.823 -38.133  15.843  1.00  0.00     0.068 C 
HETATM    8  C28 UNL     1      -3.576 -37.921  17.144  1.00  0.00     0.016 C 
ENDROOT
BRANCH   1   9
HETATM    9  C9  UNL     1      -4.315 -39.472  18.991  1.00  0.00     0.042 C 
BRANCH   9  10
HETATM   10  C8  UNL     1      -3.763 -40.720  19.590  1.00  0.00     0.179 C 
BRANCH  10  11
HETATM   11  C7  UNL     1      -4.790 -41.649  20.044  1.00  0.00     0.241 C 
HETATM   12  N1  UNL     1      -5.378 -41.495  21.318  1.00  0.00    -0.348 N 
ATOM     13  H1  UNL     1      -5.041 -40.733  21.906  1.00  0.00     0.163 HD
HETATM   14  O2  UNL     1      -5.162 -42.575  19.301  1.00  0.00    -0.271 OA
BRANCH  12  15
HETATM   15  C5  UNL     1      -6.420 -42.335  21.844  1.00  0.00     0.146 C 
BRANCH  15  16
HETATM   16  C4  UNL     1      -6.044 -42.952  23.127  1.00  0.00     0.036 C 
BRANCH  16  17
HETATM   17  C2  UNL     1      -6.807 -42.586  24.349  1.00  0.00    -0.020 C 
HETATM   18  C1  UNL     1      -6.143 -41.535  25.219  1.00  0.00     0.009 C 
HETATM   19  C3  UNL     1      -7.392 -43.727  25.122  1.00  0.00     0.009 C 
ENDBRANCH  16  17
ENDBRANCH  15  16
BRANCH  15  20
HETATM   20  C6  UNL     1      -7.735 -41.641  21.864  1.00  0.00     0.256 C 
HETATM   21  O1  UNL     1      -8.061 -40.928  20.936  1.00  0.00    -0.305 OA
ENDBRANCH  15  20
ENDBRANCH  12  15
ENDBRANCH  10  11
BRANCH  10  22
HETATM   22  N3  UNL     1      -2.989 -40.229  20.767  1.00  0.00    -0.324 N 
HETATM   23  C29 UNL     1      -1.842 -40.944  21.135  1.00  0.00     0.362 C 
HETATM   24  O7  UNL     1      -1.458 -41.966  20.508  1.00  0.00    -0.238 OA
ATOM     25  H3  UNL     1      -3.284 -39.401  21.285  1.00  0.00     0.165 HD
BRANCH  23  26
HETATM   26  O8  UNL     1      -1.083 -40.542  22.218  1.00  0.00    -0.294 OA
BRANCH  26  27
HETATM   27  C30 UNL     1      -1.175 -41.094  23.510  1.00  0.00     0.061 C 
HETATM   28  C31 UNL     1      -0.569 -42.481  23.574  1.00  0.00     0.046 C 
HETATM   29  C32 UNL     1      -2.609 -41.110  23.963  1.00  0.00     0.046 C 
HETATM   30  C33 UNL     1      -0.377 -40.164  24.431  1.00  0.00     0.046 C 
ENDBRANCH  26  27
ENDBRANCH  23  26
ENDBRANCH  10  22
ENDBRANCH   9  10
ENDBRANCH   1   9
BRANCH   2  31
HETATM   31  O3  UNL     1      -3.511 -40.928  15.990  1.00  0.00    -0.298 OA
BRANCH  31  32
HETATM   32  C12 UNL     1      -2.788 -42.051  15.613  1.00  0.00     0.361 C 
HETATM   33  O4  UNL     1      -2.139 -42.648  16.511  1.00  0.00    -0.238 OA
HETATM   34  N2  UNL     1      -2.744 -42.556  14.284  1.00  0.00    -0.330 N 
ATOM     35  H2  UNL     1      -3.262 -42.088  13.541  1.00  0.00     0.165 HD
BRANCH  34  36
HETATM   36  C13 UNL     1      -1.959 -43.739  13.990  1.00  0.00     0.116 C 
BRANCH  36  37
HETATM   37  C14 UNL     1      -0.762 -43.332  13.187  1.00  0.00     0.032 C 
BRANCH  37  38
HETATM   38  C15 UNL     1       0.452 -44.107  13.623  1.00  0.00    -0.013 C 
HETATM   39  C16 UNL     1       1.655 -43.164  13.809  1.00  0.00     0.005 C 
HETATM   40  C17 UNL     1       2.012 -43.912  15.072  1.00  0.00     0.001 C 
HETATM   41  C18 UNL     1       0.560 -44.404  15.096  1.00  0.00     0.005 C 
ENDBRANCH  37  38
ENDBRANCH  36  37
BRANCH  36  42
HETATM   42  C19 UNL     1      -2.893 -44.671  13.244  1.00  0.00     0.145 C 
BRANCH  42  43
HETATM   43  O5  UNL     1      -4.066 -43.927  13.017  1.00  0.00    -0.393 OA
ATOM     44  H5  UNL     1      -4.149 -43.866  12.073  1.00  0.00     0.210 HD
ENDBRANCH  42  43
BRANCH  42  45
HETATM   45  C20 UNL     1      -3.274 -45.899  13.996  1.00  0.00     0.016 C 
HETATM   46  C21 UNL     1      -2.199 -46.965  13.788  1.00  0.00     0.007 C 
HETATM   47  C22 UNL     1      -2.049 -47.131  15.270  1.00  0.00     0.001 C 
HETATM   48  C23 UNL     1      -2.950 -45.940  15.460  1.00  0.00     0.007 C 
ENDBRANCH  42  45
ENDBRANCH  36  42
ENDBRANCH  34  36
ENDBRANCH  31  32
ENDBRANCH   2  31
TORSDOF 18
ENDMDL
MODEL 5
REMARK VINA RESULT: -8.003286778      2.590      5.679
REMARK  18 active torsions:
REMARK  status: ('A' for Active; 'I' for Inactive)
REMARK    1  A    between atoms: C2_2  and  C4_4 
REMARK    2  A    between atoms: C4_4  and  C5_5 
REMARK    3  A    between atoms: C5_5  and  C6_6 
REMARK    4  A    between atoms: C5_5  and  N1_8 
REMARK       I    between atoms: N1_8  and  C7_10 
REMARK    5  A    between atoms: C7_10  and  C8_12 
REMARK    6  A    between atoms: C8_12  and  C9_13 
REMARK    7  A    between atoms: C8_12  and  N3_40 
REMARK    8  A    between atoms: C9_13  and  C10_14 
REMARK    9  A    between atoms: C11_15  and  O3_16 
REMARK   10  A    between atoms: O3_16  and  C12_17 
REMARK       I    between atoms: C12_17  and  N2_19 
REMARK   11  A    between atoms: N2_19  and  C13_21 
REMARK   12  A    between atoms: C13_21  and  C14_22 
REMARK   13  A    between atoms: C13_21  and  C19_27 
REMARK   14  A    between atoms: C14_22  and  C15_23 
REMARK   15  A    between atoms: C19_27  and  O5_28 
REMARK   16  A    between atoms: C19_27  and  C20_30 
REMARK       I    between atoms: N3_40  and  C29_42 
REMARK   17  A    between atoms: C29_42  and  O8_44 
REMARK   18  A    between atoms: O8_44  and  C30_45 
ROOT
HETATM    1  C10 UNL     1      -3.375 -40.446  17.604  1.00  0.00     0.024 C 
HETATM    2  C11 UNL     1      -2.264 -41.006  16.659  1.00  0.00     0.143 C 
HETATM    3  C24 UNL     1      -1.661 -39.751  16.182  1.00  0.00     0.039 C 
HETATM    4  C25 UNL     1      -1.647 -38.805  17.348  1.00  0.00     0.068 C 
HETATM    5  C26 UNL     1      -1.890 -37.753  16.362  1.00  0.00     0.137 C 
HETATM    6  O6  UNL     1      -1.587 -36.627  16.037  1.00  0.00    -0.297 OA
HETATM    7  C27 UNL     1      -2.772 -38.819  15.899  1.00  0.00     0.068 C 
HETATM    8  C28 UNL     1      -3.135 -39.002  17.361  1.00  0.00     0.016 C 
ENDROOT
BRANCH   1   9
HETATM    9  C9  UNL     1      -3.023 -40.966  18.940  1.00  0.00     0.042 C 
BRANCH   9  10
HETATM   10  C8  UNL     1      -3.932 -41.907  19.655  1.00  0.00     0.179 C 
BRANCH  10  11
HETATM   11  C7  UNL     1      -4.567 -41.321  20.828  1.00  0.00     0.241 C 
HETATM   12  N1  UNL     1      -5.103 -42.150  21.837  1.00  0.00    -0.348 N 
ATOM     13  H1  UNL     1      -5.050 -43.159  21.700  1.00  0.00     0.163 HD
HETATM   14  O2  UNL     1      -4.625 -40.084  20.950  1.00  0.00    -0.271 OA
BRANCH  12  15
HETATM   15  C5  UNL     1      -5.718 -41.672  23.046  1.00  0.00     0.146 C 
BRANCH  15  16
HETATM   16  C4  UNL     1      -7.032 -42.291  23.287  1.00  0.00     0.036 C 
BRANCH  16  17
HETATM   17  C2  UNL     1      -7.935 -42.526  22.130  1.00  0.00    -0.020 C 
HETATM   18  C1  UNL     1      -8.772 -41.327  21.726  1.00  0.00     0.009 C 
HETATM   19  C3  UNL     1      -8.697 -43.815  22.147  1.00  0.00     0.009 C 
ENDBRANCH  16  17
ENDBRANCH  15  16
BRANCH  15  20
HETATM   20  C6  UNL     1      -4.789 -41.743  24.206  1.00  0.00     0.256 C 
HETATM   21  O1  UNL     1      -4.212 -40.743  24.585  1.00  0.00    -0.305 OA
ENDBRANCH  15  20
ENDBRANCH  12  15
ENDBRANCH  10  11
BRANCH  10  22
HETATM   22  N3  UNL     1      -3.024 -43.009  20.085  1.00  0.00    -0.324 N 
HETATM   23  C29 UNL     1      -2.869 -44.099  19.218  1.00  0.00     0.362 C 
HETATM   24  O7  UNL     1      -3.462 -44.166  18.111  1.00  0.00    -0.238 OA
ATOM     25  H3  UNL     1      -2.533 -42.971  20.978  1.00  0.00     0.165 HD
BRANCH  23  26
HETATM   26  O8  UNL     1      -2.043 -45.153  19.561  1.00  0.00    -0.294 OA
BRANCH  26  27
HETATM   27  C30 UNL     1      -0.635 -45.100  19.566  1.00  0.00     0.061 C 
HETATM   28  C31 UNL     1      -0.080 -45.043  20.974  1.00  0.00     0.046 C 
HETATM   29  C32 UNL     1      -0.162 -43.929  18.750  1.00  0.00     0.046 C 
HETATM   30  C33 UNL     1      -0.156 -46.394  18.898  1.00  0.00     0.046 C 
ENDBRANCH  26  27
ENDBRANCH  23  26
ENDBRANCH  10  22
ENDBRANCH   9  10
ENDBRANCH   1   9
BRANCH   2  31
HETATM   31  O3  UNL     1      -2.896 -41.681  15.587  1.00  0.00    -0.298 OA
BRANCH  31  32
HETATM   32  C12 UNL     1      -2.261 -42.781  15.030  1.00  0.00     0.361 C 
HETATM   33  O4  UNL     1      -1.180 -43.152  15.557  1.00  0.00    -0.238 OA
HETATM   34  N2  UNL     1      -2.760 -43.504  13.911  1.00  0.00    -0.330 N 
ATOM     35  H2  UNL     1      -3.634 -43.222  13.468  1.00  0.00     0.165 HD
BRANCH  34  36
HETATM   36  C13 UNL     1      -2.021 -44.644  13.403  1.00  0.00     0.116 C 
BRANCH  36  37
HETATM   37  C14 UNL     1      -1.350 -44.248  12.124  1.00  0.00     0.032 C 
BRANCH  37  38
HETATM   38  C15 UNL     1       0.051 -44.794  12.075  1.00  0.00    -0.013 C 
HETATM   39  C16 UNL     1       0.511 -45.224  13.480  1.00  0.00     0.005 C 
HETATM   40  C17 UNL     1       1.122 -46.465  12.872  1.00  0.00     0.001 C 
HETATM   41  C18 UNL     1       0.190 -46.240  11.675  1.00  0.00     0.005 C 
ENDBRANCH  37  38
ENDBRANCH  36  37
BRANCH  36  42
HETATM   42  C19 UNL     1      -3.047 -45.746  13.226  1.00  0.00     0.145 C 
BRANCH  42  43
HETATM   43  O5  UNL     1      -4.294 -45.096  13.171  1.00  0.00    -0.393 OA
ATOM     44  H5  UNL     1      -4.870 -45.689  12.704  1.00  0.00     0.210 HD
ENDBRANCH  42  43
BRANCH  42  45
HETATM   45  C20 UNL     1      -3.098 -46.730  14.343  1.00  0.00     0.016 C 
HETATM   46  C21 UNL     1      -2.115 -47.865  14.053  1.00  0.00     0.007 C 
HETATM   47  C22 UNL     1      -1.462 -47.666  15.387  1.00  0.00     0.001 C 
HETATM   48  C23 UNL     1      -2.293 -46.424  15.571  1.00  0.00     0.007 C 
ENDBRANCH  42  45
ENDBRANCH  36  42
ENDBRANCH  34  36
ENDBRANCH  31  32
ENDBRANCH   2  31
TORSDOF 18
ENDMDL
