MODEL 1
REMARK VINA RESULT: -8.429059168      0.000      0.000
REMARK  19 active torsions:
REMARK  status: ('A' for Active; 'I' for Inactive)
REMARK    1  A    between atoms: C2_2  and  C3_3 
REMARK    2  A    between atoms: C3_3  and  C4_4 
REMARK    3  A    between atoms: C3_3  and  C25_32 
REMARK    4  A    between atoms: C4_4  and  C5_5 
REMARK    5  A    between atoms: C8_8  and  C9_9 
REMARK       I    between atoms: C9_9  and  N1_11 
REMARK    6  A    between atoms: N1_11  and  C10_13 
REMARK    7  A    between atoms: C10_13  and  C11_14 
REMARK    8  A    between atoms: C10_13  and  C18_23 
REMARK    9  A    between atoms: C11_14  and  C12_15 
REMARK       I    between atoms: C12_15  and  N2_17 
REMARK   10  A    between atoms: C18_23  and  O4_25 
REMARK   11  A    between atoms: O4_25  and  C19_26 
REMARK       I    between atoms: C25_32  and  N3_34 
REMARK   12  A    between atoms: N3_34  and  C26_36 
REMARK   13  A    between atoms: C26_36  and  C27_37 
REMARK   14  A    between atoms: C26_36  and  C28_39 
REMARK   15  A    between atoms: C28_39  and  O7_40 
REMARK   16  A    between atoms: C28_39  and  C29_42 
REMARK   17  A    between atoms: C29_42  and  O8_43 
REMARK   18  A    between atoms: C29_42  and  C30_45 
REMARK   19  A    between atoms: C30_45  and  C31_46 
ROOT
HETATM    1  C5  UNL     1      -2.898 -40.335  14.515  1.00  0.00    -0.014 C 
HETATM    2  C6  UNL     1      -3.675 -41.517  14.097  1.00  0.00     0.005 C 
HETATM    3  C7  UNL     1      -2.798 -42.791  14.173  1.00  0.00     0.014 C 
HETATM    4  C8  UNL     1      -1.509 -42.401  13.493  1.00  0.00     0.078 C 
HETATM    5  C23 UNL     1      -0.732 -41.578  14.538  1.00  0.00     0.014 C 
HETATM    6  C24 UNL     1      -1.726 -40.847  15.377  1.00  0.00     0.005 C 
ENDROOT
BRANCH   1   7
HETATM    7  C4  UNL     1      -3.539 -39.192  15.150  1.00  0.00     0.018 C 
BRANCH   7   8
HETATM    8  C3  UNL     1      -4.142 -39.073  16.456  1.00  0.00     0.078 C 
BRANCH   8   9
HETATM    9  C2  UNL     1      -4.331 -40.130  17.444  1.00  0.00     0.009 C 
HETATM   10  C1  UNL     1      -5.204 -39.926  18.630  1.00  0.00     0.006 C 
ENDBRANCH   8   9
BRANCH   8  11
HETATM   11  C25 UNL     1      -3.431 -37.934  17.194  1.00  0.00     0.222 C 
HETATM   12  O5  UNL     1      -4.027 -36.840  17.239  1.00  0.00    -0.273 OA
HETATM   13  N3  UNL     1      -2.169 -38.143  17.787  1.00  0.00    -0.347 N 
ATOM     14  H3  UNL     1      -1.723 -39.057  17.712  1.00  0.00     0.163 HD
BRANCH  13  15
HETATM   15  C26 UNL     1      -1.488 -37.060  18.512  1.00  0.00     0.177 C 
BRANCH  15  16
HETATM   16  C27 UNL     1      -0.338 -36.525  17.751  1.00  0.00     0.258 C 
HETATM   17  O6  UNL     1       0.763 -36.966  17.967  1.00  0.00    -0.305 OA
ENDBRANCH  15  16
BRANCH  15  18
HETATM   18  C28 UNL     1      -1.097 -37.575  19.883  1.00  0.00     0.176 C 
BRANCH  18  19
HETATM   19  O7  UNL     1      -0.399 -36.654  20.618  1.00  0.00    -0.391 OA
ATOM     20  H7  UNL     1       0.530 -36.647  20.417  1.00  0.00     0.210 HD
ENDBRANCH  18  19
BRANCH  18  21
HETATM   21  C29 UNL     1      -2.208 -38.282  20.591  1.00  0.00     0.149 C 
BRANCH  21  22
HETATM   22  O8  UNL     1      -3.343 -37.498  20.734  1.00  0.00    -0.393 OA
ATOM     23  H8  UNL     1      -3.587 -37.049  19.933  1.00  0.00     0.210 HD
ENDBRANCH  21  22
BRANCH  21  24
HETATM   24  C30 UNL     1      -1.766 -38.947  21.870  1.00  0.00     0.038 C 
BRANCH  24  25
HETATM   25  C31 UNL     1      -2.140 -40.387  21.994  1.00  0.00    -0.020 C 
HETATM   26  C32 UNL     1      -1.996 -41.001  20.589  1.00  0.00     0.009 C 
HETATM   27  C33 UNL     1      -3.596 -40.579  22.370  1.00  0.00     0.009 C 
ENDBRANCH  24  25
ENDBRANCH  21  24
ENDBRANCH  18  21
ENDBRANCH  15  18
ENDBRANCH  13  15
ENDBRANCH   8  11
ENDBRANCH   7   8
ENDBRANCH   1   7
BRANCH   4  28
HETATM   28  C9  UNL     1      -0.722 -43.495  12.941  1.00  0.00     0.222 C 
HETATM   29  O1  UNL     1      -0.020 -43.243  11.889  1.00  0.00    -0.273 OA
HETATM   30  N1  UNL     1      -0.685 -44.802  13.484  1.00  0.00    -0.346 N 
ATOM     31  H1  UNL     1      -1.242 -45.005  14.314  1.00  0.00     0.163 HD
BRANCH  30  32
HETATM   32  C10 UNL     1       0.107 -45.848  12.909  1.00  0.00     0.193 C 
BRANCH  32  33
HETATM   33  C11 UNL     1       1.078 -46.466  13.854  1.00  0.00     0.138 C 
BRANCH  33  34
HETATM   34  C12 UNL     1       2.299 -45.714  14.110  1.00  0.00     0.222 C 
HETATM   35  O2  UNL     1       2.287 -44.479  14.224  1.00  0.00    -0.273 OA
HETATM   36  N2  UNL     1       3.542 -46.382  14.241  1.00  0.00    -0.352 N 
HETATM   37  C13 UNL     1       3.606 -47.811  14.111  1.00  0.00     0.125 C 
HETATM   38  C17 UNL     1       4.773 -45.657  14.516  1.00  0.00     0.125 C 
HETATM   39  C14 UNL     1       5.043 -48.254  14.315  1.00  0.00     0.020 C 
HETATM   40  C15 UNL     1       5.576 -47.739  15.642  1.00  0.00     0.003 C 
HETATM   41  C16 UNL     1       5.447 -46.247  15.749  1.00  0.00     0.020 C 
ENDBRANCH  33  34
ENDBRANCH  32  33
BRANCH  32  42
HETATM   42  C18 UNL     1      -0.761 -46.870  12.243  1.00  0.00     0.283 C 
HETATM   43  O3  UNL     1      -0.226 -47.910  11.803  1.00  0.00    -0.263 OA
BRANCH  42  44
HETATM   44  O4  UNL     1      -2.117 -46.662  12.117  1.00  0.00    -0.310 OA
BRANCH  44  45
HETATM   45  C19 UNL     1      -3.013 -47.251  13.037  1.00  0.00     0.060 C 
HETATM   46  C20 UNL     1      -2.294 -47.944  14.189  1.00  0.00     0.045 C 
HETATM   47  C21 UNL     1      -4.007 -46.235  13.546  1.00  0.00     0.045 C 
HETATM   48  C22 UNL     1      -3.803 -48.320  12.274  1.00  0.00     0.045 C 
ENDBRANCH  44  45
ENDBRANCH  42  44
ENDBRANCH  32  42
ENDBRANCH  30  32
ENDBRANCH   4  28
TORSDOF 19
ENDMDL
MODEL 2
REMARK VINA RESULT: -8.364258687      2.426      9.659
REMARK  19 active torsions:
REMARK  status: ('A' for Active; 'I' for Inactive)
REMARK    1  A    between atoms: C2_2  and  C3_3 
REMARK    2  A    between atoms: C3_3  and  C4_4 
REMARK    3  A    between atoms: C3_3  and  C25_32 
REMARK    4  A    between atoms: C4_4  and  C5_5 
REMARK    5  A    between atoms: C8_8  and  C9_9 
REMARK       I    between atoms: C9_9  and  N1_11 
REMARK    6  A    between atoms: N1_11  and  C10_13 
REMARK    7  A    between atoms: C10_13  and  C11_14 
REMARK    8  A    between atoms: C10_13  and  C18_23 
REMARK    9  A    between atoms: C11_14  and  C12_15 
REMARK       I    between atoms: C12_15  and  N2_17 
REMARK   10  A    between atoms: C18_23  and  O4_25 
REMARK   11  A    between atoms: O4_25  and  C19_26 
REMARK       I    between atoms: C25_32  and  N3_34 
REMARK   12  A    between atoms: N3_34  and  C26_36 
REMARK   13  A    between atoms: C26_36  and  C27_37 
REMARK   14  A    between atoms: C26_36  and  C28_39 
REMARK   15  A    between atoms: C28_39  and  O7_40 
REMARK   16  A    between atoms: C28_39  and  C29_42 
REMARK   17  A    between atoms: C29_42  and  O8_43 
REMARK   18  A    between atoms: C29_42  and  C30_45 
REMARK   19  A    between atoms: C30_45  and  C31_46 
ROOT
HETATM    1  C5  UNL     1       1.107 -44.244  12.936  1.00  0.00    -0.014 C 
HETATM    2  C6  UNL     1       0.514 -43.096  12.226  1.00  0.00     0.005 C 
HETATM    3  C7  UNL     1      -0.147 -42.124  13.234  1.00  0.00     0.014 C 
HETATM    4  C8  UNL     1      -0.966 -43.016  14.134  1.00  0.00     0.078 C 
HETATM    5  C23 UNL     1       0.045 -43.641  15.115  1.00  0.00     0.014 C 
HETATM    6  C24 UNL     1       1.342 -43.801  14.395  1.00  0.00     0.005 C 
ENDROOT
BRANCH   1   7
HETATM    7  C4  UNL     1       2.279 -44.935  12.417  1.00  0.00     0.018 C 
BRANCH   7   8
HETATM    8  C3  UNL     1       2.672 -46.319  12.540  1.00  0.00     0.078 C 
BRANCH   8   9
HETATM    9  C2  UNL     1       3.545 -46.904  13.553  1.00  0.00     0.009 C 
HETATM   10  C1  UNL     1       4.415 -46.050  14.404  1.00  0.00     0.006 C 
ENDBRANCH   8   9
BRANCH   8  11
HETATM   11  C25 UNL     1       1.396 -47.165  12.549  1.00  0.00     0.222 C 
HETATM   12  O5  UNL     1       1.163 -47.814  13.587  1.00  0.00    -0.273 OA
HETATM   13  N3  UNL     1       0.543 -47.186  11.425  1.00  0.00    -0.347 N 
ATOM     14  H3  UNL     1       0.786 -46.641  10.598  1.00  0.00     0.163 HD
BRANCH  13  15
HETATM   15  C26 UNL     1      -0.693 -47.982  11.433  1.00  0.00     0.177 C 
BRANCH  15  16
HETATM   16  C27 UNL     1      -0.905 -48.683  10.148  1.00  0.00     0.258 C 
HETATM   17  O6  UNL     1       0.043 -48.900   9.436  1.00  0.00    -0.305 OA
ENDBRANCH  15  16
BRANCH  15  18
HETATM   18  C28 UNL     1      -1.848 -47.070  11.802  1.00  0.00     0.176 C 
BRANCH  18  19
HETATM   19  O7  UNL     1      -2.198 -46.218  10.789  1.00  0.00    -0.391 OA
ATOM     20  H7  UNL     1      -3.100 -46.323  10.512  1.00  0.00     0.210 HD
ENDBRANCH  18  19
BRANCH  18  21
HETATM   21  C29 UNL     1      -2.971 -47.782  12.485  1.00  0.00     0.149 C 
BRANCH  21  22
HETATM   22  O8  UNL     1      -4.205 -47.194  12.253  1.00  0.00    -0.393 OA
ATOM     23  H8  UNL     1      -4.933 -47.745  12.516  1.00  0.00     0.210 HD
ENDBRANCH  21  22
BRANCH  21  24
HETATM   24  C30 UNL     1      -2.697 -48.058  13.942  1.00  0.00     0.038 C 
BRANCH  24  25
HETATM   25  C31 UNL     1      -2.112 -46.915  14.702  1.00  0.00    -0.020 C 
HETATM   26  C32 UNL     1      -1.297 -47.525  15.858  1.00  0.00     0.009 C 
HETATM   27  C33 UNL     1      -3.170 -46.056  15.366  1.00  0.00     0.009 C 
ENDBRANCH  24  25
ENDBRANCH  21  24
ENDBRANCH  18  21
ENDBRANCH  15  18
ENDBRANCH  13  15
ENDBRANCH   8  11
ENDBRANCH   7   8
ENDBRANCH   1   7
BRANCH   4  28
HETATM   28  C9  UNL     1      -2.088 -42.382  14.812  1.00  0.00     0.222 C 
HETATM   29  O1  UNL     1      -3.261 -42.871  14.593  1.00  0.00    -0.273 OA
HETATM   30  N1  UNL     1      -1.967 -41.273  15.684  1.00  0.00    -0.346 N 
ATOM     31  H1  UNL     1      -1.041 -40.882  15.857  1.00  0.00     0.163 HD
BRANCH  30  32
HETATM   32  C10 UNL     1      -3.100 -40.683  16.332  1.00  0.00     0.193 C 
BRANCH  32  33
HETATM   33  C11 UNL     1      -3.217 -41.018  17.779  1.00  0.00     0.138 C 
BRANCH  33  34
HETATM   34  C12 UNL     1      -1.998 -41.464  18.440  1.00  0.00     0.222 C 
HETATM   35  O2  UNL     1      -1.117 -40.661  18.784  1.00  0.00    -0.273 OA
HETATM   36  N2  UNL     1      -1.788 -42.839  18.712  1.00  0.00    -0.352 N 
HETATM   37  C13 UNL     1      -2.778 -43.806  18.328  1.00  0.00     0.125 C 
HETATM   38  C17 UNL     1      -0.589 -43.309  19.389  1.00  0.00     0.125 C 
HETATM   39  C14 UNL     1      -2.305 -45.182  18.756  1.00  0.00     0.020 C 
HETATM   40  C15 UNL     1      -1.987 -45.197  20.242  1.00  0.00     0.003 C 
HETATM   41  C16 UNL     1      -0.982 -44.141  20.604  1.00  0.00     0.020 C 
ENDBRANCH  33  34
ENDBRANCH  32  33
BRANCH  32  42
HETATM   42  C18 UNL     1      -3.144 -39.206  16.091  1.00  0.00     0.283 C 
HETATM   43  O3  UNL     1      -2.855 -38.779  14.952  1.00  0.00    -0.263 OA
BRANCH  42  44
HETATM   44  O4  UNL     1      -3.490 -38.340  17.106  1.00  0.00    -0.310 OA
BRANCH  44  45
HETATM   45  C19 UNL     1      -2.571 -37.362  17.548  1.00  0.00     0.060 C 
HETATM   46  C20 UNL     1      -1.128 -37.729  17.221  1.00  0.00     0.045 C 
HETATM   47  C21 UNL     1      -2.926 -36.001  16.999  1.00  0.00     0.045 C 
HETATM   48  C22 UNL     1      -2.696 -37.286  19.073  1.00  0.00     0.045 C 
ENDBRANCH  44  45
ENDBRANCH  42  44
ENDBRANCH  32  42
ENDBRANCH  30  32
ENDBRANCH   4  28
TORSDOF 19
ENDMDL
MODEL 3
REMARK VINA RESULT: -8.256604514      2.065      4.833
REMARK  19 active torsions:
REMARK  status: ('A' for Active; 'I' for Inactive)
REMARK    1  A    between atoms: C2_2  and  C3_3 
REMARK    2  A    between atoms: C3_3  and  C4_4 
REMARK    3  A    between atoms: C3_3  and  C25_32 
REMARK    4  A    between atoms: C4_4  and  C5_5 
REMARK    5  A    between atoms: C8_8  and  C9_9 
REMARK       I    between atoms: C9_9  and  N1_11 
REMARK    6  A    between atoms: N1_11  and  C10_13 
REMARK    7  A    between atoms: C10_13  and  C11_14 
REMARK    8  A    between atoms: C10_13  and  C18_23 
REMARK    9  A    between atoms: C11_14  and  C12_15 
REMARK       I    between atoms: C12_15  and  N2_17 
REMARK   10  A    between atoms: C18_23  and  O4_25 
REMARK   11  A    between atoms: O4_25  and  C19_26 
REMARK       I    between atoms: C25_32  and  N3_34 
REMARK   12  A    between atoms: N3_34  and  C26_36 
REMARK   13  A    between atoms: C26_36  and  C27_37 
REMARK   14  A    between atoms: C26_36  and  C28_39 
REMARK   15  A    between atoms: C28_39  and  O7_40 
REMARK   16  A    between atoms: C28_39  and  C29_42 
REMARK   17  A    between atoms: C29_42  and  O8_43 
REMARK   18  A    between atoms: C29_42  and  C30_45 
REMARK   19  A    between atoms: C30_45  and  C31_46 
ROOT
HETATM    1  C5  UNL     1      -3.091 -39.800  17.124  1.00  0.00    -0.014 C 
HETATM    2  C6  UNL     1      -1.658 -39.590  16.844  1.00  0.00     0.005 C 
HETATM    3  C7  UNL     1      -1.215 -40.446  15.632  1.00  0.00     0.014 C 
HETATM    4  C8  UNL     1      -1.781 -41.816  15.913  1.00  0.00     0.078 C 
HETATM    5  C23 UNL     1      -3.273 -41.722  15.539  1.00  0.00     0.014 C 
HETATM    6  C24 UNL     1      -3.731 -40.331  15.824  1.00  0.00     0.005 C 
ENDROOT
BRANCH   1   7
HETATM    7  C4  UNL     1      -3.913 -38.749  17.706  1.00  0.00     0.018 C 
BRANCH   7   8
HETATM    8  C3  UNL     1      -3.532 -37.468  18.252  1.00  0.00     0.078 C 
BRANCH   8   9
HETATM    9  C2  UNL     1      -4.244 -36.200  18.115  1.00  0.00     0.009 C 
HETATM   10  C1  UNL     1      -3.506 -34.920  17.953  1.00  0.00     0.006 C 
ENDBRANCH   8   9
BRANCH   8  11
HETATM   11  C25 UNL     1      -3.295 -37.654  19.753  1.00  0.00     0.222 C 
HETATM   12  O5  UNL     1      -4.264 -37.432  20.504  1.00  0.00    -0.273 OA
HETATM   13  N3  UNL     1      -2.032 -38.062  20.233  1.00  0.00    -0.347 N 
ATOM     14  H3  UNL     1      -1.271 -38.222  19.574  1.00  0.00     0.163 HD
BRANCH  13  15
HETATM   15  C26 UNL     1      -1.802 -38.260  21.672  1.00  0.00     0.177 C 
BRANCH  15  16
HETATM   16  C27 UNL     1      -0.622 -37.507  22.149  1.00  0.00     0.258 C 
HETATM   17  O6  UNL     1      -0.587 -37.137  23.296  1.00  0.00    -0.305 OA
ENDBRANCH  15  16
BRANCH  15  18
HETATM   18  C28 UNL     1      -1.695 -39.749  21.939  1.00  0.00     0.176 C 
BRANCH  18  19
HETATM   19  O7  UNL     1      -1.038 -40.036  23.105  1.00  0.00    -0.391 OA
ATOM     20  H7  UNL     1      -0.093 -39.987  23.019  1.00  0.00     0.210 HD
ENDBRANCH  18  19
BRANCH  18  21
HETATM   21  C29 UNL     1      -2.974 -40.487  21.700  1.00  0.00     0.149 C 
BRANCH  21  22
HETATM   22  O8  UNL     1      -3.845 -40.421  22.777  1.00  0.00    -0.393 OA
ATOM     23  H8  UNL     1      -3.697 -41.108  23.416  1.00  0.00     0.210 HD
ENDBRANCH  21  22
BRANCH  21  24
HETATM   24  C30 UNL     1      -2.761 -41.885  21.179  1.00  0.00     0.038 C 
BRANCH  24  25
HETATM   25  C31 UNL     1      -2.368 -41.970  19.741  1.00  0.00    -0.020 C 
HETATM   26  C32 UNL     1      -3.245 -43.067  19.109  1.00  0.00     0.009 C 
HETATM   27  C33 UNL     1      -0.939 -42.440  19.556  1.00  0.00     0.009 C 
ENDBRANCH  24  25
ENDBRANCH  21  24
ENDBRANCH  18  21
ENDBRANCH  15  18
ENDBRANCH  13  15
ENDBRANCH   8  11
ENDBRANCH   7   8
ENDBRANCH   1   7
BRANCH   4  28
HETATM   28  C9  UNL     1      -1.107 -42.930  15.262  1.00  0.00     0.222 C 
HETATM   29  O1  UNL     1      -1.314 -44.107  15.747  1.00  0.00    -0.273 OA
HETATM   30  N1  UNL     1      -0.249 -42.798  14.144  1.00  0.00    -0.346 N 
ATOM     31  H1  UNL     1      -0.081 -41.867  13.760  1.00  0.00     0.163 HD
BRANCH  30  32
HETATM   32  C10 UNL     1       0.392 -43.924  13.533  1.00  0.00     0.193 C 
BRANCH  32  33
HETATM   33  C11 UNL     1      -0.081 -44.217  12.151  1.00  0.00     0.138 C 
BRANCH  33  34
HETATM   34  C12 UNL     1      -0.505 -45.586  11.889  1.00  0.00     0.222 C 
HETATM   35  O2  UNL     1       0.260 -46.413  11.370  1.00  0.00    -0.273 OA
HETATM   36  N2  UNL     1      -1.814 -46.012  12.227  1.00  0.00    -0.352 N 
HETATM   37  C13 UNL     1      -2.737 -45.089  12.825  1.00  0.00     0.125 C 
HETATM   38  C17 UNL     1      -2.256 -47.379  11.994  1.00  0.00     0.125 C 
HETATM   39  C14 UNL     1      -4.042 -45.813  13.097  1.00  0.00     0.020 C 
HETATM   40  C15 UNL     1      -3.797 -47.056  13.936  1.00  0.00     0.003 C 
HETATM   41  C16 UNL     1      -2.793 -47.969  13.293  1.00  0.00     0.020 C 
ENDBRANCH  33  34
ENDBRANCH  32  33
BRANCH  32  42
HETATM   42  C18 UNL     1       1.881 -43.795  13.603  1.00  0.00     0.283 C 
HETATM   43  O3  UNL     1       2.367 -42.745  14.077  1.00  0.00    -0.263 OA
BRANCH  42  44
HETATM   44  O4  UNL     1       2.695 -44.811  13.150  1.00  0.00    -0.310 OA
BRANCH  44  45
HETATM   45  C19 UNL     1       3.173 -45.791  14.049  1.00  0.00     0.060 C 
HETATM   46  C20 UNL     1       4.532 -45.429  14.637  1.00  0.00     0.045 C 
HETATM   47  C21 UNL     1       2.162 -46.063  15.137  1.00  0.00     0.045 C 
HETATM   48  C22 UNL     1       3.343 -47.087  13.250  1.00  0.00     0.045 C 
ENDBRANCH  44  45
ENDBRANCH  42  44
ENDBRANCH  32  42
ENDBRANCH  30  32
ENDBRANCH   4  28
TORSDOF 19
ENDMDL
MODEL 4
REMARK VINA RESULT: -8.151902985      2.246     10.267
REMARK  19 active torsions:
REMARK  status: ('A' for Active; 'I' for Inactive)
REMARK    1  A    between atoms: C2_2  and  C3_3 
REMARK    2  A    between atoms: C3_3  and  C4_4 
REMARK    3  A    between atoms: C3_3  and  C25_32 
REMARK    4  A    between atoms: C4_4  and  C5_5 
REMARK    5  A    between atoms: C8_8  and  C9_9 
REMARK       I    between atoms: C9_9  and  N1_11 
REMARK    6  A    between atoms: N1_11  and  C10_13 
REMARK    7  A    between atoms: C10_13  and  C11_14 
REMARK    8  A    between atoms: C10_13  and  C18_23 
REMARK    9  A    between atoms: C11_14  and  C12_15 
REMARK       I    between atoms: C12_15  and  N2_17 
REMARK   10  A    between atoms: C18_23  and  O4_25 
REMARK   11  A    between atoms: O4_25  and  C19_26 
REMARK       I    between atoms: C25_32  and  N3_34 
REMARK   12  A    between atoms: N3_34  and  C26_36 
REMARK   13  A    between atoms: C26_36  and  C27_37 
REMARK   14  A    between atoms: C26_36  and  C28_39 
REMARK   15  A    between atoms: C28_39  and  O7_40 
REMARK   16  A    between atoms: C28_39  and  C29_42 
REMARK   17  A    between atoms: C29_42  and  O8_43 
REMARK   18  A    between atoms: C29_42  and  C30_45 
REMARK   19  A    between atoms: C30_45  and  C31_46 
ROOT
HETATM    1  C5  UNL     1      -1.782 -43.991  13.536  1.00  0.00    -0.014 C 
HETATM    2  C6  UNL     1      -0.869 -42.877  13.219  1.00  0.00     0.005 C 
HETATM    3  C7  UNL     1      -1.141 -41.676  14.158  1.00  0.00     0.014 C 
HETATM    4  C8  UNL     1      -2.640 -41.512  14.134  1.00  0.00     0.078 C 
HETATM    5  C23 UNL     1      -3.183 -42.607  15.072  1.00  0.00     0.014 C 
HETATM    6  C24 UNL     1      -2.266 -43.780  14.986  1.00  0.00     0.005 C 
ENDROOT
BRANCH   1   7
HETATM    7  C4  UNL     1      -1.390 -45.377  13.324  1.00  0.00     0.018 C 
BRANCH   7   8
HETATM    8  C3  UNL     1      -1.550 -46.529  14.180  1.00  0.00     0.078 C 
BRANCH   8   9
HETATM    9  C2  UNL     1      -2.656 -47.482  14.184  1.00  0.00     0.009 C 
HETATM   10  C1  UNL     1      -3.932 -47.181  13.484  1.00  0.00     0.006 C 
ENDBRANCH   8   9
BRANCH   8  11
HETATM   11  C25 UNL     1      -0.274 -47.369  14.072  1.00  0.00     0.222 C 
HETATM   12  O5  UNL     1       0.096 -47.678  12.923  1.00  0.00    -0.273 OA
HETATM   13  N3  UNL     1       0.428 -47.756  15.233  1.00  0.00    -0.347 N 
ATOM     14  H3  UNL     1       0.075 -47.483  16.150  1.00  0.00     0.163 HD
BRANCH  13  15
HETATM   15  C26 UNL     1       1.663 -48.548  15.136  1.00  0.00     0.177 C 
BRANCH  15  16
HETATM   16  C27 UNL     1       1.695 -49.643  16.130  1.00  0.00     0.258 C 
HETATM   17  O6  UNL     1       2.491 -50.538  15.991  1.00  0.00    -0.305 OA
ENDBRANCH  15  16
BRANCH  15  18
HETATM   18  C28 UNL     1       2.846 -47.607  15.262  1.00  0.00     0.176 C 
BRANCH  18  19
HETATM   19  O7  UNL     1       3.679 -47.933  16.299  1.00  0.00    -0.391 OA
ATOM     20  H7  UNL     1       4.118 -47.178  16.673  1.00  0.00     0.210 HD
ENDBRANCH  18  19
BRANCH  18  21
HETATM   21  C29 UNL     1       3.504 -47.303  13.955  1.00  0.00     0.149 C 
BRANCH  21  22
HETATM   22  O8  UNL     1       4.652 -48.051  13.741  1.00  0.00    -0.393 OA
ATOM     23  H8  UNL     1       5.436 -47.631  14.077  1.00  0.00     0.210 HD
ENDBRANCH  21  22
BRANCH  21  24
HETATM   24  C30 UNL     1       3.690 -45.827  13.714  1.00  0.00     0.038 C 
BRANCH  24  25
HETATM   25  C31 UNL     1       2.432 -45.023  13.720  1.00  0.00    -0.020 C 
HETATM   26  C32 UNL     1       2.043 -44.805  12.246  1.00  0.00     0.009 C 
HETATM   27  C33 UNL     1       2.633 -43.634  14.293  1.00  0.00     0.009 C 
ENDBRANCH  24  25
ENDBRANCH  21  24
ENDBRANCH  18  21
ENDBRANCH  15  18
ENDBRANCH  13  15
ENDBRANCH   8  11
ENDBRANCH   7   8
ENDBRANCH   1   7
BRANCH   4  28
HETATM   28  C9  UNL     1      -3.142 -40.186  14.468  1.00  0.00     0.222 C 
HETATM   29  O1  UNL     1      -3.569 -39.456  13.495  1.00  0.00    -0.273 OA
HETATM   30  N1  UNL     1      -3.186 -39.659  15.782  1.00  0.00    -0.346 N 
ATOM     31  H1  UNL     1      -2.846 -40.233  16.553  1.00  0.00     0.163 HD
BRANCH  30  32
HETATM   32  C10 UNL     1      -3.692 -38.349  16.064  1.00  0.00     0.193 C 
BRANCH  32  33
HETATM   33  C11 UNL     1      -4.747 -38.317  17.115  1.00  0.00     0.138 C 
BRANCH  33  34
HETATM   34  C12 UNL     1      -5.169 -39.606  17.648  1.00  0.00     0.222 C 
HETATM   35  O2  UNL     1      -5.823 -40.407  16.962  1.00  0.00    -0.273 OA
HETATM   36  N2  UNL     1      -4.836 -39.982  18.973  1.00  0.00    -0.352 N 
HETATM   37  C13 UNL     1      -4.084 -39.084  19.805  1.00  0.00     0.125 C 
HETATM   38  C17 UNL     1      -5.228 -41.270  19.523  1.00  0.00     0.125 C 
HETATM   39  C14 UNL     1      -3.856 -39.746  21.151  1.00  0.00     0.020 C 
HETATM   40  C15 UNL     1      -3.198 -41.104  20.973  1.00  0.00     0.003 C 
HETATM   41  C16 UNL     1      -3.996 -41.990  20.060  1.00  0.00     0.020 C 
ENDBRANCH  33  34
ENDBRANCH  32  33
BRANCH  32  42
HETATM   42  C18 UNL     1      -2.575 -37.398  16.359  1.00  0.00     0.283 C 
HETATM   43  O3  UNL     1      -1.961 -36.883  15.400  1.00  0.00    -0.263 OA
BRANCH  42  44
HETATM   44  O4  UNL     1      -2.231 -37.102  17.661  1.00  0.00    -0.310 OA
BRANCH  44  45
HETATM   45  C19 UNL     1      -1.038 -37.620  18.214  1.00  0.00     0.060 C 
HETATM   46  C20 UNL     1      -0.992 -39.144  18.177  1.00  0.00     0.045 C 
HETATM   47  C21 UNL     1       0.173 -37.020  17.540  1.00  0.00     0.045 C 
HETATM   48  C22 UNL     1      -1.002 -37.191  19.684  1.00  0.00     0.045 C 
ENDBRANCH  44  45
ENDBRANCH  42  44
ENDBRANCH  32  42
ENDBRANCH  30  32
ENDBRANCH   4  28
TORSDOF 19
ENDMDL
MODEL 5
REMARK VINA RESULT: -8.146015888      1.891      3.716
REMARK  19 active torsions:
REMARK  status: ('A' for Active; 'I' for Inactive)
REMARK    1  A    between atoms: C2_2  and  C3_3 
REMARK    2  A    between atoms: C3_3  and  C4_4 
REMARK    3  A    between atoms: C3_3  and  C25_32 
REMARK    4  A    between atoms: C4_4  and  C5_5 
REMARK    5  A    between atoms: C8_8  and  C9_9 
REMARK       I    between atoms: C9_9  and  N1_11 
REMARK    6  A    between atoms: N1_11  and  C10_13 
REMARK    7  A    between atoms: C10_13  and  C11_14 
REMARK    8  A    between atoms: C10_13  and  C18_23 
REMARK    9  A    between atoms: C11_14  and  C12_15 
REMARK       I    between atoms: C12_15  and  N2_17 
REMARK   10  A    between atoms: C18_23  and  O4_25 
REMARK   11  A    between atoms: O4_25  and  C19_26 
REMARK       I    between atoms: C25_32  and  N3_34 
REMARK   12  A    between atoms: N3_34  and  C26_36 
REMARK   13  A    between atoms: C26_36  and  C27_37 
REMARK   14  A    between atoms: C26_36  and  C28_39 
REMARK   15  A    between atoms: C28_39  and  O7_40 
REMARK   16  A    between atoms: C28_39  and  C29_42 
REMARK   17  A    between atoms: C29_42  and  O8_43 
REMARK   18  A    between atoms: C29_42  and  C30_45 
REMARK   19  A    between atoms: C30_45  and  C31_46 
ROOT
HETATM    1  C5  UNL     1      -1.833 -41.341  18.570  1.00  0.00    -0.014 C 
HETATM    2  C6  UNL     1      -1.655 -40.258  17.584  1.00  0.00     0.005 C 
HETATM    3  C7  UNL     1      -2.092 -40.735  16.178  1.00  0.00     0.014 C 
HETATM    4  C8  UNL     1      -1.430 -42.081  16.014  1.00  0.00     0.078 C 
HETATM    5  C23 UNL     1      -2.301 -43.062  16.822  1.00  0.00     0.014 C 
HETATM    6  C24 UNL     1      -2.871 -42.320  17.983  1.00  0.00     0.005 C 
ENDROOT
BRANCH   1   7
HETATM    7  C4  UNL     1      -2.131 -41.055  19.966  1.00  0.00     0.018 C 
BRANCH   7   8
HETATM    8  C3  UNL     1      -3.402 -40.860  20.623  1.00  0.00     0.078 C 
BRANCH   8   9
HETATM    9  C2  UNL     1      -3.702 -41.030  22.041  1.00  0.00     0.009 C 
HETATM   10  C1  UNL     1      -2.618 -41.262  23.032  1.00  0.00     0.006 C 
ENDBRANCH   8   9
BRANCH   8  11
HETATM   11  C25 UNL     1      -3.905 -39.460  20.255  1.00  0.00     0.222 C 
HETATM   12  O5  UNL     1      -3.668 -38.549  21.072  1.00  0.00    -0.273 OA
HETATM   13  N3  UNL     1      -4.593 -39.243  19.043  1.00  0.00    -0.347 N 
ATOM     14  H3  UNL     1      -4.767 -40.027  18.415  1.00  0.00     0.163 HD
BRANCH  13  15
HETATM   15  C26 UNL     1      -5.063 -37.899  18.675  1.00  0.00     0.177 C 
BRANCH  15  16
HETATM   16  C27 UNL     1      -6.420 -37.932  18.087  1.00  0.00     0.258 C 
HETATM   17  O6  UNL     1      -6.687 -38.785  17.277  1.00  0.00    -0.305 OA
ENDBRANCH  15  16
BRANCH  15  18
HETATM   18  C28 UNL     1      -4.038 -37.270  17.752  1.00  0.00     0.176 C 
BRANCH  18  19
HETATM   19  O7  UNL     1      -4.350 -37.421  16.427  1.00  0.00    -0.391 OA
ATOM     20  H7  UNL     1      -4.227 -38.311  16.118  1.00  0.00     0.210 HD
ENDBRANCH  18  19
BRANCH  18  21
HETATM   21  C29 UNL     1      -3.616 -35.901  18.180  1.00  0.00     0.149 C 
BRANCH  21  22
HETATM   22  O8  UNL     1      -4.290 -34.892  17.509  1.00  0.00    -0.393 OA
ATOM     23  H8  UNL     1      -4.749 -34.300  18.094  1.00  0.00     0.210 HD
ENDBRANCH  21  22
BRANCH  21  24
HETATM   24  C30 UNL     1      -2.119 -35.721  18.196  1.00  0.00     0.038 C 
BRANCH  24  25
HETATM   25  C31 UNL     1      -1.331 -36.989  18.207  1.00  0.00    -0.020 C 
HETATM   26  C32 UNL     1      -0.874 -37.210  19.662  1.00  0.00     0.009 C 
HETATM   27  C33 UNL     1      -0.055 -36.888  17.396  1.00  0.00     0.009 C 
ENDBRANCH  24  25
ENDBRANCH  21  24
ENDBRANCH  18  21
ENDBRANCH  15  18
ENDBRANCH  13  15
ENDBRANCH   8  11
ENDBRANCH   7   8
ENDBRANCH   1   7
BRANCH   4  28
HETATM   28  C9  UNL     1      -1.210 -42.521  14.643  1.00  0.00     0.222 C 
HETATM   29  O1  UNL     1      -1.680 -41.774  13.703  1.00  0.00    -0.273 OA
HETATM   30  N1  UNL     1      -0.520 -43.705  14.289  1.00  0.00    -0.346 N 
ATOM     31  H1  UNL     1      -0.150 -44.300  15.031  1.00  0.00     0.163 HD
BRANCH  30  32
HETATM   32  C10 UNL     1      -0.324 -44.098  12.925  1.00  0.00     0.193 C 
BRANCH  32  33
HETATM   33  C11 UNL     1       1.084 -43.980  12.454  1.00  0.00     0.138 C 
BRANCH  33  34
HETATM   34  C12 UNL     1       2.108 -43.906  13.488  1.00  0.00     0.222 C 
HETATM   35  O2  UNL     1       2.300 -42.865  14.135  1.00  0.00    -0.273 OA
HETATM   36  N2  UNL     1       2.915 -45.032  13.784  1.00  0.00    -0.352 N 
HETATM   37  C13 UNL     1       2.732 -46.257  13.056  1.00  0.00     0.125 C 
HETATM   38  C17 UNL     1       3.931 -44.991  14.824  1.00  0.00     0.125 C 
HETATM   39  C14 UNL     1       3.707 -47.290  13.590  1.00  0.00     0.020 C 
HETATM   40  C15 UNL     1       3.547 -47.447  15.093  1.00  0.00     0.003 C 
HETATM   41  C16 UNL     1       3.701 -46.134  15.806  1.00  0.00     0.020 C 
ENDBRANCH  33  34
ENDBRANCH  32  33
BRANCH  32  42
HETATM   42  C18 UNL     1      -0.890 -45.461  12.675  1.00  0.00     0.283 C 
HETATM   43  O3  UNL     1      -0.917 -45.889  11.501  1.00  0.00    -0.263 OA
BRANCH  42  44
HETATM   44  O4  UNL     1      -1.374 -46.221  13.718  1.00  0.00    -0.310 OA
BRANCH  44  45
HETATM   45  C19 UNL     1      -2.767 -46.384  13.889  1.00  0.00     0.060 C 
HETATM   46  C20 UNL     1      -3.568 -45.241  13.273  1.00  0.00     0.045 C 
HETATM   47  C21 UNL     1      -3.223 -47.720  13.355  1.00  0.00     0.045 C 
HETATM   48  C22 UNL     1      -3.037 -46.378  15.397  1.00  0.00     0.045 C 
ENDBRANCH  44  45
ENDBRANCH  42  44
ENDBRANCH  32  42
ENDBRANCH  30  32
ENDBRANCH   4  28
TORSDOF 19
ENDMDL
