MODEL 1
REMARK VINA RESULT: -8.476836722      0.000      0.000
REMARK  15 active torsions:
REMARK  status: ('A' for Active; 'I' for Inactive)
REMARK    1  A    between atoms: C2_2  and  C4_4 
REMARK    2  A    between atoms: C4_4  and  C5_5 
REMARK    3  A    between atoms: C5_5  and  N1_6 
REMARK    4  A    between atoms: C5_5  and  C19_26 
REMARK       I    between atoms: N1_6  and  C6_8 
REMARK    5  A    between atoms: C6_8  and  C7_10 
REMARK    6  A    between atoms: C7_10  and  N2_11 
REMARK    7  A    between atoms: C7_10  and  C13_20 
REMARK       I    between atoms: N2_11  and  C8_13 
REMARK    8  A    between atoms: C8_13  and  O3_15 
REMARK    9  A    between atoms: O3_15  and  C9_16 
REMARK       I    between atoms: C19_26  and  N3_28 
REMARK   10  A    between atoms: N3_28  and  C20_30 
REMARK   11  A    between atoms: C20_30  and  C21_31 
REMARK   12  A    between atoms: C21_31  and  C23_33 
REMARK       I    between atoms: C23_33  and  N4_35 
REMARK       I    between atoms: N4_35  and  C24_37 
REMARK   13  A    between atoms: C24_37  and  C25_39 
REMARK   14  A    between atoms: C25_39  and  C26_40 
REMARK   15  A    between atoms: C25_39  and  N5_43 
ROOT
HETATM    1  C5  UNL     1      -3.982 -40.680  21.338  1.00  0.00     0.177 C 
ENDROOT
BRANCH   1   2
HETATM    2  C4  UNL     1      -3.166 -40.301  22.480  1.00  0.00     0.038 C 
BRANCH   2   3
HETATM    3  C2  UNL     1      -1.723 -40.163  22.579  1.00  0.00    -0.020 C 
HETATM    4  C1  UNL     1      -1.165 -40.434  23.994  1.00  0.00     0.009 C 
HETATM    5  C3  UNL     1      -1.350 -38.653  22.327  1.00  0.00     0.009 C 
ENDBRANCH   2   3
ENDBRANCH   1   2
BRANCH   1   6
HETATM    6  N1  UNL     1      -3.928 -40.020  20.088  1.00  0.00    -0.346 N 
HETATM    7  C6  UNL     1      -4.104 -38.734  19.612  1.00  0.00     0.241 C 
HETATM    8  O1  UNL     1      -4.383 -37.793  20.386  1.00  0.00    -0.271 OA
ATOM      9  H1  UNL     1      -3.695 -40.668  19.335  1.00  0.00     0.163 HD
BRANCH   7  10
HETATM   10  C7  UNL     1      -3.970 -38.354  18.185  1.00  0.00     0.183 C 
BRANCH  10  11
HETATM   11  N2  UNL     1      -3.301 -39.395  17.386  1.00  0.00    -0.323 N 
HETATM   12  C8  UNL     1      -4.231 -40.216  16.641  1.00  0.00     0.362 C 
HETATM   13  O2  UNL     1      -5.480 -39.963  16.743  1.00  0.00    -0.238 OA
ATOM     14  H2  UNL     1      -2.289 -39.522  17.360  1.00  0.00     0.165 HD
BRANCH  12  15
HETATM   15  O3  UNL     1      -3.890 -41.256  15.824  1.00  0.00    -0.293 OA
BRANCH  15  16
HETATM   16  C9  UNL     1      -3.582 -41.145  14.460  1.00  0.00     0.069 A 
HETATM   17  C10 UNL     1      -2.165 -41.642  14.142  1.00  0.00     0.047 C 
HETATM   18  C11 UNL     1      -3.977 -39.944  13.672  1.00  0.00     0.041 A 
HETATM   19  C12 UNL     1      -4.526 -41.313  13.360  1.00  0.00     0.041 A 
ENDBRANCH  15  16
ENDBRANCH  12  15
ENDBRANCH  10  11
BRANCH  10  20
HETATM   20  C13 UNL     1      -2.936 -37.221  18.066  1.00  0.00     0.018 C 
HETATM   21  C14 UNL     1      -3.081 -36.504  16.757  1.00  0.00     0.007 C 
HETATM   22  C15 UNL     1      -2.534 -35.105  16.977  1.00  0.00     0.000 C 
HETATM   23  C16 UNL     1      -1.146 -35.166  17.505  1.00  0.00     0.000 C 
HETATM   24  C17 UNL     1      -0.851 -36.147  18.583  1.00  0.00     0.000 C 
HETATM   25  C18 UNL     1      -1.534 -37.508  18.328  1.00  0.00     0.007 C 
ENDBRANCH  10  20
ENDBRANCH   7  10
ENDBRANCH   1   6
BRANCH   1  26
HETATM   26  C19 UNL     1      -3.974 -42.167  21.082  1.00  0.00     0.240 C 
HETATM   27  O4  UNL     1      -4.079 -42.973  22.075  1.00  0.00    -0.271 OA
HETATM   28  N3  UNL     1      -3.850 -42.722  19.812  1.00  0.00    -0.358 N 
ATOM     29  H3  UNL     1      -3.756 -42.107  19.004  1.00  0.00     0.162 HD
BRANCH  28  30
HETATM   30  C20 UNL     1      -3.852 -44.188  19.615  1.00  0.00     0.136 C 
BRANCH  30  31
HETATM   31  C21 UNL     1      -2.526 -44.539  18.998  1.00  0.00     0.092 C 
HETATM   32  C22 UNL     1      -1.433 -44.443  20.079  1.00  0.00     0.021 C 
BRANCH  31  33
HETATM   33  C23 UNL     1      -2.133 -43.740  17.849  1.00  0.00     0.229 C 
HETATM   34  O5  UNL     1      -1.616 -42.594  18.132  1.00  0.00    -0.273 OA
HETATM   35  N4  UNL     1      -2.230 -44.051  16.467  1.00  0.00    -0.295 N 
HETATM   36  C24 UNL     1      -2.734 -45.152  15.828  1.00  0.00     0.247 C 
ATOM     37  H4  UNL     1      -1.862 -43.332  15.843  1.00  0.00     0.171 HD
HETATM   38  O6  UNL     1      -3.277 -46.045  16.599  1.00  0.00    -0.271 OA
BRANCH  36  39
HETATM   39  C25 UNL     1      -2.737 -45.490  14.358  1.00  0.00     0.185 C 
BRANCH  39  40
HETATM   40  C26 UNL     1      -3.339 -46.876  14.237  1.00  0.00     0.010 C 
HETATM   41  C27 UNL     1      -4.411 -47.061  13.226  1.00  0.00     0.012 C 
HETATM   42  C28 UNL     1      -2.327 -47.959  14.160  1.00  0.00     0.012 C 
ENDBRANCH  39  40
BRANCH  39  43
HETATM   43  N5  UNL     1      -1.590 -45.202  13.626  1.00  0.00    -0.308 N 
HETATM   44  C29 UNL     1      -0.238 -45.134  14.072  1.00  0.00     0.364 C 
HETATM   45  O7  UNL     1       0.260 -45.728  15.043  1.00  0.00    -0.238 OA
HETATM   46  O8  UNL     1       0.498 -44.271  13.241  1.00  0.00    -0.302 OA
HETATM   47  C30 UNL     1      -0.226 -44.040  12.055  1.00  0.00     0.205 C 
HETATM   48  C31 UNL     1      -1.454 -44.905  12.176  1.00  0.00     0.111 C 
HETATM   49  C32 UNL     1      -1.352 -46.156  11.348  1.00  0.00     0.034 C 
ENDBRANCH  39  43
ENDBRANCH  36  39
ENDBRANCH  31  33
ENDBRANCH  30  31
ENDBRANCH  28  30
ENDBRANCH   1  26
TORSDOF 15
ENDMDL
MODEL 2
REMARK VINA RESULT: -8.310393001      1.193      1.640
REMARK  15 active torsions:
REMARK  status: ('A' for Active; 'I' for Inactive)
REMARK    1  A    between atoms: C2_2  and  C4_4 
REMARK    2  A    between atoms: C4_4  and  C5_5 
REMARK    3  A    between atoms: C5_5  and  N1_6 
REMARK    4  A    between atoms: C5_5  and  C19_26 
REMARK       I    between atoms: N1_6  and  C6_8 
REMARK    5  A    between atoms: C6_8  and  C7_10 
REMARK    6  A    between atoms: C7_10  and  N2_11 
REMARK    7  A    between atoms: C7_10  and  C13_20 
REMARK       I    between atoms: N2_11  and  C8_13 
REMARK    8  A    between atoms: C8_13  and  O3_15 
REMARK    9  A    between atoms: O3_15  and  C9_16 
REMARK       I    between atoms: C19_26  and  N3_28 
REMARK   10  A    between atoms: N3_28  and  C20_30 
REMARK   11  A    between atoms: C20_30  and  C21_31 
REMARK   12  A    between atoms: C21_31  and  C23_33 
REMARK       I    between atoms: C23_33  and  N4_35 
REMARK       I    between atoms: N4_35  and  C24_37 
REMARK   13  A    between atoms: C24_37  and  C25_39 
REMARK   14  A    between atoms: C25_39  and  C26_40 
REMARK   15  A    between atoms: C25_39  and  N5_43 
ROOT
HETATM    1  C5  UNL     1      -2.512 -40.929  21.396  1.00  0.00     0.177 C 
ENDROOT
BRANCH   1   2
HETATM    2  C4  UNL     1      -1.745 -40.300  22.460  1.00  0.00     0.038 C 
BRANCH   2   3
HETATM    3  C2  UNL     1      -1.729 -40.592  23.884  1.00  0.00    -0.020 C 
HETATM    4  C1  UNL     1      -0.659 -41.625  24.299  1.00  0.00     0.009 C 
HETATM    5  C3  UNL     1      -3.084 -41.305  24.259  1.00  0.00     0.009 C 
ENDBRANCH   2   3
ENDBRANCH   1   2
BRANCH   1   6
HETATM    6  N1  UNL     1      -2.934 -40.245  20.233  1.00  0.00    -0.346 N 
HETATM    7  C6  UNL     1      -3.580 -39.062  19.929  1.00  0.00     0.241 C 
HETATM    8  O1  UNL     1      -3.942 -38.276  20.832  1.00  0.00    -0.271 OA
ATOM      9  H1  UNL     1      -2.696 -40.767  19.388  1.00  0.00     0.163 HD
BRANCH   7  10
HETATM   10  C7  UNL     1      -3.886 -38.615  18.549  1.00  0.00     0.183 C 
BRANCH  10  11
HETATM   11  N2  UNL     1      -3.612 -39.658  17.546  1.00  0.00    -0.323 N 
HETATM   12  C8  UNL     1      -4.745 -39.917  16.682  1.00  0.00     0.362 C 
HETATM   13  O2  UNL     1      -5.814 -39.241  16.865  1.00  0.00    -0.238 OA
ATOM     14  H2  UNL     1      -2.720 -40.146  17.468  1.00  0.00     0.165 HD
BRANCH  12  15
HETATM   15  O3  UNL     1      -4.775 -40.834  15.671  1.00  0.00    -0.293 OA
BRANCH  15  16
HETATM   16  C9  UNL     1      -3.850 -40.909  14.619  1.00  0.00     0.069 A 
HETATM   17  C10 UNL     1      -3.978 -39.728  13.647  1.00  0.00     0.047 C 
HETATM   18  C11 UNL     1      -3.552 -42.201  13.941  1.00  0.00     0.041 A 
HETATM   19  C12 UNL     1      -2.498 -41.451  14.715  1.00  0.00     0.041 A 
ENDBRANCH  15  16
ENDBRANCH  12  15
ENDBRANCH  10  11
BRANCH  10  20
HETATM   20  C13 UNL     1      -2.848 -37.561  18.125  1.00  0.00     0.018 C 
HETATM   21  C14 UNL     1      -3.509 -36.421  17.408  1.00  0.00     0.007 C 
HETATM   22  C15 UNL     1      -2.607 -35.217  17.602  1.00  0.00     0.000 C 
HETATM   23  C16 UNL     1      -1.225 -35.523  17.148  1.00  0.00     0.000 C 
HETATM   24  C17 UNL     1      -0.637 -36.834  17.532  1.00  0.00     0.000 C 
HETATM   25  C18 UNL     1      -1.658 -37.985  17.404  1.00  0.00     0.007 C 
ENDBRANCH  10  20
ENDBRANCH   7  10
ENDBRANCH   1   6
BRANCH   1  26
HETATM   26  C19 UNL     1      -1.944 -42.263  20.977  1.00  0.00     0.240 C 
HETATM   27  O4  UNL     1      -0.714 -42.334  20.620  1.00  0.00    -0.271 OA
HETATM   28  N3  UNL     1      -2.693 -43.435  20.949  1.00  0.00    -0.358 N 
ATOM     29  H3  UNL     1      -3.676 -43.408  21.219  1.00  0.00     0.162 HD
BRANCH  28  30
HETATM   30  C20 UNL     1      -2.087 -44.719  20.534  1.00  0.00     0.136 C 
BRANCH  30  31
HETATM   31  C21 UNL     1      -2.837 -45.171  19.311  1.00  0.00     0.092 C 
HETATM   32  C22 UNL     1      -4.206 -45.729  19.745  1.00  0.00     0.021 C 
BRANCH  31  33
HETATM   33  C23 UNL     1      -2.160 -46.156  18.484  1.00  0.00     0.229 C 
HETATM   34  O5  UNL     1      -1.532 -47.076  19.133  1.00  0.00    -0.273 OA
HETATM   35  N4  UNL     1      -2.105 -46.251  17.068  1.00  0.00    -0.295 N 
HETATM   36  C24 UNL     1      -2.635 -45.447  16.094  1.00  0.00     0.247 C 
ATOM     37  H4  UNL     1      -1.581 -47.053  16.717  1.00  0.00     0.171 HD
HETATM   38  O6  UNL     1      -3.239 -44.379  16.519  1.00  0.00    -0.271 OA
BRANCH  36  39
HETATM   39  C25 UNL     1      -2.635 -45.629  14.597  1.00  0.00     0.185 C 
BRANCH  39  40
HETATM   40  C26 UNL     1      -3.202 -47.009  14.331  1.00  0.00     0.010 C 
HETATM   41  C27 UNL     1      -4.268 -47.115  13.303  1.00  0.00     0.012 C 
HETATM   42  C28 UNL     1      -2.163 -48.053  14.147  1.00  0.00     0.012 C 
ENDBRANCH  39  40
BRANCH  39  43
HETATM   43  N5  UNL     1      -1.498 -45.237  13.898  1.00  0.00    -0.308 N 
HETATM   44  C29 UNL     1      -0.142 -45.208  14.339  1.00  0.00     0.364 C 
HETATM   45  O7  UNL     1       0.371 -45.914  15.223  1.00  0.00    -0.238 OA
HETATM   46  O8  UNL     1       0.576 -44.238  13.617  1.00  0.00    -0.302 OA
HETATM   47  C30 UNL     1      -0.161 -43.869  12.475  1.00  0.00     0.205 C 
HETATM   48  C31 UNL     1      -1.379 -44.757  12.496  1.00  0.00     0.111 C 
HETATM   49  C32 UNL     1      -1.270 -45.894  11.516  1.00  0.00     0.034 C 
ENDBRANCH  39  43
ENDBRANCH  36  39
ENDBRANCH  31  33
ENDBRANCH  30  31
ENDBRANCH  28  30
ENDBRANCH   1  26
TORSDOF 15
ENDMDL
MODEL 3
REMARK VINA RESULT: -8.025405753      2.039      8.588
REMARK  15 active torsions:
REMARK  status: ('A' for Active; 'I' for Inactive)
REMARK    1  A    between atoms: C2_2  and  C4_4 
REMARK    2  A    between atoms: C4_4  and  C5_5 
REMARK    3  A    between atoms: C5_5  and  N1_6 
REMARK    4  A    between atoms: C5_5  and  C19_26 
REMARK       I    between atoms: N1_6  and  C6_8 
REMARK    5  A    between atoms: C6_8  and  C7_10 
REMARK    6  A    between atoms: C7_10  and  N2_11 
REMARK    7  A    between atoms: C7_10  and  C13_20 
REMARK       I    between atoms: N2_11  and  C8_13 
REMARK    8  A    between atoms: C8_13  and  O3_15 
REMARK    9  A    between atoms: O3_15  and  C9_16 
REMARK       I    between atoms: C19_26  and  N3_28 
REMARK   10  A    between atoms: N3_28  and  C20_30 
REMARK   11  A    between atoms: C20_30  and  C21_31 
REMARK   12  A    between atoms: C21_31  and  C23_33 
REMARK       I    between atoms: C23_33  and  N4_35 
REMARK       I    between atoms: N4_35  and  C24_37 
REMARK   13  A    between atoms: C24_37  and  C25_39 
REMARK   14  A    between atoms: C25_39  and  C26_40 
REMARK   15  A    between atoms: C25_39  and  N5_43 
ROOT
HETATM    1  C5  UNL     1       1.315 -45.459  16.021  1.00  0.00     0.177 C 
ENDROOT
BRANCH   1   2
HETATM    2  C4  UNL     1       1.936 -46.773  15.964  1.00  0.00     0.038 C 
BRANCH   2   3
HETATM    3  C2  UNL     1       2.827 -47.330  14.961  1.00  0.00    -0.020 C 
HETATM    4  C1  UNL     1       3.721 -46.279  14.265  1.00  0.00     0.009 C 
HETATM    5  C3  UNL     1       1.951 -47.898  13.779  1.00  0.00     0.009 C 
ENDBRANCH   2   3
ENDBRANCH   1   2
BRANCH   1   6
HETATM    6  N1  UNL     1       0.222 -45.078  15.209  1.00  0.00    -0.346 N 
HETATM    7  C6  UNL     1       0.021 -44.677  13.901  1.00  0.00     0.241 C 
HETATM    8  O1  UNL     1       0.977 -44.591  13.100  1.00  0.00    -0.271 OA
ATOM      9  H1  UNL     1      -0.656 -45.108  15.728  1.00  0.00     0.163 HD
BRANCH   7  10
HETATM   10  C7  UNL     1      -1.305 -44.336  13.334  1.00  0.00     0.183 C 
BRANCH  10  11
HETATM   11  N2  UNL     1      -2.142 -43.576  14.278  1.00  0.00    -0.323 N 
HETATM   12  C8  UNL     1      -1.951 -42.145  14.172  1.00  0.00     0.362 C 
HETATM   13  O2  UNL     1      -1.119 -41.707  13.306  1.00  0.00    -0.238 OA
ATOM     14  H2  UNL     1      -2.788 -44.011  14.936  1.00  0.00     0.165 HD
BRANCH  12  15
HETATM   15  O3  UNL     1      -2.590 -41.202  14.926  1.00  0.00    -0.293 OA
BRANCH  15  16
HETATM   16  C9  UNL     1      -3.810 -40.594  14.595  1.00  0.00     0.069 A 
HETATM   17  C10 UNL     1      -4.631 -40.222  15.837  1.00  0.00     0.047 C 
HETATM   18  C11 UNL     1      -4.643 -41.092  13.465  1.00  0.00     0.041 A 
HETATM   19  C12 UNL     1      -4.037 -39.712  13.453  1.00  0.00     0.041 A 
ENDBRANCH  15  16
ENDBRANCH  12  15
ENDBRANCH  10  11
BRANCH  10  20
HETATM   20  C13 UNL     1      -2.141 -45.621  13.213  1.00  0.00     0.018 C 
HETATM   21  C14 UNL     1      -1.774 -46.381  11.973  1.00  0.00     0.007 C 
HETATM   22  C15 UNL     1      -2.121 -47.832  12.246  1.00  0.00     0.000 C 
HETATM   23  C16 UNL     1      -3.544 -47.959  12.657  1.00  0.00     0.000 C 
HETATM   24  C17 UNL     1      -4.078 -46.977  13.637  1.00  0.00     0.000 C 
HETATM   25  C18 UNL     1      -3.589 -45.543  13.343  1.00  0.00     0.007 C 
ENDBRANCH  10  20
ENDBRANCH   7  10
ENDBRANCH   1   6
BRANCH   1  26
HETATM   26  C19 UNL     1       1.028 -45.010  17.433  1.00  0.00     0.240 C 
HETATM   27  O4  UNL     1       1.933 -45.156  18.331  1.00  0.00    -0.271 OA
HETATM   28  N3  UNL     1      -0.183 -44.446  17.822  1.00  0.00    -0.358 N 
ATOM     29  H3  UNL     1      -0.924 -44.326  17.132  1.00  0.00     0.162 HD
BRANCH  28  30
HETATM   30  C20 UNL     1      -0.412 -44.018  19.219  1.00  0.00     0.136 C 
BRANCH  30  31
HETATM   31  C21 UNL     1      -1.833 -43.527  19.289  1.00  0.00     0.092 C 
HETATM   32  C22 UNL     1      -2.757 -44.723  19.591  1.00  0.00     0.021 C 
BRANCH  31  33
HETATM   33  C23 UNL     1      -2.320 -42.833  18.109  1.00  0.00     0.229 C 
HETATM   34  O5  UNL     1      -2.812 -43.594  17.192  1.00  0.00    -0.273 OA
HETATM   35  N4  UNL     1      -2.337 -41.441  17.832  1.00  0.00    -0.295 N 
HETATM   36  C24 UNL     1      -1.887 -40.375  18.565  1.00  0.00     0.247 C 
ATOM     37  H4  UNL     1      -2.756 -41.191  16.936  1.00  0.00     0.171 HD
HETATM   38  O6  UNL     1      -1.282 -40.676  19.674  1.00  0.00    -0.271 OA
BRANCH  36  39
HETATM   39  C25 UNL     1      -2.006 -38.898  18.281  1.00  0.00     0.185 C 
BRANCH  39  40
HETATM   40  C26 UNL     1      -0.740 -38.256  18.813  1.00  0.00     0.010 C 
HETATM   41  C27 UNL     1       0.026 -37.395  17.876  1.00  0.00     0.012 C 
HETATM   42  C28 UNL     1      -0.915 -37.600  20.133  1.00  0.00     0.012 C 
ENDBRANCH  39  40
BRANCH  39  43
HETATM   43  N5  UNL     1      -3.223 -38.283  18.554  1.00  0.00    -0.308 N 
HETATM   44  C29 UNL     1      -4.132 -38.533  19.623  1.00  0.00     0.364 C 
HETATM   45  O7  UNL     1      -3.859 -38.993  20.744  1.00  0.00    -0.238 OA
HETATM   46  O8  UNL     1      -5.436 -38.177  19.237  1.00  0.00    -0.302 OA
HETATM   47  C30 UNL     1      -5.375 -37.374  18.080  1.00  0.00     0.205 C 
HETATM   48  C31 UNL     1      -3.903 -37.185  17.818  1.00  0.00     0.111 C 
HETATM   49  C32 UNL     1      -3.418 -35.828  18.250  1.00  0.00     0.034 C 
ENDBRANCH  39  43
ENDBRANCH  36  39
ENDBRANCH  31  33
ENDBRANCH  30  31
ENDBRANCH  28  30
ENDBRANCH   1  26
TORSDOF 15
ENDMDL
MODEL 4
REMARK VINA RESULT: -7.920822916      1.600      2.699
REMARK  15 active torsions:
REMARK  status: ('A' for Active; 'I' for Inactive)
REMARK    1  A    between atoms: C2_2  and  C4_4 
REMARK    2  A    between atoms: C4_4  and  C5_5 
REMARK    3  A    between atoms: C5_5  and  N1_6 
REMARK    4  A    between atoms: C5_5  and  C19_26 
REMARK       I    between atoms: N1_6  and  C6_8 
REMARK    5  A    between atoms: C6_8  and  C7_10 
REMARK    6  A    between atoms: C7_10  and  N2_11 
REMARK    7  A    between atoms: C7_10  and  C13_20 
REMARK       I    between atoms: N2_11  and  C8_13 
REMARK    8  A    between atoms: C8_13  and  O3_15 
REMARK    9  A    between atoms: O3_15  and  C9_16 
REMARK       I    between atoms: C19_26  and  N3_28 
REMARK   10  A    between atoms: N3_28  and  C20_30 
REMARK   11  A    between atoms: C20_30  and  C21_31 
REMARK   12  A    between atoms: C21_31  and  C23_33 
REMARK       I    between atoms: C23_33  and  N4_35 
REMARK       I    between atoms: N4_35  and  C24_37 
REMARK   13  A    between atoms: C24_37  and  C25_39 
REMARK   14  A    between atoms: C25_39  and  C26_40 
REMARK   15  A    between atoms: C25_39  and  N5_43 
ROOT
HETATM    1  C5  UNL     1      -2.401 -41.113  21.284  1.00  0.00     0.177 C 
ENDROOT
BRANCH   1   2
HETATM    2  C4  UNL     1      -1.745 -40.473  22.413  1.00  0.00     0.038 C 
BRANCH   2   3
HETATM    3  C2  UNL     1      -1.817 -40.796  23.828  1.00  0.00    -0.020 C 
HETATM    4  C1  UNL     1      -0.781 -41.849  24.281  1.00  0.00     0.009 C 
HETATM    5  C3  UNL     1      -3.197 -41.505  24.105  1.00  0.00     0.009 C 
ENDBRANCH   2   3
ENDBRANCH   1   2
BRANCH   1   6
HETATM    6  N1  UNL     1      -2.858 -40.408  20.147  1.00  0.00    -0.346 N 
HETATM    7  C6  UNL     1      -3.560 -39.246  19.889  1.00  0.00     0.241 C 
HETATM    8  O1  UNL     1      -3.954 -38.510  20.820  1.00  0.00    -0.271 OA
ATOM      9  H1  UNL     1      -2.601 -40.887  19.283  1.00  0.00     0.163 HD
BRANCH   7  10
HETATM   10  C7  UNL     1      -3.891 -38.764  18.526  1.00  0.00     0.183 C 
BRANCH  10  11
HETATM   11  N2  UNL     1      -3.630 -39.778  17.491  1.00  0.00    -0.323 N 
HETATM   12  C8  UNL     1      -4.758 -39.983  16.608  1.00  0.00     0.362 C 
HETATM   13  O2  UNL     1      -5.815 -39.292  16.804  1.00  0.00    -0.238 OA
ATOM     14  H2  UNL     1      -2.747 -40.281  17.405  1.00  0.00     0.165 HD
BRANCH  12  15
HETATM   15  O3  UNL     1      -4.797 -40.865  15.566  1.00  0.00    -0.293 OA
BRANCH  15  16
HETATM   16  C9  UNL     1      -3.826 -40.971  14.560  1.00  0.00     0.069 A 
HETATM   17  C10 UNL     1      -4.107 -40.033  13.378  1.00  0.00     0.047 C 
HETATM   18  C11 UNL     1      -3.281 -42.294  14.146  1.00  0.00     0.041 A 
HETATM   19  C12 UNL     1      -2.407 -41.239  14.775  1.00  0.00     0.041 A 
ENDBRANCH  15  16
ENDBRANCH  12  15
ENDBRANCH  10  11
BRANCH  10  20
HETATM   20  C13 UNL     1      -2.867 -37.692  18.114  1.00  0.00     0.018 C 
HETATM   21  C14 UNL     1      -3.551 -36.518  17.478  1.00  0.00     0.007 C 
HETATM   22  C15 UNL     1      -2.637 -35.326  17.695  1.00  0.00     0.000 C 
HETATM   23  C16 UNL     1      -1.275 -35.613  17.173  1.00  0.00     0.000 C 
HETATM   24  C17 UNL     1      -0.678 -36.942  17.471  1.00  0.00     0.000 C 
HETATM   25  C18 UNL     1      -1.707 -38.083  17.327  1.00  0.00     0.007 C 
ENDBRANCH  10  20
ENDBRANCH   7  10
ENDBRANCH   1   6
BRANCH   1  26
HETATM   26  C19 UNL     1      -1.672 -42.346  20.808  1.00  0.00     0.240 C 
HETATM   27  O4  UNL     1      -0.393 -42.320  20.718  1.00  0.00    -0.271 OA
HETATM   28  N3  UNL     1      -2.320 -43.525  20.452  1.00  0.00    -0.358 N 
ATOM     29  H3  UNL     1      -3.338 -43.573  20.506  1.00  0.00     0.162 HD
BRANCH  28  30
HETATM   30  C20 UNL     1      -1.558 -44.708  19.997  1.00  0.00     0.136 C 
BRANCH  30  31
HETATM   31  C21 UNL     1      -2.016 -44.999  18.594  1.00  0.00     0.092 C 
HETATM   32  C22 UNL     1      -3.525 -45.310  18.618  1.00  0.00     0.021 C 
BRANCH  31  33
HETATM   33  C23 UNL     1      -1.317 -46.075  17.912  1.00  0.00     0.229 C 
HETATM   34  O5  UNL     1      -1.429 -47.235  18.464  1.00  0.00    -0.273 OA
HETATM   35  N4  UNL     1      -0.542 -46.028  16.723  1.00  0.00    -0.295 N 
HETATM   36  C24 UNL     1      -0.212 -44.977  15.909  1.00  0.00     0.247 C 
ATOM     37  H4  UNL     1      -0.167 -46.929  16.425  1.00  0.00     0.171 HD
HETATM   38  O6  UNL     1      -0.615 -43.810  16.312  1.00  0.00    -0.271 OA
BRANCH  36  39
HETATM   39  C25 UNL     1       0.538 -44.978  14.600  1.00  0.00     0.185 C 
BRANCH  39  40
HETATM   40  C26 UNL     1       1.297 -43.667  14.539  1.00  0.00     0.010 C 
HETATM   41  C27 UNL     1       2.780 -43.744  14.541  1.00  0.00     0.012 C 
HETATM   42  C28 UNL     1       0.802 -42.742  13.490  1.00  0.00     0.012 C 
ENDBRANCH  39  40
BRANCH  39  43
HETATM   43  N5  UNL     1      -0.144 -45.399  13.464  1.00  0.00    -0.308 N 
HETATM   44  C29 UNL     1       0.382 -45.791  12.198  1.00  0.00     0.364 C 
HETATM   45  O7  UNL     1       1.508 -46.265  11.971  1.00  0.00    -0.238 OA
HETATM   46  O8  UNL     1      -0.573 -45.566  11.191  1.00  0.00    -0.302 OA
HETATM   47  C30 UNL     1      -1.836 -45.369  11.785  1.00  0.00     0.205 C 
HETATM   48  C31 UNL     1      -1.607 -45.574  13.260  1.00  0.00     0.111 C 
HETATM   49  C32 UNL     1      -2.086 -46.921  13.728  1.00  0.00     0.034 C 
ENDBRANCH  39  43
ENDBRANCH  36  39
ENDBRANCH  31  33
ENDBRANCH  30  31
ENDBRANCH  28  30
ENDBRANCH   1  26
TORSDOF 15
ENDMDL
MODEL 5
REMARK VINA RESULT: -7.907279643      2.211      7.486
REMARK  15 active torsions:
REMARK  status: ('A' for Active; 'I' for Inactive)
REMARK    1  A    between atoms: C2_2  and  C4_4 
REMARK    2  A    between atoms: C4_4  and  C5_5 
REMARK    3  A    between atoms: C5_5  and  N1_6 
REMARK    4  A    between atoms: C5_5  and  C19_26 
REMARK       I    between atoms: N1_6  and  C6_8 
REMARK    5  A    between atoms: C6_8  and  C7_10 
REMARK    6  A    between atoms: C7_10  and  N2_11 
REMARK    7  A    between atoms: C7_10  and  C13_20 
REMARK       I    between atoms: N2_11  and  C8_13 
REMARK    8  A    between atoms: C8_13  and  O3_15 
REMARK    9  A    between atoms: O3_15  and  C9_16 
REMARK       I    between atoms: C19_26  and  N3_28 
REMARK   10  A    between atoms: N3_28  and  C20_30 
REMARK   11  A    between atoms: C20_30  and  C21_31 
REMARK   12  A    between atoms: C21_31  and  C23_33 
REMARK       I    between atoms: C23_33  and  N4_35 
REMARK       I    between atoms: N4_35  and  C24_37 
REMARK   13  A    between atoms: C24_37  and  C25_39 
REMARK   14  A    between atoms: C25_39  and  C26_40 
REMARK   15  A    between atoms: C25_39  and  N5_43 
ROOT
HETATM    1  C5  UNL     1      -1.496 -39.567  16.387  1.00  0.00     0.177 C 
ENDROOT
BRANCH   1   2
HETATM    2  C4  UNL     1      -1.083 -39.431  17.775  1.00  0.00     0.038 C 
BRANCH   2   3
HETATM    3  C2  UNL     1      -0.617 -38.254  18.488  1.00  0.00    -0.020 C 
HETATM    4  C1  UNL     1      -1.754 -37.386  19.072  1.00  0.00     0.009 C 
HETATM    5  C3  UNL     1       0.078 -37.289  17.453  1.00  0.00     0.009 C 
ENDBRANCH   2   3
ENDBRANCH   1   2
BRANCH   1   6
HETATM    6  N1  UNL     1      -1.347 -40.761  15.644  1.00  0.00    -0.346 N 
HETATM    7  C6  UNL     1      -1.907 -42.024  15.630  1.00  0.00     0.241 C 
HETATM    8  O1  UNL     1      -2.814 -42.335  16.433  1.00  0.00    -0.271 OA
ATOM      9  H1  UNL     1      -0.631 -40.663  14.922  1.00  0.00     0.163 HD
BRANCH   7  10
HETATM   10  C7  UNL     1      -1.513 -43.095  14.683  1.00  0.00     0.183 C 
BRANCH  10  11
HETATM   11  N2  UNL     1      -2.255 -44.347  14.908  1.00  0.00    -0.323 N 
HETATM   12  C8  UNL     1      -3.074 -44.726  13.776  1.00  0.00     0.362 C 
HETATM   13  O2  UNL     1      -3.066 -43.973  12.742  1.00  0.00    -0.238 OA
ATOM     14  H2  UNL     1      -2.197 -44.890  15.769  1.00  0.00     0.165 HD
BRANCH  12  15
HETATM   15  O3  UNL     1      -3.869 -45.833  13.710  1.00  0.00    -0.293 OA
BRANCH  15  16
HETATM   16  C9  UNL     1      -3.472 -47.086  13.219  1.00  0.00     0.069 A 
HETATM   17  C10 UNL     1      -4.617 -47.823  12.511  1.00  0.00     0.047 C 
HETATM   18  C11 UNL     1      -2.594 -47.987  14.016  1.00  0.00     0.041 A 
HETATM   19  C12 UNL     1      -2.149 -47.412  12.695  1.00  0.00     0.041 A 
ENDBRANCH  15  16
ENDBRANCH  12  15
ENDBRANCH  10  11
BRANCH  10  20
HETATM   20  C13 UNL     1      -0.089 -43.564  15.025  1.00  0.00     0.018 C 
HETATM   21  C14 UNL     1       0.820 -43.414  13.842  1.00  0.00     0.007 C 
HETATM   22  C15 UNL     1       2.224 -43.271  14.400  1.00  0.00     0.000 C 
HETATM   23  C16 UNL     1       2.547 -44.413  15.296  1.00  0.00     0.000 C 
HETATM   24  C17 UNL     1       1.512 -44.854  16.267  1.00  0.00     0.000 C 
HETATM   25  C18 UNL     1       0.101 -44.868  15.642  1.00  0.00     0.007 C 
ENDBRANCH  10  20
ENDBRANCH   7  10
ENDBRANCH   1   6
BRANCH   1  26
HETATM   26  C19 UNL     1      -2.884 -39.030  16.136  1.00  0.00     0.240 C 
HETATM   27  O4  UNL     1      -3.051 -38.120  15.248  1.00  0.00    -0.271 OA
HETATM   28  N3  UNL     1      -4.008 -39.469  16.828  1.00  0.00    -0.358 N 
ATOM     29  H3  UNL     1      -3.905 -40.187  17.547  1.00  0.00     0.162 HD
BRANCH  28  30
HETATM   30  C20 UNL     1      -5.348 -38.914  16.541  1.00  0.00     0.136 C 
BRANCH  30  31
HETATM   31  C21 UNL     1      -6.127 -38.987  17.825  1.00  0.00     0.092 C 
HETATM   32  C22 UNL     1      -7.289 -37.976  17.761  1.00  0.00     0.021 C 
BRANCH  31  33
HETATM   33  C23 UNL     1      -5.364 -38.760  19.041  1.00  0.00     0.229 C 
HETATM   34  O5  UNL     1      -5.157 -37.521  19.333  1.00  0.00    -0.273 OA
HETATM   35  N4  UNL     1      -4.826 -39.708  19.951  1.00  0.00    -0.295 N 
HETATM   36  C24 UNL     1      -4.845 -41.078  19.934  1.00  0.00     0.247 C 
ATOM     37  H4  UNL     1      -4.343 -39.301  20.752  1.00  0.00     0.171 HD
HETATM   38  O6  UNL     1      -5.386 -41.616  18.884  1.00  0.00    -0.271 OA
BRANCH  36  39
HETATM   39  C25 UNL     1      -4.342 -42.055  20.967  1.00  0.00     0.185 C 
BRANCH  39  40
HETATM   40  C26 UNL     1      -5.150 -41.805  22.225  1.00  0.00     0.010 C 
HETATM   41  C27 UNL     1      -5.829 -42.976  22.836  1.00  0.00     0.012 C 
HETATM   42  C28 UNL     1      -4.431 -41.001  23.244  1.00  0.00     0.012 C 
ENDBRANCH  39  40
BRANCH  39  43
HETATM   43  N5  UNL     1      -2.966 -42.218  21.089  1.00  0.00    -0.308 N 
HETATM   44  C29 UNL     1      -1.938 -41.235  20.993  1.00  0.00     0.364 C 
HETATM   45  O7  UNL     1      -2.041 -40.019  21.229  1.00  0.00    -0.238 OA
HETATM   46  O8  UNL     1      -0.735 -41.837  20.580  1.00  0.00    -0.302 OA
HETATM   47  C30 UNL     1      -0.839 -43.234  20.738  1.00  0.00     0.205 C 
HETATM   48  C31 UNL     1      -2.189 -43.454  21.369  1.00  0.00     0.111 C 
HETATM   49  C32 UNL     1      -2.089 -43.738  22.842  1.00  0.00     0.034 C 
ENDBRANCH  39  43
ENDBRANCH  36  39
ENDBRANCH  31  33
ENDBRANCH  30  31
ENDBRANCH  28  30
ENDBRANCH   1  26
TORSDOF 15
ENDMDL
