MODEL 1
REMARK VINA RESULT: -7.967984669      0.000      0.000
REMARK  17 active torsions:
REMARK  status: ('A' for Active; 'I' for Inactive)
REMARK    1  A    between atoms: C2_2  and  C3_3 
REMARK    2  A    between atoms: C3_3  and  C5_5 
REMARK    3  A    between atoms: C5_5  and  N1_6 
REMARK    4  A    between atoms: C5_5  and  C32_45 
REMARK       I    between atoms: N1_6  and  C6_8 
REMARK    5  A    between atoms: C6_8  and  C7_10 
REMARK    6  A    between atoms: C7_10  and  O2_11 
REMARK    7  A    between atoms: C7_10  and  N2_13 
REMARK    8  A    between atoms: N2_13  and  C10_15 
REMARK    9  A    between atoms: C10_15  and  C11_16 
REMARK   10  A    between atoms: C10_15  and  C29_42 
REMARK       I    between atoms: C11_16  and  N3_18 
REMARK   11  A    between atoms: N3_18  and  C12_20 
REMARK   12  A    between atoms: C12_20  and  C13_21 
REMARK   13  A    between atoms: C12_20  and  C25_38 
REMARK       I    between atoms: C13_21  and  N4_23 
REMARK   14  A    between atoms: N4_23  and  C14_25 
REMARK   15  A    between atoms: C14_25  and  C15_26 
REMARK   16  A    between atoms: C18_31  and  C19_32 
REMARK   17  A    between atoms: C19_32  and  C20_33 
ROOT
HETATM    1  C11 UNL     1      -2.282 -42.588  14.102  1.00  0.00     0.268 C 
HETATM    2  O3  UNL     1      -1.352 -42.199  13.344  1.00  0.00    -0.266 OA
HETATM    3  N3  UNL     1      -2.579 -43.934  14.182  1.00  0.00    -0.320 N 
ATOM      4  H3  UNL     1      -3.366 -44.072  14.816  1.00  0.00     0.169 HD
ENDROOT
BRANCH   3   5
HETATM    5  C12 UNL     1      -2.158 -45.179  13.679  1.00  0.00     0.088 C 
BRANCH   5   6
HETATM    6  C13 UNL     1      -0.672 -45.177  13.492  1.00  0.00     0.266 C 
HETATM    7  O4  UNL     1      -0.357 -45.498  12.287  1.00  0.00    -0.266 OA
HETATM    8  N4  UNL     1       0.336 -44.891  14.380  1.00  0.00    -0.337 N 
ATOM      9  H4  UNL     1       0.052 -44.639  15.327  1.00  0.00     0.164 HD
BRANCH   8  10
HETATM   10  C14 UNL     1       1.783 -44.909  14.106  1.00  0.00     0.121 C 
HETATM   11  C16 UNL     1       2.543 -45.186  15.385  1.00  0.00     0.043 C 
HETATM   12  C17 UNL     1       2.852 -46.608  15.640  1.00  0.00     0.007 C 
HETATM   13  C18 UNL     1       3.691 -47.139  14.475  1.00  0.00    -0.014 C 
HETATM   14  C23 UNL     1       2.844 -47.071  13.278  1.00  0.00     0.007 C 
HETATM   15  C24 UNL     1       2.173 -45.771  12.972  1.00  0.00     0.043 C 
BRANCH  10  16
HETATM   16  C15 UNL     1       2.143 -43.509  13.765  1.00  0.00     0.202 C 
HETATM   17  O5  UNL     1       1.647 -42.926  12.782  1.00  0.00    -0.646 OA
HETATM   18  O6  UNL     1       3.049 -42.842  14.559  1.00  0.00    -0.646 OA
ENDBRANCH  10  16
BRANCH  13  19
HETATM   19  C19 UNL     1       5.045 -46.552  14.459  1.00  0.00     0.008 C 
BRANCH  19  20
HETATM   20  C20 UNL     1       6.190 -47.369  14.910  1.00  0.00    -0.022 C 
HETATM   21  C21 UNL     1       6.113 -48.829  14.505  1.00  0.00     0.009 C 
HETATM   22  C22 UNL     1       7.558 -46.847  14.714  1.00  0.00     0.009 C 
ENDBRANCH  19  20
ENDBRANCH  13  19
ENDBRANCH   8  10
ENDBRANCH   5   6
BRANCH   5  23
HETATM   23  C25 UNL     1      -2.751 -46.425  14.195  1.00  0.00    -0.003 C 
HETATM   24  C26 UNL     1      -1.952 -47.672  14.088  1.00  0.00     0.021 C 
HETATM   25  C27 UNL     1      -3.169 -46.166  15.667  1.00  0.00     0.021 C 
HETATM   26  C28 UNL     1      -4.117 -46.692  13.520  1.00  0.00     0.021 C 
ENDBRANCH   5  23
ENDBRANCH   3   5
BRANCH   1  27
HETATM   27  C10 UNL     1      -3.028 -41.531  14.892  1.00  0.00     0.081 C 
BRANCH  27  28
HETATM   28  N2  UNL     1      -2.438 -41.169  16.107  1.00  0.00    -0.350 N 
HETATM   29  C9  UNL     1      -1.293 -40.323  16.057  1.00  0.00     0.152 C 
BRANCH  28  30
HETATM   30  C7  UNL     1      -2.633 -41.867  17.301  1.00  0.00     0.316 C 
BRANCH  30  31
HETATM   31  C6  UNL     1      -3.516 -41.036  18.260  1.00  0.00     0.267 C 
HETATM   32  N1  UNL     1      -2.915 -40.345  19.354  1.00  0.00    -0.346 N 
ATOM     33  H1  UNL     1      -1.907 -40.388  19.508  1.00  0.00     0.163 HD
HETATM   34  O1  UNL     1      -4.721 -41.009  18.026  1.00  0.00    -0.269 OA
BRANCH  32  35
HETATM   35  C5  UNL     1      -3.775 -39.573  20.251  1.00  0.00     0.157 C 
BRANCH  35  36
HETATM   36  C3  UNL     1      -3.575 -39.974  21.673  1.00  0.00     0.011 C 
HETATM   37  C4  UNL     1      -2.146 -40.039  22.128  1.00  0.00     0.012 C 
BRANCH  36  38
HETATM   38  C2  UNL     1      -4.295 -41.220  22.095  1.00  0.00     0.002 C 
HETATM   39  C1  UNL     1      -5.605 -41.488  21.444  1.00  0.00     0.005 C 
ENDBRANCH  36  38
ENDBRANCH  35  36
BRANCH  35  40
HETATM   40  C32 UNL     1      -3.611 -38.148  19.928  1.00  0.00     0.145 C 
HETATM   41  C33 UNL     1      -2.616 -37.604  18.966  1.00  0.00     0.093 C 
HETATM   42  O7  UNL     1      -4.322 -37.322  20.472  1.00  0.00    -0.296 OA
ENDBRANCH  35  40
ENDBRANCH  32  35
ENDBRANCH  30  31
BRANCH  30  43
HETATM   43  O2  UNL     1      -3.087 -43.146  17.309  1.00  0.00    -0.362 OA
HETATM   44  C8  UNL     1      -2.817 -43.919  18.408  1.00  0.00     0.204 C 
ENDBRANCH  30  43
ENDBRANCH  28  30
ENDBRANCH  27  28
BRANCH  27  45
HETATM   45  C29 UNL     1      -3.646 -40.461  14.078  1.00  0.00     0.033 C 
HETATM   46  C30 UNL     1      -4.782 -41.161  13.277  1.00  0.00     0.016 C 
HETATM   47  C31 UNL     1      -4.219 -39.272  14.702  1.00  0.00     0.016 C 
ENDBRANCH  27  45
ENDBRANCH   1  27
TORSDOF 17
ENDMDL
MODEL 2
REMARK VINA RESULT: -7.910830948      1.083      1.547
REMARK  17 active torsions:
REMARK  status: ('A' for Active; 'I' for Inactive)
REMARK    1  A    between atoms: C2_2  and  C3_3 
REMARK    2  A    between atoms: C3_3  and  C5_5 
REMARK    3  A    between atoms: C5_5  and  N1_6 
REMARK    4  A    between atoms: C5_5  and  C32_45 
REMARK       I    between atoms: N1_6  and  C6_8 
REMARK    5  A    between atoms: C6_8  and  C7_10 
REMARK    6  A    between atoms: C7_10  and  O2_11 
REMARK    7  A    between atoms: C7_10  and  N2_13 
REMARK    8  A    between atoms: N2_13  and  C10_15 
REMARK    9  A    between atoms: C10_15  and  C11_16 
REMARK   10  A    between atoms: C10_15  and  C29_42 
REMARK       I    between atoms: C11_16  and  N3_18 
REMARK   11  A    between atoms: N3_18  and  C12_20 
REMARK   12  A    between atoms: C12_20  and  C13_21 
REMARK   13  A    between atoms: C12_20  and  C25_38 
REMARK       I    between atoms: C13_21  and  N4_23 
REMARK   14  A    between atoms: N4_23  and  C14_25 
REMARK   15  A    between atoms: C14_25  and  C15_26 
REMARK   16  A    between atoms: C18_31  and  C19_32 
REMARK   17  A    between atoms: C19_32  and  C20_33 
ROOT
HETATM    1  C11 UNL     1      -2.258 -42.661  14.038  1.00  0.00     0.268 C 
HETATM    2  O3  UNL     1      -1.302 -42.293  13.301  1.00  0.00    -0.266 OA
HETATM    3  N3  UNL     1      -2.574 -44.002  14.129  1.00  0.00    -0.320 N 
ATOM      4  H3  UNL     1      -3.380 -44.122  14.742  1.00  0.00     0.169 HD
ENDROOT
BRANCH   3   5
HETATM    5  C12 UNL     1      -2.153 -45.258  13.656  1.00  0.00     0.088 C 
BRANCH   5   6
HETATM    6  C13 UNL     1      -0.667 -45.262  13.467  1.00  0.00     0.266 C 
HETATM    7  O4  UNL     1      -0.356 -45.582  12.260  1.00  0.00    -0.266 OA
HETATM    8  N4  UNL     1       0.342 -44.979  14.353  1.00  0.00    -0.337 N 
ATOM      9  H4  UNL     1       0.061 -44.728  15.301  1.00  0.00     0.164 HD
BRANCH   8  10
HETATM   10  C14 UNL     1       1.789 -45.002  14.077  1.00  0.00     0.121 C 
HETATM   11  C16 UNL     1       2.550 -45.269  15.358  1.00  0.00     0.043 C 
HETATM   12  C17 UNL     1       2.858 -46.689  15.625  1.00  0.00     0.007 C 
HETATM   13  C18 UNL     1       3.695 -47.232  14.464  1.00  0.00    -0.014 C 
HETATM   14  C23 UNL     1       2.846 -47.173  13.267  1.00  0.00     0.007 C 
HETATM   15  C24 UNL     1       2.177 -45.875  12.950  1.00  0.00     0.043 C 
BRANCH  10  16
HETATM   16  C15 UNL     1       2.151 -43.606  13.724  1.00  0.00     0.202 C 
HETATM   17  O5  UNL     1       1.636 -43.023  12.750  1.00  0.00    -0.646 OA
HETATM   18  O6  UNL     1       3.079 -42.943  14.493  1.00  0.00    -0.646 OA
ENDBRANCH  10  16
BRANCH  13  19
HETATM   19  C19 UNL     1       5.049 -46.647  14.439  1.00  0.00     0.008 C 
BRANCH  19  20
HETATM   20  C20 UNL     1       6.191 -47.454  14.916  1.00  0.00    -0.022 C 
HETATM   21  C21 UNL     1       6.137 -48.914  14.507  1.00  0.00     0.009 C 
HETATM   22  C22 UNL     1       7.559 -46.920  14.751  1.00  0.00     0.009 C 
ENDBRANCH  19  20
ENDBRANCH  13  19
ENDBRANCH   8  10
ENDBRANCH   5   6
BRANCH   5  23
HETATM   23  C25 UNL     1      -2.746 -46.491  14.203  1.00  0.00    -0.003 C 
HETATM   24  C26 UNL     1      -1.931 -47.732  14.164  1.00  0.00     0.021 C 
HETATM   25  C27 UNL     1      -3.205 -46.183  15.653  1.00  0.00     0.021 C 
HETATM   26  C28 UNL     1      -4.090 -46.800  13.503  1.00  0.00     0.021 C 
ENDBRANCH   5  23
ENDBRANCH   3   5
BRANCH   1  27
HETATM   27  C10 UNL     1      -3.014 -41.583  14.792  1.00  0.00     0.081 C 
BRANCH  27  28
HETATM   28  N2  UNL     1      -2.417 -41.161  15.983  1.00  0.00    -0.350 N 
HETATM   29  C9  UNL     1      -1.221 -40.391  15.884  1.00  0.00     0.152 C 
BRANCH  28  30
HETATM   30  C7  UNL     1      -2.668 -41.747  17.226  1.00  0.00     0.316 C 
BRANCH  30  31
HETATM   31  C6  UNL     1      -3.659 -40.875  18.030  1.00  0.00     0.267 C 
HETATM   32  N1  UNL     1      -3.472 -39.462  18.089  1.00  0.00    -0.346 N 
ATOM     33  H1  UNL     1      -2.694 -39.019  17.601  1.00  0.00     0.163 HD
HETATM   34  O1  UNL     1      -4.584 -41.456  18.591  1.00  0.00    -0.269 OA
BRANCH  32  35
HETATM   35  C5  UNL     1      -4.421 -38.662  18.864  1.00  0.00     0.157 C 
BRANCH  35  36
HETATM   36  C3  UNL     1      -3.715 -37.706  19.764  1.00  0.00     0.011 C 
HETATM   37  C4  UNL     1      -2.497 -37.052  19.181  1.00  0.00     0.012 C 
BRANCH  36  38
HETATM   38  C2  UNL     1      -3.400 -38.229  21.134  1.00  0.00     0.002 C 
HETATM   39  C1  UNL     1      -1.971 -38.516  21.428  1.00  0.00     0.005 C 
ENDBRANCH  36  38
ENDBRANCH  35  36
BRANCH  35  40
HETATM   40  C32 UNL     1      -5.412 -38.100  17.934  1.00  0.00     0.145 C 
HETATM   41  C33 UNL     1      -6.842 -38.501  17.870  1.00  0.00     0.093 C 
HETATM   42  O7  UNL     1      -5.071 -37.243  17.138  1.00  0.00    -0.296 OA
ENDBRANCH  35  40
ENDBRANCH  32  35
ENDBRANCH  30  31
BRANCH  30  43
HETATM   43  O2  UNL     1      -3.059 -43.042  17.334  1.00  0.00    -0.362 OA
HETATM   44  C8  UNL     1      -2.264 -43.898  18.049  1.00  0.00     0.204 C 
ENDBRANCH  30  43
ENDBRANCH  28  30
ENDBRANCH  27  28
BRANCH  27  45
HETATM   45  C29 UNL     1      -3.658 -40.559  13.941  1.00  0.00     0.033 C 
HETATM   46  C30 UNL     1      -4.846 -41.291  13.251  1.00  0.00     0.016 C 
HETATM   47  C31 UNL     1      -4.180 -39.321  14.512  1.00  0.00     0.016 C 
ENDBRANCH  27  45
ENDBRANCH   1  27
TORSDOF 17
ENDMDL
MODEL 3
REMARK VINA RESULT: -7.819186643      1.433      2.329
REMARK  17 active torsions:
REMARK  status: ('A' for Active; 'I' for Inactive)
REMARK    1  A    between atoms: C2_2  and  C3_3 
REMARK    2  A    between atoms: C3_3  and  C5_5 
REMARK    3  A    between atoms: C5_5  and  N1_6 
REMARK    4  A    between atoms: C5_5  and  C32_45 
REMARK       I    between atoms: N1_6  and  C6_8 
REMARK    5  A    between atoms: C6_8  and  C7_10 
REMARK    6  A    between atoms: C7_10  and  O2_11 
REMARK    7  A    between atoms: C7_10  and  N2_13 
REMARK    8  A    between atoms: N2_13  and  C10_15 
REMARK    9  A    between atoms: C10_15  and  C11_16 
REMARK   10  A    between atoms: C10_15  and  C29_42 
REMARK       I    between atoms: C11_16  and  N3_18 
REMARK   11  A    between atoms: N3_18  and  C12_20 
REMARK   12  A    between atoms: C12_20  and  C13_21 
REMARK   13  A    between atoms: C12_20  and  C25_38 
REMARK       I    between atoms: C13_21  and  N4_23 
REMARK   14  A    between atoms: N4_23  and  C14_25 
REMARK   15  A    between atoms: C14_25  and  C15_26 
REMARK   16  A    between atoms: C18_31  and  C19_32 
REMARK   17  A    between atoms: C19_32  and  C20_33 
ROOT
HETATM    1  C11 UNL     1      -2.137 -42.677  14.074  1.00  0.00     0.268 C 
HETATM    2  O3  UNL     1      -1.284 -42.381  13.194  1.00  0.00    -0.266 OA
HETATM    3  N3  UNL     1      -2.429 -44.004  14.324  1.00  0.00    -0.320 N 
ATOM      4  H3  UNL     1      -3.151 -44.065  15.042  1.00  0.00     0.169 HD
ENDROOT
BRANCH   3   5
HETATM    5  C12 UNL     1      -2.061 -45.299  13.916  1.00  0.00     0.088 C 
BRANCH   5   6
HETATM    6  C13 UNL     1      -0.579 -45.369  13.712  1.00  0.00     0.266 C 
HETATM    7  O4  UNL     1      -0.294 -45.821  12.542  1.00  0.00    -0.266 OA
HETATM    8  N4  UNL     1       0.451 -45.030  14.554  1.00  0.00    -0.337 N 
ATOM      9  H4  UNL     1       0.191 -44.674  15.474  1.00  0.00     0.164 HD
BRANCH   8  10
HETATM   10  C14 UNL     1       1.893 -45.127  14.266  1.00  0.00     0.121 C 
HETATM   11  C16 UNL     1       2.667 -45.245  15.562  1.00  0.00     0.043 C 
HETATM   12  C17 UNL     1       2.943 -46.626  16.008  1.00  0.00     0.007 C 
HETATM   13  C18 UNL     1       3.748 -47.337  14.917  1.00  0.00    -0.014 C 
HETATM   14  C23 UNL     1       2.883 -47.413  13.733  1.00  0.00     0.007 C 
HETATM   15  C24 UNL     1       2.241 -46.149  13.258  1.00  0.00     0.043 C 
BRANCH  10  16
HETATM   16  C15 UNL     1       2.283 -43.799  13.729  1.00  0.00     0.202 C 
HETATM   17  O5  UNL     1       1.885 -43.399  12.618  1.00  0.00    -0.646 OA
HETATM   18  O6  UNL     1       3.107 -42.992  14.481  1.00  0.00    -0.646 OA
ENDBRANCH  10  16
BRANCH  13  19
HETATM   19  C19 UNL     1       5.117 -46.797  14.801  1.00  0.00     0.008 C 
BRANCH  19  20
HETATM   20  C20 UNL     1       6.218 -47.702  14.412  1.00  0.00    -0.022 C 
HETATM   21  C21 UNL     1       7.600 -47.191  14.772  1.00  0.00     0.009 C 
HETATM   22  C22 UNL     1       6.099 -49.141  14.723  1.00  0.00     0.009 C 
ENDBRANCH  19  20
ENDBRANCH  13  19
ENDBRANCH   8  10
ENDBRANCH   5   6
BRANCH   5  23
HETATM   23  C25 UNL     1      -2.693 -46.477  14.537  1.00  0.00    -0.003 C 
HETATM   24  C26 UNL     1      -1.920 -47.745  14.567  1.00  0.00     0.021 C 
HETATM   25  C27 UNL     1      -3.134 -46.070  15.967  1.00  0.00     0.021 C 
HETATM   26  C28 UNL     1      -4.050 -46.780  13.860  1.00  0.00     0.021 C 
ENDBRANCH   5  23
ENDBRANCH   3   5
BRANCH   1  27
HETATM   27  C10 UNL     1      -2.801 -41.534  14.817  1.00  0.00     0.081 C 
BRANCH  27  28
HETATM   28  N2  UNL     1      -2.057 -41.000  15.874  1.00  0.00    -0.350 N 
HETATM   29  C9  UNL     1      -0.810 -40.385  15.557  1.00  0.00     0.152 C 
BRANCH  28  30
HETATM   30  C7  UNL     1      -2.241 -41.360  17.211  1.00  0.00     0.316 C 
BRANCH  30  31
HETATM   31  C6  UNL     1      -2.179 -40.104  18.109  1.00  0.00     0.267 C 
HETATM   32  N1  UNL     1      -3.055 -39.007  17.854  1.00  0.00    -0.346 N 
ATOM     33  H1  UNL     1      -3.727 -39.045  17.087  1.00  0.00     0.163 HD
HETATM   34  O1  UNL     1      -1.359 -40.112  19.023  1.00  0.00    -0.269 OA
BRANCH  32  35
HETATM   35  C5  UNL     1      -2.969 -37.827  18.715  1.00  0.00     0.157 C 
BRANCH  35  36
HETATM   36  C3  UNL     1      -2.284 -36.699  18.021  1.00  0.00     0.011 C 
HETATM   37  C4  UNL     1      -2.340 -36.735  16.522  1.00  0.00     0.012 C 
BRANCH  36  38
HETATM   38  C2  UNL     1      -0.877 -36.433  18.466  1.00  0.00     0.002 C 
HETATM   39  C1  UNL     1       0.208 -37.041  17.651  1.00  0.00     0.005 C 
ENDBRANCH  36  38
ENDBRANCH  35  36
BRANCH  35  40
HETATM   40  C32 UNL     1      -4.308 -37.563  19.263  1.00  0.00     0.145 C 
HETATM   41  C33 UNL     1      -5.550 -37.450  18.454  1.00  0.00     0.093 C 
HETATM   42  O7  UNL     1      -4.447 -37.413  20.464  1.00  0.00    -0.296 OA
ENDBRANCH  35  40
ENDBRANCH  32  35
ENDBRANCH  30  31
BRANCH  30  43
HETATM   43  O2  UNL     1      -3.302 -42.109  17.604  1.00  0.00    -0.362 OA
HETATM   44  C8  UNL     1      -3.058 -43.223  18.364  1.00  0.00     0.204 C 
ENDBRANCH  30  43
ENDBRANCH  28  30
ENDBRANCH  27  28
BRANCH  27  45
HETATM   45  C29 UNL     1      -3.566 -40.596  13.967  1.00  0.00     0.033 C 
HETATM   46  C30 UNL     1      -4.747 -41.433  13.397  1.00  0.00     0.016 C 
HETATM   47  C31 UNL     1      -4.127 -39.364  14.516  1.00  0.00     0.016 C 
ENDBRANCH  27  45
ENDBRANCH   1  27
TORSDOF 17
ENDMDL
MODEL 4
REMARK VINA RESULT: -7.597438189      2.355      9.180
REMARK  17 active torsions:
REMARK  status: ('A' for Active; 'I' for Inactive)
REMARK    1  A    between atoms: C2_2  and  C3_3 
REMARK    2  A    between atoms: C3_3  and  C5_5 
REMARK    3  A    between atoms: C5_5  and  N1_6 
REMARK    4  A    between atoms: C5_5  and  C32_45 
REMARK       I    between atoms: N1_6  and  C6_8 
REMARK    5  A    between atoms: C6_8  and  C7_10 
REMARK    6  A    between atoms: C7_10  and  O2_11 
REMARK    7  A    between atoms: C7_10  and  N2_13 
REMARK    8  A    between atoms: N2_13  and  C10_15 
REMARK    9  A    between atoms: C10_15  and  C11_16 
REMARK   10  A    between atoms: C10_15  and  C29_42 
REMARK       I    between atoms: C11_16  and  N3_18 
REMARK   11  A    between atoms: N3_18  and  C12_20 
REMARK   12  A    between atoms: C12_20  and  C13_21 
REMARK   13  A    between atoms: C12_20  and  C25_38 
REMARK       I    between atoms: C13_21  and  N4_23 
REMARK   14  A    between atoms: N4_23  and  C14_25 
REMARK   15  A    between atoms: C14_25  and  C15_26 
REMARK   16  A    between atoms: C18_31  and  C19_32 
REMARK   17  A    between atoms: C19_32  and  C20_33 
ROOT
HETATM    1  C11 UNL     1      -2.360 -44.876  13.913  1.00  0.00     0.268 C 
HETATM    2  O3  UNL     1      -3.307 -44.043  13.877  1.00  0.00    -0.266 OA
HETATM    3  N3  UNL     1      -1.448 -44.827  14.948  1.00  0.00    -0.320 N 
ATOM      4  H3  UNL     1      -0.740 -45.549  14.813  1.00  0.00     0.169 HD
ENDROOT
BRANCH   3   5
HETATM    5  C12 UNL     1      -1.169 -44.112  16.128  1.00  0.00     0.088 C 
BRANCH   5   6
HETATM    6  C13 UNL     1      -1.529 -42.670  15.948  1.00  0.00     0.266 C 
HETATM    7  O4  UNL     1      -0.614 -42.044  15.296  1.00  0.00    -0.266 OA
HETATM    8  N4  UNL     1      -2.639 -41.973  16.357  1.00  0.00    -0.337 N 
ATOM      9  H4  UNL     1      -3.346 -42.499  16.871  1.00  0.00     0.164 HD
BRANCH   8  10
HETATM   10  C14 UNL     1      -2.915 -40.544  16.129  1.00  0.00     0.121 C 
HETATM   11  C16 UNL     1      -3.931 -40.052  17.138  1.00  0.00     0.043 C 
HETATM   12  C17 UNL     1      -3.363 -39.463  18.369  1.00  0.00     0.007 C 
HETATM   13  C18 UNL     1      -2.481 -38.275  17.978  1.00  0.00    -0.014 C 
HETATM   14  C23 UNL     1      -1.369 -38.816  17.185  1.00  0.00     0.007 C 
HETATM   15  C24 UNL     1      -1.705 -39.702  16.029  1.00  0.00     0.043 C 
BRANCH  10  16
HETATM   16  C15 UNL     1      -3.631 -40.477  14.830  1.00  0.00     0.202 C 
HETATM   17  O5  UNL     1      -3.061 -40.103  13.787  1.00  0.00    -0.646 OA
HETATM   18  O6  UNL     1      -4.959 -40.836  14.782  1.00  0.00    -0.646 OA
ENDBRANCH  10  16
BRANCH  13  19
HETATM   19  C19 UNL     1      -3.276 -37.144  17.463  1.00  0.00     0.008 C 
BRANCH  19  20
HETATM   20  C20 UNL     1      -2.847 -35.764  17.768  1.00  0.00    -0.022 C 
HETATM   21  C21 UNL     1      -1.607 -35.316  17.016  1.00  0.00     0.009 C 
HETATM   22  C22 UNL     1      -3.861 -34.690  17.782  1.00  0.00     0.009 C 
ENDBRANCH  19  20
ENDBRANCH  13  19
ENDBRANCH   8  10
ENDBRANCH   5   6
BRANCH   5  23
HETATM   23  C25 UNL     1      -1.477 -44.705  17.442  1.00  0.00    -0.003 C 
HETATM   24  C26 UNL     1      -1.217 -43.885  18.652  1.00  0.00     0.021 C 
HETATM   25  C27 UNL     1      -2.956 -45.175  17.406  1.00  0.00     0.021 C 
HETATM   26  C28 UNL     1      -0.723 -46.043  17.620  1.00  0.00     0.021 C 
ENDBRANCH   5  23
ENDBRANCH   3   5
BRANCH   1  27
HETATM   27  C10 UNL     1      -2.284 -45.896  12.795  1.00  0.00     0.081 C 
BRANCH  27  28
HETATM   28  N2  UNL     1      -1.072 -45.927  12.100  1.00  0.00    -0.350 N 
HETATM   29  C9  UNL     1      -0.776 -47.098  11.343  1.00  0.00     0.152 C 
BRANCH  28  30
HETATM   30  C7  UNL     1       0.013 -45.098  12.396  1.00  0.00     0.316 C 
BRANCH  30  31
HETATM   31  C6  UNL     1       1.261 -45.954  12.711  1.00  0.00     0.267 C 
HETATM   32  N1  UNL     1       1.372 -46.607  13.975  1.00  0.00    -0.346 N 
ATOM     33  H1  UNL     1       0.633 -46.519  14.673  1.00  0.00     0.163 HD
HETATM   34  O1  UNL     1       2.117 -46.034  11.834  1.00  0.00    -0.269 OA
BRANCH  32  35
HETATM   35  C5  UNL     1       2.568 -47.403  14.248  1.00  0.00     0.157 C 
BRANCH  35  36
HETATM   36  C3  UNL     1       3.651 -46.568  14.843  1.00  0.00     0.011 C 
HETATM   37  C4  UNL     1       5.045 -46.917  14.410  1.00  0.00     0.012 C 
BRANCH  36  38
HETATM   38  C2  UNL     1       3.607 -46.431  16.336  1.00  0.00     0.002 C 
HETATM   39  C1  UNL     1       4.896 -46.591  17.061  1.00  0.00     0.005 C 
ENDBRANCH  36  38
ENDBRANCH  35  36
BRANCH  35  40
HETATM   40  C32 UNL     1       2.159 -48.601  14.996  1.00  0.00     0.145 C 
HETATM   41  C33 UNL     1       2.974 -49.837  15.135  1.00  0.00     0.093 C 
HETATM   42  O7  UNL     1       1.075 -48.622  15.552  1.00  0.00    -0.296 OA
ENDBRANCH  35  40
ENDBRANCH  32  35
ENDBRANCH  30  31
BRANCH  30  43
HETATM   43  O2  UNL     1       0.387 -44.094  11.564  1.00  0.00    -0.362 OA
HETATM   44  C8  UNL     1       0.480 -42.829  12.081  1.00  0.00     0.204 C 
ENDBRANCH  30  43
ENDBRANCH  28  30
ENDBRANCH  27  28
BRANCH  27  45
HETATM   45  C29 UNL     1      -2.951 -47.186  13.078  1.00  0.00     0.033 C 
HETATM   46  C30 UNL     1      -2.457 -47.598  14.495  1.00  0.00     0.016 C 
HETATM   47  C31 UNL     1      -4.407 -47.303  13.072  1.00  0.00     0.016 C 
ENDBRANCH  27  45
ENDBRANCH   1  27
TORSDOF 17
ENDMDL
MODEL 5
REMARK VINA RESULT: -7.553601062      2.726      5.481
REMARK  17 active torsions:
REMARK  status: ('A' for Active; 'I' for Inactive)
REMARK    1  A    between atoms: C2_2  and  C3_3 
REMARK    2  A    between atoms: C3_3  and  C5_5 
REMARK    3  A    between atoms: C5_5  and  N1_6 
REMARK    4  A    between atoms: C5_5  and  C32_45 
REMARK       I    between atoms: N1_6  and  C6_8 
REMARK    5  A    between atoms: C6_8  and  C7_10 
REMARK    6  A    between atoms: C7_10  and  O2_11 
REMARK    7  A    between atoms: C7_10  and  N2_13 
REMARK    8  A    between atoms: N2_13  and  C10_15 
REMARK    9  A    between atoms: C10_15  and  C11_16 
REMARK   10  A    between atoms: C10_15  and  C29_42 
REMARK       I    between atoms: C11_16  and  N3_18 
REMARK   11  A    between atoms: N3_18  and  C12_20 
REMARK   12  A    between atoms: C12_20  and  C13_21 
REMARK   13  A    between atoms: C12_20  and  C25_38 
REMARK       I    between atoms: C13_21  and  N4_23 
REMARK   14  A    between atoms: N4_23  and  C14_25 
REMARK   15  A    between atoms: C14_25  and  C15_26 
REMARK   16  A    between atoms: C18_31  and  C19_32 
REMARK   17  A    between atoms: C19_32  and  C20_33 
ROOT
HETATM    1  C11 UNL     1      -2.165 -42.597  18.738  1.00  0.00     0.268 C 
HETATM    2  O3  UNL     1      -1.006 -43.072  18.587  1.00  0.00    -0.266 OA
HETATM    3  N3  UNL     1      -2.749 -41.881  17.712  1.00  0.00    -0.320 N 
ATOM      4  H3  UNL     1      -3.668 -41.551  18.006  1.00  0.00     0.169 HD
ENDROOT
BRANCH   3   5
HETATM    5  C12 UNL     1      -2.496 -41.454  16.395  1.00  0.00     0.088 C 
BRANCH   5   6
HETATM    6  C13 UNL     1      -1.909 -42.578  15.598  1.00  0.00     0.266 C 
HETATM    7  O4  UNL     1      -0.948 -42.161  14.851  1.00  0.00    -0.266 OA
HETATM    8  N4  UNL     1      -2.236 -43.911  15.566  1.00  0.00    -0.337 N 
ATOM      9  H4  UNL     1      -3.001 -44.208  16.171  1.00  0.00     0.164 HD
BRANCH   8  10
HETATM   10  C14 UNL     1      -1.595 -44.956  14.749  1.00  0.00     0.121 C 
HETATM   11  C16 UNL     1      -2.249 -46.293  15.023  1.00  0.00     0.043 C 
HETATM   12  C17 UNL     1      -3.359 -46.650  14.115  1.00  0.00     0.007 C 
HETATM   13  C18 UNL     1      -2.824 -46.677  12.681  1.00  0.00    -0.014 C 
HETATM   14  C23 UNL     1      -2.404 -45.308  12.359  1.00  0.00     0.007 C 
HETATM   15  C24 UNL     1      -1.483 -44.619  13.315  1.00  0.00     0.043 C 
BRANCH  10  16
HETATM   16  C15 UNL     1      -0.222 -45.104  15.295  1.00  0.00     0.202 C 
HETATM   17  O5  UNL     1       0.787 -44.906  14.591  1.00  0.00    -0.646 OA
HETATM   18  O6  UNL     1      -0.065 -45.471  16.612  1.00  0.00    -0.646 OA
ENDBRANCH  10  16
BRANCH  13  19
HETATM   19  C19 UNL     1      -1.901 -47.807  12.458  1.00  0.00     0.008 C 
BRANCH  19  20
HETATM   20  C20 UNL     1      -0.785 -47.647  11.504  1.00  0.00    -0.022 C 
HETATM   21  C21 UNL     1       0.571 -47.459  12.156  1.00  0.00     0.009 C 
HETATM   22  C22 UNL     1      -0.687 -48.581  10.362  1.00  0.00     0.009 C 
ENDBRANCH  19  20
ENDBRANCH  13  19
ENDBRANCH   8  10
ENDBRANCH   5   6
BRANCH   5  23
HETATM   23  C25 UNL     1      -3.468 -40.594  15.697  1.00  0.00    -0.003 C 
HETATM   24  C26 UNL     1      -4.063 -41.101  14.434  1.00  0.00     0.021 C 
HETATM   25  C27 UNL     1      -4.579 -40.224  16.716  1.00  0.00     0.021 C 
HETATM   26  C28 UNL     1      -2.844 -39.213  15.391  1.00  0.00     0.021 C 
ENDBRANCH   5  23
ENDBRANCH   3   5
BRANCH   1  27
HETATM   27  C10 UNL     1      -2.857 -42.849  20.064  1.00  0.00     0.081 C 
BRANCH  27  28
HETATM   28  N2  UNL     1      -2.871 -41.762  20.942  1.00  0.00    -0.350 N 
HETATM   29  C9  UNL     1      -4.109 -41.079  21.125  1.00  0.00     0.152 C 
BRANCH  28  30
HETATM   30  C7  UNL     1      -1.724 -41.069  21.337  1.00  0.00     0.316 C 
BRANCH  30  31
HETATM   31  C6  UNL     1      -1.894 -39.559  21.050  1.00  0.00     0.267 C 
HETATM   32  N1  UNL     1      -2.251 -39.124  19.738  1.00  0.00    -0.346 N 
ATOM     33  H1  UNL     1      -2.400 -39.800  18.988  1.00  0.00     0.163 HD
HETATM   34  O1  UNL     1      -1.712 -38.789  21.988  1.00  0.00    -0.269 OA
BRANCH  32  35
HETATM   35  C5  UNL     1      -2.397 -37.690  19.492  1.00  0.00     0.157 C 
BRANCH  35  36
HETATM   36  C3  UNL     1      -1.633 -37.266  18.283  1.00  0.00     0.011 C 
HETATM   37  C4  UNL     1      -0.400 -38.069  17.986  1.00  0.00     0.012 C 
BRANCH  36  38
HETATM   38  C2  UNL     1      -1.311 -35.803  18.209  1.00  0.00     0.002 C 
HETATM   39  C1  UNL     1      -1.738 -35.086  16.978  1.00  0.00     0.005 C 
ENDBRANCH  36  38
ENDBRANCH  35  36
BRANCH  35  40
HETATM   40  C32 UNL     1      -3.830 -37.363  19.527  1.00  0.00     0.145 C 
HETATM   41  C33 UNL     1      -4.655 -37.028  18.336  1.00  0.00     0.093 C 
HETATM   42  O7  UNL     1      -4.418 -37.352  20.594  1.00  0.00    -0.296 OA
ENDBRANCH  35  40
ENDBRANCH  32  35
ENDBRANCH  30  31
BRANCH  30  43
HETATM   43  O2  UNL     1      -1.206 -41.206  22.583  1.00  0.00    -0.362 OA
HETATM   44  C8  UNL     1      -1.242 -42.447  23.163  1.00  0.00     0.204 C 
ENDBRANCH  30  43
ENDBRANCH  28  30
ENDBRANCH  27  28
BRANCH  27  45
HETATM   45  C29 UNL     1      -4.070 -43.692  19.987  1.00  0.00     0.033 C 
HETATM   46  C30 UNL     1      -3.708 -44.838  18.998  1.00  0.00     0.016 C 
HETATM   47  C31 UNL     1      -4.639 -44.308  21.182  1.00  0.00     0.016 C 
ENDBRANCH  27  45
ENDBRANCH   1  27
TORSDOF 17
ENDMDL
