MODEL 1
REMARK VINA RESULT: -8.803452234      0.000      0.000
REMARK  18 active torsions:
REMARK  status: ('A' for Active; 'I' for Inactive)
REMARK    1  A    between atoms: C2_2  and  C3_3 
REMARK    2  A    between atoms: C3_3  and  N1_4 
REMARK    3  A    between atoms: N1_4  and  C4_6 
REMARK    4  A    between atoms: C4_6  and  C5_7 
REMARK    5  A    between atoms: C5_7  and  C6_8 
REMARK    6  A    between atoms: C5_7  and  N4_32 
REMARK    7  A    between atoms: C6_8  and  C7_9 
REMARK    8  A    between atoms: C9_12  and  C10_13 
REMARK    9  A    between atoms: C13_16  and  N2_17 
REMARK   10  A    between atoms: N2_17  and  C14_19 
REMARK   11  A    between atoms: C14_19  and  C16_21 
REMARK   12  A    between atoms: C16_21  and  N3_23 
REMARK       I    between atoms: N3_23  and  C18_24 
REMARK   13  A    between atoms: C18_24  and  O3_26 
REMARK   14  A    between atoms: N4_32  and  C23_34 
REMARK   15  A    between atoms: C23_34  and  C24_35 
REMARK   16  A    between atoms: C24_35  and  C25_37 
REMARK   17  A    between atoms: C25_37  and  O6_38 
REMARK   18  A    between atoms: C31_46  and  C32_47 
ROOT
HETATM    1  C5  UNL     1      -2.737 -43.708  14.399  1.00  0.00     0.103 C 
ENDROOT
BRANCH   1   2
HETATM    2  C4  UNL     1      -3.547 -43.982  13.196  1.00  0.00     0.144 C 
BRANCH   2   3
HETATM    3  N1  UNL     1      -3.498 -45.288  12.640  1.00  0.00    -0.397 N 
ATOM      4  H1  UNL     1      -2.978 -45.471  11.782  1.00  0.00     0.158 HD
BRANCH   3   5
HETATM    5  C3  UNL     1      -4.187 -46.325  13.306  1.00  0.00     0.082 C 
BRANCH   5   6
HETATM    6  C2  UNL     1      -3.460 -47.230  14.171  1.00  0.00     0.006 C 
HETATM    7  C1  UNL     1      -2.452 -47.979  13.929  1.00  0.00     0.012 C 
ENDBRANCH   5   6
ENDBRANCH   3   5
ENDBRANCH   2   3
ENDBRANCH   1   2
BRANCH   1   8
HETATM    8  C6  UNL     1      -1.348 -44.224  14.457  1.00  0.00     0.087 C 
BRANCH   8   9
HETATM    9  C7  UNL     1      -0.440 -44.156  13.305  1.00  0.00     0.262 C 
HETATM   10  O1  UNL     1       0.859 -43.766  13.464  1.00  0.00    -0.359 OA
HETATM   11  C8  UNL     1       1.508 -44.195  12.295  1.00  0.00     0.203 C 
HETATM   12  C9  UNL     1       0.750 -45.458  11.969  1.00  0.00     0.152 C 
HETATM   13  O4  UNL     1      -0.293 -45.507  12.852  1.00  0.00    -0.353 OA
BRANCH  12  14
HETATM   14  C10 UNL     1       1.651 -46.675  12.099  1.00  0.00     0.017 C 
HETATM   15  C11 UNL     1       3.011 -46.235  12.528  1.00  0.00     0.009 C 
HETATM   16  C12 UNL     1       3.700 -47.230  13.438  1.00  0.00     0.025 C 
HETATM   17  C13 UNL     1       2.946 -47.511  14.703  1.00  0.00     0.080 C 
HETATM   18  C20 UNL     1       1.542 -46.863  14.496  1.00  0.00     0.004 C 
HETATM   19  C21 UNL     1       0.668 -47.041  15.675  1.00  0.00     0.012 C 
HETATM   20  C22 UNL     1       0.997 -47.493  13.237  1.00  0.00     0.013 C 
BRANCH  17  21
HETATM   21  N2  UNL     1       3.403 -47.080  15.904  1.00  0.00    -0.410 N 
ATOM     22  H2  UNL     1       3.081 -47.671  16.671  1.00  0.00     0.154 HD
BRANCH  21  23
HETATM   23  C14 UNL     1       4.178 -46.063  16.338  1.00  0.00     0.108 C 
HETATM   24  C15 UNL     1       3.391 -45.141  17.296  1.00  0.00     0.035 C 
BRANCH  23  25
HETATM   25  C16 UNL     1       5.527 -46.412  17.011  1.00  0.00     0.187 C 
HETATM   26  C17 UNL     1       5.396 -46.932  18.390  1.00  0.00     0.050 C 
BRANCH  25  27
HETATM   27  N3  UNL     1       6.304 -47.109  16.113  1.00  0.00    -0.383 NA
HETATM   28  C18 UNL     1       7.069 -47.794  15.231  1.00  0.00     0.434 C 
HETATM   29  O2  UNL     1       7.037 -47.856  13.994  1.00  0.00    -0.221 OA
BRANCH  28  30
HETATM   30  O3  UNL     1       8.109 -48.607  15.803  1.00  0.00    -0.298 OA
HETATM   31  C19 UNL     1       7.844 -49.731  16.563  1.00  0.00     0.216 C 
ENDBRANCH  28  30
ENDBRANCH  25  27
ENDBRANCH  23  25
ENDBRANCH  21  23
ENDBRANCH  17  21
ENDBRANCH  12  14
ENDBRANCH   8   9
ENDBRANCH   1   8
BRANCH   1  32
HETATM   32  N4  UNL     1      -2.784 -42.373  14.861  1.00  0.00    -0.389 N 
ATOM     33  H4  UNL     1      -2.937 -42.227  15.859  1.00  0.00     0.159 HD
BRANCH  32  34
HETATM   34  C23 UNL     1      -2.640 -41.262  14.076  1.00  0.00     0.143 C 
BRANCH  34  35
HETATM   35  C24 UNL     1      -3.562 -40.091  14.279  1.00  0.00     0.237 C 
HETATM   36  O5  UNL     1      -3.772 -39.345  13.330  1.00  0.00    -0.282 OA
BRANCH  35  37
HETATM   37  C25 UNL     1      -4.163 -39.887  15.571  1.00  0.00     0.191 C 
HETATM   38  N5  UNL     1      -3.995 -39.144  16.703  1.00  0.00    -0.349 N 
HETATM   39  C26 UNL     1      -4.955 -39.538  17.810  1.00  0.00     0.130 C 
HETATM   40  C31 UNL     1      -3.173 -38.056  17.073  1.00  0.00     0.034 C 
HETATM   41  C27 UNL     1      -5.009 -38.617  18.937  1.00  0.00     0.004 C 
HETATM   42  C28 UNL     1      -3.915 -38.793  19.975  1.00  0.00     0.006 C 
HETATM   43  C35 UNL     1      -5.050 -37.171  18.514  1.00  0.00     0.009 C 
HETATM   44  C29 UNL     1      -2.667 -38.032  19.561  1.00  0.00     0.003 C 
HETATM   45  C30 UNL     1      -2.260 -38.528  18.222  1.00  0.00     0.031 C 
HETATM   46  C34 UNL     1      -3.990 -36.844  17.527  1.00  0.00     0.031 C 
BRANCH  37  47
HETATM   47  O6  UNL     1      -5.254 -40.706  15.688  1.00  0.00    -0.343 OA
ATOM     48  H6  UNL     1      -5.977 -40.206  16.049  1.00  0.00     0.219 HD
ENDBRANCH  37  47
BRANCH  40  49
HETATM   49  C32 UNL     1      -2.232 -37.495  16.042  1.00  0.00     0.027 C 
HETATM   50  C33 UNL     1      -1.823 -36.059  16.471  1.00  0.00     0.007 C 
ENDBRANCH  40  49
ENDBRANCH  35  37
ENDBRANCH  34  35
ENDBRANCH  32  34
ENDBRANCH   1  32
TORSDOF 18
ENDMDL
MODEL 2
REMARK VINA RESULT: -8.741605689      4.639      8.633
REMARK  18 active torsions:
REMARK  status: ('A' for Active; 'I' for Inactive)
REMARK    1  A    between atoms: C2_2  and  C3_3 
REMARK    2  A    between atoms: C3_3  and  N1_4 
REMARK    3  A    between atoms: N1_4  and  C4_6 
REMARK    4  A    between atoms: C4_6  and  C5_7 
REMARK    5  A    between atoms: C5_7  and  C6_8 
REMARK    6  A    between atoms: C5_7  and  N4_32 
REMARK    7  A    between atoms: C6_8  and  C7_9 
REMARK    8  A    between atoms: C9_12  and  C10_13 
REMARK    9  A    between atoms: C13_16  and  N2_17 
REMARK   10  A    between atoms: N2_17  and  C14_19 
REMARK   11  A    between atoms: C14_19  and  C16_21 
REMARK   12  A    between atoms: C16_21  and  N3_23 
REMARK       I    between atoms: N3_23  and  C18_24 
REMARK   13  A    between atoms: C18_24  and  O3_26 
REMARK   14  A    between atoms: N4_32  and  C23_34 
REMARK   15  A    between atoms: C23_34  and  C24_35 
REMARK   16  A    between atoms: C24_35  and  C25_37 
REMARK   17  A    between atoms: C25_37  and  O6_38 
REMARK   18  A    between atoms: C31_46  and  C32_47 
ROOT
HETATM    1  C5  UNL     1      -2.895 -44.011  14.421  1.00  0.00     0.103 C 
ENDROOT
BRANCH   1   2
HETATM    2  C4  UNL     1      -2.041 -44.261  13.244  1.00  0.00     0.144 C 
BRANCH   2   3
HETATM    3  N1  UNL     1      -2.552 -45.090  12.211  1.00  0.00    -0.397 N 
ATOM      4  H1  UNL     1      -3.148 -44.706  11.478  1.00  0.00     0.158 HD
BRANCH   3   5
HETATM    5  C3  UNL     1      -2.215 -46.461  12.225  1.00  0.00     0.082 C 
BRANCH   5   6
HETATM    6  C2  UNL     1      -3.169 -47.431  12.723  1.00  0.00     0.006 C 
HETATM    7  C1  UNL     1      -4.398 -47.294  13.048  1.00  0.00     0.012 C 
ENDBRANCH   5   6
ENDBRANCH   3   5
ENDBRANCH   2   3
ENDBRANCH   1   2
BRANCH   1   8
HETATM    8  C6  UNL     1      -2.857 -44.975  15.548  1.00  0.00     0.087 C 
BRANCH   8   9
HETATM    9  C7  UNL     1      -2.199 -44.663  16.823  1.00  0.00     0.262 C 
HETATM   10  O1  UNL     1      -1.265 -43.670  16.898  1.00  0.00    -0.359 OA
HETATM   11  C8  UNL     1      -1.157 -43.382  18.268  1.00  0.00     0.203 C 
HETATM   12  C9  UNL     1      -2.566 -43.632  18.746  1.00  0.00     0.152 C 
HETATM   13  O4  UNL     1      -3.235 -44.165  17.677  1.00  0.00    -0.353 OA
BRANCH  12  14
HETATM   14  C10 UNL     1      -3.211 -42.341  19.222  1.00  0.00     0.017 C 
HETATM   15  C11 UNL     1      -4.550 -42.647  19.805  1.00  0.00     0.009 C 
HETATM   16  C12 UNL     1      -4.914 -41.749  20.968  1.00  0.00     0.025 C 
HETATM   17  C13 UNL     1      -3.947 -41.823  22.111  1.00  0.00     0.080 C 
HETATM   18  C20 UNL     1      -2.724 -42.621  21.563  1.00  0.00     0.004 C 
HETATM   19  C21 UNL     1      -1.670 -42.797  22.585  1.00  0.00     0.012 C 
HETATM   20  C22 UNL     1      -2.265 -41.855  20.346  1.00  0.00     0.013 C 
BRANCH  17  21
HETATM   21  N2  UNL     1      -4.293 -42.397  23.288  1.00  0.00    -0.410 N 
ATOM     22  H2  UNL     1      -3.640 -42.163  24.036  1.00  0.00     0.154 HD
BRANCH  21  23
HETATM   23  C14 UNL     1      -5.289 -43.203  23.719  1.00  0.00     0.108 C 
HETATM   24  C15 UNL     1      -4.750 -44.268  24.700  1.00  0.00     0.035 C 
BRANCH  23  25
HETATM   25  C16 UNL     1      -6.532 -42.543  24.364  1.00  0.00     0.187 C 
HETATM   26  C17 UNL     1      -6.212 -41.439  25.296  1.00  0.00     0.050 C 
BRANCH  25  27
HETATM   27  N3  UNL     1      -7.478 -42.330  23.387  1.00  0.00    -0.383 NA
HETATM   28  C18 UNL     1      -8.409 -42.123  22.427  1.00  0.00     0.434 C 
HETATM   29  O2  UNL     1      -8.734 -41.099  21.808  1.00  0.00    -0.221 OA
BRANCH  28  30
HETATM   30  O3  UNL     1      -9.175 -43.275  22.037  1.00  0.00    -0.298 OA
HETATM   31  C19 UNL     1      -8.642 -44.551  22.010  1.00  0.00     0.216 C 
ENDBRANCH  28  30
ENDBRANCH  25  27
ENDBRANCH  23  25
ENDBRANCH  21  23
ENDBRANCH  17  21
ENDBRANCH  12  14
ENDBRANCH   8   9
ENDBRANCH   1   8
BRANCH   1  32
HETATM   32  N4  UNL     1      -2.870 -42.685  14.910  1.00  0.00    -0.389 N 
ATOM     33  H4  UNL     1      -3.102 -42.543  15.893  1.00  0.00     0.159 HD
BRANCH  32  34
HETATM   34  C23 UNL     1      -2.559 -41.578  14.169  1.00  0.00     0.143 C 
BRANCH  34  35
HETATM   35  C24 UNL     1      -3.447 -40.367  14.245  1.00  0.00     0.237 C 
HETATM   36  O5  UNL     1      -3.556 -39.662  13.248  1.00  0.00    -0.282 OA
BRANCH  35  37
HETATM   37  C25 UNL     1      -4.132 -40.076  15.477  1.00  0.00     0.191 C 
HETATM   38  N5  UNL     1      -4.022 -39.278  16.578  1.00  0.00    -0.349 N 
HETATM   39  C26 UNL     1      -5.072 -39.584  17.631  1.00  0.00     0.130 C 
HETATM   40  C31 UNL     1      -3.193 -38.197  16.952  1.00  0.00     0.034 C 
HETATM   41  C27 UNL     1      -5.177 -38.601  18.702  1.00  0.00     0.004 C 
HETATM   42  C28 UNL     1      -4.167 -38.754  19.826  1.00  0.00     0.006 C 
HETATM   43  C35 UNL     1      -5.139 -37.180  18.202  1.00  0.00     0.009 C 
HETATM   44  C29 UNL     1      -2.868 -38.053  19.466  1.00  0.00     0.003 C 
HETATM   45  C30 UNL     1      -2.381 -38.632  18.188  1.00  0.00     0.031 C 
HETATM   46  C34 UNL     1      -4.000 -36.938  17.281  1.00  0.00     0.031 C 
BRANCH  37  47
HETATM   47  O6  UNL     1      -5.255 -40.854  15.555  1.00  0.00    -0.343 OA
ATOM     48  H6  UNL     1      -5.079 -41.693  15.144  1.00  0.00     0.219 HD
ENDBRANCH  37  47
BRANCH  40  49
HETATM   49  C32 UNL     1      -2.162 -37.719  15.966  1.00  0.00     0.027 C 
HETATM   50  C33 UNL     1      -1.751 -36.268  16.338  1.00  0.00     0.007 C 
ENDBRANCH  40  49
ENDBRANCH  35  37
ENDBRANCH  34  35
ENDBRANCH  32  34
ENDBRANCH   1  32
TORSDOF 18
ENDMDL
MODEL 3
REMARK VINA RESULT: -8.570745132      1.337      2.225
REMARK  18 active torsions:
REMARK  status: ('A' for Active; 'I' for Inactive)
REMARK    1  A    between atoms: C2_2  and  C3_3 
REMARK    2  A    between atoms: C3_3  and  N1_4 
REMARK    3  A    between atoms: N1_4  and  C4_6 
REMARK    4  A    between atoms: C4_6  and  C5_7 
REMARK    5  A    between atoms: C5_7  and  C6_8 
REMARK    6  A    between atoms: C5_7  and  N4_32 
REMARK    7  A    between atoms: C6_8  and  C7_9 
REMARK    8  A    between atoms: C9_12  and  C10_13 
REMARK    9  A    between atoms: C13_16  and  N2_17 
REMARK   10  A    between atoms: N2_17  and  C14_19 
REMARK   11  A    between atoms: C14_19  and  C16_21 
REMARK   12  A    between atoms: C16_21  and  N3_23 
REMARK       I    between atoms: N3_23  and  C18_24 
REMARK   13  A    between atoms: C18_24  and  O3_26 
REMARK   14  A    between atoms: N4_32  and  C23_34 
REMARK   15  A    between atoms: C23_34  and  C24_35 
REMARK   16  A    between atoms: C24_35  and  C25_37 
REMARK   17  A    between atoms: C25_37  and  O6_38 
REMARK   18  A    between atoms: C31_46  and  C32_47 
ROOT
HETATM    1  C5  UNL     1      -2.352 -43.547  14.976  1.00  0.00     0.103 C 
ENDROOT
BRANCH   1   2
HETATM    2  C4  UNL     1      -2.402 -43.254  16.421  1.00  0.00     0.144 C 
BRANCH   2   3
HETATM    3  N1  UNL     1      -1.951 -44.254  17.322  1.00  0.00    -0.397 N 
ATOM      4  H1  UNL     1      -2.536 -45.058  17.547  1.00  0.00     0.158 HD
BRANCH   3   5
HETATM    5  C3  UNL     1      -0.670 -44.106  17.899  1.00  0.00     0.082 C 
BRANCH   5   6
HETATM    6  C2  UNL     1       0.438 -44.893  17.398  1.00  0.00     0.006 C 
HETATM    7  C1  UNL     1       0.533 -46.150  17.184  1.00  0.00     0.012 C 
ENDBRANCH   5   6
ENDBRANCH   3   5
ENDBRANCH   2   3
ENDBRANCH   1   2
BRANCH   1   8
HETATM    8  C6  UNL     1      -2.688 -44.916  14.513  1.00  0.00     0.087 C 
BRANCH   8   9
HETATM    9  C7  UNL     1      -1.949 -45.579  13.431  1.00  0.00     0.262 C 
HETATM   10  O1  UNL     1      -1.804 -44.974  12.215  1.00  0.00    -0.359 OA
HETATM   11  C8  UNL     1      -0.750 -45.665  11.595  1.00  0.00     0.203 C 
HETATM   12  C9  UNL     1       0.116 -46.028  12.776  1.00  0.00     0.152 C 
HETATM   13  O4  UNL     1      -0.595 -45.664  13.887  1.00  0.00    -0.353 OA
BRANCH  12  14
HETATM   14  C10 UNL     1       1.453 -45.308  12.705  1.00  0.00     0.017 C 
HETATM   15  C11 UNL     1       1.634 -44.490  13.939  1.00  0.00     0.009 C 
HETATM   16  C12 UNL     1       3.076 -44.413  14.397  1.00  0.00     0.025 C 
HETATM   17  C13 UNL     1       3.681 -45.749  14.703  1.00  0.00     0.080 C 
HETATM   18  C20 UNL     1       2.660 -46.797  14.161  1.00  0.00     0.004 C 
HETATM   19  C21 UNL     1       3.108 -48.186  14.400  1.00  0.00     0.012 C 
HETATM   20  C22 UNL     1       2.486 -46.459  12.700  1.00  0.00     0.013 C 
BRANCH  17  21
HETATM   21  N2  UNL     1       3.976 -46.113  15.975  1.00  0.00    -0.410 N 
ATOM     22  H2  UNL     1       3.276 -46.744  16.366  1.00  0.00     0.154 HD
BRANCH  21  23
HETATM   23  C14 UNL     1       4.967 -45.847  16.855  1.00  0.00     0.108 C 
HETATM   24  C15 UNL     1       4.657 -44.567  17.662  1.00  0.00     0.035 C 
BRANCH  23  25
HETATM   25  C16 UNL     1       5.370 -46.957  17.854  1.00  0.00     0.187 C 
HETATM   26  C17 UNL     1       4.256 -47.441  18.700  1.00  0.00     0.050 C 
BRANCH  25  27
HETATM   27  N3  UNL     1       6.151 -47.882  17.199  1.00  0.00    -0.383 NA
HETATM   28  C18 UNL     1       6.920 -48.791  16.554  1.00  0.00     0.434 C 
HETATM   29  O2  UNL     1       6.976 -50.025  16.641  1.00  0.00    -0.221 OA
BRANCH  28  30
HETATM   30  O3  UNL     1       7.848 -48.257  15.593  1.00  0.00    -0.298 OA
HETATM   31  C19 UNL     1       7.464 -47.389  14.588  1.00  0.00     0.216 C 
ENDBRANCH  28  30
ENDBRANCH  25  27
ENDBRANCH  23  25
ENDBRANCH  21  23
ENDBRANCH  17  21
ENDBRANCH  12  14
ENDBRANCH   8   9
ENDBRANCH   1   8
BRANCH   1  32
HETATM   32  N4  UNL     1      -2.971 -42.584  14.147  1.00  0.00    -0.389 N 
ATOM     33  H4  UNL     1      -3.804 -42.873  13.634  1.00  0.00     0.159 HD
BRANCH  32  34
HETATM   34  C23 UNL     1      -2.542 -41.297  13.978  1.00  0.00     0.143 C 
BRANCH  34  35
HETATM   35  C24 UNL     1      -3.509 -40.164  14.189  1.00  0.00     0.237 C 
HETATM   36  O5  UNL     1      -3.716 -39.395  13.256  1.00  0.00    -0.282 OA
BRANCH  35  37
HETATM   37  C25 UNL     1      -4.152 -40.019  15.468  1.00  0.00     0.191 C 
HETATM   38  N5  UNL     1      -4.038 -39.309  16.627  1.00  0.00    -0.349 N 
HETATM   39  C26 UNL     1      -5.019 -39.767  17.693  1.00  0.00     0.130 C 
HETATM   40  C31 UNL     1      -3.260 -38.212  17.057  1.00  0.00     0.034 C 
HETATM   41  C27 UNL     1      -5.132 -38.884  18.847  1.00  0.00     0.004 C 
HETATM   42  C28 UNL     1      -4.063 -39.064  19.911  1.00  0.00     0.006 C 
HETATM   43  C35 UNL     1      -5.203 -37.427  18.469  1.00  0.00     0.009 C 
HETATM   44  C29 UNL     1      -2.827 -38.255  19.559  1.00  0.00     0.003 C 
HETATM   45  C30 UNL     1      -2.367 -38.695  18.217  1.00  0.00     0.031 C 
HETATM   46  C34 UNL     1      -4.124 -37.038  17.524  1.00  0.00     0.031 C 
BRANCH  37  47
HETATM   47  O6  UNL     1      -5.221 -40.871  15.526  1.00  0.00    -0.343 OA
ATOM     48  H6  UNL     1      -5.785 -40.611  16.245  1.00  0.00     0.219 HD
ENDBRANCH  37  47
BRANCH  40  49
HETATM   49  C32 UNL     1      -2.306 -37.590  16.073  1.00  0.00     0.027 C 
HETATM   50  C33 UNL     1      -2.004 -36.135  16.524  1.00  0.00     0.007 C 
ENDBRANCH  40  49
ENDBRANCH  35  37
ENDBRANCH  34  35
ENDBRANCH  32  34
ENDBRANCH   1  32
TORSDOF 18
ENDMDL
MODEL 4
REMARK VINA RESULT: -8.524652658      4.007      7.161
REMARK  18 active torsions:
REMARK  status: ('A' for Active; 'I' for Inactive)
REMARK    1  A    between atoms: C2_2  and  C3_3 
REMARK    2  A    between atoms: C3_3  and  N1_4 
REMARK    3  A    between atoms: N1_4  and  C4_6 
REMARK    4  A    between atoms: C4_6  and  C5_7 
REMARK    5  A    between atoms: C5_7  and  C6_8 
REMARK    6  A    between atoms: C5_7  and  N4_32 
REMARK    7  A    between atoms: C6_8  and  C7_9 
REMARK    8  A    between atoms: C9_12  and  C10_13 
REMARK    9  A    between atoms: C13_16  and  N2_17 
REMARK   10  A    between atoms: N2_17  and  C14_19 
REMARK   11  A    between atoms: C14_19  and  C16_21 
REMARK   12  A    between atoms: C16_21  and  N3_23 
REMARK       I    between atoms: N3_23  and  C18_24 
REMARK   13  A    between atoms: C18_24  and  O3_26 
REMARK   14  A    between atoms: N4_32  and  C23_34 
REMARK   15  A    between atoms: C23_34  and  C24_35 
REMARK   16  A    between atoms: C24_35  and  C25_37 
REMARK   17  A    between atoms: C25_37  and  O6_38 
REMARK   18  A    between atoms: C31_46  and  C32_47 
ROOT
HETATM    1  C5  UNL     1      -2.552 -43.821  13.595  1.00  0.00     0.103 C 
ENDROOT
BRANCH   1   2
HETATM    2  C4  UNL     1      -1.080 -43.743  13.531  1.00  0.00     0.144 C 
BRANCH   2   3
HETATM    3  N1  UNL     1      -0.362 -44.921  13.191  1.00  0.00    -0.397 N 
ATOM      4  H1  UNL     1       0.150 -45.444  13.901  1.00  0.00     0.158 HD
BRANCH   3   5
HETATM    5  C3  UNL     1      -0.375 -45.348  11.845  1.00  0.00     0.082 C 
BRANCH   5   6
HETATM    6  C2  UNL     1      -1.074 -46.564  11.485  1.00  0.00     0.006 C 
HETATM    7  C1  UNL     1      -1.329 -47.610  12.174  1.00  0.00     0.012 C 
ENDBRANCH   5   6
ENDBRANCH   3   5
ENDBRANCH   2   3
ENDBRANCH   1   2
BRANCH   1   8
HETATM    8  C6  UNL     1      -3.177 -45.009  14.227  1.00  0.00     0.087 C 
BRANCH   8   9
HETATM    9  C7  UNL     1      -2.840 -45.437  15.590  1.00  0.00     0.262 C 
HETATM   10  O1  UNL     1      -1.601 -45.936  15.877  1.00  0.00    -0.359 OA
HETATM   11  C8  UNL     1      -1.498 -45.857  17.275  1.00  0.00     0.203 C 
HETATM   12  C9  UNL     1      -2.301 -44.615  17.572  1.00  0.00     0.152 C 
HETATM   13  O4  UNL     1      -2.875 -44.247  16.386  1.00  0.00    -0.353 OA
BRANCH  12  14
HETATM   14  C10 UNL     1      -1.409 -43.517  18.127  1.00  0.00     0.017 C 
HETATM   15  C11 UNL     1      -2.253 -42.515  18.843  1.00  0.00     0.009 C 
HETATM   16  C12 UNL     1      -1.565 -41.907  20.047  1.00  0.00     0.025 C 
HETATM   17  C13 UNL     1      -1.163 -42.915  21.082  1.00  0.00     0.080 C 
HETATM   18  C20 UNL     1      -1.360 -44.304  20.401  1.00  0.00     0.004 C 
HETATM   19  C21 UNL     1      -1.017 -45.422  21.307  1.00  0.00     0.012 C 
HETATM   20  C22 UNL     1      -0.516 -44.256  19.152  1.00  0.00     0.013 C 
BRANCH  17  21
HETATM   21  N2  UNL     1      -1.789 -42.975  22.283  1.00  0.00    -0.410 N 
ATOM     22  H2  UNL     1      -1.136 -42.872  23.061  1.00  0.00     0.154 HD
BRANCH  21  23
HETATM   23  C14 UNL     1      -3.061 -43.139  22.707  1.00  0.00     0.108 C 
HETATM   24  C15 UNL     1      -3.102 -43.936  24.030  1.00  0.00     0.035 C 
BRANCH  23  25
HETATM   25  C16 UNL     1      -3.938 -41.876  22.882  1.00  0.00     0.187 C 
HETATM   26  C17 UNL     1      -3.167 -40.635  23.117  1.00  0.00     0.050 C 
BRANCH  25  27
HETATM   27  N3  UNL     1      -4.913 -41.874  21.910  1.00  0.00    -0.383 NA
HETATM   28  C18 UNL     1      -5.870 -41.872  20.953  1.00  0.00     0.434 C 
HETATM   29  O2  UNL     1      -6.919 -41.222  20.845  1.00  0.00    -0.221 OA
BRANCH  28  30
HETATM   30  O3  UNL     1      -5.661 -42.780  19.857  1.00  0.00    -0.298 OA
HETATM   31  C19 UNL     1      -5.415 -44.128  20.041  1.00  0.00     0.216 C 
ENDBRANCH  28  30
ENDBRANCH  25  27
ENDBRANCH  23  25
ENDBRANCH  21  23
ENDBRANCH  17  21
ENDBRANCH  12  14
ENDBRANCH   8   9
ENDBRANCH   1   8
BRANCH   1  32
HETATM   32  N4  UNL     1      -3.197 -42.640  14.026  1.00  0.00    -0.389 N 
ATOM     33  H4  UNL     1      -4.122 -42.737  14.445  1.00  0.00     0.159 HD
BRANCH  32  34
HETATM   34  C23 UNL     1      -2.678 -41.378  13.927  1.00  0.00     0.143 C 
BRANCH  34  35
HETATM   35  C24 UNL     1      -3.573 -40.193  14.166  1.00  0.00     0.237 C 
HETATM   36  O5  UNL     1      -3.752 -39.405  13.244  1.00  0.00    -0.282 OA
BRANCH  35  37
HETATM   37  C25 UNL     1      -4.182 -40.023  15.458  1.00  0.00     0.191 C 
HETATM   38  N5  UNL     1      -4.021 -39.309  16.610  1.00  0.00    -0.349 N 
HETATM   39  C26 UNL     1      -4.989 -39.733  17.701  1.00  0.00     0.130 C 
HETATM   40  C31 UNL     1      -3.203 -38.232  17.014  1.00  0.00     0.034 C 
HETATM   41  C27 UNL     1      -5.051 -38.841  18.852  1.00  0.00     0.004 C 
HETATM   42  C28 UNL     1      -3.963 -39.045  19.892  1.00  0.00     0.006 C 
HETATM   43  C35 UNL     1      -5.090 -37.385  18.466  1.00  0.00     0.009 C 
HETATM   44  C29 UNL     1      -2.713 -38.272  19.506  1.00  0.00     0.003 C 
HETATM   45  C30 UNL     1      -2.297 -38.733  18.157  1.00  0.00     0.031 C 
HETATM   46  C34 UNL     1      -4.023 -37.032  17.494  1.00  0.00     0.031 C 
BRANCH  37  47
HETATM   47  O6  UNL     1      -5.273 -40.845  15.547  1.00  0.00    -0.343 OA
ATOM     48  H6  UNL     1      -5.062 -41.577  16.115  1.00  0.00     0.219 HD
ENDBRANCH  37  47
BRANCH  40  49
HETATM   49  C32 UNL     1      -2.256 -37.643  16.005  1.00  0.00     0.027 C 
HETATM   50  C33 UNL     1      -2.052 -36.138  16.331  1.00  0.00     0.007 C 
ENDBRANCH  40  49
ENDBRANCH  35  37
ENDBRANCH  34  35
ENDBRANCH  32  34
ENDBRANCH   1  32
TORSDOF 18
ENDMDL
MODEL 5
REMARK VINA RESULT: -8.505858910      2.207      6.777
REMARK  18 active torsions:
REMARK  status: ('A' for Active; 'I' for Inactive)
REMARK    1  A    between atoms: C2_2  and  C3_3 
REMARK    2  A    between atoms: C3_3  and  N1_4 
REMARK    3  A    between atoms: N1_4  and  C4_6 
REMARK    4  A    between atoms: C4_6  and  C5_7 
REMARK    5  A    between atoms: C5_7  and  C6_8 
REMARK    6  A    between atoms: C5_7  and  N4_32 
REMARK    7  A    between atoms: C6_8  and  C7_9 
REMARK    8  A    between atoms: C9_12  and  C10_13 
REMARK    9  A    between atoms: C13_16  and  N2_17 
REMARK   10  A    between atoms: N2_17  and  C14_19 
REMARK   11  A    between atoms: C14_19  and  C16_21 
REMARK   12  A    between atoms: C16_21  and  N3_23 
REMARK       I    between atoms: N3_23  and  C18_24 
REMARK   13  A    between atoms: C18_24  and  O3_26 
REMARK   14  A    between atoms: N4_32  and  C23_34 
REMARK   15  A    between atoms: C23_34  and  C24_35 
REMARK   16  A    between atoms: C24_35  and  C25_37 
REMARK   17  A    between atoms: C25_37  and  O6_38 
REMARK   18  A    between atoms: C31_46  and  C32_47 
ROOT
HETATM    1  C5  UNL     1      -1.693 -40.428  16.752  1.00  0.00     0.103 C 
ENDROOT
BRANCH   1   2
HETATM    2  C4  UNL     1      -2.714 -39.458  16.312  1.00  0.00     0.144 C 
BRANCH   2   3
HETATM    3  N1  UNL     1      -2.277 -38.178  15.878  1.00  0.00    -0.397 N 
ATOM      4  H1  UNL     1      -1.905 -38.044  14.938  1.00  0.00     0.158 HD
BRANCH   3   5
HETATM    5  C3  UNL     1      -2.371 -37.097  16.781  1.00  0.00     0.082 C 
BRANCH   5   6
HETATM    6  C2  UNL     1      -1.194 -36.661  17.504  1.00  0.00     0.006 C 
HETATM    7  C1  UNL     1       0.009 -37.092  17.468  1.00  0.00     0.012 C 
ENDBRANCH   5   6
ENDBRANCH   3   5
ENDBRANCH   2   3
ENDBRANCH   1   2
BRANCH   1   8
HETATM    8  C6  UNL     1      -1.756 -40.951  18.139  1.00  0.00     0.087 C 
BRANCH   8   9
HETATM    9  C7  UNL     1      -2.113 -42.344  18.434  1.00  0.00     0.262 C 
HETATM   10  O1  UNL     1      -3.114 -42.967  17.744  1.00  0.00    -0.359 OA
HETATM   11  C8  UNL     1      -2.916 -44.336  17.983  1.00  0.00     0.203 C 
HETATM   12  C9  UNL     1      -1.413 -44.414  18.090  1.00  0.00     0.152 C 
HETATM   13  O4  UNL     1      -0.968 -43.121  18.066  1.00  0.00    -0.353 OA
BRANCH  12  14
HETATM   14  C10 UNL     1      -0.833 -45.227  16.944  1.00  0.00     0.017 C 
HETATM   15  C11 UNL     1       0.429 -44.585  16.476  1.00  0.00     0.009 C 
HETATM   16  C12 UNL     1       1.468 -45.581  16.008  1.00  0.00     0.025 C 
HETATM   17  C13 UNL     1       1.879 -46.563  17.064  1.00  0.00     0.080 C 
HETATM   18  C20 UNL     1       0.854 -46.370  18.224  1.00  0.00     0.004 C 
HETATM   19  C21 UNL     1       1.132 -47.267  19.366  1.00  0.00     0.012 C 
HETATM   20  C22 UNL     1      -0.500 -46.590  17.596  1.00  0.00     0.013 C 
BRANCH  17  21
HETATM   21  N2  UNL     1       3.114 -46.520  17.621  1.00  0.00    -0.410 N 
ATOM     22  H2  UNL     1       3.105 -46.820  18.596  1.00  0.00     0.154 HD
BRANCH  21  23
HETATM   23  C14 UNL     1       4.354 -46.179  17.206  1.00  0.00     0.108 C 
HETATM   24  C15 UNL     1       4.678 -44.717  17.586  1.00  0.00     0.035 C 
BRANCH  23  25
HETATM   25  C16 UNL     1       5.541 -47.064  17.654  1.00  0.00     0.187 C 
HETATM   26  C17 UNL     1       5.160 -48.164  18.568  1.00  0.00     0.050 C 
BRANCH  25  27
HETATM   27  N3  UNL     1       6.315 -47.357  16.555  1.00  0.00    -0.383 NA
HETATM   28  C18 UNL     1       7.079 -47.647  15.475  1.00  0.00     0.434 C 
HETATM   29  O2  UNL     1       7.533 -46.925  14.576  1.00  0.00    -0.221 OA
BRANCH  28  30
HETATM   30  O3  UNL     1       7.438 -49.030  15.314  1.00  0.00    -0.298 OA
HETATM   31  C19 UNL     1       6.663 -49.924  14.598  1.00  0.00     0.216 C 
ENDBRANCH  28  30
ENDBRANCH  25  27
ENDBRANCH  23  25
ENDBRANCH  21  23
ENDBRANCH  17  21
ENDBRANCH  12  14
ENDBRANCH   8   9
ENDBRANCH   1   8
BRANCH   1  32
HETATM   32  N4  UNL     1      -1.435 -41.480  15.843  1.00  0.00    -0.389 N 
ATOM     33  H4  UNL     1      -1.009 -42.328  16.216  1.00  0.00     0.159 HD
BRANCH  32  34
HETATM   34  C23 UNL     1      -1.711 -41.449  14.504  1.00  0.00     0.143 C 
BRANCH  34  35
HETATM   35  C24 UNL     1      -1.416 -42.661  13.663  1.00  0.00     0.237 C 
HETATM   36  O5  UNL     1      -0.533 -42.581  12.817  1.00  0.00    -0.282 OA
BRANCH  35  37
HETATM   37  C25 UNL     1      -2.177 -43.864  13.876  1.00  0.00     0.191 C 
HETATM   38  N5  UNL     1      -2.162 -45.188  13.547  1.00  0.00    -0.349 N 
HETATM   39  C26 UNL     1      -3.408 -45.921  14.013  1.00  0.00     0.130 C 
HETATM   40  C31 UNL     1      -1.239 -46.054  12.920  1.00  0.00     0.034 C 
HETATM   41  C27 UNL     1      -3.336 -47.374  13.932  1.00  0.00     0.004 C 
HETATM   42  C28 UNL     1      -3.635 -47.965  12.565  1.00  0.00     0.006 C 
HETATM   43  C35 UNL     1      -2.024 -47.927  14.425  1.00  0.00     0.009 C 
HETATM   44  C29 UNL     1      -2.382 -47.970  11.707  1.00  0.00     0.003 C 
HETATM   45  C30 UNL     1      -1.888 -46.572  11.621  1.00  0.00     0.031 C 
HETATM   46  C34 UNL     1      -0.859 -47.237  13.814  1.00  0.00     0.031 C 
BRANCH  37  47
HETATM   47  O6  UNL     1      -3.256 -43.574  14.665  1.00  0.00    -0.343 OA
ATOM     48  H6  UNL     1      -3.951 -43.222  14.121  1.00  0.00     0.219 HD
ENDBRANCH  37  47
BRANCH  40  49
HETATM   49  C32 UNL     1       0.085 -45.486  12.487  1.00  0.00     0.027 C 
HETATM   50  C33 UNL     1       1.113 -46.645  12.380  1.00  0.00     0.007 C 
ENDBRANCH  40  49
ENDBRANCH  35  37
ENDBRANCH  34  35
ENDBRANCH  32  34
ENDBRANCH   1  32
TORSDOF 18
ENDMDL
