MODEL 1
REMARK VINA RESULT: -7.688959498      0.000      0.000
REMARK  13 active torsions:
REMARK  status: ('A' for Active; 'I' for Inactive)
REMARK    1  A    between atoms: C2_2  and  O1_3 
REMARK    2  A    between atoms: C2_2  and  C3_5 
REMARK    3  A    between atoms: C3_5  and  C4_6 
REMARK    4  A    between atoms: C4_6  and  C5_7 
REMARK    5  A    between atoms: C4_6  and  N4_38 
REMARK       I    between atoms: C5_7  and  N1_9 
REMARK    6  A    between atoms: C10_14  and  O3_15 
REMARK    7  A    between atoms: O3_15  and  C11_16 
REMARK       I    between atoms: C11_16  and  N2_18 
REMARK    8  A    between atoms: C14_21  and  C15_22 
REMARK    9  A    between atoms: C15_22  and  C16_23 
REMARK       I    between atoms: C16_23  and  N3_25 
REMARK   10  A    between atoms: N3_25  and  C17_27 
REMARK   11  A    between atoms: C17_27  and  C18_28 
REMARK   12  A    between atoms: C17_27  and  C23_33 
REMARK   13  A    between atoms: C18_28  and  C19_29 
ROOT
HETATM    1  C11 UNL     1      -2.819 -41.466  14.950  1.00  0.00     0.364 C 
HETATM    2  O4  UNL     1      -1.973 -41.309  14.019  1.00  0.00    -0.238 OA
HETATM    3  N2  UNL     1      -3.447 -40.392  15.605  1.00  0.00    -0.328 N 
HETATM    4  C12 UNL     1      -3.119 -39.028  15.194  1.00  0.00     0.128 C 
HETATM    5  C13 UNL     1      -3.861 -38.057  16.119  1.00  0.00     0.025 C 
HETATM    6  C14 UNL     1      -3.508 -38.414  17.532  1.00  0.00    -0.003 C 
HETATM    7  C24 UNL     1      -4.091 -39.759  17.874  1.00  0.00     0.025 C 
HETATM    8  C25 UNL     1      -4.393 -40.601  16.665  1.00  0.00     0.128 C 
ENDROOT
BRANCH   1   9
HETATM    9  O3  UNL     1      -3.092 -42.805  15.285  1.00  0.00    -0.278 OA
BRANCH   9  10
HETATM   10  C10 UNL     1      -2.269 -43.605  16.057  1.00  0.00     0.237 C 
HETATM   11  N1  UNL     1      -1.271 -44.365  15.290  1.00  0.00    -0.319 N 
HETATM   12  C5  UNL     1      -1.469 -44.715  13.935  1.00  0.00     0.244 C 
HETATM   13  C6  UNL     1      -0.171 -44.626  16.165  1.00  0.00     0.086 C 
HETATM   14  O2  UNL     1      -2.558 -44.410  13.330  1.00  0.00    -0.271 OA
HETATM   15  C7  UNL     1      -0.148 -46.082  16.623  1.00  0.00     0.032 C 
HETATM   16  C8  UNL     1      -0.349 -43.802  17.425  1.00  0.00     0.029 C 
HETATM   17  C9  UNL     1      -1.428 -42.819  17.045  1.00  0.00     0.056 C 
BRANCH  12  18
HETATM   18  C4  UNL     1      -0.496 -45.446  13.078  1.00  0.00     0.173 C 
BRANCH  18  19
HETATM   19  C3  UNL     1      -0.032 -44.441  12.034  1.00  0.00     0.066 C 
BRANCH  19  20
HETATM   20  C2  UNL     1       1.116 -43.604  12.487  1.00  0.00     0.116 C 
HETATM   21  C1  UNL     1       2.125 -44.317  13.340  1.00  0.00     0.039 C 
BRANCH  20  22
HETATM   22  O1  UNL     1       1.727 -42.875  11.459  1.00  0.00    -0.396 OA
ATOM     23  H1  UNL     1       1.681 -41.939  11.615  1.00  0.00     0.210 HD
ENDBRANCH  20  22
ENDBRANCH  19  20
ENDBRANCH  18  19
BRANCH  18  24
HETATM   24  N4  UNL     1      -1.053 -46.599  12.496  1.00  0.00    -0.409 N 
HETATM   25  C26 UNL     1      -1.252 -47.770  13.213  1.00  0.00     0.143 C 
HETATM   26  C27 UNL     1      -1.233 -46.690  11.112  1.00  0.00     0.143 C 
ENDBRANCH  18  24
ENDBRANCH  12  18
ENDBRANCH   9  10
ENDBRANCH   1   9
BRANCH   6  27
HETATM   27  C15 UNL     1      -4.002 -37.416  18.540  1.00  0.00     0.107 C 
BRANCH  27  28
HETATM   28  C16 UNL     1      -3.595 -37.681  19.918  1.00  0.00     0.218 C 
HETATM   29  O5  UNL     1      -4.253 -37.283  20.894  1.00  0.00    -0.274 OA
HETATM   30  N3  UNL     1      -2.392 -38.432  20.174  1.00  0.00    -0.346 N 
ATOM     31  H3  UNL     1      -1.829 -38.767  19.393  1.00  0.00     0.163 HD
BRANCH  30  32
HETATM   32  C17 UNL     1      -1.980 -38.711  21.523  1.00  0.00     0.186 C 
BRANCH  32  33
HETATM   33  C18 UNL     1      -1.520 -40.103  21.732  1.00  0.00     0.044 C 
BRANCH  33  34
HETATM   34  C19 UNL     1      -2.352 -40.987  22.592  1.00  0.00    -0.049 C 
HETATM   35  C20 UNL     1      -1.853 -41.060  24.018  1.00  0.00     0.014 C 
HETATM   36  C21 UNL     1      -2.200 -42.425  22.029  1.00  0.00     0.014 C 
HETATM   37  C22 UNL     1      -3.811 -40.644  22.585  1.00  0.00     0.014 C 
ENDBRANCH  33  34
ENDBRANCH  32  33
BRANCH  32  38
HETATM   38  C23 UNL     1      -0.824 -37.800  21.846  1.00  0.00     0.196 C 
HETATM   39  O6  UNL     1      -0.169 -37.204  20.968  1.00  0.00    -0.646 OA
HETATM   40  O7  UNL     1      -0.481 -37.623  23.171  1.00  0.00    -0.646 OA
ENDBRANCH  32  38
ENDBRANCH  30  32
ENDBRANCH  27  28
ENDBRANCH   6  27
TORSDOF 13
ENDMDL
MODEL 2
REMARK VINA RESULT: -7.526379756      1.849      3.289
REMARK  13 active torsions:
REMARK  status: ('A' for Active; 'I' for Inactive)
REMARK    1  A    between atoms: C2_2  and  O1_3 
REMARK    2  A    between atoms: C2_2  and  C3_5 
REMARK    3  A    between atoms: C3_5  and  C4_6 
REMARK    4  A    between atoms: C4_6  and  C5_7 
REMARK    5  A    between atoms: C4_6  and  N4_38 
REMARK       I    between atoms: C5_7  and  N1_9 
REMARK    6  A    between atoms: C10_14  and  O3_15 
REMARK    7  A    between atoms: O3_15  and  C11_16 
REMARK       I    between atoms: C11_16  and  N2_18 
REMARK    8  A    between atoms: C14_21  and  C15_22 
REMARK    9  A    between atoms: C15_22  and  C16_23 
REMARK       I    between atoms: C16_23  and  N3_25 
REMARK   10  A    between atoms: N3_25  and  C17_27 
REMARK   11  A    between atoms: C17_27  and  C18_28 
REMARK   12  A    between atoms: C17_27  and  C23_33 
REMARK   13  A    between atoms: C18_28  and  C19_29 
ROOT
HETATM    1  C11 UNL     1      -2.851 -40.649  14.242  1.00  0.00     0.364 C 
HETATM    2  O4  UNL     1      -3.172 -40.244  13.085  1.00  0.00    -0.238 OA
HETATM    3  N2  UNL     1      -2.962 -39.850  15.393  1.00  0.00    -0.328 N 
HETATM    4  C12 UNL     1      -3.479 -38.489  15.258  1.00  0.00     0.128 C 
HETATM    5  C13 UNL     1      -3.410 -37.810  16.630  1.00  0.00     0.025 C 
HETATM    6  C14 UNL     1      -1.999 -37.925  17.126  1.00  0.00    -0.003 C 
HETATM    7  C24 UNL     1      -1.681 -39.368  17.416  1.00  0.00     0.025 C 
HETATM    8  C25 UNL     1      -2.579 -40.332  16.690  1.00  0.00     0.128 C 
ENDROOT
BRANCH   1   9
HETATM    9  O3  UNL     1      -2.372 -41.971  14.297  1.00  0.00    -0.278 OA
BRANCH   9  10
HETATM   10  C10 UNL     1      -1.038 -42.320  14.411  1.00  0.00     0.237 C 
HETATM   11  N1  UNL     1      -0.808 -43.629  15.041  1.00  0.00    -0.319 N 
HETATM   12  C5  UNL     1      -1.732 -44.206  15.940  1.00  0.00     0.244 C 
HETATM   13  C6  UNL     1       0.448 -44.116  14.560  1.00  0.00     0.086 C 
HETATM   14  O2  UNL     1      -2.803 -43.581  16.272  1.00  0.00    -0.271 OA
HETATM   15  C7  UNL     1       1.538 -44.007  15.623  1.00  0.00     0.032 C 
HETATM   16  C8  UNL     1       0.903 -43.234  13.413  1.00  0.00     0.029 C 
HETATM   17  C9  UNL     1      -0.337 -42.446  13.072  1.00  0.00     0.056 C 
BRANCH  12  18
HETATM   18  C4  UNL     1      -1.595 -45.538  16.588  1.00  0.00     0.173 C 
BRANCH  18  19
HETATM   19  C3  UNL     1      -2.816 -46.335  16.154  1.00  0.00     0.066 C 
BRANCH  19  20
HETATM   20  C2  UNL     1      -2.788 -46.726  14.716  1.00  0.00     0.116 C 
HETATM   21  C1  UNL     1      -2.138 -48.048  14.428  1.00  0.00     0.039 C 
BRANCH  20  22
HETATM   22  O1  UNL     1      -4.027 -46.605  14.071  1.00  0.00    -0.396 OA
ATOM     23  H1  UNL     1      -4.695 -47.134  14.491  1.00  0.00     0.210 HD
ENDBRANCH  20  22
ENDBRANCH  19  20
ENDBRANCH  18  19
BRANCH  18  24
HETATM   24  N4  UNL     1      -1.489 -45.447  17.988  1.00  0.00    -0.409 N 
HETATM   25  C26 UNL     1      -0.411 -44.837  18.612  1.00  0.00     0.143 C 
HETATM   26  C27 UNL     1      -2.358 -46.157  18.822  1.00  0.00     0.143 C 
ENDBRANCH  18  24
ENDBRANCH  12  18
ENDBRANCH   9  10
ENDBRANCH   1   9
BRANCH   6  27
HETATM   27  C15 UNL     1      -1.736 -37.125  18.368  1.00  0.00     0.107 C 
BRANCH  27  28
HETATM   28  C16 UNL     1      -2.216 -37.736  19.606  1.00  0.00     0.218 C 
HETATM   29  O5  UNL     1      -3.414 -37.722  19.933  1.00  0.00    -0.274 OA
HETATM   30  N3  UNL     1      -1.280 -38.383  20.490  1.00  0.00    -0.346 N 
ATOM     31  H3  UNL     1      -0.290 -38.406  20.249  1.00  0.00     0.163 HD
BRANCH  30  32
HETATM   32  C17 UNL     1      -1.733 -38.998  21.708  1.00  0.00     0.186 C 
BRANCH  32  33
HETATM   33  C18 UNL     1      -1.676 -40.477  21.689  1.00  0.00     0.044 C 
BRANCH  33  34
HETATM   34  C19 UNL     1      -2.964 -41.221  21.632  1.00  0.00    -0.049 C 
HETATM   35  C20 UNL     1      -3.943 -40.783  22.700  1.00  0.00     0.014 C 
HETATM   36  C21 UNL     1      -2.636 -42.702  21.956  1.00  0.00     0.014 C 
HETATM   37  C22 UNL     1      -3.631 -41.182  20.291  1.00  0.00     0.014 C 
ENDBRANCH  33  34
ENDBRANCH  32  33
BRANCH  32  38
HETATM   38  C23 UNL     1      -0.834 -38.526  22.821  1.00  0.00     0.196 C 
HETATM   39  O6  UNL     1      -0.534 -37.326  22.983  1.00  0.00    -0.646 OA
HETATM   40  O7  UNL     1      -0.323 -39.466  23.692  1.00  0.00    -0.646 OA
ENDBRANCH  32  38
ENDBRANCH  30  32
ENDBRANCH  27  28
ENDBRANCH   6  27
TORSDOF 13
ENDMDL
MODEL 3
REMARK VINA RESULT: -7.442925502      2.662      8.841
REMARK  13 active torsions:
REMARK  status: ('A' for Active; 'I' for Inactive)
REMARK    1  A    between atoms: C2_2  and  O1_3 
REMARK    2  A    between atoms: C2_2  and  C3_5 
REMARK    3  A    between atoms: C3_5  and  C4_6 
REMARK    4  A    between atoms: C4_6  and  C5_7 
REMARK    5  A    between atoms: C4_6  and  N4_38 
REMARK       I    between atoms: C5_7  and  N1_9 
REMARK    6  A    between atoms: C10_14  and  O3_15 
REMARK    7  A    between atoms: O3_15  and  C11_16 
REMARK       I    between atoms: C11_16  and  N2_18 
REMARK    8  A    between atoms: C14_21  and  C15_22 
REMARK    9  A    between atoms: C15_22  and  C16_23 
REMARK       I    between atoms: C16_23  and  N3_25 
REMARK   10  A    between atoms: N3_25  and  C17_27 
REMARK   11  A    between atoms: C17_27  and  C18_28 
REMARK   12  A    between atoms: C17_27  and  C23_33 
REMARK   13  A    between atoms: C18_28  and  C19_29 
ROOT
HETATM    1  C11 UNL     1      -0.265 -42.996  19.992  1.00  0.00     0.364 C 
HETATM    2  O4  UNL     1       0.143 -43.071  21.190  1.00  0.00    -0.238 OA
HETATM    3  N2  UNL     1       0.063 -43.946  19.009  1.00  0.00    -0.328 N 
HETATM    4  C12 UNL     1       0.906 -45.081  19.380  1.00  0.00     0.128 C 
HETATM    5  C13 UNL     1       1.186 -45.905  18.119  1.00  0.00     0.025 C 
HETATM    6  C14 UNL     1       1.758 -44.979  17.087  1.00  0.00    -0.003 C 
HETATM    7  C24 UNL     1       0.705 -43.994  16.653  1.00  0.00     0.025 C 
HETATM    8  C25 UNL     1      -0.403 -43.828  17.656  1.00  0.00     0.128 C 
ENDROOT
BRANCH   1   9
HETATM    9  O3  UNL     1      -1.079 -41.883  19.710  1.00  0.00    -0.278 OA
BRANCH   9  10
HETATM   10  C10 UNL     1      -2.420 -41.789  20.033  1.00  0.00     0.237 C 
HETATM   11  N1  UNL     1      -3.248 -41.150  18.998  1.00  0.00    -0.319 N 
HETATM   12  C5  UNL     1      -2.714 -40.229  18.070  1.00  0.00     0.244 C 
HETATM   13  C6  UNL     1      -4.579 -41.648  19.152  1.00  0.00     0.086 C 
HETATM   14  O2  UNL     1      -1.479 -39.885  18.121  1.00  0.00    -0.271 OA
HETATM   15  C7  UNL     1      -5.501 -40.605  19.781  1.00  0.00     0.032 C 
HETATM   16  C8  UNL     1      -4.553 -42.811  20.124  1.00  0.00     0.029 C 
HETATM   17  C9  UNL     1      -3.084 -43.139  20.229  1.00  0.00     0.056 C 
BRANCH  12  18
HETATM   18  C4  UNL     1      -3.470 -39.570  16.971  1.00  0.00     0.173 C 
BRANCH  18  19
HETATM   19  C3  UNL     1      -2.753 -39.958  15.686  1.00  0.00     0.066 C 
BRANCH  19  20
HETATM   20  C2  UNL     1      -3.460 -41.016  14.909  1.00  0.00     0.116 C 
HETATM   21  C1  UNL     1      -2.793 -42.361  14.913  1.00  0.00     0.039 C 
BRANCH  20  22
HETATM   22  O1  UNL     1      -4.828 -41.114  15.200  1.00  0.00    -0.396 OA
ATOM     23  H1  UNL     1      -5.242 -40.259  15.238  1.00  0.00     0.210 HD
ENDBRANCH  20  22
ENDBRANCH  19  20
ENDBRANCH  18  19
BRANCH  18  24
HETATM   24  N4  UNL     1      -3.550 -38.175  17.134  1.00  0.00    -0.409 N 
HETATM   25  C26 UNL     1      -4.514 -37.576  17.932  1.00  0.00     0.143 C 
HETATM   26  C27 UNL     1      -2.798 -37.313  16.330  1.00  0.00     0.143 C 
ENDBRANCH  18  24
ENDBRANCH  12  18
ENDBRANCH   9  10
ENDBRANCH   1   9
BRANCH   6  27
HETATM   27  C15 UNL     1       2.270 -45.689  15.868  1.00  0.00     0.107 C 
BRANCH  27  28
HETATM   28  C16 UNL     1       1.245 -46.348  15.062  1.00  0.00     0.218 C 
HETATM   29  O5  UNL     1       0.986 -47.558  15.175  1.00  0.00    -0.274 OA
HETATM   30  N3  UNL     1       0.493 -45.583  14.100  1.00  0.00    -0.346 N 
ATOM     31  H3  UNL     1       0.687 -44.589  13.983  1.00  0.00     0.163 HD
BRANCH  30  32
HETATM   32  C17 UNL     1      -0.527 -46.210  13.304  1.00  0.00     0.186 C 
BRANCH  32  33
HETATM   33  C18 UNL     1      -1.903 -45.808  13.671  1.00  0.00     0.044 C 
BRANCH  33  34
HETATM   34  C19 UNL     1      -2.706 -46.753  14.495  1.00  0.00    -0.049 C 
HETATM   35  C20 UNL     1      -2.557 -46.510  15.981  1.00  0.00     0.014 C 
HETATM   36  C21 UNL     1      -2.118 -48.168  14.248  1.00  0.00     0.014 C 
HETATM   37  C22 UNL     1      -4.160 -46.792  14.133  1.00  0.00     0.014 C 
ENDBRANCH  33  34
ENDBRANCH  32  33
BRANCH  32  38
HETATM   38  C23 UNL     1      -0.304 -45.803  11.871  1.00  0.00     0.196 C 
HETATM   39  O6  UNL     1      -0.054 -44.629  11.534  1.00  0.00    -0.646 OA
HETATM   40  O7  UNL     1      -0.382 -46.776  10.895  1.00  0.00    -0.646 OA
ENDBRANCH  32  38
ENDBRANCH  30  32
ENDBRANCH  27  28
ENDBRANCH   6  27
TORSDOF 13
ENDMDL
MODEL 4
REMARK VINA RESULT: -7.396380331      1.581      2.062
REMARK  13 active torsions:
REMARK  status: ('A' for Active; 'I' for Inactive)
REMARK    1  A    between atoms: C2_2  and  O1_3 
REMARK    2  A    between atoms: C2_2  and  C3_5 
REMARK    3  A    between atoms: C3_5  and  C4_6 
REMARK    4  A    between atoms: C4_6  and  C5_7 
REMARK    5  A    between atoms: C4_6  and  N4_38 
REMARK       I    between atoms: C5_7  and  N1_9 
REMARK    6  A    between atoms: C10_14  and  O3_15 
REMARK    7  A    between atoms: O3_15  and  C11_16 
REMARK       I    between atoms: C11_16  and  N2_18 
REMARK    8  A    between atoms: C14_21  and  C15_22 
REMARK    9  A    between atoms: C15_22  and  C16_23 
REMARK       I    between atoms: C16_23  and  N3_25 
REMARK   10  A    between atoms: N3_25  and  C17_27 
REMARK   11  A    between atoms: C17_27  and  C18_28 
REMARK   12  A    between atoms: C17_27  and  C23_33 
REMARK   13  A    between atoms: C18_28  and  C19_29 
ROOT
HETATM    1  C11 UNL     1      -2.776 -42.210  14.895  1.00  0.00     0.364 C 
HETATM    2  O4  UNL     1      -3.279 -42.107  13.736  1.00  0.00    -0.238 OA
HETATM    3  N2  UNL     1      -3.058 -41.308  15.936  1.00  0.00    -0.328 N 
HETATM    4  C12 UNL     1      -3.979 -40.202  15.680  1.00  0.00     0.128 C 
HETATM    5  C13 UNL     1      -4.039 -39.326  16.935  1.00  0.00     0.025 C 
HETATM    6  C14 UNL     1      -2.634 -38.935  17.286  1.00  0.00    -0.003 C 
HETATM    7  C24 UNL     1      -1.866 -40.152  17.727  1.00  0.00     0.025 C 
HETATM    8  C25 UNL     1      -2.463 -41.442  17.236  1.00  0.00     0.128 C 
ENDROOT
BRANCH   1   9
HETATM    9  O3  UNL     1      -1.907 -43.303  15.071  1.00  0.00    -0.278 OA
BRANCH   9  10
HETATM   10  C10 UNL     1      -2.314 -44.618  15.202  1.00  0.00     0.237 C 
HETATM   11  N1  UNL     1      -1.446 -45.590  14.520  1.00  0.00    -0.319 N 
HETATM   12  C5  UNL     1      -0.656 -45.240  13.402  1.00  0.00     0.244 C 
HETATM   13  C6  UNL     1      -1.588 -46.838  15.203  1.00  0.00     0.086 C 
HETATM   14  O2  UNL     1      -0.697 -44.054  12.914  1.00  0.00    -0.271 OA
HETATM   15  C7  UNL     1      -2.431 -47.827  14.400  1.00  0.00     0.032 C 
HETATM   16  C8  UNL     1      -2.350 -46.602  16.492  1.00  0.00     0.029 C 
HETATM   17  C9  UNL     1      -2.318 -45.101  16.640  1.00  0.00     0.056 C 
BRANCH  12  18
HETATM   18  C4  UNL     1       0.275 -46.149  12.680  1.00  0.00     0.173 C 
BRANCH  18  19
HETATM   19  C3  UNL     1       1.438 -45.276  12.232  1.00  0.00     0.066 C 
BRANCH  19  20
HETATM   20  C2  UNL     1       2.771 -45.823  12.617  1.00  0.00     0.116 C 
HETATM   21  C1  UNL     1       2.982 -46.002  14.093  1.00  0.00     0.039 C 
BRANCH  20  22
HETATM   22  O1  UNL     1       3.145 -46.966  11.897  1.00  0.00    -0.396 OA
ATOM     23  H1  UNL     1       2.625 -47.722  12.142  1.00  0.00     0.210 HD
ENDBRANCH  20  22
ENDBRANCH  19  20
ENDBRANCH  18  19
BRANCH  18  24
HETATM   24  N4  UNL     1      -0.344 -46.805  11.601  1.00  0.00    -0.409 N 
HETATM   25  C26 UNL     1      -1.529 -46.353  11.039  1.00  0.00     0.143 C 
HETATM   26  C27 UNL     1       0.091 -48.066  11.181  1.00  0.00     0.143 C 
ENDBRANCH  18  24
ENDBRANCH  12  18
ENDBRANCH   9  10
ENDBRANCH   1   9
BRANCH   6  27
HETATM   27  C15 UNL     1      -2.556 -37.907  18.377  1.00  0.00     0.107 C 
BRANCH  27  28
HETATM   28  C16 UNL     1      -2.793 -38.420  19.724  1.00  0.00     0.218 C 
HETATM   29  O5  UNL     1      -3.932 -38.513  20.210  1.00  0.00    -0.274 OA
HETATM   30  N3  UNL     1      -1.677 -38.841  20.532  1.00  0.00    -0.346 N 
ATOM     31  H3  UNL     1      -0.729 -38.772  20.162  1.00  0.00     0.163 HD
BRANCH  30  32
HETATM   32  C17 UNL     1      -1.889 -39.357  21.857  1.00  0.00     0.186 C 
BRANCH  32  33
HETATM   33  C18 UNL     1      -1.721 -40.825  21.961  1.00  0.00     0.044 C 
BRANCH  33  34
HETATM   34  C19 UNL     1      -2.948 -41.655  22.097  1.00  0.00    -0.049 C 
HETATM   35  C20 UNL     1      -3.610 -41.948  20.768  1.00  0.00     0.014 C 
HETATM   36  C21 UNL     1      -3.975 -40.804  22.889  1.00  0.00     0.014 C 
HETATM   37  C22 UNL     1      -2.737 -42.935  22.848  1.00  0.00     0.014 C 
ENDBRANCH  33  34
ENDBRANCH  32  33
BRANCH  32  38
HETATM   38  C23 UNL     1      -0.869 -38.721  22.765  1.00  0.00     0.196 C 
HETATM   39  O6  UNL     1      -0.515 -37.530  22.653  1.00  0.00    -0.646 OA
HETATM   40  O7  UNL     1      -0.306 -39.494  23.760  1.00  0.00    -0.646 OA
ENDBRANCH  32  38
ENDBRANCH  30  32
ENDBRANCH  27  28
ENDBRANCH   6  27
TORSDOF 13
ENDMDL
MODEL 5
REMARK VINA RESULT: -7.353384552      3.903     10.028
REMARK  13 active torsions:
REMARK  status: ('A' for Active; 'I' for Inactive)
REMARK    1  A    between atoms: C2_2  and  O1_3 
REMARK    2  A    between atoms: C2_2  and  C3_5 
REMARK    3  A    between atoms: C3_5  and  C4_6 
REMARK    4  A    between atoms: C4_6  and  C5_7 
REMARK    5  A    between atoms: C4_6  and  N4_38 
REMARK       I    between atoms: C5_7  and  N1_9 
REMARK    6  A    between atoms: C10_14  and  O3_15 
REMARK    7  A    between atoms: O3_15  and  C11_16 
REMARK       I    between atoms: C11_16  and  N2_18 
REMARK    8  A    between atoms: C14_21  and  C15_22 
REMARK    9  A    between atoms: C15_22  and  C16_23 
REMARK       I    between atoms: C16_23  and  N3_25 
REMARK   10  A    between atoms: N3_25  and  C17_27 
REMARK   11  A    between atoms: C17_27  and  C18_28 
REMARK   12  A    between atoms: C17_27  and  C23_33 
REMARK   13  A    between atoms: C18_28  and  C19_29 
ROOT
HETATM    1  C11 UNL     1      -1.680 -43.077  15.625  1.00  0.00     0.364 C 
HETATM    2  O4  UNL     1      -2.645 -43.843  15.919  1.00  0.00    -0.238 OA
HETATM    3  N2  UNL     1      -0.590 -43.484  14.835  1.00  0.00    -0.328 N 
HETATM    4  C12 UNL     1      -0.567 -44.851  14.319  1.00  0.00     0.128 C 
HETATM    5  C13 UNL     1       0.757 -45.062  13.577  1.00  0.00     0.025 C 
HETATM    6  C14 UNL     1       1.869 -44.702  14.518  1.00  0.00    -0.003 C 
HETATM    7  C24 UNL     1       1.837 -43.223  14.794  1.00  0.00     0.025 C 
HETATM    8  C25 UNL     1       0.496 -42.596  14.529  1.00  0.00     0.128 C 
ENDROOT
BRANCH   1   9
HETATM    9  O3  UNL     1      -1.775 -41.774  16.149  1.00  0.00    -0.278 OA
BRANCH   9  10
HETATM   10  C10 UNL     1      -2.861 -40.935  15.977  1.00  0.00     0.237 C 
HETATM   11  N1  UNL     1      -2.835 -39.731  16.822  1.00  0.00    -0.319 N 
HETATM   12  C5  UNL     1      -2.143 -39.691  18.053  1.00  0.00     0.244 C 
HETATM   13  C6  UNL     1      -3.599 -38.725  16.152  1.00  0.00     0.086 C 
HETATM   14  O2  UNL     1      -1.535 -40.729  18.500  1.00  0.00    -0.271 OA
HETATM   15  C7  UNL     1      -4.957 -38.515  16.815  1.00  0.00     0.032 C 
HETATM   16  C8  UNL     1      -3.898 -39.201  14.744  1.00  0.00     0.029 C 
HETATM   17  C9  UNL     1      -2.965 -40.374  14.571  1.00  0.00     0.056 C 
BRANCH  12  18
HETATM   18  C4  UNL     1      -2.034 -38.506  18.947  1.00  0.00     0.173 C 
BRANCH  18  19
HETATM   19  C3  UNL     1      -0.580 -38.064  18.870  1.00  0.00     0.066 C 
BRANCH  19  20
HETATM   20  C2  UNL     1      -0.266 -37.273  17.646  1.00  0.00     0.116 C 
HETATM   21  C1  UNL     1      -1.228 -36.160  17.344  1.00  0.00     0.039 C 
BRANCH  20  22
HETATM   22  O1  UNL     1       1.066 -36.841  17.575  1.00  0.00    -0.396 OA
ATOM     23  H1  UNL     1       1.308 -36.590  16.692  1.00  0.00     0.210 HD
ENDBRANCH  20  22
ENDBRANCH  19  20
ENDBRANCH  18  19
BRANCH  18  24
HETATM   24  N4  UNL     1      -2.434 -38.789  20.266  1.00  0.00    -0.409 N 
HETATM   25  C26 UNL     1      -3.733 -39.159  20.583  1.00  0.00     0.143 C 
HETATM   26  C27 UNL     1      -1.597 -38.501  21.348  1.00  0.00     0.143 C 
ENDBRANCH  18  24
ENDBRANCH  12  18
ENDBRANCH   9  10
ENDBRANCH   1   9
BRANCH   6  27
HETATM   27  C15 UNL     1       3.230 -45.055  13.994  1.00  0.00     0.107 C 
BRANCH  27  28
HETATM   28  C16 UNL     1       3.962 -46.035  14.794  1.00  0.00     0.218 C 
HETATM   29  O5  UNL     1       3.740 -46.204  16.004  1.00  0.00    -0.274 OA
HETATM   30  N3  UNL     1       4.980 -46.844  14.173  1.00  0.00    -0.346 N 
ATOM     31  H3  UNL     1       5.187 -46.724  13.182  1.00  0.00     0.163 HD
BRANCH  30  32
HETATM   32  C17 UNL     1       5.705 -47.820  14.941  1.00  0.00     0.186 C 
BRANCH  32  33
HETATM   33  C18 UNL     1       5.281 -49.216  14.688  1.00  0.00     0.044 C 
BRANCH  33  34
HETATM   34  C19 UNL     1       4.522 -49.916  15.759  1.00  0.00    -0.049 C 
HETATM   35  C20 UNL     1       4.652 -51.422  15.684  1.00  0.00     0.014 C 
HETATM   36  C21 UNL     1       3.020 -49.620  15.505  1.00  0.00     0.014 C 
HETATM   37  C22 UNL     1       4.853 -49.450  17.144  1.00  0.00     0.014 C 
ENDBRANCH  33  34
ENDBRANCH  32  33
BRANCH  32  38
HETATM   38  C23 UNL     1       7.159 -47.714  14.560  1.00  0.00     0.196 C 
HETATM   39  O6  UNL     1       7.924 -46.860  15.051  1.00  0.00    -0.646 OA
HETATM   40  O7  UNL     1       7.657 -48.600  13.628  1.00  0.00    -0.646 OA
ENDBRANCH  32  38
ENDBRANCH  30  32
ENDBRANCH  27  28
ENDBRANCH   6  27
TORSDOF 13
ENDMDL
