MODEL 1
REMARK VINA RESULT: -8.342617123      0.000      0.000
REMARK  11 active torsions:
REMARK  status: ('A' for Active; 'I' for Inactive)
REMARK    1  A    between atoms: C2_2  and  C3_3 
REMARK    2  A    between atoms: N1_10  and  C10_11 
REMARK    3  A    between atoms: C10_11  and  C11_12 
REMARK    4  A    between atoms: C11_12  and  N2_13 
REMARK       I    between atoms: N2_13  and  C12_15 
REMARK    5  A    between atoms: C12_15  and  C13_17 
REMARK    6  A    between atoms: C13_17  and  O2_18 
REMARK    7  A    between atoms: C13_17  and  C14_20 
REMARK    8  A    between atoms: C14_20  and  C15_21 
REMARK    9  A    between atoms: C14_20  and  N3_26 
REMARK   10  A    between atoms: C15_21  and  C16_22 
REMARK       I    between atoms: N3_26  and  C20_28 
REMARK   11  A    between atoms: C20_28  and  C21_30 
REMARK       I    between atoms: N5_39  and  C27_40 
ROOT
HETATM    1  N2  UNL     1      -3.759 -39.024  16.912  1.00  0.00    -0.354 N 
ATOM      2  H2  UNL     1      -3.436 -38.257  17.502  1.00  0.00     0.162 HD
HETATM    3  C12 UNL     1      -4.834 -39.891  17.324  1.00  0.00     0.248 C 
HETATM    4  O1  UNL     1      -5.163 -40.798  16.552  1.00  0.00    -0.271 OA
ENDROOT
BRANCH   3   5
HETATM    5  C13 UNL     1      -5.480 -39.668  18.603  1.00  0.00     0.232 C 
BRANCH   5   6
HETATM    6  O2  UNL     1      -5.627 -38.305  18.894  1.00  0.00    -0.384 OA
ATOM      7  H2  UNL     1      -4.920 -37.974  19.436  1.00  0.00     0.210 HD
ENDBRANCH   5   6
BRANCH   5   8
HETATM    8  C14 UNL     1      -4.943 -40.418  19.805  1.00  0.00     0.123 C 
BRANCH   8   9
HETATM    9  C15 UNL     1      -3.529 -40.805  19.687  1.00  0.00     0.036 C 
BRANCH   9  10
HETATM   10  C16 UNL     1      -2.528 -40.134  20.561  1.00  0.00    -0.049 C 
HETATM   11  C17 UNL     1      -1.922 -40.977  21.644  1.00  0.00     0.014 C 
HETATM   12  C18 UNL     1      -3.065 -38.884  21.229  1.00  0.00     0.014 C 
HETATM   13  C19 UNL     1      -1.370 -39.632  19.684  1.00  0.00     0.014 C 
ENDBRANCH   9  10
ENDBRANCH   8   9
BRANCH   8  14
HETATM   14  N3  UNL     1      -5.902 -41.420  20.157  1.00  0.00    -0.348 N 
HETATM   15  C20 UNL     1      -6.226 -41.825  21.472  1.00  0.00     0.270 C 
HETATM   16  O3  UNL     1      -5.682 -41.328  22.485  1.00  0.00    -0.266 OA
ATOM     17  H3  UNL     1      -6.394 -41.883  19.392  1.00  0.00     0.163 HD
BRANCH  15  18
HETATM   18  C21 UNL     1      -7.233 -42.866  21.740  1.00  0.00     0.124 A 
HETATM   19  C22 UNL     1      -6.983 -44.228  21.899  1.00  0.00     0.071 A 
HETATM   20  C23 UNL     1      -8.203 -44.814  22.132  1.00  0.00     0.075 A 
HETATM   21  C24 UNL     1      -8.498 -46.273  22.371  1.00  0.00     0.079 C 
HETATM   22  O4  UNL     1      -9.085 -43.862  22.109  1.00  0.00    -0.242 OA
HETATM   23  N4  UNL     1      -8.552 -42.722  21.883  1.00  0.00    -0.256 N 
ATOM     24  H4  UNL     1      -9.057 -41.838  21.822  1.00  0.00     0.195 HD
ENDBRANCH  15  18
ENDBRANCH   8  14
ENDBRANCH   5   8
ENDBRANCH   3   5
BRANCH   1  25
HETATM   25  C11 UNL     1      -3.167 -39.291  15.637  1.00  0.00     0.166 C 
BRANCH  25  26
HETATM   26  C10 UNL     1      -1.869 -39.990  15.667  1.00  0.00     0.077 C 
BRANCH  26  27
HETATM   27  N1  UNL     1      -1.771 -41.195  14.980  1.00  0.00    -0.392 N 
HETATM   28  C9  UNL     1      -2.829 -41.707  14.223  1.00  0.00     0.124 C 
HETATM   29  C8  UNL     1      -2.957 -43.244  14.251  1.00  0.00     0.051 C 
HETATM   30  C7  UNL     1      -1.590 -43.845  14.302  1.00  0.00     0.042 C 
HETATM   31  C5  UNL     1      -1.209 -44.457  15.619  1.00  0.00     0.012 C 
HETATM   32  C26 UNL     1      -0.536 -42.917  13.796  1.00  0.00     0.051 C 
HETATM   33  N5  UNL     1      -1.630 -45.092  13.482  1.00  0.00    -0.338 N 
HETATM   34  C4  UNL     1      -1.683 -45.901  15.608  1.00  0.00     0.032 C 
HETATM   35  C6  UNL     1      -1.667 -43.775  16.850  1.00  0.00     0.012 C 
HETATM   36  C3  UNL     1      -2.477 -45.931  14.286  1.00  0.00     0.088 C 
HETATM   37  C25 UNL     1      -0.454 -41.676  14.690  1.00  0.00     0.124 C 
HETATM   38  C27 UNL     1      -0.977 -45.347  12.270  1.00  0.00     0.216 C 
HETATM   39  C28 UNL     1      -1.010 -46.607  11.512  1.00  0.00     0.117 C 
HETATM   40  O5  UNL     1      -0.265 -44.415  11.732  1.00  0.00    -0.274 OA
BRANCH  36  41
HETATM   41  C2  UNL     1      -2.739 -47.313  13.844  1.00  0.00     0.021 C 
HETATM   42  C1  UNL     1      -1.779 -48.237  14.653  1.00  0.00     0.007 C 
ENDBRANCH  36  41
ENDBRANCH  26  27
ENDBRANCH  25  26
ENDBRANCH   1  25
TORSDOF 11
ENDMDL
MODEL 2
REMARK VINA RESULT: -8.173078242      3.364      4.654
REMARK  11 active torsions:
REMARK  status: ('A' for Active; 'I' for Inactive)
REMARK    1  A    between atoms: C2_2  and  C3_3 
REMARK    2  A    between atoms: N1_10  and  C10_11 
REMARK    3  A    between atoms: C10_11  and  C11_12 
REMARK    4  A    between atoms: C11_12  and  N2_13 
REMARK       I    between atoms: N2_13  and  C12_15 
REMARK    5  A    between atoms: C12_15  and  C13_17 
REMARK    6  A    between atoms: C13_17  and  O2_18 
REMARK    7  A    between atoms: C13_17  and  C14_20 
REMARK    8  A    between atoms: C14_20  and  C15_21 
REMARK    9  A    between atoms: C14_20  and  N3_26 
REMARK   10  A    between atoms: C15_21  and  C16_22 
REMARK       I    between atoms: N3_26  and  C20_28 
REMARK   11  A    between atoms: C20_28  and  C21_30 
REMARK       I    between atoms: N5_39  and  C27_40 
ROOT
HETATM    1  N2  UNL     1      -2.360 -41.164  15.036  1.00  0.00    -0.354 N 
ATOM      2  H2  UNL     1      -1.438 -40.728  15.044  1.00  0.00     0.162 HD
HETATM    3  C12 UNL     1      -3.535 -40.449  15.463  1.00  0.00     0.248 C 
HETATM    4  O1  UNL     1      -4.614 -41.051  15.426  1.00  0.00    -0.271 OA
ENDROOT
BRANCH   3   5
HETATM    5  C13 UNL     1      -3.412 -39.075  15.909  1.00  0.00     0.232 C 
BRANCH   5   6
HETATM    6  O2  UNL     1      -2.679 -38.288  15.010  1.00  0.00    -0.384 OA
ATOM      7  H2  UNL     1      -3.226 -37.910  14.331  1.00  0.00     0.210 HD
ENDBRANCH   5   6
BRANCH   5   8
HETATM    8  C14 UNL     1      -2.952 -38.833  17.332  1.00  0.00     0.123 C 
BRANCH   8   9
HETATM    9  C15 UNL     1      -1.498 -38.658  17.470  1.00  0.00     0.036 C 
BRANCH   9  10
HETATM   10  C16 UNL     1      -0.986 -37.482  18.226  1.00  0.00    -0.049 C 
HETATM   11  C17 UNL     1      -0.731 -37.694  19.689  1.00  0.00     0.014 C 
HETATM   12  C18 UNL     1      -1.883 -36.266  18.110  1.00  0.00     0.014 C 
HETATM   13  C19 UNL     1       0.345 -37.038  17.600  1.00  0.00     0.014 C 
ENDBRANCH   9  10
ENDBRANCH   8   9
BRANCH   8  14
HETATM   14  N3  UNL     1      -3.611 -39.786  18.171  1.00  0.00    -0.348 N 
HETATM   15  C20 UNL     1      -4.293 -39.493  19.374  1.00  0.00     0.270 C 
HETATM   16  O3  UNL     1      -4.382 -38.331  19.833  1.00  0.00    -0.266 OA
ATOM     17  H3  UNL     1      -3.587 -40.762  17.875  1.00  0.00     0.163 HD
BRANCH  15  18
HETATM   18  C21 UNL     1      -4.949 -40.542  20.173  1.00  0.00     0.124 A 
HETATM   19  C22 UNL     1      -4.453 -41.112  21.345  1.00  0.00     0.071 A 
HETATM   20  C23 UNL     1      -5.388 -42.036  21.744  1.00  0.00     0.075 A 
HETATM   21  C24 UNL     1      -5.342 -42.934  22.953  1.00  0.00     0.079 C 
HETATM   22  O4  UNL     1      -6.345 -42.000  20.869  1.00  0.00    -0.242 OA
HETATM   23  N4  UNL     1      -6.118 -41.143  19.946  1.00  0.00    -0.256 N 
ATOM     24  H4  UNL     1      -6.736 -40.950  19.158  1.00  0.00     0.195 HD
ENDBRANCH  15  18
ENDBRANCH   8  14
ENDBRANCH   5   8
ENDBRANCH   3   5
BRANCH   1  25
HETATM   25  C11 UNL     1      -2.547 -42.514  14.601  1.00  0.00     0.166 C 
BRANCH  25  26
HETATM   26  C10 UNL     1      -1.464 -43.078  13.774  1.00  0.00     0.077 C 
BRANCH  26  27
HETATM   27  N1  UNL     1      -0.325 -43.533  14.429  1.00  0.00    -0.392 N 
HETATM   28  C9  UNL     1       0.825 -42.749  14.554  1.00  0.00     0.124 C 
HETATM   29  C8  UNL     1       2.151 -43.532  14.481  1.00  0.00     0.051 C 
HETATM   30  C7  UNL     1       1.966 -44.864  15.131  1.00  0.00     0.042 C 
HETATM   31  C5  UNL     1       1.923 -46.035  14.192  1.00  0.00     0.012 C 
HETATM   32  C26 UNL     1       0.823 -44.880  16.091  1.00  0.00     0.051 C 
HETATM   33  N5  UNL     1       3.243 -45.190  15.831  1.00  0.00    -0.338 N 
HETATM   34  C4  UNL     1       3.352 -46.503  13.976  1.00  0.00     0.032 C 
HETATM   35  C6  UNL     1       1.242 -45.845  12.891  1.00  0.00     0.012 C 
HETATM   36  C3  UNL     1       4.130 -45.397  14.718  1.00  0.00     0.088 C 
HETATM   37  C25 UNL     1      -0.492 -44.619  15.348  1.00  0.00     0.124 C 
HETATM   38  C27 UNL     1       3.470 -45.287  17.210  1.00  0.00     0.216 C 
HETATM   39  C28 UNL     1       4.737 -45.651  17.860  1.00  0.00     0.117 C 
HETATM   40  O5  UNL     1       2.499 -45.044  18.024  1.00  0.00    -0.274 OA
BRANCH  36  41
HETATM   41  C2  UNL     1       5.524 -45.800  14.982  1.00  0.00     0.021 C 
HETATM   42  C1  UNL     1       5.634 -47.312  14.620  1.00  0.00     0.007 C 
ENDBRANCH  36  41
ENDBRANCH  26  27
ENDBRANCH  25  26
ENDBRANCH   1  25
TORSDOF 11
ENDMDL
MODEL 3
REMARK VINA RESULT: -8.121187211      2.937      8.672
REMARK  11 active torsions:
REMARK  status: ('A' for Active; 'I' for Inactive)
REMARK    1  A    between atoms: C2_2  and  C3_3 
REMARK    2  A    between atoms: N1_10  and  C10_11 
REMARK    3  A    between atoms: C10_11  and  C11_12 
REMARK    4  A    between atoms: C11_12  and  N2_13 
REMARK       I    between atoms: N2_13  and  C12_15 
REMARK    5  A    between atoms: C12_15  and  C13_17 
REMARK    6  A    between atoms: C13_17  and  O2_18 
REMARK    7  A    between atoms: C13_17  and  C14_20 
REMARK    8  A    between atoms: C14_20  and  C15_21 
REMARK    9  A    between atoms: C14_20  and  N3_26 
REMARK   10  A    between atoms: C15_21  and  C16_22 
REMARK       I    between atoms: N3_26  and  C20_28 
REMARK   11  A    between atoms: C20_28  and  C21_30 
REMARK       I    between atoms: N5_39  and  C27_40 
ROOT
HETATM    1  N2  UNL     1      -0.978 -45.788  17.537  1.00  0.00    -0.354 N 
ATOM      2  H2  UNL     1      -0.053 -46.164  17.331  1.00  0.00     0.162 HD
HETATM    3  C12 UNL     1      -2.035 -45.804  16.558  1.00  0.00     0.248 C 
HETATM    4  O1  UNL     1      -3.125 -45.325  16.887  1.00  0.00    -0.271 OA
ENDROOT
BRANCH   3   5
HETATM    5  C13 UNL     1      -1.785 -46.372  15.248  1.00  0.00     0.232 C 
BRANCH   5   6
HETATM    6  O2  UNL     1      -1.056 -47.568  15.317  1.00  0.00    -0.384 OA
ATOM      7  H2  UNL     1      -1.222 -48.135  14.573  1.00  0.00     0.210 HD
ENDBRANCH   5   6
BRANCH   5   8
HETATM    8  C14 UNL     1      -1.218 -45.460  14.179  1.00  0.00     0.123 C 
BRANCH   8   9
HETATM    9  C15 UNL     1       0.238 -45.572  14.006  1.00  0.00     0.036 C 
BRANCH   9  10
HETATM   10  C16 UNL     1       0.812 -45.423  12.640  1.00  0.00    -0.049 C 
HETATM   11  C17 UNL     1       2.040 -46.233  12.346  1.00  0.00     0.014 C 
HETATM   12  C18 UNL     1       1.140 -43.986  12.288  1.00  0.00     0.014 C 
HETATM   13  C19 UNL     1      -0.253 -45.837  11.613  1.00  0.00     0.014 C 
ENDBRANCH   9  10
ENDBRANCH   8   9
BRANCH   8  14
HETATM   14  N3  UNL     1      -1.790 -44.162  14.365  1.00  0.00    -0.348 N 
HETATM   15  C20 UNL     1      -2.969 -43.684  13.750  1.00  0.00     0.270 C 
HETATM   16  O3  UNL     1      -3.643 -44.378  12.953  1.00  0.00    -0.266 OA
ATOM     17  H3  UNL     1      -1.303 -43.526  14.998  1.00  0.00     0.163 HD
BRANCH  15  18
HETATM   18  C21 UNL     1      -3.487 -42.330  14.006  1.00  0.00     0.124 A 
HETATM   19  C22 UNL     1      -2.797 -41.291  14.631  1.00  0.00     0.071 A 
HETATM   20  C23 UNL     1      -3.658 -40.222  14.653  1.00  0.00     0.075 A 
HETATM   21  C24 UNL     1      -3.410 -38.847  15.219  1.00  0.00     0.079 C 
HETATM   22  O4  UNL     1      -4.757 -40.615  14.085  1.00  0.00    -0.242 OA
HETATM   23  N4  UNL     1      -4.687 -41.833  13.700  1.00  0.00    -0.256 N 
ATOM     24  H4  UNL     1      -5.434 -42.345  13.232  1.00  0.00     0.195 HD
ENDBRANCH  15  18
ENDBRANCH   8  14
ENDBRANCH   5   8
ENDBRANCH   3   5
BRANCH   1  25
HETATM   25  C11 UNL     1      -1.288 -45.219  18.813  1.00  0.00     0.166 C 
BRANCH  25  26
HETATM   26  C10 UNL     1      -0.838 -43.831  19.023  1.00  0.00     0.077 C 
BRANCH  26  27
HETATM   27  N1  UNL     1      -1.773 -42.817  18.849  1.00  0.00    -0.392 N 
HETATM   28  C9  UNL     1      -1.666 -41.876  17.821  1.00  0.00     0.124 C 
HETATM   29  C8  UNL     1      -2.145 -40.457  18.194  1.00  0.00     0.051 C 
HETATM   30  C7  UNL     1      -3.312 -40.565  19.119  1.00  0.00     0.042 C 
HETATM   31  C5  UNL     1      -3.035 -40.192  20.547  1.00  0.00     0.012 C 
HETATM   32  C26 UNL     1      -4.007 -41.882  19.015  1.00  0.00     0.051 C 
HETATM   33  N5  UNL     1      -4.245 -39.451  18.777  1.00  0.00    -0.338 N 
HETATM   34  C4  UNL     1      -3.254 -38.695  20.681  1.00  0.00     0.032 C 
HETATM   35  C6  UNL     1      -1.720 -40.571  21.111  1.00  0.00     0.012 C 
HETATM   36  C3  UNL     1      -3.486 -38.307  19.206  1.00  0.00     0.088 C 
HETATM   37  C25 UNL     1      -3.063 -43.011  19.441  1.00  0.00     0.124 C 
HETATM   38  C27 UNL     1      -5.525 -39.541  18.215  1.00  0.00     0.216 C 
HETATM   39  C28 UNL     1      -6.430 -38.418  17.930  1.00  0.00     0.117 C 
HETATM   40  O5  UNL     1      -5.994 -40.702  17.904  1.00  0.00    -0.274 OA
BRANCH  36  41
HETATM   41  C2  UNL     1      -4.089 -36.966  19.087  1.00  0.00     0.021 C 
HETATM   42  C1  UNL     1      -3.313 -36.219  17.960  1.00  0.00     0.007 C 
ENDBRANCH  36  41
ENDBRANCH  26  27
ENDBRANCH  25  26
ENDBRANCH   1  25
TORSDOF 11
ENDMDL
MODEL 4
REMARK VINA RESULT: -8.059105383      4.994      8.847
REMARK  11 active torsions:
REMARK  status: ('A' for Active; 'I' for Inactive)
REMARK    1  A    between atoms: C2_2  and  C3_3 
REMARK    2  A    between atoms: N1_10  and  C10_11 
REMARK    3  A    between atoms: C10_11  and  C11_12 
REMARK    4  A    between atoms: C11_12  and  N2_13 
REMARK       I    between atoms: N2_13  and  C12_15 
REMARK    5  A    between atoms: C12_15  and  C13_17 
REMARK    6  A    between atoms: C13_17  and  O2_18 
REMARK    7  A    between atoms: C13_17  and  C14_20 
REMARK    8  A    between atoms: C14_20  and  C15_21 
REMARK    9  A    between atoms: C14_20  and  N3_26 
REMARK   10  A    between atoms: C15_21  and  C16_22 
REMARK       I    between atoms: N3_26  and  C20_28 
REMARK   11  A    between atoms: C20_28  and  C21_30 
REMARK       I    between atoms: N5_39  and  C27_40 
ROOT
HETATM    1  N2  UNL     1       0.602 -43.838  15.922  1.00  0.00    -0.354 N 
ATOM      2  H2  UNL     1       0.506 -42.949  15.432  1.00  0.00     0.162 HD
HETATM    3  C12 UNL     1      -0.549 -44.596  16.341  1.00  0.00     0.248 C 
HETATM    4  O1  UNL     1      -0.345 -45.661  16.933  1.00  0.00    -0.271 OA
ENDROOT
BRANCH   3   5
HETATM    5  C13 UNL     1      -1.878 -44.093  16.054  1.00  0.00     0.232 C 
BRANCH   5   6
HETATM    6  O2  UNL     1      -2.873 -45.050  16.296  1.00  0.00    -0.384 OA
ATOM      7  H2  UNL     1      -2.625 -45.664  16.977  1.00  0.00     0.210 HD
ENDBRANCH   5   6
BRANCH   5   8
HETATM    8  C14 UNL     1      -2.103 -43.412  14.719  1.00  0.00     0.123 C 
BRANCH   8   9
HETATM    9  C15 UNL     1      -3.202 -42.436  14.721  1.00  0.00     0.036 C 
BRANCH   9  10
HETATM   10  C16 UNL     1      -2.906 -41.023  15.086  1.00  0.00    -0.049 C 
HETATM   11  C17 UNL     1      -3.364 -39.978  14.111  1.00  0.00     0.014 C 
HETATM   12  C18 UNL     1      -1.434 -40.772  15.338  1.00  0.00     0.014 C 
HETATM   13  C19 UNL     1      -3.585 -40.711  16.428  1.00  0.00     0.014 C 
ENDBRANCH   9  10
ENDBRANCH   8   9
BRANCH   8  14
HETATM   14  N3  UNL     1      -2.083 -44.423  13.706  1.00  0.00    -0.348 N 
HETATM   15  C20 UNL     1      -1.007 -44.692  12.830  1.00  0.00     0.270 C 
HETATM   16  O3  UNL     1       0.066 -44.045  12.860  1.00  0.00    -0.266 OA
ATOM     17  H3  UNL     1      -2.919 -44.999  13.607  1.00  0.00     0.163 HD
BRANCH  15  18
HETATM   18  C21 UNL     1      -1.075 -45.759  11.818  1.00  0.00     0.124 A 
HETATM   19  C22 UNL     1      -0.199 -46.838  11.702  1.00  0.00     0.071 A 
HETATM   20  C23 UNL     1      -0.640 -47.572  10.628  1.00  0.00     0.075 A 
HETATM   21  C24 UNL     1      -0.048 -48.841  10.071  1.00  0.00     0.079 C 
HETATM   22  O4  UNL     1      -1.687 -46.962  10.164  1.00  0.00    -0.242 OA
HETATM   23  N4  UNL     1      -1.963 -45.908  10.833  1.00  0.00    -0.256 N 
ATOM     24  H4  UNL     1      -2.742 -45.277  10.643  1.00  0.00     0.195 HD
ENDBRANCH  15  18
ENDBRANCH   8  14
ENDBRANCH   5   8
ENDBRANCH   3   5
BRANCH   1  25
HETATM   25  C11 UNL     1       1.886 -44.390  16.228  1.00  0.00     0.166 C 
BRANCH  25  26
HETATM   26  C10 UNL     1       2.894 -44.301  15.156  1.00  0.00     0.077 C 
BRANCH  26  27
HETATM   27  N1  UNL     1       3.723 -45.400  14.960  1.00  0.00    -0.392 N 
HETATM   28  C9  UNL     1       3.824 -46.044  13.723  1.00  0.00     0.124 C 
HETATM   29  C8  UNL     1       4.012 -47.573  13.805  1.00  0.00     0.051 C 
HETATM   30  C7  UNL     1       4.858 -47.895  14.993  1.00  0.00     0.042 C 
HETATM   31  C5  UNL     1       4.131 -48.530  16.144  1.00  0.00     0.012 C 
HETATM   32  C26 UNL     1       5.692 -46.739  15.435  1.00  0.00     0.051 C 
HETATM   33  N5  UNL     1       5.723 -49.051  14.614  1.00  0.00    -0.338 N 
HETATM   34  C4  UNL     1       4.136 -50.032  15.916  1.00  0.00     0.032 C 
HETATM   35  C6  UNL     1       2.757 -48.059  16.430  1.00  0.00     0.012 C 
HETATM   36  C3  UNL     1       4.751 -50.105  14.503  1.00  0.00     0.088 C 
HETATM   37  C25 UNL     1       4.793 -45.586  15.894  1.00  0.00     0.124 C 
HETATM   38  C27 UNL     1       7.113 -49.068  14.447  1.00  0.00     0.216 C 
HETATM   39  C28 UNL     1       7.934 -50.240  14.111  1.00  0.00     0.117 C 
HETATM   40  O5  UNL     1       7.777 -47.972  14.597  1.00  0.00    -0.274 OA
BRANCH  36  41
HETATM   41  C2  UNL     1       5.212 -51.470  14.183  1.00  0.00     0.021 C 
HETATM   42  C1  UNL     1       3.945 -52.302  13.820  1.00  0.00     0.007 C 
ENDBRANCH  36  41
ENDBRANCH  26  27
ENDBRANCH  25  26
ENDBRANCH   1  25
TORSDOF 11
ENDMDL
MODEL 5
REMARK VINA RESULT: -8.053597859      2.862      4.173
REMARK  11 active torsions:
REMARK  status: ('A' for Active; 'I' for Inactive)
REMARK    1  A    between atoms: C2_2  and  C3_3 
REMARK    2  A    between atoms: N1_10  and  C10_11 
REMARK    3  A    between atoms: C10_11  and  C11_12 
REMARK    4  A    between atoms: C11_12  and  N2_13 
REMARK       I    between atoms: N2_13  and  C12_15 
REMARK    5  A    between atoms: C12_15  and  C13_17 
REMARK    6  A    between atoms: C13_17  and  O2_18 
REMARK    7  A    between atoms: C13_17  and  C14_20 
REMARK    8  A    between atoms: C14_20  and  C15_21 
REMARK    9  A    between atoms: C14_20  and  N3_26 
REMARK   10  A    between atoms: C15_21  and  C16_22 
REMARK       I    between atoms: N3_26  and  C20_28 
REMARK   11  A    between atoms: C20_28  and  C21_30 
REMARK       I    between atoms: N5_39  and  C27_40 
ROOT
HETATM    1  N2  UNL     1      -2.603 -41.266  14.733  1.00  0.00    -0.354 N 
ATOM      2  H2  UNL     1      -1.651 -40.901  14.740  1.00  0.00     0.162 HD
HETATM    3  C12 UNL     1      -3.705 -40.509  15.271  1.00  0.00     0.248 C 
HETATM    4  O1  UNL     1      -4.826 -41.025  15.228  1.00  0.00    -0.271 OA
ENDROOT
BRANCH   3   5
HETATM    5  C13 UNL     1      -3.461 -39.193  15.831  1.00  0.00     0.232 C 
BRANCH   5   6
HETATM    6  O2  UNL     1      -2.633 -38.412  15.012  1.00  0.00    -0.384 OA
ATOM      7  H2  UNL     1      -1.932 -38.920  14.619  1.00  0.00     0.210 HD
ENDBRANCH   5   6
BRANCH   5   8
HETATM    8  C14 UNL     1      -3.014 -39.113  17.276  1.00  0.00     0.123 C 
BRANCH   8   9
HETATM    9  C15 UNL     1      -1.571 -38.888  17.446  1.00  0.00     0.036 C 
BRANCH   9  10
HETATM   10  C16 UNL     1      -1.115 -37.657  18.149  1.00  0.00    -0.049 C 
HETATM   11  C17 UNL     1      -2.063 -36.494  18.130  1.00  0.00     0.014 C 
HETATM   12  C18 UNL     1       0.217 -37.143  17.642  1.00  0.00     0.014 C 
HETATM   13  C19 UNL     1      -0.858 -38.000  19.624  1.00  0.00     0.014 C 
ENDBRANCH   9  10
ENDBRANCH   8   9
BRANCH   8  14
HETATM   14  N3  UNL     1      -3.628 -40.196  17.983  1.00  0.00    -0.348 N 
HETATM   15  C20 UNL     1      -4.399 -40.079  19.162  1.00  0.00     0.270 C 
HETATM   16  O3  UNL     1      -4.620 -38.978  19.717  1.00  0.00    -0.266 OA
ATOM     17  H3  UNL     1      -3.497 -41.133  17.603  1.00  0.00     0.163 HD
BRANCH  15  18
HETATM   18  C21 UNL     1      -4.998 -41.252  19.820  1.00  0.00     0.124 A 
HETATM   19  C22 UNL     1      -4.408 -42.509  19.953  1.00  0.00     0.071 A 
HETATM   20  C23 UNL     1      -5.317 -43.286  20.629  1.00  0.00     0.075 A 
HETATM   21  C24 UNL     1      -5.178 -44.731  21.033  1.00  0.00     0.079 C 
HETATM   22  O4  UNL     1      -6.348 -42.534  20.864  1.00  0.00    -0.242 OA
HETATM   23  N4  UNL     1      -6.192 -41.350  20.407  1.00  0.00    -0.256 N 
ATOM     24  H4  UNL     1      -6.876 -40.597  20.479  1.00  0.00     0.195 HD
ENDBRANCH  15  18
ENDBRANCH   8  14
ENDBRANCH   5   8
ENDBRANCH   3   5
BRANCH   1  25
HETATM   25  C11 UNL     1      -2.909 -42.554  14.189  1.00  0.00     0.166 C 
BRANCH  25  26
HETATM   26  C10 UNL     1      -2.676 -43.700  15.087  1.00  0.00     0.077 C 
BRANCH  26  27
HETATM   27  N1  UNL     1      -1.490 -44.409  14.930  1.00  0.00    -0.392 N 
HETATM   28  C9  UNL     1      -0.919 -45.144  15.973  1.00  0.00     0.124 C 
HETATM   29  C8  UNL     1       0.623 -45.137  15.999  1.00  0.00     0.051 C 
HETATM   30  C7  UNL     1       1.133 -45.133  14.595  1.00  0.00     0.042 C 
HETATM   31  C5  UNL     1       1.737 -43.836  14.136  1.00  0.00     0.012 C 
HETATM   32  C26 UNL     1       0.131 -45.653  13.619  1.00  0.00     0.051 C 
HETATM   33  N5  UNL     1       2.368 -45.970  14.576  1.00  0.00    -0.338 N 
HETATM   34  C4  UNL     1       3.208 -43.856  14.515  1.00  0.00     0.032 C 
HETATM   35  C6  UNL     1       1.103 -42.582  14.604  1.00  0.00     0.012 C 
HETATM   36  C3  UNL     1       3.272 -45.156  15.343  1.00  0.00     0.088 C 
HETATM   37  C25 UNL     1      -1.101 -44.742  13.592  1.00  0.00     0.124 C 
HETATM   38  C27 UNL     1       2.563 -47.203  13.942  1.00  0.00     0.216 C 
HETATM   39  C28 UNL     1       3.812 -47.979  13.914  1.00  0.00     0.117 C 
HETATM   40  O5  UNL     1       1.579 -47.746  13.308  1.00  0.00    -0.274 OA
BRANCH  36  41
HETATM   41  C2  UNL     1       4.663 -45.613  15.526  1.00  0.00     0.021 C 
HETATM   42  C1  UNL     1       4.914 -45.693  17.063  1.00  0.00     0.007 C 
ENDBRANCH  36  41
ENDBRANCH  26  27
ENDBRANCH  25  26
ENDBRANCH   1  25
TORSDOF 11
ENDMDL
