MODEL 1
REMARK VINA RESULT: -6.984531503      0.000      0.000
REMARK  17 active torsions:
REMARK  status: ('A' for Active; 'I' for Inactive)
REMARK    1  A    between atoms: C2_2  and  C3_3 
REMARK    2  A    between atoms: C3_3  and  C4_4 
REMARK    3  A    between atoms: C4_4  and  C5_5 
REMARK    4  A    between atoms: C5_5  and  C6_6 
REMARK    5  A    between atoms: C6_6  and  N1_7 
REMARK    6  A    between atoms: N1_7  and  C7_8 
REMARK    7  A    between atoms: N1_7  and  C26_38 
REMARK    8  A    between atoms: C7_8  and  O1_9 
REMARK    9  A    between atoms: C7_8  and  C8_11 
REMARK   10  A    between atoms: N2_13  and  C10_14 
REMARK   11  A    between atoms: C10_14  and  C11_15 
REMARK   12  A    between atoms: C17_21  and  O2_22 
REMARK   13  A    between atoms: C18_24  and  N3_25 
REMARK       I    between atoms: N3_25  and  C19_27 
REMARK   14  A    between atoms: C19_27  and  O4_29 
REMARK   15  A    between atoms: O4_29  and  C20_30 
REMARK   16  A    between atoms: C25_35  and  O5_36 
REMARK   17  A    between atoms: C26_38  and  C28_40 
ROOT
HETATM    1  C8  UNL     1       0.098 -44.633  14.122  1.00  0.00     0.117 C 
HETATM    2  C9  UNL     1      -0.410 -43.772  15.224  1.00  0.00     0.297 C 
HETATM    3  N2  UNL     1       0.248 -42.479  15.182  1.00  0.00     0.098 N 
HETATM    4  C14 UNL     1       1.327 -42.635  14.268  1.00  0.00     0.258 C 
HETATM    5  C15 UNL     1       2.479 -43.291  15.037  1.00  0.00     0.042 C 
HETATM    6  C16 UNL     1       2.191 -44.700  15.414  1.00  0.00     0.043 C 
HETATM    7  C17 UNL     1       1.312 -45.463  14.483  1.00  0.00     0.098 C 
HETATM    8  C18 UNL     1       2.037 -45.637  13.158  1.00  0.00     0.125 C 
HETATM    9  C24 UNL     1       1.819 -44.316  12.477  1.00  0.00     0.070 C 
HETATM   10  C25 UNL     1       0.786 -43.574  13.247  1.00  0.00     0.110 C 
ENDROOT
BRANCH   1  11
HETATM   11  C7  UNL     1      -0.887 -45.323  13.308  1.00  0.00     0.131 C 
BRANCH  11  12
HETATM   12  N1  UNL     1      -0.878 -46.530  12.623  1.00  0.00    -0.353 N 
BRANCH  12  13
HETATM   13  C6  UNL     1      -1.044 -47.790  13.401  1.00  0.00     0.125 C 
BRANCH  13  14
HETATM   14  C5  UNL     1      -2.316 -47.794  14.155  1.00  0.00     0.020 C 
BRANCH  14  15
HETATM   15  C4  UNL     1      -2.303 -47.431  15.589  1.00  0.00     0.002 C 
BRANCH  15  16
HETATM   16  C3  UNL     1      -3.011 -46.285  16.137  1.00  0.00    -0.000 C 
BRANCH  16  17
HETATM   17  C2  UNL     1      -2.648 -45.704  17.453  1.00  0.00    -0.005 C 
HETATM   18  C1  UNL     1      -1.304 -46.221  17.963  1.00  0.00     0.005 C 
ENDBRANCH  16  17
ENDBRANCH  15  16
ENDBRANCH  14  15
ENDBRANCH  13  14
ENDBRANCH  12  13
BRANCH  12  19
HETATM   19  C26 UNL     1      -0.696 -46.639  11.225  1.00  0.00     0.151 C 
HETATM   20  C27 UNL     1      -1.948 -46.702  10.387  1.00  0.00     0.040 C 
BRANCH  19  21
HETATM   21  C28 UNL     1       0.239 -47.770  10.860  1.00  0.00     0.145 C 
HETATM   22  C29 UNL     1      -0.167 -48.939  10.041  1.00  0.00     0.093 C 
HETATM   23  O6  UNL     1       1.396 -47.758  11.241  1.00  0.00    -0.296 OA
ENDBRANCH  19  21
ENDBRANCH  12  19
ENDBRANCH  11  12
BRANCH  11  24
HETATM   24  O1  UNL     1      -2.020 -44.685  13.186  1.00  0.00    -0.349 OA
ATOM     25  H1  UNL     1      -1.984 -43.805  13.541  1.00  0.00     0.219 HD
ENDBRANCH  11  24
ENDBRANCH   1  11
BRANCH   7  26
HETATM   26  O2  UNL     1       1.014 -46.685  15.059  1.00  0.00    -0.386 OA
ATOM     27  H2  UNL     1       1.436 -47.427  14.642  1.00  0.00     0.210 HD
ENDBRANCH   7  26
BRANCH  10  28
HETATM   28  O5  UNL     1      -0.098 -42.923  12.403  1.00  0.00    -0.386 OA
ATOM     29  H5  UNL     1      -0.021 -41.977  12.451  1.00  0.00     0.210 HD
ENDBRANCH  10  28
BRANCH   3  30
HETATM   30  C10 UNL     1      -0.646 -41.401  14.967  1.00  0.00     0.277 C 
BRANCH  30  31
HETATM   31  C11 UNL     1      -2.066 -41.814  15.171  1.00  0.00     0.014 A 
HETATM   32  C12 UNL     1      -3.068 -40.761  15.533  1.00  0.00     0.007 A 
HETATM   33  C13 UNL     1      -3.048 -41.321  14.142  1.00  0.00     0.007 A 
ENDBRANCH  30  31
ENDBRANCH   3  30
BRANCH   8  34
HETATM   34  N3  UNL     1       3.425 -45.997  13.308  1.00  0.00    -0.329 N 
HETATM   35  C19 UNL     1       3.816 -47.317  13.644  1.00  0.00     0.361 C 
HETATM   36  O3  UNL     1       2.949 -48.228  13.826  1.00  0.00    -0.238 OA
ATOM     37  H3  UNL     1       4.143 -45.285  13.169  1.00  0.00     0.165 HD
BRANCH  35  38
HETATM   38  O4  UNL     1       5.136 -47.720  13.801  1.00  0.00    -0.294 OA
BRANCH  38  39
HETATM   39  C20 UNL     1       5.873 -47.401  14.980  1.00  0.00     0.061 C 
HETATM   40  C21 UNL     1       7.316 -47.762  14.721  1.00  0.00     0.046 C 
HETATM   41  C22 UNL     1       5.397 -48.229  16.156  1.00  0.00     0.046 C 
HETATM   42  C23 UNL     1       5.770 -45.943  15.324  1.00  0.00     0.046 C 
ENDBRANCH  38  39
ENDBRANCH  35  38
ENDBRANCH   8  34
TORSDOF 17
ENDMDL
MODEL 2
REMARK VINA RESULT: -6.905966827      2.006      2.928
REMARK  17 active torsions:
REMARK  status: ('A' for Active; 'I' for Inactive)
REMARK    1  A    between atoms: C2_2  and  C3_3 
REMARK    2  A    between atoms: C3_3  and  C4_4 
REMARK    3  A    between atoms: C4_4  and  C5_5 
REMARK    4  A    between atoms: C5_5  and  C6_6 
REMARK    5  A    between atoms: C6_6  and  N1_7 
REMARK    6  A    between atoms: N1_7  and  C7_8 
REMARK    7  A    between atoms: N1_7  and  C26_38 
REMARK    8  A    between atoms: C7_8  and  O1_9 
REMARK    9  A    between atoms: C7_8  and  C8_11 
REMARK   10  A    between atoms: N2_13  and  C10_14 
REMARK   11  A    between atoms: C10_14  and  C11_15 
REMARK   12  A    between atoms: C17_21  and  O2_22 
REMARK   13  A    between atoms: C18_24  and  N3_25 
REMARK       I    between atoms: N3_25  and  C19_27 
REMARK   14  A    between atoms: C19_27  and  O4_29 
REMARK   15  A    between atoms: O4_29  and  C20_30 
REMARK   16  A    between atoms: C25_35  and  O5_36 
REMARK   17  A    between atoms: C26_38  and  C28_40 
ROOT
HETATM    1  C8  UNL     1       1.976 -46.318  14.711  1.00  0.00     0.117 C 
HETATM    2  C9  UNL     1       1.063 -45.282  15.263  1.00  0.00     0.297 C 
HETATM    3  N2  UNL     1       1.746 -44.004  15.320  1.00  0.00     0.098 N 
HETATM    4  C14 UNL     1       3.117 -44.298  15.083  1.00  0.00     0.258 C 
HETATM    5  C15 UNL     1       3.715 -44.772  16.413  1.00  0.00     0.042 C 
HETATM    6  C16 UNL     1       3.186 -46.094  16.842  1.00  0.00     0.043 C 
HETATM    7  C17 UNL     1       2.810 -47.038  15.751  1.00  0.00     0.098 C 
HETATM    8  C18 UNL     1       4.067 -47.435  14.992  1.00  0.00     0.125 C 
HETATM    9  C24 UNL     1       4.291 -46.267  14.073  1.00  0.00     0.070 C 
HETATM   10  C25 UNL     1       3.069 -45.423  14.108  1.00  0.00     0.110 C 
ENDROOT
BRANCH   1  11
HETATM   11  C7  UNL     1       1.456 -47.171  13.656  1.00  0.00     0.131 C 
BRANCH  11  12
HETATM   12  N1  UNL     1       0.260 -47.190  12.952  1.00  0.00    -0.353 N 
BRANCH  12  13
HETATM   13  C6  UNL     1      -0.865 -48.009  13.482  1.00  0.00     0.125 C 
BRANCH  13  14
HETATM   14  C5  UNL     1      -1.145 -47.686  14.898  1.00  0.00     0.020 C 
BRANCH  14  15
HETATM   15  C4  UNL     1      -2.340 -46.881  15.229  1.00  0.00     0.002 C 
BRANCH  15  16
HETATM   16  C3  UNL     1      -3.606 -46.988  14.522  1.00  0.00    -0.000 C 
BRANCH  16  17
HETATM   17  C2  UNL     1      -3.953 -46.074  13.406  1.00  0.00    -0.005 C 
HETATM   18  C1  UNL     1      -3.466 -44.648  13.653  1.00  0.00     0.005 C 
ENDBRANCH  16  17
ENDBRANCH  15  16
ENDBRANCH  14  15
ENDBRANCH  13  14
ENDBRANCH  12  13
BRANCH  12  19
HETATM   19  C26 UNL     1       0.051 -46.492  11.740  1.00  0.00     0.151 C 
HETATM   20  C27 UNL     1      -0.625 -45.148  11.845  1.00  0.00     0.040 C 
BRANCH  19  21
HETATM   21  C28 UNL     1      -0.640 -47.348  10.702  1.00  0.00     0.145 C 
HETATM   22  C29 UNL     1      -0.111 -48.650  10.228  1.00  0.00     0.093 C 
HETATM   23  O6  UNL     1      -1.690 -46.980  10.204  1.00  0.00    -0.296 OA
ENDBRANCH  19  21
ENDBRANCH  12  19
ENDBRANCH  11  12
BRANCH  11  24
HETATM   24  O1  UNL     1       2.272 -48.121  13.287  1.00  0.00    -0.349 OA
ATOM     25  H1  UNL     1       2.899 -48.348  13.963  1.00  0.00     0.219 HD
ENDBRANCH  11  24
ENDBRANCH   1  11
BRANCH   7  26
HETATM   26  O2  UNL     1       2.191 -48.139  16.313  1.00  0.00    -0.386 OA
ATOM     27  H2  UNL     1       2.381 -48.960  15.874  1.00  0.00     0.210 HD
ENDBRANCH   7  26
BRANCH  10  28
HETATM   28  O5  UNL     1       2.742 -44.959  12.844  1.00  0.00    -0.386 OA
ATOM     29  H5  UNL     1       3.000 -44.055  12.708  1.00  0.00     0.210 HD
ENDBRANCH  10  28
BRANCH   3  30
HETATM   30  C10 UNL     1       1.140 -43.005  14.518  1.00  0.00     0.277 C 
BRANCH  30  31
HETATM   31  C11 UNL     1      -0.328 -42.911  14.774  1.00  0.00     0.014 A 
HETATM   32  C12 UNL     1      -0.882 -41.607  15.263  1.00  0.00     0.007 A 
HETATM   33  C13 UNL     1      -1.103 -42.021  13.838  1.00  0.00     0.007 A 
ENDBRANCH  30  31
ENDBRANCH   3  30
BRANCH   8  34
HETATM   34  N3  UNL     1       5.187 -47.727  15.853  1.00  0.00    -0.329 N 
HETATM   35  C19 UNL     1       6.365 -48.335  15.354  1.00  0.00     0.361 C 
HETATM   36  O3  UNL     1       6.471 -48.644  14.126  1.00  0.00    -0.238 OA
ATOM     37  H3  UNL     1       5.129 -47.490  16.843  1.00  0.00     0.165 HD
BRANCH  35  38
HETATM   38  O4  UNL     1       7.473 -48.639  16.135  1.00  0.00    -0.294 OA
BRANCH  38  39
HETATM   39  C20 UNL     1       7.471 -49.756  17.022  1.00  0.00     0.061 C 
HETATM   40  C21 UNL     1       8.906 -50.182  17.214  1.00  0.00     0.046 C 
HETATM   41  C22 UNL     1       6.723 -50.925  16.415  1.00  0.00     0.046 C 
HETATM   42  C23 UNL     1       6.863 -49.412  18.351  1.00  0.00     0.046 C 
ENDBRANCH  38  39
ENDBRANCH  35  38
ENDBRANCH   8  34
TORSDOF 17
ENDMDL
MODEL 3
REMARK VINA RESULT: -6.743050938      2.078      3.102
REMARK  17 active torsions:
REMARK  status: ('A' for Active; 'I' for Inactive)
REMARK    1  A    between atoms: C2_2  and  C3_3 
REMARK    2  A    between atoms: C3_3  and  C4_4 
REMARK    3  A    between atoms: C4_4  and  C5_5 
REMARK    4  A    between atoms: C5_5  and  C6_6 
REMARK    5  A    between atoms: C6_6  and  N1_7 
REMARK    6  A    between atoms: N1_7  and  C7_8 
REMARK    7  A    between atoms: N1_7  and  C26_38 
REMARK    8  A    between atoms: C7_8  and  O1_9 
REMARK    9  A    between atoms: C7_8  and  C8_11 
REMARK   10  A    between atoms: N2_13  and  C10_14 
REMARK   11  A    between atoms: C10_14  and  C11_15 
REMARK   12  A    between atoms: C17_21  and  O2_22 
REMARK   13  A    between atoms: C18_24  and  N3_25 
REMARK       I    between atoms: N3_25  and  C19_27 
REMARK   14  A    between atoms: C19_27  and  O4_29 
REMARK   15  A    between atoms: O4_29  and  C20_30 
REMARK   16  A    between atoms: C25_35  and  O5_36 
REMARK   17  A    between atoms: C26_38  and  C28_40 
ROOT
HETATM    1  C8  UNL     1       1.823 -46.815  14.672  1.00  0.00     0.117 C 
HETATM    2  C9  UNL     1       1.186 -45.735  15.472  1.00  0.00     0.297 C 
HETATM    3  N2  UNL     1       2.095 -44.611  15.592  1.00  0.00     0.098 N 
HETATM    4  C14 UNL     1       3.352 -45.090  15.129  1.00  0.00     0.258 C 
HETATM    5  C15 UNL     1       4.003 -45.849  16.291  1.00  0.00     0.042 C 
HETATM    6  C16 UNL     1       3.294 -47.114  16.621  1.00  0.00     0.043 C 
HETATM    7  C17 UNL     1       2.626 -47.809  15.484  1.00  0.00     0.098 C 
HETATM    8  C18 UNL     1       3.691 -48.293  14.512  1.00  0.00     0.125 C 
HETATM    9  C24 UNL     1       4.017 -47.055  13.725  1.00  0.00     0.070 C 
HETATM   10  C25 UNL     1       2.984 -46.034  14.037  1.00  0.00     0.110 C 
ENDROOT
BRANCH   1  11
HETATM   11  C7  UNL     1       1.035 -47.404  13.602  1.00  0.00     0.131 C 
BRANCH  11  12
HETATM   12  N1  UNL     1      -0.328 -47.582  13.412  1.00  0.00    -0.353 N 
BRANCH  12  13
HETATM   13  C6  UNL     1      -1.125 -48.197  14.510  1.00  0.00     0.125 C 
BRANCH  13  14
HETATM   14  C5  UNL     1      -2.575 -48.005  14.296  1.00  0.00     0.020 C 
BRANCH  14  15
HETATM   15  C4  UNL     1      -3.272 -46.920  15.020  1.00  0.00     0.002 C 
BRANCH  15  16
HETATM   16  C3  UNL     1      -2.585 -45.878  15.766  1.00  0.00    -0.000 C 
BRANCH  16  17
HETATM   17  C2  UNL     1      -2.653 -45.807  17.246  1.00  0.00    -0.005 C 
HETATM   18  C1  UNL     1      -1.531 -46.596  17.916  1.00  0.00     0.005 C 
ENDBRANCH  16  17
ENDBRANCH  15  16
ENDBRANCH  14  15
ENDBRANCH  13  14
ENDBRANCH  12  13
BRANCH  12  19
HETATM   19  C26 UNL     1      -1.008 -47.233  12.222  1.00  0.00     0.151 C 
HETATM   20  C27 UNL     1      -0.648 -48.017  10.986  1.00  0.00     0.040 C 
BRANCH  19  21
HETATM   21  C28 UNL     1      -0.938 -45.748  11.942  1.00  0.00     0.145 C 
HETATM   22  C29 UNL     1      -2.051 -44.807  12.219  1.00  0.00     0.093 C 
HETATM   23  O6  UNL     1       0.070 -45.262  11.461  1.00  0.00    -0.296 OA
ENDBRANCH  19  21
ENDBRANCH  12  19
ENDBRANCH  11  12
BRANCH  11  24
HETATM   24  O1  UNL     1       1.745 -47.866  12.608  1.00  0.00    -0.349 OA
ATOM     25  H1  UNL     1       1.780 -48.815  12.593  1.00  0.00     0.219 HD
ENDBRANCH  11  24
ENDBRANCH   1  11
BRANCH   7  26
HETATM   26  O2  UNL     1       1.884 -48.864  15.986  1.00  0.00    -0.386 OA
ATOM     27  H2  UNL     1       1.971 -48.992  16.923  1.00  0.00     0.210 HD
ENDBRANCH   7  26
BRANCH  10  28
HETATM   28  O5  UNL     1       2.603 -45.341  12.900  1.00  0.00    -0.386 OA
ATOM     29  H5  UNL     1       3.013 -45.676  12.112  1.00  0.00     0.210 HD
ENDBRANCH  10  28
BRANCH   3  30
HETATM   30  C10 UNL     1       1.593 -43.418  15.015  1.00  0.00     0.277 C 
BRANCH  30  31
HETATM   31  C11 UNL     1       0.107 -43.456  14.881  1.00  0.00     0.014 A 
HETATM   32  C12 UNL     1      -0.713 -42.612  15.810  1.00  0.00     0.007 A 
HETATM   33  C13 UNL     1      -0.540 -42.191  14.380  1.00  0.00     0.007 A 
ENDBRANCH  30  31
ENDBRANCH   3  30
BRANCH   8  34
HETATM   34  N3  UNL     1       4.830 -48.890  15.163  1.00  0.00    -0.329 N 
HETATM   35  C19 UNL     1       5.207 -50.233  14.910  1.00  0.00     0.361 C 
HETATM   36  O3  UNL     1       4.547 -50.955  14.099  1.00  0.00    -0.238 OA
ATOM     37  H3  UNL     1       5.378 -48.335  15.820  1.00  0.00     0.165 HD
BRANCH  35  38
HETATM   38  O4  UNL     1       6.294 -50.860  15.507  1.00  0.00    -0.294 OA
BRANCH  38  39
HETATM   39  C20 UNL     1       7.589 -50.824  14.911  1.00  0.00     0.061 C 
HETATM   40  C21 UNL     1       8.601 -50.831  16.032  1.00  0.00     0.046 C 
HETATM   41  C22 UNL     1       7.786 -49.544  14.124  1.00  0.00     0.046 C 
HETATM   42  C23 UNL     1       7.823 -52.002  14.011  1.00  0.00     0.046 C 
ENDBRANCH  38  39
ENDBRANCH  35  38
ENDBRANCH   8  34
TORSDOF 17
ENDMDL
MODEL 4
REMARK VINA RESULT: -6.737700031      2.245      7.560
REMARK  17 active torsions:
REMARK  status: ('A' for Active; 'I' for Inactive)
REMARK    1  A    between atoms: C2_2  and  C3_3 
REMARK    2  A    between atoms: C3_3  and  C4_4 
REMARK    3  A    between atoms: C4_4  and  C5_5 
REMARK    4  A    between atoms: C5_5  and  C6_6 
REMARK    5  A    between atoms: C6_6  and  N1_7 
REMARK    6  A    between atoms: N1_7  and  C7_8 
REMARK    7  A    between atoms: N1_7  and  C26_38 
REMARK    8  A    between atoms: C7_8  and  O1_9 
REMARK    9  A    between atoms: C7_8  and  C8_11 
REMARK   10  A    between atoms: N2_13  and  C10_14 
REMARK   11  A    between atoms: C10_14  and  C11_15 
REMARK   12  A    between atoms: C17_21  and  O2_22 
REMARK   13  A    between atoms: C18_24  and  N3_25 
REMARK       I    between atoms: N3_25  and  C19_27 
REMARK   14  A    between atoms: C19_27  and  O4_29 
REMARK   15  A    between atoms: O4_29  and  C20_30 
REMARK   16  A    between atoms: C25_35  and  O5_36 
REMARK   17  A    between atoms: C26_38  and  C28_40 
ROOT
HETATM    1  C8  UNL     1       0.759 -44.542  14.289  1.00  0.00     0.117 C 
HETATM    2  C9  UNL     1       0.652 -45.978  13.919  1.00  0.00     0.297 C 
HETATM    3  N2  UNL     1       0.031 -46.105  12.613  1.00  0.00     0.098 N 
HETATM    4  C14 UNL     1      -0.486 -44.814  12.315  1.00  0.00     0.258 C 
HETATM    5  C15 UNL     1      -1.832 -44.687  13.036  1.00  0.00     0.042 C 
HETATM    6  C16 UNL     1      -1.689 -44.626  14.515  1.00  0.00     0.043 C 
HETATM    7  C17 UNL     1      -0.443 -43.992  15.029  1.00  0.00     0.098 C 
HETATM    8  C18 UNL     1      -0.453 -42.518  14.655  1.00  0.00     0.125 C 
HETATM    9  C24 UNL     1      -0.003 -42.529  13.222  1.00  0.00     0.070 C 
HETATM   10  C25 UNL     1       0.513 -43.889  12.920  1.00  0.00     0.110 C 
ENDROOT
BRANCH   1  11
HETATM   11  C7  UNL     1       2.042 -44.077  14.788  1.00  0.00     0.131 C 
BRANCH  11  12
HETATM   12  N1  UNL     1       3.083 -44.701  15.462  1.00  0.00    -0.353 N 
BRANCH  12  13
HETATM   13  C6  UNL     1       4.264 -45.158  14.680  1.00  0.00     0.125 C 
BRANCH  13  14
HETATM   14  C5  UNL     1       3.966 -46.396  13.929  1.00  0.00     0.020 C 
BRANCH  14  15
HETATM   15  C4  UNL     1       4.805 -47.593  14.153  1.00  0.00     0.002 C 
BRANCH  15  16
HETATM   16  C3  UNL     1       5.947 -47.621  15.054  1.00  0.00    -0.000 C 
BRANCH  16  17
HETATM   17  C2  UNL     1       7.337 -47.719  14.545  1.00  0.00    -0.005 C 
HETATM   18  C1  UNL     1       7.699 -49.140  14.120  1.00  0.00     0.005 C 
ENDBRANCH  16  17
ENDBRANCH  15  16
ENDBRANCH  14  15
ENDBRANCH  13  14
ENDBRANCH  12  13
BRANCH  12  19
HETATM   19  C26 UNL     1       3.079 -44.950  16.855  1.00  0.00     0.151 C 
HETATM   20  C27 UNL     1       4.411 -44.868  17.557  1.00  0.00     0.040 C 
BRANCH  19  21
HETATM   21  C28 UNL     1       2.383 -46.248  17.197  1.00  0.00     0.145 C 
HETATM   22  C29 UNL     1       3.096 -47.534  17.396  1.00  0.00     0.093 C 
HETATM   23  O6  UNL     1       1.171 -46.280  17.324  1.00  0.00    -0.296 OA
ENDBRANCH  19  21
ENDBRANCH  12  19
ENDBRANCH  11  12
BRANCH  11  24
HETATM   24  O1  UNL     1       2.276 -42.812  14.563  1.00  0.00    -0.349 OA
ATOM     25  H1  UNL     1       2.098 -42.561  13.664  1.00  0.00     0.219 HD
ENDBRANCH  11  24
ENDBRANCH   1  11
BRANCH   7  26
HETATM   26  O2  UNL     1      -0.392 -44.165  16.401  1.00  0.00    -0.386 OA
ATOM     27  H2  UNL     1      -1.243 -44.236  16.817  1.00  0.00     0.210 HD
ENDBRANCH   7  26
BRANCH  10  28
HETATM   28  O5  UNL     1       1.658 -43.831  12.143  1.00  0.00    -0.386 OA
ATOM     29  H5  UNL     1       1.522 -43.370  11.324  1.00  0.00     0.210 HD
ENDBRANCH  10  28
BRANCH   3  30
HETATM   30  C10 UNL     1       0.870 -46.716  11.649  1.00  0.00     0.277 C 
BRANCH  30  31
HETATM   31  C11 UNL     1       0.497 -48.145  11.424  1.00  0.00     0.014 A 
HETATM   32  C12 UNL     1      -0.956 -48.510  11.430  1.00  0.00     0.007 A 
HETATM   33  C13 UNL     1      -0.212 -48.443  10.129  1.00  0.00     0.007 A 
ENDBRANCH  30  31
ENDBRANCH   3  30
BRANCH   8  34
HETATM   34  N3  UNL     1      -1.731 -41.884  14.863  1.00  0.00    -0.329 N 
HETATM   35  C19 UNL     1      -2.114 -41.389  16.135  1.00  0.00     0.361 C 
HETATM   36  O3  UNL     1      -1.338 -41.490  17.136  1.00  0.00    -0.238 OA
ATOM     37  H3  UNL     1      -2.374 -41.790  14.078  1.00  0.00     0.165 HD
BRANCH  35  38
HETATM   38  O4  UNL     1      -3.330 -40.770  16.393  1.00  0.00    -0.294 OA
BRANCH  38  39
HETATM   39  C20 UNL     1      -3.583 -39.429  15.977  1.00  0.00     0.061 C 
HETATM   40  C21 UNL     1      -4.737 -38.911  16.800  1.00  0.00     0.046 C 
HETATM   41  C22 UNL     1      -4.001 -39.385  14.522  1.00  0.00     0.046 C 
HETATM   42  C23 UNL     1      -2.383 -38.548  16.176  1.00  0.00     0.046 C 
ENDBRANCH  38  39
ENDBRANCH  35  38
ENDBRANCH   8  34
TORSDOF 17
ENDMDL
MODEL 5
REMARK VINA RESULT: -6.667405815      1.466      6.057
REMARK  17 active torsions:
REMARK  status: ('A' for Active; 'I' for Inactive)
REMARK    1  A    between atoms: C2_2  and  C3_3 
REMARK    2  A    between atoms: C3_3  and  C4_4 
REMARK    3  A    between atoms: C4_4  and  C5_5 
REMARK    4  A    between atoms: C5_5  and  C6_6 
REMARK    5  A    between atoms: C6_6  and  N1_7 
REMARK    6  A    between atoms: N1_7  and  C7_8 
REMARK    7  A    between atoms: N1_7  and  C26_38 
REMARK    8  A    between atoms: C7_8  and  O1_9 
REMARK    9  A    between atoms: C7_8  and  C8_11 
REMARK   10  A    between atoms: N2_13  and  C10_14 
REMARK   11  A    between atoms: C10_14  and  C11_15 
REMARK   12  A    between atoms: C17_21  and  O2_22 
REMARK   13  A    between atoms: C18_24  and  N3_25 
REMARK       I    between atoms: N3_25  and  C19_27 
REMARK   14  A    between atoms: C19_27  and  O4_29 
REMARK   15  A    between atoms: O4_29  and  C20_30 
REMARK   16  A    between atoms: C25_35  and  O5_36 
REMARK   17  A    between atoms: C26_38  and  C28_40 
ROOT
HETATM    1  C8  UNL     1       2.621 -46.036  14.052  1.00  0.00     0.117 C 
HETATM    2  C9  UNL     1       4.094 -46.233  13.995  1.00  0.00     0.297 C 
HETATM    3  N2  UNL     1       4.633 -46.304  15.340  1.00  0.00     0.098 N 
HETATM    4  C14 UNL     1       3.577 -45.881  16.193  1.00  0.00     0.258 C 
HETATM    5  C15 UNL     1       3.575 -44.348  16.184  1.00  0.00     0.042 C 
HETATM    6  C16 UNL     1       3.159 -43.781  14.875  1.00  0.00     0.043 C 
HETATM    7  C17 UNL     1       2.182 -44.587  14.089  1.00  0.00     0.098 C 
HETATM    8  C18 UNL     1       0.862 -44.630  14.845  1.00  0.00     0.125 C 
HETATM    9  C24 UNL     1       1.098 -45.695  15.878  1.00  0.00     0.070 C 
HETATM   10  C25 UNL     1       2.355 -46.403  15.520  1.00  0.00     0.110 C 
ENDROOT
BRANCH   1  11
HETATM   11  C7  UNL     1       1.801 -46.897  13.215  1.00  0.00     0.131 C 
BRANCH  11  12
HETATM   12  N1  UNL     1       0.447 -46.918  12.913  1.00  0.00    -0.353 N 
BRANCH  12  13
HETATM   13  C6  UNL     1      -0.471 -47.667  13.816  1.00  0.00     0.125 C 
BRANCH  13  14
HETATM   14  C5  UNL     1      -1.801 -47.024  13.883  1.00  0.00     0.020 C 
BRANCH  14  15
HETATM   15  C4  UNL     1      -2.543 -47.040  15.163  1.00  0.00     0.002 C 
BRANCH  15  16
HETATM   16  C3  UNL     1      -2.810 -45.851  15.956  1.00  0.00    -0.000 C 
BRANCH  16  17
HETATM   17  C2  UNL     1      -2.849 -45.897  17.438  1.00  0.00    -0.005 C 
HETATM   18  C1  UNL     1      -1.683 -46.691  18.023  1.00  0.00     0.005 C 
ENDBRANCH  16  17
ENDBRANCH  15  16
ENDBRANCH  14  15
ENDBRANCH  13  14
ENDBRANCH  12  13
BRANCH  12  19
HETATM   19  C26 UNL     1      -0.115 -46.287  11.779  1.00  0.00     0.151 C 
HETATM   20  C27 UNL     1      -1.147 -45.220  12.045  1.00  0.00     0.040 C 
BRANCH  19  21
HETATM   21  C28 UNL     1      -0.640 -47.287  10.774  1.00  0.00     0.145 C 
HETATM   22  C29 UNL     1       0.020 -48.583  10.483  1.00  0.00     0.093 C 
HETATM   23  O6  UNL     1      -1.659 -47.051  10.147  1.00  0.00    -0.296 OA
ENDBRANCH  19  21
ENDBRANCH  12  19
ENDBRANCH  11  12
BRANCH  11  24
HETATM   24  O1  UNL     1       2.465 -47.851  12.620  1.00  0.00    -0.349 OA
ATOM     25  H1  UNL     1       3.402 -47.694  12.611  1.00  0.00     0.219 HD
ENDBRANCH  11  24
ENDBRANCH   1  11
BRANCH   7  26
HETATM   26  O2  UNL     1       2.031 -44.008  12.842  1.00  0.00    -0.386 OA
ATOM     27  H2  UNL     1       2.597 -43.261  12.688  1.00  0.00     0.210 HD
ENDBRANCH   7  26
BRANCH  10  28
HETATM   28  O5  UNL     1       2.235 -47.769  15.717  1.00  0.00    -0.386 OA
ATOM     29  H5  UNL     1       1.352 -48.030  15.947  1.00  0.00     0.210 HD
ENDBRANCH  10  28
BRANCH   3  30
HETATM   30  C10 UNL     1       5.257 -47.543  15.631  1.00  0.00     0.277 C 
BRANCH  30  31
HETATM   31  C11 UNL     1       5.916 -48.123  14.424  1.00  0.00     0.014 A 
HETATM   32  C12 UNL     1       7.409 -48.250  14.420  1.00  0.00     0.007 A 
HETATM   33  C13 UNL     1       6.561 -49.472  14.611  1.00  0.00     0.007 A 
ENDBRANCH  30  31
ENDBRANCH   3  30
BRANCH   8  34
HETATM   34  N3  UNL     1       0.477 -43.354  15.395  1.00  0.00    -0.329 N 
HETATM   35  C19 UNL     1      -0.186 -42.379  14.609  1.00  0.00     0.361 C 
HETATM   36  O3  UNL     1      -0.462 -42.601  13.389  1.00  0.00    -0.238 OA
ATOM     37  H3  UNL     1       0.686 -43.149  16.372  1.00  0.00     0.165 HD
BRANCH  35  38
HETATM   38  O4  UNL     1      -0.581 -41.135  15.086  1.00  0.00    -0.294 OA
BRANCH  38  39
HETATM   39  C20 UNL     1      -1.850 -40.949  15.709  1.00  0.00     0.061 C 
HETATM   40  C21 UNL     1      -2.844 -40.625  14.620  1.00  0.00     0.046 C 
HETATM   41  C22 UNL     1      -1.816 -39.772  16.664  1.00  0.00     0.046 C 
HETATM   42  C23 UNL     1      -2.293 -42.177  16.450  1.00  0.00     0.046 C 
ENDBRANCH  38  39
ENDBRANCH  35  38
ENDBRANCH   8  34
TORSDOF 17
ENDMDL
