MODEL 1
REMARK VINA RESULT: -8.086503880      0.000      0.000
REMARK  12 active torsions:
REMARK  status: ('A' for Active; 'I' for Inactive)
REMARK    1  A    between atoms: N1_2  and  C3_4 
REMARK    2  A    between atoms: N2_7  and  C6_8 
REMARK    3  A    between atoms: C6_8  and  C7_9 
REMARK    4  A    between atoms: C7_9  and  C8_10 
REMARK    5  A    between atoms: C8_10  and  C9_11 
REMARK    6  A    between atoms: C9_11  and  C10_12 
REMARK    7  A    between atoms: C10_12  and  C11_13 
REMARK       I    between atoms: C11_13  and  N3_15 
REMARK    8  A    between atoms: C16_22  and  N5_23 
REMARK    9  A    between atoms: N5_23  and  C17_25 
REMARK   10  A    between atoms: C17_25  and  O2_26 
REMARK   11  A    between atoms: C17_25  and  C18_28 
REMARK   12  A    between atoms: C18_28  and  C19_29 
ROOT
HETATM    1  C11 UNL     1      -1.398 -46.857  12.815  1.00  0.00     0.219 C 
HETATM    2  O1  UNL     1      -1.601 -47.999  13.290  1.00  0.00    -0.273 OA
HETATM    3  N3  UNL     1      -0.096 -46.399  12.477  1.00  0.00    -0.352 N 
HETATM    4  C12 UNL     1       1.024 -47.281  12.694  1.00  0.00     0.126 C 
HETATM    5  C13 UNL     1       2.224 -46.663  12.059  1.00  0.00     0.031 C 
HETATM    6  C14 UNL     1       2.492 -45.244  12.560  1.00  0.00     0.044 C 
HETATM    7  C15 UNL     1       3.116 -45.304  13.958  1.00  0.00     0.029 A 
HETATM    8  N4  UNL     1       4.370 -45.675  14.195  1.00  0.00    -0.339 N 
ATOM      9  H4  UNL     1       4.988 -45.944  13.430  1.00  0.00     0.168 HD
HETATM   10  C16 UNL     1       4.796 -45.687  15.443  1.00  0.00     0.147 A 
HETATM   11  S1  UNL     1       3.453 -45.179  16.344  1.00  0.00    -0.057 SA
HETATM   12  C22 UNL     1       2.360 -44.963  15.037  1.00  0.00     0.009 A 
HETATM   13  C23 UNL     1       0.914 -44.513  14.956  1.00  0.00     0.049 C 
HETATM   14  C24 UNL     1       0.870 -43.669  13.726  1.00  0.00     0.012 C 
HETATM   15  C25 UNL     1       1.330 -44.381  12.507  1.00  0.00     0.014 C 
HETATM   16  C26 UNL     1       0.079 -45.092  11.937  1.00  0.00     0.131 C 
ENDROOT
BRANCH   1  17
HETATM   17  C10 UNL     1      -2.582 -45.968  12.606  1.00  0.00     0.103 C 
BRANCH  17  18
HETATM   18  C9  UNL     1      -3.394 -45.903  13.861  1.00  0.00     0.009 C 
BRANCH  18  19
HETATM   19  C8  UNL     1      -2.762 -45.014  14.891  1.00  0.00     0.002 C 
BRANCH  19  20
HETATM   20  C7  UNL     1      -2.767 -43.588  14.375  1.00  0.00     0.030 C 
BRANCH  20  21
HETATM   21  C6  UNL     1      -2.402 -42.610  15.466  1.00  0.00     0.272 C 
BRANCH  21  22
HETATM   22  N2  UNL     1      -1.929 -41.399  14.897  1.00  0.00     0.088 N 
HETATM   23  C5  UNL     1      -2.860 -40.659  14.092  1.00  0.00     0.274 C 
HETATM   24  C4  UNL     1      -3.917 -39.971  14.865  1.00  0.00     0.066 C 
HETATM   25  C3  UNL     1      -3.589 -39.470  16.216  1.00  0.00     0.225 C 
HETATM   26  C28 UNL     1      -2.290 -39.896  16.794  1.00  0.00     0.066 C 
HETATM   27  C27 UNL     1      -1.301 -40.528  15.888  1.00  0.00     0.274 C 
BRANCH  25  28
HETATM   28  N1  UNL     1      -3.812 -38.029  16.348  1.00  0.00     0.084 N 
HETATM   29  C1  UNL     1      -4.639 -37.724  17.482  1.00  0.00     0.309 C 
HETATM   30  C2  UNL     1      -2.621 -37.251  16.352  1.00  0.00     0.309 C 
ENDBRANCH  25  28
ENDBRANCH  21  22
ENDBRANCH  20  21
ENDBRANCH  19  20
ENDBRANCH  18  19
ENDBRANCH  17  18
ENDBRANCH   1  17
BRANCH  10  31
HETATM   31  N5  UNL     1       5.993 -46.020  15.886  1.00  0.00    -0.344 N 
ATOM     32  H5  UNL     1       6.337 -45.655  16.774  1.00  0.00     0.164 HD
BRANCH  31  33
HETATM   33  C17 UNL     1       6.801 -46.903  15.099  1.00  0.00     0.225 C 
BRANCH  33  34
HETATM   34  O2  UNL     1       8.085 -46.409  14.949  1.00  0.00    -0.376 OA
ATOM     35  H2  UNL     1       8.195 -45.982  14.108  1.00  0.00     0.212 HD
ENDBRANCH  33  34
BRANCH  33  36
HETATM   36  C18 UNL     1       6.873 -48.242  15.809  1.00  0.00     0.112 C 
BRANCH  36  37
HETATM   37  C19 UNL     1       5.772 -49.127  15.395  1.00  0.00     0.029 A 
HETATM   38  C20 UNL     1       5.158 -49.114  14.138  1.00  0.00     0.114 A 
HETATM   39  N6  UNL     1       4.202 -50.048  14.119  1.00  0.00    -0.360 N 
HETATM   40  C21 UNL     1       4.184 -50.654  15.316  1.00  0.00     0.180 A 
ATOM     41  H6  UNL     1       3.592 -50.263  13.331  1.00  0.00     0.166 HD
HETATM   42  N7  UNL     1       5.134 -50.095  16.085  1.00  0.00    -0.354 N 
ATOM     43  H7  UNL     1       5.342 -50.362  17.048  1.00  0.00     0.166 HD
ENDBRANCH  36  37
ENDBRANCH  33  36
ENDBRANCH  31  33
ENDBRANCH  10  31
TORSDOF 12
ENDMDL
MODEL 2
REMARK VINA RESULT: -7.956662492      1.798      2.419
REMARK  12 active torsions:
REMARK  status: ('A' for Active; 'I' for Inactive)
REMARK    1  A    between atoms: N1_2  and  C3_4 
REMARK    2  A    between atoms: N2_7  and  C6_8 
REMARK    3  A    between atoms: C6_8  and  C7_9 
REMARK    4  A    between atoms: C7_9  and  C8_10 
REMARK    5  A    between atoms: C8_10  and  C9_11 
REMARK    6  A    between atoms: C9_11  and  C10_12 
REMARK    7  A    between atoms: C10_12  and  C11_13 
REMARK       I    between atoms: C11_13  and  N3_15 
REMARK    8  A    between atoms: C16_22  and  N5_23 
REMARK    9  A    between atoms: N5_23  and  C17_25 
REMARK   10  A    between atoms: C17_25  and  O2_26 
REMARK   11  A    between atoms: C17_25  and  C18_28 
REMARK   12  A    between atoms: C18_28  and  C19_29 
ROOT
HETATM    1  C11 UNL     1      -2.537 -44.773  14.374  1.00  0.00     0.219 C 
HETATM    2  O1  UNL     1      -2.794 -45.035  15.573  1.00  0.00    -0.273 OA
HETATM    3  N3  UNL     1      -1.569 -45.502  13.631  1.00  0.00    -0.352 N 
HETATM    4  C12 UNL     1      -0.861 -46.575  14.285  1.00  0.00     0.126 C 
HETATM    5  C13 UNL     1      -0.086 -47.313  13.246  1.00  0.00     0.031 C 
HETATM    6  C14 UNL     1       0.844 -46.401  12.447  1.00  0.00     0.044 C 
HETATM    7  C15 UNL     1       2.076 -46.058  13.292  1.00  0.00     0.029 A 
HETATM    8  N4  UNL     1       3.060 -46.913  13.551  1.00  0.00    -0.339 N 
ATOM      9  H4  UNL     1       3.033 -47.865  13.186  1.00  0.00     0.168 HD
HETATM   10  C16 UNL     1       4.070 -46.502  14.292  1.00  0.00     0.147 A 
HETATM   11  S1  UNL     1       3.684 -44.893  14.661  1.00  0.00    -0.057 SA
HETATM   12  C22 UNL     1       2.190 -44.809  13.820  1.00  0.00     0.009 A 
HETATM   13  C23 UNL     1       1.168 -43.705  13.626  1.00  0.00     0.049 C 
HETATM   14  C24 UNL     1       0.726 -43.871  12.210  1.00  0.00     0.012 C 
HETATM   15  C25 UNL     1       0.188 -45.224  11.917  1.00  0.00     0.014 C 
HETATM   16  C26 UNL     1      -1.317 -45.165  12.270  1.00  0.00     0.131 C 
ENDROOT
BRANCH   1  17
HETATM   17  C10 UNL     1      -3.287 -43.652  13.729  1.00  0.00     0.103 C 
BRANCH  17  18
HETATM   18  C9  UNL     1      -3.062 -42.386  14.494  1.00  0.00     0.009 C 
BRANCH  18  19
HETATM   19  C8  UNL     1      -1.777 -41.717  14.103  1.00  0.00     0.002 C 
BRANCH  19  20
HETATM   20  C7  UNL     1      -1.027 -41.324  15.360  1.00  0.00     0.030 C 
BRANCH  20  21
HETATM   21  C6  UNL     1      -1.910 -41.433  16.580  1.00  0.00     0.272 C 
BRANCH  21  22
HETATM   22  N2  UNL     1      -1.829 -40.242  17.347  1.00  0.00     0.088 N 
HETATM   23  C5  UNL     1      -1.910 -39.003  16.624  1.00  0.00     0.274 C 
HETATM   24  C4  UNL     1      -3.263 -38.680  16.124  1.00  0.00     0.066 C 
HETATM   25  C3  UNL     1      -4.431 -39.117  16.918  1.00  0.00     0.225 C 
HETATM   26  C28 UNL     1      -4.168 -40.052  18.042  1.00  0.00     0.066 C 
HETATM   27  C27 UNL     1      -2.762 -40.241  18.472  1.00  0.00     0.274 C 
BRANCH  25  28
HETATM   28  N1  UNL     1      -5.291 -38.000  17.313  1.00  0.00     0.084 N 
HETATM   29  C1  UNL     1      -6.537 -38.459  17.858  1.00  0.00     0.309 C 
HETATM   30  C2  UNL     1      -4.665 -37.056  18.174  1.00  0.00     0.309 C 
ENDBRANCH  25  28
ENDBRANCH  21  22
ENDBRANCH  20  21
ENDBRANCH  19  20
ENDBRANCH  18  19
ENDBRANCH  17  18
ENDBRANCH   1  17
BRANCH  10  31
HETATM   31  N5  UNL     1       5.134 -47.189  14.660  1.00  0.00    -0.344 N 
ATOM     32  H5  UNL     1       5.187 -48.194  14.492  1.00  0.00     0.164 HD
BRANCH  31  33
HETATM   33  C17 UNL     1       6.214 -46.500  15.300  1.00  0.00     0.225 C 
BRANCH  33  34
HETATM   34  O2  UNL     1       6.195 -46.698  16.670  1.00  0.00    -0.376 OA
ATOM     35  H2  UNL     1       6.853 -47.328  16.937  1.00  0.00     0.212 HD
ENDBRANCH  33  34
BRANCH  33  36
HETATM   36  C18 UNL     1       7.519 -47.044  14.747  1.00  0.00     0.112 C 
BRANCH  36  37
HETATM   37  C19 UNL     1       7.634 -48.494  14.977  1.00  0.00     0.029 A 
HETATM   38  C20 UNL     1       7.794 -49.457  13.975  1.00  0.00     0.114 A 
HETATM   39  N6  UNL     1       7.861 -50.662  14.548  1.00  0.00    -0.360 N 
HETATM   40  C21 UNL     1       7.749 -50.503  15.875  1.00  0.00     0.180 A 
ATOM     41  H6  UNL     1       7.977 -51.550  14.061  1.00  0.00     0.166 HD
HETATM   42  N7  UNL     1       7.612 -49.190  16.132  1.00  0.00    -0.354 N 
ATOM     43  H7  UNL     1       7.507 -48.782  17.061  1.00  0.00     0.166 HD
ENDBRANCH  36  37
ENDBRANCH  33  36
ENDBRANCH  31  33
ENDBRANCH  10  31
TORSDOF 12
ENDMDL
MODEL 3
REMARK VINA RESULT: -7.940314850      1.203      1.816
REMARK  12 active torsions:
REMARK  status: ('A' for Active; 'I' for Inactive)
REMARK    1  A    between atoms: N1_2  and  C3_4 
REMARK    2  A    between atoms: N2_7  and  C6_8 
REMARK    3  A    between atoms: C6_8  and  C7_9 
REMARK    4  A    between atoms: C7_9  and  C8_10 
REMARK    5  A    between atoms: C8_10  and  C9_11 
REMARK    6  A    between atoms: C9_11  and  C10_12 
REMARK    7  A    between atoms: C10_12  and  C11_13 
REMARK       I    between atoms: C11_13  and  N3_15 
REMARK    8  A    between atoms: C16_22  and  N5_23 
REMARK    9  A    between atoms: N5_23  and  C17_25 
REMARK   10  A    between atoms: C17_25  and  O2_26 
REMARK   11  A    between atoms: C17_25  and  C18_28 
REMARK   12  A    between atoms: C18_28  and  C19_29 
ROOT
HETATM    1  C11 UNL     1      -1.611 -45.931  13.401  1.00  0.00     0.219 C 
HETATM    2  O1  UNL     1      -1.992 -46.956  14.011  1.00  0.00    -0.273 OA
HETATM    3  N3  UNL     1      -0.277 -45.780  12.934  1.00  0.00    -0.352 N 
HETATM    4  C12 UNL     1       0.664 -46.845  13.178  1.00  0.00     0.126 C 
HETATM    5  C13 UNL     1       1.904 -46.548  12.405  1.00  0.00     0.031 C 
HETATM    6  C14 UNL     1       2.484 -45.171  12.727  1.00  0.00     0.044 C 
HETATM    7  C15 UNL     1       3.198 -45.220  14.082  1.00  0.00     0.029 A 
HETATM    8  N4  UNL     1       4.371 -45.813  14.281  1.00  0.00    -0.339 N 
ATOM      9  H4  UNL     1       4.860 -46.274  13.514  1.00  0.00     0.168 HD
HETATM   10  C16 UNL     1       4.888 -45.790  15.494  1.00  0.00     0.147 A 
HETATM   11  S1  UNL     1       3.749 -44.935  16.413  1.00  0.00    -0.057 SA
HETATM   12  C22 UNL     1       2.615 -44.630  15.161  1.00  0.00     0.009 A 
HETATM   13  C23 UNL     1       1.283 -43.907  15.120  1.00  0.00     0.049 C 
HETATM   14  C24 UNL     1       1.302 -43.195  13.808  1.00  0.00     0.012 C 
HETATM   15  C25 UNL     1       1.512 -44.100  12.650  1.00  0.00     0.014 C 
HETATM   16  C26 UNL     1       0.104 -44.595  12.241  1.00  0.00     0.131 C 
ENDROOT
BRANCH   1  17
HETATM   17  C10 UNL     1      -2.612 -44.845  13.168  1.00  0.00     0.103 C 
BRANCH  17  18
HETATM   18  C9  UNL     1      -2.755 -44.014  14.404  1.00  0.00     0.009 C 
BRANCH  18  19
HETATM   19  C8  UNL     1      -2.400 -42.578  14.157  1.00  0.00     0.002 C 
BRANCH  19  20
HETATM   20  C7  UNL     1      -3.673 -41.756  14.134  1.00  0.00     0.030 C 
BRANCH  20  21
HETATM   21  C6  UNL     1      -3.388 -40.298  14.403  1.00  0.00     0.272 C 
BRANCH  21  22
HETATM   22  N2  UNL     1      -3.921 -39.922  15.664  1.00  0.00     0.088 N 
HETATM   23  C5  UNL     1      -3.384 -40.593  16.815  1.00  0.00     0.274 C 
HETATM   24  C4  UNL     1      -2.015 -40.168  17.182  1.00  0.00     0.066 C 
HETATM   25  C3  UNL     1      -1.620 -38.767  16.926  1.00  0.00     0.225 C 
HETATM   26  C28 UNL     1      -2.547 -37.946  16.107  1.00  0.00     0.066 C 
HETATM   27  C27 UNL     1      -3.911 -38.475  15.862  1.00  0.00     0.274 C 
BRANCH  25  28
HETATM   28  N1  UNL     1      -1.190 -38.075  18.143  1.00  0.00     0.084 N 
HETATM   29  C1  UNL     1      -1.191 -38.955  19.278  1.00  0.00     0.309 C 
HETATM   30  C2  UNL     1       0.050 -37.390  18.020  1.00  0.00     0.309 C 
ENDBRANCH  25  28
ENDBRANCH  21  22
ENDBRANCH  20  21
ENDBRANCH  19  20
ENDBRANCH  18  19
ENDBRANCH  17  18
ENDBRANCH   1  17
BRANCH  10  31
HETATM   31  N5  UNL     1       6.030 -46.314  15.896  1.00  0.00    -0.344 N 
ATOM     32  H5  UNL     1       6.258 -46.361  16.889  1.00  0.00     0.164 HD
BRANCH  31  33
HETATM   33  C17 UNL     1       6.945 -46.815  14.915  1.00  0.00     0.225 C 
BRANCH  33  34
HETATM   34  O2  UNL     1       8.109 -46.066  14.882  1.00  0.00    -0.376 OA
ATOM     35  H2  UNL     1       8.224 -45.644  14.040  1.00  0.00     0.212 HD
ENDBRANCH  33  34
BRANCH  33  36
HETATM   36  C18 UNL     1       7.296 -48.246  15.279  1.00  0.00     0.112 C 
BRANCH  36  37
HETATM   37  C19 UNL     1       6.120 -49.127  15.180  1.00  0.00     0.029 A 
HETATM   38  C20 UNL     1       5.688 -50.007  16.179  1.00  0.00     0.114 A 
HETATM   39  N6  UNL     1       4.595 -50.642  15.744  1.00  0.00    -0.360 N 
HETATM   40  C21 UNL     1       4.316 -50.201  14.509  1.00  0.00     0.180 A 
ATOM     41  H6  UNL     1       4.065 -51.342  16.263  1.00  0.00     0.166 HD
HETATM   42  N7  UNL     1       5.240 -49.285  14.170  1.00  0.00    -0.354 N 
ATOM     43  H7  UNL     1       5.272 -48.784  13.282  1.00  0.00     0.166 HD
ENDBRANCH  36  37
ENDBRANCH  33  36
ENDBRANCH  31  33
ENDBRANCH  10  31
TORSDOF 12
ENDMDL
MODEL 4
REMARK VINA RESULT: -7.920859500      2.827      9.653
REMARK  12 active torsions:
REMARK  status: ('A' for Active; 'I' for Inactive)
REMARK    1  A    between atoms: N1_2  and  C3_4 
REMARK    2  A    between atoms: N2_7  and  C6_8 
REMARK    3  A    between atoms: C6_8  and  C7_9 
REMARK    4  A    between atoms: C7_9  and  C8_10 
REMARK    5  A    between atoms: C8_10  and  C9_11 
REMARK    6  A    between atoms: C9_11  and  C10_12 
REMARK    7  A    between atoms: C10_12  and  C11_13 
REMARK       I    between atoms: C11_13  and  N3_15 
REMARK    8  A    between atoms: C16_22  and  N5_23 
REMARK    9  A    between atoms: N5_23  and  C17_25 
REMARK   10  A    between atoms: C17_25  and  O2_26 
REMARK   11  A    between atoms: C17_25  and  C18_28 
REMARK   12  A    between atoms: C18_28  and  C19_29 
ROOT
HETATM    1  C11 UNL     1      -2.139 -47.105  14.456  1.00  0.00     0.219 C 
HETATM    2  O1  UNL     1      -3.341 -47.421  14.297  1.00  0.00    -0.273 OA
HETATM    3  N3  UNL     1      -1.728 -46.158  15.432  1.00  0.00    -0.352 N 
HETATM    4  C12 UNL     1      -2.733 -45.542  16.262  1.00  0.00     0.126 C 
HETATM    5  C13 UNL     1      -2.036 -44.776  17.335  1.00  0.00     0.031 C 
HETATM    6  C14 UNL     1      -1.035 -43.762  16.781  1.00  0.00     0.044 C 
HETATM    7  C15 UNL     1      -1.788 -42.544  16.237  1.00  0.00     0.029 A 
HETATM    8  N4  UNL     1      -2.366 -41.625  17.004  1.00  0.00    -0.339 N 
ATOM      9  H4  UNL     1      -2.330 -41.696  18.021  1.00  0.00     0.168 HD
HETATM   10  C16 UNL     1      -2.986 -40.619  16.419  1.00  0.00     0.147 A 
HETATM   11  S1  UNL     1      -2.790 -40.918  14.763  1.00  0.00    -0.057 SA
HETATM   12  C22 UNL     1      -1.886 -42.372  14.890  1.00  0.00     0.009 A 
HETATM   13  C23 UNL     1      -1.288 -43.316  13.865  1.00  0.00     0.049 C 
HETATM   14  C24 UNL     1       0.019 -43.716  14.467  1.00  0.00     0.012 C 
HETATM   15  C25 UNL     1      -0.115 -44.325  15.814  1.00  0.00     0.014 C 
HETATM   16  C26 UNL     1      -0.347 -45.836  15.573  1.00  0.00     0.131 C 
ENDROOT
BRANCH   1  17
HETATM   17  C10 UNL     1      -1.123 -47.760  13.575  1.00  0.00     0.103 C 
BRANCH  17  18
HETATM   18  C9  UNL     1      -1.230 -47.215  12.186  1.00  0.00     0.009 C 
BRANCH  18  19
HETATM   19  C8  UNL     1      -0.073 -46.324  11.845  1.00  0.00     0.002 C 
BRANCH  19  20
HETATM   20  C7  UNL     1       1.199 -47.150  11.847  1.00  0.00     0.030 C 
BRANCH  20  21
HETATM   21  C6  UNL     1       2.341 -46.394  12.483  1.00  0.00     0.272 C 
BRANCH  21  22
HETATM   22  N2  UNL     1       2.373 -46.646  13.879  1.00  0.00     0.088 N 
HETATM   23  C5  UNL     1       2.662 -47.994  14.283  1.00  0.00     0.274 C 
HETATM   24  C4  UNL     1       4.075 -48.393  14.101  1.00  0.00     0.066 C 
HETATM   25  C3  UNL     1       5.124 -47.363  14.258  1.00  0.00     0.225 C 
HETATM   26  C28 UNL     1       4.670 -45.952  14.359  1.00  0.00     0.066 C 
HETATM   27  C27 UNL     1       3.228 -45.702  14.595  1.00  0.00     0.274 C 
BRANCH  25  28
HETATM   28  N1  UNL     1       6.099 -47.710  15.293  1.00  0.00     0.084 N 
HETATM   29  C1  UNL     1       7.438 -47.383  14.887  1.00  0.00     0.309 C 
HETATM   30  C2  UNL     1       5.803 -47.178  16.578  1.00  0.00     0.309 C 
ENDBRANCH  25  28
ENDBRANCH  21  22
ENDBRANCH  20  21
ENDBRANCH  19  20
ENDBRANCH  18  19
ENDBRANCH  17  18
ENDBRANCH   1  17
BRANCH  10  31
HETATM   31  N5  UNL     1      -3.616 -39.613  16.995  1.00  0.00    -0.344 N 
ATOM     32  H5  UNL     1      -3.972 -39.701  17.948  1.00  0.00     0.164 HD
BRANCH  31  33
HETATM   33  C17 UNL     1      -3.792 -38.396  16.262  1.00  0.00     0.225 C 
BRANCH  33  34
HETATM   34  O2  UNL     1      -5.093 -38.267  15.807  1.00  0.00    -0.376 OA
ATOM     35  H2  UNL     1      -5.192 -37.496  15.260  1.00  0.00     0.212 HD
ENDBRANCH  33  34
BRANCH  33  36
HETATM   36  C18 UNL     1      -3.482 -37.234  17.187  1.00  0.00     0.112 C 
BRANCH  36  37
HETATM   37  C19 UNL     1      -2.055 -37.204  17.549  1.00  0.00     0.029 A 
HETATM   38  C20 UNL     1      -1.556 -37.202  18.856  1.00  0.00     0.114 A 
HETATM   39  N6  UNL     1      -0.221 -37.171  18.803  1.00  0.00    -0.360 N 
HETATM   40  C21 UNL     1       0.148 -37.153  17.514  1.00  0.00     0.180 A 
ATOM     41  H6  UNL     1       0.409 -37.163  19.605  1.00  0.00     0.166 HD
HETATM   42  N7  UNL     1      -0.963 -37.173  16.757  1.00  0.00    -0.354 N 
ATOM     43  H7  UNL     1      -0.979 -37.165  15.737  1.00  0.00     0.166 HD
ENDBRANCH  36  37
ENDBRANCH  33  36
ENDBRANCH  31  33
ENDBRANCH  10  31
TORSDOF 12
ENDMDL
MODEL 5
REMARK VINA RESULT: -7.920648040      0.986      1.568
REMARK  12 active torsions:
REMARK  status: ('A' for Active; 'I' for Inactive)
REMARK    1  A    between atoms: N1_2  and  C3_4 
REMARK    2  A    between atoms: N2_7  and  C6_8 
REMARK    3  A    between atoms: C6_8  and  C7_9 
REMARK    4  A    between atoms: C7_9  and  C8_10 
REMARK    5  A    between atoms: C8_10  and  C9_11 
REMARK    6  A    between atoms: C9_11  and  C10_12 
REMARK    7  A    between atoms: C10_12  and  C11_13 
REMARK       I    between atoms: C11_13  and  N3_15 
REMARK    8  A    between atoms: C16_22  and  N5_23 
REMARK    9  A    between atoms: N5_23  and  C17_25 
REMARK   10  A    between atoms: C17_25  and  O2_26 
REMARK   11  A    between atoms: C17_25  and  C18_28 
REMARK   12  A    between atoms: C18_28  and  C19_29 
ROOT
HETATM    1  C11 UNL     1      -1.567 -46.149  13.269  1.00  0.00     0.219 C 
HETATM    2  O1  UNL     1      -1.910 -47.225  13.813  1.00  0.00    -0.273 OA
HETATM    3  N3  UNL     1      -0.234 -45.911  12.837  1.00  0.00    -0.352 N 
HETATM    4  C12 UNL     1       0.752 -46.945  13.036  1.00  0.00     0.126 C 
HETATM    5  C13 UNL     1       1.989 -46.546  12.305  1.00  0.00     0.031 C 
HETATM    6  C14 UNL     1       2.498 -45.165  12.718  1.00  0.00     0.044 C 
HETATM    7  C15 UNL     1       3.192 -45.262  14.080  1.00  0.00     0.029 A 
HETATM    8  N4  UNL     1       4.389 -45.811  14.266  1.00  0.00    -0.339 N 
ATOM      9  H4  UNL     1       4.910 -46.203  13.483  1.00  0.00     0.168 HD
HETATM   10  C16 UNL     1       4.884 -45.835  15.488  1.00  0.00     0.147 A 
HETATM   11  S1  UNL     1       3.692 -45.089  16.434  1.00  0.00    -0.057 SA
HETATM   12  C22 UNL     1       2.565 -44.763  15.180  1.00  0.00     0.009 A 
HETATM   13  C23 UNL     1       1.201 -44.100  15.157  1.00  0.00     0.049 C 
HETATM   14  C24 UNL     1       1.209 -43.312  13.889  1.00  0.00     0.012 C 
HETATM   15  C25 UNL     1       1.479 -44.137  12.684  1.00  0.00     0.014 C 
HETATM   16  C26 UNL     1       0.102 -44.671  12.221  1.00  0.00     0.131 C 
ENDROOT
BRANCH   1  17
HETATM   17  C10 UNL     1      -2.614 -45.098  13.082  1.00  0.00     0.103 C 
BRANCH  17  18
HETATM   18  C9  UNL     1      -2.777 -44.314  14.345  1.00  0.00     0.009 C 
BRANCH  18  19
HETATM   19  C8  UNL     1      -2.812 -42.838  14.086  1.00  0.00     0.002 C 
BRANCH  19  20
HETATM   20  C7  UNL     1      -2.073 -42.127  15.203  1.00  0.00     0.030 C 
BRANCH  20  21
HETATM   21  C6  UNL     1      -2.417 -40.657  15.237  1.00  0.00     0.272 C 
BRANCH  21  22
HETATM   22  N2  UNL     1      -2.328 -40.167  16.566  1.00  0.00     0.088 N 
HETATM   23  C5  UNL     1      -2.114 -38.755  16.719  1.00  0.00     0.274 C 
HETATM   24  C4  UNL     1      -3.299 -37.925  16.411  1.00  0.00     0.066 C 
HETATM   25  C3  UNL     1      -4.640 -38.476  16.699  1.00  0.00     0.225 C 
HETATM   26  C28 UNL     1      -4.711 -39.914  17.062  1.00  0.00     0.066 C 
HETATM   27  C27 UNL     1      -3.445 -40.609  17.398  1.00  0.00     0.274 C 
BRANCH  25  28
HETATM   28  N1  UNL     1      -5.407 -37.632  17.617  1.00  0.00     0.084 N 
HETATM   29  C1  UNL     1      -6.768 -38.076  17.730  1.00  0.00     0.309 C 
HETATM   30  C2  UNL     1      -4.809 -37.465  18.896  1.00  0.00     0.309 C 
ENDBRANCH  25  28
ENDBRANCH  21  22
ENDBRANCH  20  21
ENDBRANCH  19  20
ENDBRANCH  18  19
ENDBRANCH  17  18
ENDBRANCH   1  17
BRANCH  10  31
HETATM   31  N5  UNL     1       6.043 -46.329  15.880  1.00  0.00    -0.344 N 
ATOM     32  H5  UNL     1       6.273 -46.387  16.872  1.00  0.00     0.164 HD
BRANCH  31  33
HETATM   33  C17 UNL     1       6.973 -46.782  14.890  1.00  0.00     0.225 C 
BRANCH  33  34
HETATM   34  O2  UNL     1       8.118 -46.005  14.882  1.00  0.00    -0.376 OA
ATOM     35  H2  UNL     1       8.594 -46.083  15.700  1.00  0.00     0.212 HD
ENDBRANCH  33  34
BRANCH  33  36
HETATM   36  C18 UNL     1       7.358 -48.214  15.217  1.00  0.00     0.112 C 
BRANCH  36  37
HETATM   37  C19 UNL     1       6.190 -49.109  15.153  1.00  0.00     0.029 A 
HETATM   38  C20 UNL     1       5.805 -50.002  16.159  1.00  0.00     0.114 A 
HETATM   39  N6  UNL     1       4.706 -50.648  15.758  1.00  0.00    -0.360 N 
HETATM   40  C21 UNL     1       4.378 -50.201  14.537  1.00  0.00     0.180 A 
ATOM     41  H6  UNL     1       4.203 -51.358  16.289  1.00  0.00     0.166 HD
HETATM   42  N7  UNL     1       5.278 -49.270  14.173  1.00  0.00    -0.354 N 
ATOM     43  H7  UNL     1       5.271 -48.762  13.288  1.00  0.00     0.166 HD
ENDBRANCH  36  37
ENDBRANCH  33  36
ENDBRANCH  31  33
ENDBRANCH  10  31
TORSDOF 12
ENDMDL
