MODEL 1
REMARK VINA RESULT: -8.457998891      0.000      0.000
REMARK  13 active torsions:
REMARK  status: ('A' for Active; 'I' for Inactive)
REMARK    1  A    between atoms: N1_2  and  C2_5 
REMARK    2  A    between atoms: C2_5  and  C4_7 
REMARK    3  A    between atoms: C4_7  and  O1_8 
REMARK    4  A    between atoms: C4_7  and  N2_10 
REMARK    5  A    between atoms: N3_12  and  C6_13 
REMARK    6  A    between atoms: C6_13  and  C7_14 
REMARK    7  A    between atoms: C13_23  and  C14_24 
REMARK       I    between atoms: C14_24  and  N6_26 
REMARK    8  A    between atoms: N6_26  and  C15_28 
REMARK    9  A    between atoms: C15_28  and  C16_29 
REMARK   10  A    between atoms: C15_28  and  C24_37 
REMARK   11  A    between atoms: C16_29  and  C17_30 
REMARK   12  A    between atoms: C24_37  and  O3_38 
REMARK   13  A    between atoms: C24_37  and  C25_40 
ROOT
HETATM    1  N2  UNL     1      -2.729 -40.223  16.643  1.00  0.00    -0.324 N 
HETATM    2  C5  UNL     1      -4.116 -40.618  16.898  1.00  0.00     0.400 C 
HETATM    3  N3  UNL     1      -4.315 -41.195  18.187  1.00  0.00     0.111 N 
HETATM    4  C11 UNL     1      -3.144 -41.694  18.821  1.00  0.00     0.277 C 
HETATM    5  C12 UNL     1      -2.159 -42.270  17.826  1.00  0.00     0.065 C 
HETATM    6  C13 UNL     1      -1.660 -41.172  16.884  1.00  0.00     0.181 C 
ENDROOT
BRANCH   6   7
HETATM    7  C14 UNL     1      -1.173 -41.849  15.675  1.00  0.00     0.241 C 
HETATM    8  O2  UNL     1      -1.458 -41.413  14.548  1.00  0.00    -0.271 OA
HETATM    9  N6  UNL     1      -0.374 -43.007  15.796  1.00  0.00    -0.352 N 
ATOM     10  H6  UNL     1      -0.146 -43.358  16.726  1.00  0.00     0.163 HD
BRANCH   9  11
HETATM   11  C15 UNL     1       0.150 -43.738  14.588  1.00  0.00     0.114 C 
BRANCH  11  12
HETATM   12  C16 UNL     1      -0.596 -44.990  14.513  1.00  0.00     0.033 C 
BRANCH  12  13
HETATM   13  C17 UNL     1      -1.558 -45.337  13.451  1.00  0.00    -0.009 C 
HETATM   14  C18 UNL     1      -1.193 -45.202  12.027  1.00  0.00     0.005 C 
HETATM   15  C19 UNL     1      -1.496 -46.512  11.246  1.00  0.00     0.000 C 
HETATM   16  C20 UNL     1      -0.754 -47.657  11.847  1.00  0.00     0.000 C 
HETATM   17  C21 UNL     1      -1.072 -47.759  13.316  1.00  0.00     0.004 C 
HETATM   18  C22 UNL     1      -2.122 -46.748  13.661  1.00  0.00    -0.014 C 
HETATM   19  C23 UNL     1      -2.508 -46.955  15.111  1.00  0.00     0.010 C 
ENDBRANCH  12  13
ENDBRANCH  11  12
BRANCH  11  20
HETATM   20  C24 UNL     1       1.567 -43.553  14.515  1.00  0.00     0.144 C 
BRANCH  20  21
HETATM   21  O3  UNL     1       1.972 -42.247  14.106  1.00  0.00    -0.393 OA
ATOM     22  H3  UNL     1       2.191 -41.660  14.821  1.00  0.00     0.210 HD
ENDBRANCH  20  21
BRANCH  20  23
HETATM   23  C25 UNL     1       2.487 -44.457  13.750  1.00  0.00     0.016 C 
HETATM   24  C26 UNL     1       2.048 -44.938  12.435  1.00  0.00     0.007 C 
HETATM   25  C27 UNL     1       2.627 -46.229  11.974  1.00  0.00     0.000 C 
HETATM   26  C28 UNL     1       2.780 -47.312  12.982  1.00  0.00     0.000 C 
HETATM   27  C29 UNL     1       3.602 -46.680  14.126  1.00  0.00     0.000 C 
HETATM   28  C30 UNL     1       2.661 -45.654  14.707  1.00  0.00     0.007 C 
ENDBRANCH  20  23
ENDBRANCH  11  20
ENDBRANCH   9  11
ENDBRANCH   6   7
BRANCH   1  29
HETATM   29  C4  UNL     1      -2.472 -38.944  16.164  1.00  0.00     0.146 C 
BRANCH  29  30
HETATM   30  C2  UNL     1      -1.880 -37.791  16.852  1.00  0.00     0.255 C 
HETATM   31  C3  UNL     1      -2.205 -36.454  16.203  1.00  0.00     0.049 C 
BRANCH  30  32
HETATM   32  N1  UNL     1      -0.417 -37.892  16.900  1.00  0.00    -0.068 N 
HETATM   33  C1  UNL     1       0.095 -37.427  18.173  1.00  0.00     0.267 C 
ATOM     34  H12 UNL     1       0.020 -37.403  16.119  1.00  0.00     0.277 HD
ATOM     35  H11 UNL     1      -0.098 -38.839  16.690  1.00  0.00     0.277 HD
ENDBRANCH  30  32
ENDBRANCH  29  30
BRANCH  29  36
HETATM   36  O1  UNL     1      -2.809 -38.749  14.920  1.00  0.00    -0.348 OA
ATOM     37  H1  UNL     1      -2.923 -39.533  14.396  1.00  0.00     0.219 HD
ENDBRANCH  29  36
ENDBRANCH   1  29
BRANCH   3  38
HETATM   38  C6  UNL     1      -5.124 -40.362  19.056  1.00  0.00     0.333 C 
BRANCH  38  39
HETATM   39  C7  UNL     1      -4.463 -39.100  19.368  1.00  0.00     0.056 A 
HETATM   40  C8  UNL     1      -3.386 -38.948  20.213  1.00  0.00     0.115 A 
HETATM   41  N4  UNL     1      -3.039 -37.635  20.261  1.00  0.00    -0.360 N 
HETATM   42  C9  UNL     1      -3.896 -36.971  19.449  1.00  0.00     0.182 A 
ATOM     43  H4  UNL     1      -2.278 -37.227  20.803  1.00  0.00     0.166 HD
HETATM   44  N5  UNL     1      -4.755 -37.880  18.916  1.00  0.00    -0.348 N 
HETATM   45  C10 UNL     1      -5.798 -37.531  18.004  1.00  0.00     0.157 C 
ENDBRANCH  38  39
ENDBRANCH   3  38
TORSDOF 13
ENDMDL
MODEL 2
REMARK VINA RESULT: -8.449704953      1.224      1.746
REMARK  13 active torsions:
REMARK  status: ('A' for Active; 'I' for Inactive)
REMARK    1  A    between atoms: N1_2  and  C2_5 
REMARK    2  A    between atoms: C2_5  and  C4_7 
REMARK    3  A    between atoms: C4_7  and  O1_8 
REMARK    4  A    between atoms: C4_7  and  N2_10 
REMARK    5  A    between atoms: N3_12  and  C6_13 
REMARK    6  A    between atoms: C6_13  and  C7_14 
REMARK    7  A    between atoms: C13_23  and  C14_24 
REMARK       I    between atoms: C14_24  and  N6_26 
REMARK    8  A    between atoms: N6_26  and  C15_28 
REMARK    9  A    between atoms: C15_28  and  C16_29 
REMARK   10  A    between atoms: C15_28  and  C24_37 
REMARK   11  A    between atoms: C16_29  and  C17_30 
REMARK   12  A    between atoms: C24_37  and  O3_38 
REMARK   13  A    between atoms: C24_37  and  C25_40 
ROOT
HETATM    1  N2  UNL     1      -2.714 -40.051  16.655  1.00  0.00    -0.324 N 
HETATM    2  C5  UNL     1      -4.020 -40.321  17.259  1.00  0.00     0.400 C 
HETATM    3  N3  UNL     1      -3.937 -40.981  18.522  1.00  0.00     0.111 N 
HETATM    4  C11 UNL     1      -2.709 -41.649  18.782  1.00  0.00     0.277 C 
HETATM    5  C12 UNL     1      -2.101 -42.237  17.526  1.00  0.00     0.065 C 
HETATM    6  C13 UNL     1      -1.742 -41.121  16.543  1.00  0.00     0.181 C 
ENDROOT
BRANCH   6   7
HETATM    7  C14 UNL     1      -1.681 -41.740  15.213  1.00  0.00     0.241 C 
HETATM    8  O2  UNL     1      -2.423 -41.348  14.298  1.00  0.00    -0.271 OA
HETATM    9  N6  UNL     1      -0.770 -42.792  14.972  1.00  0.00    -0.352 N 
ATOM     10  H6  UNL     1      -0.165 -43.108  15.731  1.00  0.00     0.163 HD
BRANCH   9  11
HETATM   11  C15 UNL     1      -0.668 -43.460  13.627  1.00  0.00     0.114 C 
BRANCH  11  12
HETATM   12  C16 UNL     1      -1.121 -44.834  13.818  1.00  0.00     0.033 C 
BRANCH  12  13
HETATM   13  C17 UNL     1      -1.874 -45.620  12.825  1.00  0.00    -0.009 C 
HETATM   14  C18 UNL     1      -1.468 -45.634  11.405  1.00  0.00     0.005 C 
HETATM   15  C19 UNL     1      -1.340 -47.089  10.874  1.00  0.00     0.000 C 
HETATM   16  C20 UNL     1      -0.347 -47.851  11.686  1.00  0.00     0.000 C 
HETATM   17  C21 UNL     1      -0.721 -47.786  13.144  1.00  0.00     0.004 C 
HETATM   18  C22 UNL     1      -2.033 -47.076  13.282  1.00  0.00    -0.014 C 
HETATM   19  C23 UNL     1      -2.441 -47.132  14.740  1.00  0.00     0.010 C 
ENDBRANCH  12  13
ENDBRANCH  11  12
BRANCH  11  20
HETATM   20  C24 UNL     1       0.524 -43.010  12.977  1.00  0.00     0.144 C 
BRANCH  20  21
HETATM   21  O3  UNL     1       0.365 -42.712  11.590  1.00  0.00    -0.393 OA
ATOM     22  H3  UNL     1       1.117 -42.292  11.188  1.00  0.00     0.210 HD
ENDBRANCH  20  21
BRANCH  20  23
HETATM   23  C25 UNL     1       1.830 -43.747  13.026  1.00  0.00     0.016 C 
HETATM   24  C26 UNL     1       1.881 -45.100  12.458  1.00  0.00     0.007 C 
HETATM   25  C27 UNL     1       2.918 -46.011  13.012  1.00  0.00     0.000 C 
HETATM   26  C28 UNL     1       3.151 -45.975  14.481  1.00  0.00     0.000 C 
HETATM   27  C29 UNL     1       3.447 -44.493  14.801  1.00  0.00     0.000 C 
HETATM   28  C30 UNL     1       2.129 -43.809  14.537  1.00  0.00     0.007 C 
ENDBRANCH  20  23
ENDBRANCH  11  20
ENDBRANCH   9  11
ENDBRANCH   6   7
BRANCH   1  29
HETATM   29  C4  UNL     1      -2.441 -38.769  16.193  1.00  0.00     0.146 C 
BRANCH  29  30
HETATM   30  C2  UNL     1      -1.811 -37.640  16.887  1.00  0.00     0.255 C 
HETATM   31  C3  UNL     1      -2.232 -36.278  16.355  1.00  0.00     0.049 C 
BRANCH  30  32
HETATM   32  N1  UNL     1      -0.349 -37.699  16.785  1.00  0.00    -0.068 N 
HETATM   33  C1  UNL     1       0.279 -37.059  17.924  1.00  0.00     0.267 C 
ATOM     34  H12 UNL     1      -0.017 -37.307  15.904  1.00  0.00     0.277 HD
ATOM     35  H11 UNL     1      -0.019 -38.657  16.664  1.00  0.00     0.277 HD
ENDBRANCH  30  32
ENDBRANCH  29  30
BRANCH  29  36
HETATM   36  O1  UNL     1      -2.799 -38.546  14.960  1.00  0.00    -0.348 OA
ATOM     37  H1  UNL     1      -2.258 -38.952  14.293  1.00  0.00     0.219 HD
ENDBRANCH  29  36
ENDBRANCH   1  29
BRANCH   3  38
HETATM   38  C6  UNL     1      -4.378 -40.146  19.621  1.00  0.00     0.333 C 
BRANCH  38  39
HETATM   39  C7  UNL     1      -3.263 -39.716  20.458  1.00  0.00     0.056 A 
HETATM   40  C8  UNL     1      -2.364 -38.721  20.144  1.00  0.00     0.115 A 
HETATM   41  N4  UNL     1      -1.467 -38.594  21.157  1.00  0.00    -0.360 N 
HETATM   42  C9  UNL     1      -1.805 -39.507  22.099  1.00  0.00     0.182 A 
ATOM     43  H4  UNL     1      -0.688 -37.938  21.200  1.00  0.00     0.166 HD
HETATM   44  N5  UNL     1      -2.900 -40.178  21.655  1.00  0.00    -0.348 N 
HETATM   45  C10 UNL     1      -3.537 -41.219  22.400  1.00  0.00     0.157 C 
ENDBRANCH  38  39
ENDBRANCH   3  38
TORSDOF 13
ENDMDL
MODEL 3
REMARK VINA RESULT: -8.438743323      1.668      3.457
REMARK  13 active torsions:
REMARK  status: ('A' for Active; 'I' for Inactive)
REMARK    1  A    between atoms: N1_2  and  C2_5 
REMARK    2  A    between atoms: C2_5  and  C4_7 
REMARK    3  A    between atoms: C4_7  and  O1_8 
REMARK    4  A    between atoms: C4_7  and  N2_10 
REMARK    5  A    between atoms: N3_12  and  C6_13 
REMARK    6  A    between atoms: C6_13  and  C7_14 
REMARK    7  A    between atoms: C13_23  and  C14_24 
REMARK       I    between atoms: C14_24  and  N6_26 
REMARK    8  A    between atoms: N6_26  and  C15_28 
REMARK    9  A    between atoms: C15_28  and  C16_29 
REMARK   10  A    between atoms: C15_28  and  C24_37 
REMARK   11  A    between atoms: C16_29  and  C17_30 
REMARK   12  A    between atoms: C24_37  and  O3_38 
REMARK   13  A    between atoms: C24_37  and  C25_40 
ROOT
HETATM    1  N2  UNL     1      -3.174 -40.648  16.824  1.00  0.00    -0.324 N 
HETATM    2  C5  UNL     1      -2.156 -39.603  16.953  1.00  0.00     0.400 C 
HETATM    3  N3  UNL     1      -2.438 -38.436  16.181  1.00  0.00     0.111 N 
HETATM    4  C11 UNL     1      -3.360 -38.619  15.114  1.00  0.00     0.277 C 
HETATM    5  C12 UNL     1      -3.240 -39.990  14.484  1.00  0.00     0.065 C 
HETATM    6  C13 UNL     1      -3.601 -41.071  15.505  1.00  0.00     0.181 C 
ENDROOT
BRANCH   6   7
HETATM    7  C14 UNL     1      -2.970 -42.313  15.039  1.00  0.00     0.241 C 
HETATM    8  O2  UNL     1      -3.477 -42.973  14.117  1.00  0.00    -0.271 OA
HETATM    9  N6  UNL     1      -1.775 -42.760  15.643  1.00  0.00    -0.352 N 
ATOM     10  H6  UNL     1      -1.366 -42.210  16.399  1.00  0.00     0.163 HD
BRANCH   9  11
HETATM   11  C15 UNL     1      -1.088 -44.025  15.202  1.00  0.00     0.114 C 
BRANCH  11  12
HETATM   12  C16 UNL     1      -1.285 -44.992  16.276  1.00  0.00     0.033 C 
BRANCH  12  13
HETATM   13  C17 UNL     1      -2.169 -46.169  16.201  1.00  0.00    -0.009 C 
HETATM   14  C18 UNL     1      -3.053 -46.378  15.037  1.00  0.00     0.005 C 
HETATM   15  C19 UNL     1      -2.881 -47.809  14.454  1.00  0.00     0.000 C 
HETATM   16  C20 UNL     1      -1.462 -48.038  14.054  1.00  0.00     0.000 C 
HETATM   17  C21 UNL     1      -0.551 -47.763  15.220  1.00  0.00     0.004 C 
HETATM   18  C22 UNL     1      -1.381 -47.464  16.431  1.00  0.00    -0.014 C 
HETATM   19  C23 UNL     1      -0.443 -47.312  17.612  1.00  0.00     0.010 C 
ENDBRANCH  12  13
ENDBRANCH  11  12
BRANCH  11  20
HETATM   20  C24 UNL     1       0.133 -43.681  14.541  1.00  0.00     0.144 C 
BRANCH  20  21
HETATM   21  O3  UNL     1       0.353 -42.278  14.397  1.00  0.00    -0.393 OA
ATOM     22  H3  UNL     1       0.579 -42.002  13.516  1.00  0.00     0.210 HD
ENDBRANCH  20  21
BRANCH  20  23
HETATM   23  C25 UNL     1       0.545 -44.234  13.208  1.00  0.00     0.016 C 
HETATM   24  C26 UNL     1      -0.437 -45.025  12.456  1.00  0.00     0.007 C 
HETATM   25  C27 UNL     1       0.112 -46.024  11.499  1.00  0.00     0.000 C 
HETATM   26  C28 UNL     1       1.301 -46.807  11.930  1.00  0.00     0.000 C 
HETATM   27  C29 UNL     1       2.351 -45.748  12.332  1.00  0.00     0.000 C 
HETATM   28  C30 UNL     1       1.756 -45.118  13.567  1.00  0.00     0.007 C 
ENDBRANCH  20  23
ENDBRANCH  11  20
ENDBRANCH   9  11
ENDBRANCH   6   7
BRANCH   1  29
HETATM   29  C4  UNL     1      -3.700 -41.217  17.977  1.00  0.00     0.146 C 
BRANCH  29  30
HETATM   30  C2  UNL     1      -4.730 -40.702  18.887  1.00  0.00     0.255 C 
HETATM   31  C3  UNL     1      -5.074 -41.650  20.026  1.00  0.00     0.049 C 
BRANCH  30  32
HETATM   32  N1  UNL     1      -5.983 -40.427  18.174  1.00  0.00    -0.068 N 
HETATM   33  C1  UNL     1      -6.150 -39.006  17.946  1.00  0.00     0.267 C 
ATOM     34  H12 UNL     1      -6.786 -40.827  18.659  1.00  0.00     0.277 HD
ATOM     35  H11 UNL     1      -6.045 -40.957  17.305  1.00  0.00     0.277 HD
ENDBRANCH  30  32
ENDBRANCH  29  30
BRANCH  29  36
HETATM   36  O1  UNL     1      -3.201 -42.381  18.288  1.00  0.00    -0.348 OA
ATOM     37  H1  UNL     1      -2.336 -42.565  17.941  1.00  0.00     0.219 HD
ENDBRANCH  29  36
ENDBRANCH   1  29
BRANCH   3  38
HETATM   38  C6  UNL     1      -2.734 -37.278  17.001  1.00  0.00     0.333 C 
BRANCH  38  39
HETATM   39  C7  UNL     1      -2.120 -37.375  18.320  1.00  0.00     0.056 A 
HETATM   40  C8  UNL     1      -2.788 -37.638  19.497  1.00  0.00     0.115 A 
HETATM   41  N4  UNL     1      -1.895 -37.654  20.521  1.00  0.00    -0.360 N 
HETATM   42  C9  UNL     1      -0.676 -37.402  19.986  1.00  0.00     0.182 A 
ATOM     43  H4  UNL     1      -2.103 -37.824  21.505  1.00  0.00     0.166 HD
HETATM   44  N5  UNL     1      -0.835 -37.235  18.647  1.00  0.00    -0.348 N 
HETATM   45  C10 UNL     1       0.249 -36.956  17.758  1.00  0.00     0.157 C 
ENDBRANCH  38  39
ENDBRANCH   3  38
TORSDOF 13
ENDMDL
MODEL 4
REMARK VINA RESULT: -8.423075855      1.772      3.186
REMARK  13 active torsions:
REMARK  status: ('A' for Active; 'I' for Inactive)
REMARK    1  A    between atoms: N1_2  and  C2_5 
REMARK    2  A    between atoms: C2_5  and  C4_7 
REMARK    3  A    between atoms: C4_7  and  O1_8 
REMARK    4  A    between atoms: C4_7  and  N2_10 
REMARK    5  A    between atoms: N3_12  and  C6_13 
REMARK    6  A    between atoms: C6_13  and  C7_14 
REMARK    7  A    between atoms: C13_23  and  C14_24 
REMARK       I    between atoms: C14_24  and  N6_26 
REMARK    8  A    between atoms: N6_26  and  C15_28 
REMARK    9  A    between atoms: C15_28  and  C16_29 
REMARK   10  A    between atoms: C15_28  and  C24_37 
REMARK   11  A    between atoms: C16_29  and  C17_30 
REMARK   12  A    between atoms: C24_37  and  O3_38 
REMARK   13  A    between atoms: C24_37  and  C25_40 
ROOT
HETATM    1  N2  UNL     1      -2.860 -40.514  16.681  1.00  0.00    -0.324 N 
HETATM    2  C5  UNL     1      -2.249 -39.196  16.863  1.00  0.00     0.400 C 
HETATM    3  N3  UNL     1      -3.134 -38.114  16.577  1.00  0.00     0.111 N 
HETATM    4  C11 UNL     1      -4.259 -38.443  15.771  1.00  0.00     0.277 C 
HETATM    5  C12 UNL     1      -3.934 -39.509  14.746  1.00  0.00     0.065 C 
HETATM    6  C13 UNL     1      -3.557 -40.816  15.447  1.00  0.00     0.181 C 
ENDROOT
BRANCH   6   7
HETATM    7  C14 UNL     1      -2.766 -41.592  14.484  1.00  0.00     0.241 C 
HETATM    8  O2  UNL     1      -2.293 -41.051  13.471  1.00  0.00    -0.271 OA
HETATM    9  N6  UNL     1      -2.541 -42.968  14.711  1.00  0.00    -0.352 N 
ATOM     10  H6  UNL     1      -2.934 -43.403  15.545  1.00  0.00     0.163 HD
BRANCH   9  11
HETATM   11  C15 UNL     1      -1.737 -43.808  13.755  1.00  0.00     0.114 C 
BRANCH  11  12
HETATM   12  C16 UNL     1      -2.310 -45.149  13.809  1.00  0.00     0.033 C 
BRANCH  12  13
HETATM   13  C17 UNL     1      -2.295 -46.119  12.700  1.00  0.00    -0.009 C 
HETATM   14  C18 UNL     1      -1.532 -45.845  11.466  1.00  0.00     0.005 C 
HETATM   15  C19 UNL     1      -0.607 -47.041  11.104  1.00  0.00     0.000 C 
HETATM   16  C20 UNL     1       0.336 -47.324  12.224  1.00  0.00     0.000 C 
HETATM   17  C21 UNL     1      -0.434 -47.540  13.500  1.00  0.00     0.004 C 
HETATM   18  C22 UNL     1      -1.901 -47.516  13.196  1.00  0.00    -0.014 C 
HETATM   19  C23 UNL     1      -2.645 -47.855  14.472  1.00  0.00     0.010 C 
ENDBRANCH  12  13
ENDBRANCH  11  12
BRANCH  11  20
HETATM   20  C24 UNL     1      -0.360 -43.435  13.858  1.00  0.00     0.144 C 
BRANCH  20  21
HETATM   21  O3  UNL     1       0.218 -42.964  12.641  1.00  0.00    -0.393 OA
ATOM     22  H3  UNL     1       0.359 -42.025  12.609  1.00  0.00     0.210 HD
ENDBRANCH  20  21
BRANCH  20  23
HETATM   23  C25 UNL     1       0.705 -44.327  14.425  1.00  0.00     0.016 C 
HETATM   24  C26 UNL     1       1.279 -43.976  15.730  1.00  0.00     0.007 C 
HETATM   25  C27 UNL     1       2.661 -44.458  15.997  1.00  0.00     0.000 C 
HETATM   26  C28 UNL     1       3.640 -44.389  14.880  1.00  0.00     0.000 C 
HETATM   27  C29 UNL     1       2.973 -45.152  13.715  1.00  0.00     0.000 C 
HETATM   28  C30 UNL     1       1.805 -44.272  13.345  1.00  0.00     0.007 C 
ENDBRANCH  20  23
ENDBRANCH  11  20
ENDBRANCH   9  11
ENDBRANCH   6   7
BRANCH   1  29
HETATM   29  C4  UNL     1      -2.746 -41.453  17.700  1.00  0.00     0.146 C 
BRANCH  29  30
HETATM   30  C2  UNL     1      -1.562 -42.176  18.176  1.00  0.00     0.255 C 
HETATM   31  C3  UNL     1      -1.695 -43.690  18.104  1.00  0.00     0.049 C 
BRANCH  30  32
HETATM   32  N1  UNL     1      -1.260 -41.845  19.573  1.00  0.00    -0.068 N 
HETATM   33  C1  UNL     1      -0.386 -42.837  20.166  1.00  0.00     0.267 C 
ATOM     34  H12 UNL     1      -2.110 -41.718  20.122  1.00  0.00     0.277 HD
ATOM     35  H11 UNL     1      -0.875 -40.904  19.662  1.00  0.00     0.277 HD
ENDBRANCH  30  32
ENDBRANCH  29  30
BRANCH  29  36
HETATM   36  O1  UNL     1      -3.861 -41.723  18.320  1.00  0.00    -0.348 OA
ATOM     37  H1  UNL     1      -4.551 -41.077  18.228  1.00  0.00     0.219 HD
ENDBRANCH  29  36
ENDBRANCH   1  29
BRANCH   3  38
HETATM   38  C6  UNL     1      -3.481 -37.346  17.756  1.00  0.00     0.333 C 
BRANCH  38  39
HETATM   39  C7  UNL     1      -2.393 -37.319  18.727  1.00  0.00     0.056 A 
HETATM   40  C8  UNL     1      -1.240 -36.573  18.616  1.00  0.00     0.115 A 
HETATM   41  N4  UNL     1      -0.458 -36.797  19.705  1.00  0.00    -0.360 N 
HETATM   42  C9  UNL     1      -1.120 -37.679  20.491  1.00  0.00     0.182 A 
ATOM     43  H4  UNL     1       0.453 -36.381  19.894  1.00  0.00     0.166 HD
HETATM   44  N5  UNL     1      -2.295 -37.984  19.878  1.00  0.00    -0.348 N 
HETATM   45  C10 UNL     1      -3.254 -38.889  20.430  1.00  0.00     0.157 C 
ENDBRANCH  38  39
ENDBRANCH   3  38
TORSDOF 13
ENDMDL
MODEL 5
REMARK VINA RESULT: -8.389827072      1.554      2.414
REMARK  13 active torsions:
REMARK  status: ('A' for Active; 'I' for Inactive)
REMARK    1  A    between atoms: N1_2  and  C2_5 
REMARK    2  A    between atoms: C2_5  and  C4_7 
REMARK    3  A    between atoms: C4_7  and  O1_8 
REMARK    4  A    between atoms: C4_7  and  N2_10 
REMARK    5  A    between atoms: N3_12  and  C6_13 
REMARK    6  A    between atoms: C6_13  and  C7_14 
REMARK    7  A    between atoms: C13_23  and  C14_24 
REMARK       I    between atoms: C14_24  and  N6_26 
REMARK    8  A    between atoms: N6_26  and  C15_28 
REMARK    9  A    between atoms: C15_28  and  C16_29 
REMARK   10  A    between atoms: C15_28  and  C24_37 
REMARK   11  A    between atoms: C16_29  and  C17_30 
REMARK   12  A    between atoms: C24_37  and  O3_38 
REMARK   13  A    between atoms: C24_37  and  C25_40 
ROOT
HETATM    1  N2  UNL     1      -2.524 -40.441  17.248  1.00  0.00    -0.324 N 
HETATM    2  C5  UNL     1      -3.791 -40.480  17.980  1.00  0.00     0.400 C 
HETATM    3  N3  UNL     1      -3.628 -40.574  19.395  1.00  0.00     0.111 N 
HETATM    4  C11 UNL     1      -2.361 -41.047  19.833  1.00  0.00     0.277 C 
HETATM    5  C12 UNL     1      -1.777 -42.074  18.886  1.00  0.00     0.065 C 
HETATM    6  C13 UNL     1      -1.509 -41.439  17.521  1.00  0.00     0.181 C 
ENDROOT
BRANCH   6   7
HETATM    7  C14 UNL     1      -1.472 -42.540  16.549  1.00  0.00     0.241 C 
HETATM    8  O2  UNL     1      -2.499 -42.881  15.939  1.00  0.00    -0.271 OA
HETATM    9  N6  UNL     1      -0.257 -43.216  16.304  1.00  0.00    -0.352 N 
ATOM     10  H6  UNL     1       0.581 -42.929  16.810  1.00  0.00     0.163 HD
BRANCH   9  11
HETATM   11  C15 UNL     1      -0.165 -44.350  15.318  1.00  0.00     0.114 C 
BRANCH  11  12
HETATM   12  C16 UNL     1      -0.337 -45.577  16.089  1.00  0.00     0.033 C 
BRANCH  12  13
HETATM   13  C17 UNL     1      -1.586 -46.354  16.175  1.00  0.00    -0.009 C 
HETATM   14  C18 UNL     1      -2.689 -46.119  15.221  1.00  0.00     0.005 C 
HETATM   15  C19 UNL     1      -3.165 -47.453  14.578  1.00  0.00     0.000 C 
HETATM   16  C20 UNL     1      -2.032 -48.124  13.879  1.00  0.00     0.000 C 
HETATM   17  C21 UNL     1      -0.879 -48.307  14.831  1.00  0.00     0.004 C 
HETATM   18  C22 UNL     1      -1.297 -47.860  16.198  1.00  0.00    -0.014 C 
HETATM   19  C23 UNL     1      -0.163 -48.167  17.155  1.00  0.00     0.010 C 
ENDBRANCH  12  13
ENDBRANCH  11  12
BRANCH  11  20
HETATM   20  C24 UNL     1       0.854 -44.049  14.361  1.00  0.00     0.144 C 
BRANCH  20  21
HETATM   21  O3  UNL     1       1.031 -42.655  14.106  1.00  0.00    -0.393 OA
ATOM     22  H3  UNL     1       0.881 -42.397  13.203  1.00  0.00     0.210 HD
ENDBRANCH  20  21
BRANCH  20  23
HETATM   23  C25 UNL     1       0.921 -44.662  12.993  1.00  0.00     0.016 C 
HETATM   24  C26 UNL     1      -0.317 -45.199  12.415  1.00  0.00     0.007 C 
HETATM   25  C27 UNL     1      -0.161 -46.283  11.408  1.00  0.00     0.000 C 
HETATM   26  C28 UNL     1       0.870 -47.322  11.670  1.00  0.00     0.000 C 
HETATM   27  C29 UNL     1       2.182 -46.535  11.886  1.00  0.00     0.000 C 
HETATM   28  C30 UNL     1       1.940 -45.804  13.183  1.00  0.00     0.007 C 
ENDBRANCH  20  23
ENDBRANCH  11  20
ENDBRANCH   9  11
ENDBRANCH   6   7
BRANCH   1  29
HETATM   29  C4  UNL     1      -2.329 -39.447  16.297  1.00  0.00     0.146 C 
BRANCH  29  30
HETATM   30  C2  UNL     1      -3.044 -39.205  15.038  1.00  0.00     0.255 C 
HETATM   31  C3  UNL     1      -4.478 -38.734  15.226  1.00  0.00     0.049 C 
BRANCH  30  32
HETATM   32  N1  UNL     1      -3.103 -40.419  14.217  1.00  0.00    -0.068 N 
HETATM   33  C1  UNL     1      -4.266 -40.407  13.352  1.00  0.00     0.267 C 
ATOM     34  H12 UNL     1      -3.071 -41.263  14.789  1.00  0.00     0.277 HD
ATOM     35  H11 UNL     1      -2.243 -40.557  13.687  1.00  0.00     0.277 HD
ENDBRANCH  30  32
ENDBRANCH  29  30
BRANCH  29  36
HETATM   36  O1  UNL     1      -1.369 -38.609  16.572  1.00  0.00    -0.348 OA
ATOM     37  H1  UNL     1      -0.506 -38.854  16.259  1.00  0.00     0.219 HD
ENDBRANCH  29  36
ENDBRANCH   1  29
BRANCH   3  38
HETATM   38  C6  UNL     1      -4.064 -39.379  20.090  1.00  0.00     0.333 C 
BRANCH  38  39
HETATM   39  C7  UNL     1      -3.523 -38.169  19.482  1.00  0.00     0.056 A 
HETATM   40  C8  UNL     1      -2.228 -37.716  19.613  1.00  0.00     0.115 A 
HETATM   41  N4  UNL     1      -2.086 -36.563  18.909  1.00  0.00    -0.360 N 
HETATM   42  C9  UNL     1      -3.287 -36.296  18.342  1.00  0.00     0.182 A 
ATOM     43  H4  UNL     1      -1.238 -36.004  18.823  1.00  0.00     0.166 HD
HETATM   44  N5  UNL     1      -4.147 -37.285  18.703  1.00  0.00    -0.348 N 
HETATM   45  C10 UNL     1      -5.512 -37.329  18.279  1.00  0.00     0.157 C 
ENDBRANCH  38  39
ENDBRANCH   3  38
TORSDOF 13
ENDMDL
