MODEL 1
REMARK VINA RESULT: -5.571756796      0.000      0.000
REMARK  3 active torsions:
REMARK  status: ('A' for Active; 'I' for Inactive)
REMARK    1  A    between atoms: N3_8  and  C4_9 
REMARK    2  A    between atoms: C4_9  and  C5_10 
REMARK    3  A    between atoms: C4_9  and  C8_13 
ROOT
HETATM    1  C4  UNL     1      -7.970 -18.599  41.611  1.00  0.00     0.104 C 
ENDROOT
BRANCH   1   2
HETATM    2  N3  UNL     1      -8.141 -18.881  40.211  1.00  0.00    -0.325 N 
HETATM    3  C2  UNL     1      -7.279 -18.594  39.193  1.00  0.00     0.095 A 
HETATM    4  C1  UNL     1      -5.979 -17.928  39.377  1.00  0.00     0.091 C 
HETATM    5  N1  UNL     1      -7.789 -18.996  38.013  1.00  0.00    -0.288 N 
HETATM    6  N2  UNL     1      -8.952 -19.534  38.238  1.00  0.00    -0.295 N 
ATOM      7  H1  UNL     1      -7.341 -18.898  37.102  1.00  0.00     0.188 HD
HETATM    8  C3  UNL     1      -9.178 -19.469  39.584  1.00  0.00     0.201 A 
ATOM      9  H2  UNL     1      -9.579 -19.930  37.539  1.00  0.00     0.187 HD
ENDBRANCH   1   2
BRANCH   1  10
HETATM   10  C5  UNL     1      -7.657 -19.797  42.462  1.00  0.00     0.010 A 
HETATM   11  C6  UNL     1      -7.050 -19.673  43.818  1.00  0.00     0.007 A 
HETATM   12  C7  UNL     1      -6.210 -20.148  42.686  1.00  0.00     0.007 A 
ENDBRANCH   1  10
BRANCH   1  13
HETATM   13  C8  UNL     1      -9.009 -17.694  42.170  1.00  0.00    -0.019 C 
HETATM   14  C9  UNL     1     -10.199 -18.328  42.798  1.00  0.00     0.012 C 
HETATM   15  C10 UNL     1     -10.748 -17.281  43.790  1.00  0.00     0.005 C 
HETATM   16  C11 UNL     1      -9.887 -16.083  43.489  1.00  0.00    -0.014 C 
HETATM   17  C12 UNL     1     -10.175 -15.650  42.083  1.00  0.00     0.005 C 
HETATM   18  C14 UNL     1      -8.531 -16.794  43.294  1.00  0.00     0.016 C 
HETATM   19  C13 UNL     1      -9.418 -16.604  41.167  1.00  0.00     0.012 C 
ENDBRANCH   1  13
TORSDOF 3
ENDMDL
MODEL 2
REMARK VINA RESULT: -5.551452254      2.009      3.895
REMARK  3 active torsions:
REMARK  status: ('A' for Active; 'I' for Inactive)
REMARK    1  A    between atoms: N3_8  and  C4_9 
REMARK    2  A    between atoms: C4_9  and  C5_10 
REMARK    3  A    between atoms: C4_9  and  C8_13 
ROOT
HETATM    1  C4  UNL     1      -8.065 -18.069  40.082  1.00  0.00     0.104 C 
ENDROOT
BRANCH   1   2
HETATM    2  N3  UNL     1      -7.731 -16.686  39.874  1.00  0.00    -0.325 N 
HETATM    3  C2  UNL     1      -6.660 -16.181  39.195  1.00  0.00     0.095 A 
HETATM    4  C1  UNL     1      -5.639 -17.010  38.534  1.00  0.00     0.091 C 
HETATM    5  N1  UNL     1      -6.671 -14.834  39.225  1.00  0.00    -0.288 N 
HETATM    6  N2  UNL     1      -7.716 -14.455  39.901  1.00  0.00    -0.295 N 
ATOM      7  H1  UNL     1      -5.982 -14.219  38.792  1.00  0.00     0.188 HD
HETATM    8  C3  UNL     1      -8.373 -15.583  40.304  1.00  0.00     0.201 A 
ATOM      9  H2  UNL     1      -7.992 -13.493  40.096  1.00  0.00     0.187 HD
ENDBRANCH   1   2
BRANCH   1  10
HETATM   10  C5  UNL     1      -9.401 -18.484  39.535  1.00  0.00     0.010 A 
HETATM   11  C6  UNL     1      -9.563 -19.664  38.638  1.00  0.00     0.007 A 
HETATM   12  C7  UNL     1      -9.654 -18.295  38.063  1.00  0.00     0.007 A 
ENDBRANCH   1  10
BRANCH   1  13
HETATM   13  C8  UNL     1      -7.779 -18.553  41.458  1.00  0.00    -0.019 C 
HETATM   14  C9  UNL     1      -8.082 -17.627  42.583  1.00  0.00     0.012 C 
HETATM   15  C10 UNL     1      -8.294 -18.532  43.815  1.00  0.00     0.005 C 
HETATM   16  C11 UNL     1      -7.919 -19.887  43.277  1.00  0.00    -0.014 C 
HETATM   17  C12 UNL     1      -6.464 -19.854  42.916  1.00  0.00     0.005 C 
HETATM   18  C14 UNL     1      -8.560 -19.784  41.876  1.00  0.00     0.016 C 
HETATM   19  C13 UNL     1      -6.361 -19.134  41.577  1.00  0.00     0.012 C 
ENDBRANCH   1  13
TORSDOF 3
ENDMDL
MODEL 3
REMARK VINA RESULT: -5.495926294      1.535      3.510
REMARK  3 active torsions:
REMARK  status: ('A' for Active; 'I' for Inactive)
REMARK    1  A    between atoms: N3_8  and  C4_9 
REMARK    2  A    between atoms: C4_9  and  C5_10 
REMARK    3  A    between atoms: C4_9  and  C8_13 
ROOT
HETATM    1  C4  UNL     1      -7.733 -18.131  40.095  1.00  0.00     0.104 C 
ENDROOT
BRANCH   1   2
HETATM    2  N3  UNL     1      -8.853 -18.673  39.374  1.00  0.00    -0.325 N 
HETATM    3  C2  UNL     1     -10.089 -18.116  39.215  1.00  0.00     0.095 A 
HETATM    4  C1  UNL     1     -10.484 -16.814  39.775  1.00  0.00     0.091 C 
HETATM    5  N1  UNL     1     -10.883 -18.926  38.488  1.00  0.00    -0.288 N 
HETATM    6  N2  UNL     1     -10.198 -19.986  38.174  1.00  0.00    -0.295 N 
ATOM      7  H1  UNL     1     -11.852 -18.740  38.229  1.00  0.00     0.188 HD
HETATM    8  C3  UNL     1      -8.951 -19.842  38.712  1.00  0.00     0.201 A 
ATOM      9  H2  UNL     1     -10.531 -20.780  37.627  1.00  0.00     0.187 HD
ENDBRANCH   1   2
BRANCH   1  10
HETATM   10  C5  UNL     1      -6.422 -18.193  39.364  1.00  0.00     0.010 A 
HETATM   11  C6  UNL     1      -5.561 -16.992  39.170  1.00  0.00     0.007 A 
HETATM   12  C7  UNL     1      -6.331 -17.529  38.016  1.00  0.00     0.007 A 
ENDBRANCH   1  10
BRANCH   1  13
HETATM   13  C8  UNL     1      -7.673 -18.560  41.518  1.00  0.00    -0.019 C 
HETATM   14  C9  UNL     1      -7.990 -17.537  42.551  1.00  0.00     0.012 C 
HETATM   15  C10 UNL     1      -8.455 -18.333  43.788  1.00  0.00     0.005 C 
HETATM   16  C11 UNL     1      -8.190 -19.754  43.365  1.00  0.00    -0.014 C 
HETATM   17  C12 UNL     1      -6.710 -19.914  43.187  1.00  0.00     0.005 C 
HETATM   18  C14 UNL     1      -8.644 -19.663  41.892  1.00  0.00     0.016 C 
HETATM   19  C13 UNL     1      -6.362 -19.294  41.839  1.00  0.00     0.012 C 
ENDBRANCH   1  13
TORSDOF 3
ENDMDL
MODEL 4
REMARK VINA RESULT: -5.483079740      0.408      1.374
REMARK  3 active torsions:
REMARK  status: ('A' for Active; 'I' for Inactive)
REMARK    1  A    between atoms: N3_8  and  C4_9 
REMARK    2  A    between atoms: C4_9  and  C5_10 
REMARK    3  A    between atoms: C4_9  and  C8_13 
ROOT
HETATM    1  C4  UNL     1      -7.952 -18.616  41.641  1.00  0.00     0.104 C 
ENDROOT
BRANCH   1   2
HETATM    2  N3  UNL     1      -8.122 -18.861  40.234  1.00  0.00    -0.325 N 
HETATM    3  C2  UNL     1      -7.301 -18.472  39.216  1.00  0.00     0.095 A 
HETATM    4  C1  UNL     1      -6.055 -17.713  39.408  1.00  0.00     0.091 C 
HETATM    5  N1  UNL     1      -7.796 -18.872  38.029  1.00  0.00    -0.288 N 
HETATM    6  N2  UNL     1      -8.910 -19.506  38.250  1.00  0.00    -0.295 N 
ATOM      7  H1  UNL     1      -7.372 -18.706  37.116  1.00  0.00     0.188 HD
HETATM    8  C3  UNL     1      -9.120 -19.506  39.599  1.00  0.00     0.201 A 
ATOM      9  H2  UNL     1      -9.515 -19.926  37.545  1.00  0.00     0.187 HD
ENDBRANCH   1   2
BRANCH   1  10
HETATM   10  C5  UNL     1      -7.609 -19.830  42.456  1.00  0.00     0.010 A 
HETATM   11  C6  UNL     1      -7.010 -19.731  43.818  1.00  0.00     0.007 A 
HETATM   12  C7  UNL     1      -6.154 -20.149  42.675  1.00  0.00     0.007 A 
ENDBRANCH   1  10
BRANCH   1  13
HETATM   13  C8  UNL     1      -9.009 -17.750  42.229  1.00  0.00    -0.019 C 
HETATM   14  C9  UNL     1      -8.562 -16.598  43.059  1.00  0.00     0.012 C 
HETATM   15  C10 UNL     1      -9.719 -15.579  43.005  1.00  0.00     0.005 C 
HETATM   16  C11 UNL     1     -10.783 -16.351  42.270  1.00  0.00    -0.014 C 
HETATM   17  C12 UNL     1     -11.176 -17.520  43.122  1.00  0.00     0.005 C 
HETATM   18  C14 UNL     1      -9.898 -17.053  41.218  1.00  0.00     0.016 C 
HETATM   19  C13 UNL     1     -10.088 -18.574  42.949  1.00  0.00     0.012 C 
ENDBRANCH   1  13
TORSDOF 3
ENDMDL
MODEL 5
REMARK VINA RESULT: -5.474739580      1.390      3.328
REMARK  3 active torsions:
REMARK  status: ('A' for Active; 'I' for Inactive)
REMARK    1  A    between atoms: N3_8  and  C4_9 
REMARK    2  A    between atoms: C4_9  and  C5_10 
REMARK    3  A    between atoms: C4_9  and  C8_13 
ROOT
HETATM    1  C4  UNL     1      -8.712 -17.521  40.292  1.00  0.00     0.104 C 
ENDROOT
BRANCH   1   2
HETATM    2  N3  UNL     1      -7.778 -18.182  39.421  1.00  0.00    -0.325 N 
HETATM    3  C2  UNL     1      -8.059 -19.043  38.399  1.00  0.00     0.095 A 
HETATM    4  C1  UNL     1      -9.421 -19.440  38.009  1.00  0.00     0.091 C 
HETATM    5  N1  UNL     1      -6.923 -19.473  37.817  1.00  0.00    -0.288 N 
HETATM    6  N2  UNL     1      -5.920 -18.917  38.430  1.00  0.00    -0.295 N 
ATOM      7  H1  UNL     1      -6.860 -20.121  37.032  1.00  0.00     0.188 HD
HETATM    8  C3  UNL     1      -6.433 -18.123  39.416  1.00  0.00     0.201 A 
ATOM      9  H2  UNL     1      -4.932 -19.050  38.215  1.00  0.00     0.187 HD
ENDBRANCH   1   2
BRANCH   1  10
HETATM   10  C5  UNL     1      -8.549 -16.030  40.377  1.00  0.00     0.010 A 
HETATM   11  C6  UNL     1      -9.715 -15.102  40.398  1.00  0.00     0.007 A 
HETATM   12  C7  UNL     1      -8.893 -15.209  39.163  1.00  0.00     0.007 A 
ENDBRANCH   1  10
BRANCH   1  13
HETATM   13  C8  UNL     1      -8.894 -18.202  41.602  1.00  0.00    -0.019 C 
HETATM   14  C9  UNL     1      -8.443 -19.616  41.702  1.00  0.00     0.012 C 
HETATM   15  C10 UNL     1      -8.163 -19.854  43.201  1.00  0.00     0.005 C 
HETATM   16  C11 UNL     1      -8.652 -18.570  43.818  1.00  0.00    -0.014 C 
HETATM   17  C12 UNL     1     -10.130 -18.480  43.586  1.00  0.00     0.005 C 
HETATM   18  C14 UNL     1      -8.139 -17.573  42.757  1.00  0.00     0.016 C 
HETATM   19  C13 UNL     1     -10.321 -18.028  42.144  1.00  0.00     0.012 C 
ENDBRANCH   1  13
TORSDOF 3
ENDMDL
