MODEL 1
REMARK VINA RESULT: -7.007312313      0.000      0.000
REMARK  3 active torsions:
REMARK  status: ('A' for Active; 'I' for Inactive)
REMARK    1  A    between atoms: C2_3  and  C3_4 
REMARK    2  A    between atoms: C3_4  and  C4_5 
REMARK    3  A    between atoms: C12_13  and  C13_14 
ROOT
HETATM    1  N1  UNL     1      -4.480 -21.003  37.310  1.00  0.00    -0.197 NA
HETATM    2  C1  UNL     1      -3.518 -21.020  36.660  1.00  0.00     0.059 C 
HETATM    3  C2  UNL     1      -2.299 -21.062  35.854  1.00  0.00     0.124 C 
ENDROOT
BRANCH   3   4
HETATM    4  C3  UNL     1      -1.607 -22.376  36.000  1.00  0.00     0.022 C 
BRANCH   4   5
HETATM    5  C4  UNL     1      -0.196 -22.264  36.459  1.00  0.00     0.031 C 
HETATM    6  C5  UNL     1       0.539 -21.334  35.520  1.00  0.00     0.127 C 
HETATM    7  C6  UNL     1       1.853 -21.020  36.225  1.00  0.00     0.037 C 
HETATM    8  O2  UNL     1       0.673 -21.785  34.258  1.00  0.00    -0.380 OA
HETATM    9  C7  UNL     1       2.672 -22.283  36.252  1.00  0.00    -0.011 C 
HETATM   10  C8  UNL     1       3.306 -22.452  34.904  1.00  0.00     0.007 C 
HETATM   11  C14 UNL     1       1.967 -23.472  36.775  1.00  0.00     0.021 C 
HETATM   12  C9  UNL     1       2.527 -23.237  33.924  1.00  0.00     0.032 C 
HETATM   13  C10 UNL     1       1.022 -23.069  34.042  1.00  0.00     0.123 C 
HETATM   14  C11 UNL     1       0.451 -24.086  34.989  1.00  0.00     0.049 C 
HETATM   15  C12 UNL     1       0.511 -23.585  36.422  1.00  0.00     0.021 C 
BRANCH  15  16
HETATM   16  C13 UNL     1      -0.098 -24.622  37.278  1.00  0.00     0.241 C 
HETATM   17  O1  UNL     1      -0.190 -25.777  36.919  1.00  0.00    -0.306 OA
ENDBRANCH  15  16
ENDBRANCH   4   5
ENDBRANCH   3   4
TORSDOF 3
ENDMDL
MODEL 2
REMARK VINA RESULT: -5.705377740      6.594     10.129
REMARK  3 active torsions:
REMARK  status: ('A' for Active; 'I' for Inactive)
REMARK    1  A    between atoms: C2_3  and  C3_4 
REMARK    2  A    between atoms: C3_4  and  C4_5 
REMARK    3  A    between atoms: C12_13  and  C13_14 
ROOT
HETATM    1  N1  UNL     1      -4.284 -21.079  37.127  1.00  0.00    -0.197 NA
HETATM    2  C1  UNL     1      -4.644 -20.043  36.746  1.00  0.00     0.059 C 
HETATM    3  C2  UNL     1      -5.111 -18.737  36.287  1.00  0.00     0.124 C 
ENDROOT
BRANCH   3   4
HETATM    4  C3  UNL     1      -5.770 -17.985  37.395  1.00  0.00     0.022 C 
BRANCH   4   5
HETATM    5  C4  UNL     1      -6.822 -18.762  38.105  1.00  0.00     0.031 C 
HETATM    6  C5  UNL     1      -8.128 -18.584  37.365  1.00  0.00     0.127 C 
HETATM    7  C6  UNL     1      -9.058 -19.643  37.946  1.00  0.00     0.037 C 
HETATM    8  O2  UNL     1      -8.626 -17.333  37.376  1.00  0.00    -0.380 OA
HETATM    9  C7  UNL     1      -9.356 -19.259  39.371  1.00  0.00    -0.011 C 
HETATM   10  C8  UNL     1     -10.403 -18.188  39.352  1.00  0.00     0.007 C 
HETATM   11  C14 UNL     1      -8.166 -18.968  40.200  1.00  0.00     0.021 C 
HETATM   12  C9  UNL     1      -9.899 -16.799  39.313  1.00  0.00     0.032 C 
HETATM   13  C10 UNL     1      -8.616 -16.622  38.522  1.00  0.00     0.123 C 
HETATM   14  C11 UNL     1      -7.419 -16.804  39.412  1.00  0.00     0.049 C 
HETATM   15  C12 UNL     1      -7.032 -18.270  39.505  1.00  0.00     0.021 C 
BRANCH  15  16
HETATM   16  C13 UNL     1      -5.834 -18.357  40.363  1.00  0.00     0.241 C 
HETATM   17  O1  UNL     1      -5.678 -19.262  41.156  1.00  0.00    -0.306 OA
ENDBRANCH  15  16
ENDBRANCH   4   5
ENDBRANCH   3   4
TORSDOF 3
ENDMDL
MODEL 3
REMARK VINA RESULT: -5.610042487      9.458     12.304
REMARK  3 active torsions:
REMARK  status: ('A' for Active; 'I' for Inactive)
REMARK    1  A    between atoms: C2_3  and  C3_4 
REMARK    2  A    between atoms: C3_4  and  C4_5 
REMARK    3  A    between atoms: C12_13  and  C13_14 
ROOT
HETATM    1  N1  UNL     1      -4.394 -21.494  42.444  1.00  0.00    -0.197 NA
HETATM    2  C1  UNL     1      -5.234 -20.984  43.062  1.00  0.00     0.059 C 
HETATM    3  C2  UNL     1      -6.302 -20.333  43.817  1.00  0.00     0.124 C 
ENDROOT
BRANCH   3   4
HETATM    4  C3  UNL     1      -7.421 -19.925  42.918  1.00  0.00     0.022 C 
BRANCH   4   5
HETATM    5  C4  UNL     1      -7.594 -18.452  42.805  1.00  0.00     0.031 C 
HETATM    6  C5  UNL     1      -8.695 -18.027  43.751  1.00  0.00     0.127 C 
HETATM    7  C6  UNL     1      -8.592 -16.507  43.818  1.00  0.00     0.037 C 
HETATM    8  O2  UNL     1      -9.921 -18.492  43.447  1.00  0.00    -0.380 OA
HETATM    9  C7  UNL     1      -8.992 -15.960  42.474  1.00  0.00    -0.011 C 
HETATM   10  C8  UNL     1     -10.489 -15.968  42.399  1.00  0.00     0.007 C 
HETATM   11  C14 UNL     1      -8.297 -16.570  41.320  1.00  0.00     0.021 C 
HETATM   12  C9  UNL     1     -11.097 -17.193  41.839  1.00  0.00     0.032 C 
HETATM   13  C10 UNL     1     -10.345 -18.470  42.168  1.00  0.00     0.123 C 
HETATM   14  C11 UNL     1      -9.312 -18.759  41.115  1.00  0.00     0.049 C 
HETATM   15  C12 UNL     1      -8.009 -18.041  41.425  1.00  0.00     0.021 C 
BRANCH  15  16
HETATM   16  C13 UNL     1      -7.043 -18.404  40.369  1.00  0.00     0.241 C 
HETATM   17  O1  UNL     1      -7.376 -19.025  39.382  1.00  0.00    -0.306 OA
ENDBRANCH  15  16
ENDBRANCH   4   5
ENDBRANCH   3   4
TORSDOF 3
ENDMDL
MODEL 4
REMARK VINA RESULT: -5.445241164      8.963     12.410
REMARK  3 active torsions:
REMARK  status: ('A' for Active; 'I' for Inactive)
REMARK    1  A    between atoms: C2_3  and  C3_4 
REMARK    2  A    between atoms: C3_4  and  C4_5 
REMARK    3  A    between atoms: C12_13  and  C13_14 
ROOT
HETATM    1  N1  UNL     1      -6.111 -19.683  37.447  1.00  0.00    -0.197 NA
HETATM    2  C1  UNL     1      -6.875 -19.078  38.078  1.00  0.00     0.059 C 
HETATM    3  C2  UNL     1      -7.832 -18.331  38.891  1.00  0.00     0.124 C 
ENDROOT
BRANCH   3   4
HETATM    4  C3  UNL     1      -7.684 -18.670  40.337  1.00  0.00     0.022 C 
BRANCH   4   5
HETATM    5  C4  UNL     1      -8.973 -18.717  41.078  1.00  0.00     0.031 C 
HETATM    6  C5  UNL     1      -9.692 -17.403  40.870  1.00  0.00     0.127 C 
HETATM    7  C6  UNL     1     -11.110 -17.645  41.374  1.00  0.00     0.037 C 
HETATM    8  O2  UNL     1      -9.083 -16.328  41.405  1.00  0.00    -0.380 OA
HETATM    9  C7  UNL     1     -11.042 -17.827  42.867  1.00  0.00    -0.011 C 
HETATM   10  C8  UNL     1     -10.931 -16.470  43.493  1.00  0.00     0.007 C 
HETATM   11  C14 UNL     1     -10.051 -18.822  43.329  1.00  0.00     0.021 C 
HETATM   12  C9  UNL     1      -9.556 -15.975  43.709  1.00  0.00     0.032 C 
HETATM   13  C10 UNL     1      -8.562 -16.406  42.646  1.00  0.00     0.123 C 
HETATM   14  C11 UNL     1      -7.921 -17.712  43.022  1.00  0.00     0.049 C 
HETATM   15  C12 UNL     1      -8.766 -18.884  42.552  1.00  0.00     0.021 C 
BRANCH  15  16
HETATM   16  C13 UNL     1      -8.053 -20.121  42.928  1.00  0.00     0.241 C 
HETATM   17  O1  UNL     1      -7.052 -20.101  43.614  1.00  0.00    -0.306 OA
ENDBRANCH  15  16
ENDBRANCH   4   5
ENDBRANCH   3   4
TORSDOF 3
ENDMDL
MODEL 5
REMARK VINA RESULT: -5.360932336      4.824      8.754
REMARK  3 active torsions:
REMARK  status: ('A' for Active; 'I' for Inactive)
REMARK    1  A    between atoms: C2_3  and  C3_4 
REMARK    2  A    between atoms: C3_4  and  C4_5 
REMARK    3  A    between atoms: C12_13  and  C13_14 
ROOT
HETATM    1  N1  UNL     1      -1.539 -21.667  35.955  1.00  0.00    -0.197 NA
HETATM    2  C1  UNL     1      -2.569 -21.351  36.388  1.00  0.00     0.059 C 
HETATM    3  C2  UNL     1      -3.865 -20.934  36.917  1.00  0.00     0.124 C 
ENDROOT
BRANCH   3   4
HETATM    4  C3  UNL     1      -4.479 -19.880  36.058  1.00  0.00     0.022 C 
BRANCH   4   5
HETATM    5  C4  UNL     1      -4.973 -18.699  36.816  1.00  0.00     0.031 C 
HETATM    6  C5  UNL     1      -5.912 -19.184  37.897  1.00  0.00     0.127 C 
HETATM    7  C6  UNL     1      -6.113 -17.982  38.814  1.00  0.00     0.037 C 
HETATM    8  O2  UNL     1      -7.051 -19.747  37.454  1.00  0.00    -0.380 OA
HETATM    9  C7  UNL     1      -6.893 -16.947  38.048  1.00  0.00    -0.011 C 
HETATM   10  C8  UNL     1      -8.337 -17.347  38.069  1.00  0.00     0.007 C 
HETATM   11  C14 UNL     1      -6.346 -16.615  36.715  1.00  0.00     0.021 C 
HETATM   12  C9  UNL     1      -8.783 -18.198  36.946  1.00  0.00     0.032 C 
HETATM   13  C10 UNL     1      -7.731 -19.170  36.443  1.00  0.00     0.123 C 
HETATM   14  C11 UNL     1      -6.908 -18.539  35.356  1.00  0.00     0.049 C 
HETATM   15  C12 UNL     1      -5.746 -17.756  35.944  1.00  0.00     0.021 C 
BRANCH  15  16
HETATM   16  C13 UNL     1      -4.971 -17.202  34.816  1.00  0.00     0.241 C 
HETATM   17  O1  UNL     1      -4.533 -16.070  34.835  1.00  0.00    -0.306 OA
ENDBRANCH  15  16
ENDBRANCH   4   5
ENDBRANCH   3   4
TORSDOF 3
ENDMDL
