MODEL 1
REMARK VINA RESULT: -9.142480863      0.000      0.000
REMARK  9 active torsions:
REMARK  status: ('A' for Active; 'I' for Inactive)
REMARK    1  A    between atoms: C1_2  and  O2_3 
REMARK    2  A    between atoms: C1_2  and  C6_14 
REMARK    3  A    between atoms: O2_3  and  C2_4 
REMARK    4  A    between atoms: C2_4  and  C3_5 
REMARK    5  A    between atoms: C6_14  and  C7_15 
REMARK    6  A    between atoms: C7_15  and  C8_16 
REMARK    7  A    between atoms: C12_20  and  N3_21 
REMARK    8  A    between atoms: N4_25  and  N5_27 
REMARK    9  A    between atoms: N5_27  and  C14_29 
ROOT
HETATM    1  C6  UNL     1     -63.846  30.990  -8.039  1.00  0.00     0.105 C 
HETATM    2  N4  UNL     1     -65.050  30.666  -8.373  1.00  0.00    -0.284 N 
ATOM      3  H4  UNL     1     -65.228  30.489  -9.361  1.00  0.00     0.187 HD
ENDROOT
BRANCH   1   4
HETATM    4  C1  UNL     1     -62.861  31.072  -9.104  1.00  0.00     0.307 C 
HETATM    5  O1  UNL     1     -62.712  30.186  -9.989  1.00  0.00    -0.258 OA
BRANCH   4   6
HETATM    6  O2  UNL     1     -61.993  32.162  -9.223  1.00  0.00    -0.313 OA
BRANCH   6   7
HETATM    7  C2  UNL     1     -60.750  32.021  -9.880  1.00  0.00     0.241 C 
BRANCH   7   8
HETATM    8  C3  UNL     1     -59.659  31.646  -8.904  1.00  0.00     0.406 C 
HETATM    9  N1  UNL     1     -58.399  31.736  -9.585  1.00  0.00    -0.042 N 
HETATM   10  C4  UNL     1     -57.803  30.413  -9.537  1.00  0.00     0.262 C 
ATOM     11  H12 UNL     1     -58.478  32.107 -10.531  1.00  0.00     0.279 HD
ATOM     12  H11 UNL     1     -57.791  32.465  -9.212  1.00  0.00     0.279 HD
HETATM   13  C5  UNL     1     -59.039  29.525  -9.425  1.00  0.00     0.262 C 
HETATM   14  N2  UNL     1     -59.851  30.268  -8.509  1.00  0.00    -0.042 N 
ATOM     15  H22 UNL     1     -59.651  30.082  -7.526  1.00  0.00     0.279 HD
ATOM     16  H21 UNL     1     -60.827  29.973  -8.481  1.00  0.00     0.279 HD
ENDBRANCH   7   8
ENDBRANCH   6   7
ENDBRANCH   4   6
ENDBRANCH   1   4
BRANCH   1  17
HETATM   17  C7  UNL     1     -63.527  31.253  -6.641  1.00  0.00     0.103 C 
BRANCH  17  18
HETATM   18  C8  UNL     1     -62.832  30.157  -5.931  1.00  0.00    -0.050 A 
HETATM   19  C9  UNL     1     -63.413  28.911  -5.892  1.00  0.00     0.007 A 
HETATM   20  C10 UNL     1     -62.832  27.843  -5.242  1.00  0.00     0.003 A 
HETATM   21  C11 UNL     1     -61.624  27.987  -4.597  1.00  0.00     0.036 A 
HETATM   22  C12 UNL     1     -61.022  29.227  -4.622  1.00  0.00     0.103 A 
HETATM   23  C13 UNL     1     -61.629  30.296  -5.287  1.00  0.00     0.043 A 
BRANCH  22  24
HETATM   24  N3  UNL     1     -59.770  29.409  -3.963  1.00  0.00    -0.116 N 
HETATM   25  O3  UNL     1     -59.067  28.410  -3.625  1.00  0.00    -0.532 OA
HETATM   26  O4  UNL     1     -59.344  30.682  -3.704  1.00  0.00    -0.532 OA
ENDBRANCH  22  24
ENDBRANCH  17  18
ENDBRANCH   1  17
BRANCH   2  27
HETATM   27  N5  UNL     1     -66.113  30.538  -7.511  1.00  0.00    -0.130 N 
ATOM     28  H5  UNL     1     -66.220  31.194  -6.738  1.00  0.00     0.205 HD
BRANCH  27  29
HETATM   29  C14 UNL     1     -66.970  29.600  -7.673  1.00  0.00     0.722 A 
HETATM   30  N6  UNL     1     -67.562  29.294  -8.836  1.00  0.00    -0.115 N 
HETATM   31  N7  UNL     1     -68.377  28.277  -8.609  1.00  0.00     0.006 NA
ATOM     32  H6  UNL     1     -67.411  29.759  -9.731  1.00  0.00     0.202 HD
HETATM   33  N8  UNL     1     -68.326  27.923  -7.334  1.00  0.00     0.006 NA
HETATM   34  N9  UNL     1     -67.454  28.742  -6.756  1.00  0.00    -0.115 N 
ATOM     35  H9  UNL     1     -67.194  28.724  -5.770  1.00  0.00     0.202 HD
ENDBRANCH  27  29
ENDBRANCH   2  27
TORSDOF 9
ENDMDL
MODEL 2
REMARK VINA RESULT: -9.035066036      2.163      2.755
REMARK  9 active torsions:
REMARK  status: ('A' for Active; 'I' for Inactive)
REMARK    1  A    between atoms: C1_2  and  O2_3 
REMARK    2  A    between atoms: C1_2  and  C6_14 
REMARK    3  A    between atoms: O2_3  and  C2_4 
REMARK    4  A    between atoms: C2_4  and  C3_5 
REMARK    5  A    between atoms: C6_14  and  C7_15 
REMARK    6  A    between atoms: C7_15  and  C8_16 
REMARK    7  A    between atoms: C12_20  and  N3_21 
REMARK    8  A    between atoms: N4_25  and  N5_27 
REMARK    9  A    between atoms: N5_27  and  C14_29 
ROOT
HETATM    1  C6  UNL     1     -61.968  31.657  -8.748  1.00  0.00     0.105 C 
HETATM    2  N4  UNL     1     -62.497  31.250  -9.853  1.00  0.00    -0.284 N 
ATOM      3  H4  UNL     1     -61.898  31.236 -10.678  1.00  0.00     0.187 HD
ENDROOT
BRANCH   1   4
HETATM    4  C1  UNL     1     -60.571  32.056  -8.787  1.00  0.00     0.307 C 
HETATM    5  O1  UNL     1     -60.185  33.224  -9.060  1.00  0.00    -0.258 OA
BRANCH   4   6
HETATM    6  O2  UNL     1     -59.539  31.151  -8.519  1.00  0.00    -0.313 OA
BRANCH   6   7
HETATM    7  C2  UNL     1     -59.022  30.329  -9.546  1.00  0.00     0.241 C 
BRANCH   7   8
HETATM    8  C3  UNL     1     -57.647  29.813  -9.188  1.00  0.00     0.406 C 
HETATM    9  N1  UNL     1     -56.755  30.130 -10.266  1.00  0.00    -0.042 N 
HETATM   10  C4  UNL     1     -56.231  28.869 -10.759  1.00  0.00     0.262 C 
ATOM     11  H12 UNL     1     -57.189  30.697 -10.994  1.00  0.00     0.279 HD
ATOM     12  H11 UNL     1     -56.027  30.793 -10.004  1.00  0.00     0.279 HD
HETATM   13  C5  UNL     1     -57.351  27.904 -10.380  1.00  0.00     0.262 C 
HETATM   14  N2  UNL     1     -57.712  28.373  -9.076  1.00  0.00    -0.042 N 
ATOM     15  H22 UNL     1     -57.147  27.985  -8.320  1.00  0.00     0.279 HD
ATOM     16  H21 UNL     1     -58.607  28.019  -8.738  1.00  0.00     0.279 HD
ENDBRANCH   7   8
ENDBRANCH   6   7
ENDBRANCH   4   6
ENDBRANCH   1   4
BRANCH   1  17
HETATM   17  C7  UNL     1     -62.772  31.698  -7.532  1.00  0.00     0.103 C 
BRANCH  17  18
HETATM   18  C8  UNL     1     -62.581  30.560  -6.606  1.00  0.00    -0.050 A 
HETATM   19  C9  UNL     1     -63.503  29.539  -6.603  1.00  0.00     0.007 A 
HETATM   20  C10 UNL     1     -63.401  28.451  -5.763  1.00  0.00     0.003 A 
HETATM   21  C11 UNL     1     -62.350  28.343  -4.880  1.00  0.00     0.036 A 
HETATM   22  C12 UNL     1     -61.412  29.353  -4.864  1.00  0.00     0.103 A 
HETATM   23  C13 UNL     1     -61.536  30.448  -5.725  1.00  0.00     0.043 A 
BRANCH  22  24
HETATM   24  N3  UNL     1     -60.312  29.272  -3.961  1.00  0.00    -0.116 N 
HETATM   25  O3  UNL     1     -60.208  28.298  -3.156  1.00  0.00    -0.532 OA
HETATM   26  O4  UNL     1     -59.371  30.264  -3.982  1.00  0.00    -0.532 OA
ENDBRANCH  22  24
ENDBRANCH  17  18
ENDBRANCH   1  17
BRANCH   2  27
HETATM   27  N5  UNL     1     -63.796  30.834 -10.013  1.00  0.00    -0.130 N 
ATOM     28  H5  UNL     1     -64.560  31.498  -9.890  1.00  0.00     0.205 HD
BRANCH  27  29
HETATM   29  C14 UNL     1     -64.054  29.617 -10.317  1.00  0.00     0.722 A 
HETATM   30  N6  UNL     1     -63.483  28.939 -11.323  1.00  0.00    -0.115 N 
HETATM   31  N7  UNL     1     -64.000  27.721 -11.323  1.00  0.00     0.006 NA
ATOM     32  H6  UNL     1     -62.779  29.297 -11.968  1.00  0.00     0.202 HD
HETATM   33  N8  UNL     1     -64.887  27.598 -10.348  1.00  0.00     0.006 NA
HETATM   34  N9  UNL     1     -64.919  28.772  -9.726  1.00  0.00    -0.115 N 
ATOM     35  H9  UNL     1     -65.509  28.998  -8.925  1.00  0.00     0.202 HD
ENDBRANCH  27  29
ENDBRANCH   2  27
TORSDOF 9
ENDMDL
MODEL 3
REMARK VINA RESULT: -8.885211597      2.455      6.845
REMARK  9 active torsions:
REMARK  status: ('A' for Active; 'I' for Inactive)
REMARK    1  A    between atoms: C1_2  and  O2_3 
REMARK    2  A    between atoms: C1_2  and  C6_14 
REMARK    3  A    between atoms: O2_3  and  C2_4 
REMARK    4  A    between atoms: C2_4  and  C3_5 
REMARK    5  A    between atoms: C6_14  and  C7_15 
REMARK    6  A    between atoms: C7_15  and  C8_16 
REMARK    7  A    between atoms: C12_20  and  N3_21 
REMARK    8  A    between atoms: N4_25  and  N5_27 
REMARK    9  A    between atoms: N5_27  and  C14_29 
ROOT
HETATM    1  C6  UNL     1     -63.645  30.296  -6.704  1.00  0.00     0.105 C 
HETATM    2  N4  UNL     1     -63.108  29.765  -5.657  1.00  0.00    -0.284 N 
ATOM      3  H4  UNL     1     -63.381  28.810  -5.427  1.00  0.00     0.187 HD
ENDROOT
BRANCH   1   4
HETATM    4  C1  UNL     1     -64.588  29.481  -7.452  1.00  0.00     0.307 C 
HETATM    5  O1  UNL     1     -65.442  29.954  -8.249  1.00  0.00    -0.258 OA
BRANCH   4   6
HETATM    6  O2  UNL     1     -64.612  28.088  -7.335  1.00  0.00    -0.313 OA
BRANCH   6   7
HETATM    7  C2  UNL     1     -65.837  27.385  -7.377  1.00  0.00     0.241 C 
BRANCH   7   8
HETATM    8  C3  UNL     1     -66.342  27.091  -5.983  1.00  0.00     0.406 C 
HETATM    9  N1  UNL     1     -66.966  25.799  -5.997  1.00  0.00    -0.042 N 
HETATM   10  C4  UNL     1     -68.348  25.998  -5.599  1.00  0.00     0.262 C 
ATOM     11  H12 UNL     1     -66.870  25.315  -6.890  1.00  0.00     0.279 HD
ATOM     12  H11 UNL     1     -66.478  25.110  -5.425  1.00  0.00     0.279 HD
HETATM   13  C5  UNL     1     -68.585  27.442  -6.030  1.00  0.00     0.262 C 
HETATM   14  N2  UNL     1     -67.354  28.067  -5.646  1.00  0.00    -0.042 N 
ATOM     15  H22 UNL     1     -67.328  28.380  -4.676  1.00  0.00     0.279 HD
ATOM     16  H21 UNL     1     -67.204  28.986  -6.063  1.00  0.00     0.279 HD
ENDBRANCH   7   8
ENDBRANCH   6   7
ENDBRANCH   4   6
ENDBRANCH   1   4
BRANCH   1  17
HETATM   17  C7  UNL     1     -63.294  31.658  -7.088  1.00  0.00     0.103 C 
BRANCH  17  18
HETATM   18  C8  UNL     1     -62.132  31.782  -7.996  1.00  0.00    -0.050 A 
HETATM   19  C9  UNL     1     -62.090  32.828  -8.888  1.00  0.00     0.007 A 
HETATM   20  C10 UNL     1     -61.047  33.006  -9.772  1.00  0.00     0.003 A 
HETATM   21  C11 UNL     1     -59.989  32.126  -9.794  1.00  0.00     0.036 A 
HETATM   22  C12 UNL     1     -60.008  31.069  -8.909  1.00  0.00     0.103 A 
HETATM   23  C13 UNL     1     -61.076  30.908  -8.021  1.00  0.00     0.043 A 
BRANCH  22  24
HETATM   24  N3  UNL     1     -58.927  30.139  -8.906  1.00  0.00    -0.116 N 
HETATM   25  O3  UNL     1     -58.826  29.269  -7.989  1.00  0.00    -0.532 OA
HETATM   26  O4  UNL     1     -58.002  30.205  -9.911  1.00  0.00    -0.532 OA
ENDBRANCH  22  24
ENDBRANCH  17  18
ENDBRANCH   1  17
BRANCH   2  27
HETATM   27  N5  UNL     1     -62.199  30.376  -4.827  1.00  0.00    -0.130 N 
ATOM     28  H5  UNL     1     -62.338  31.348  -4.551  1.00  0.00     0.205 HD
BRANCH  27  29
HETATM   29  C14 UNL     1     -61.178  29.733  -4.399  1.00  0.00     0.722 A 
HETATM   30  N6  UNL     1     -59.967  29.744  -4.973  1.00  0.00    -0.115 N 
HETATM   31  N7  UNL     1     -59.179  28.966  -4.250  1.00  0.00     0.006 NA
ATOM     32  H6  UNL     1     -59.703  30.258  -5.814  1.00  0.00     0.202 HD
HETATM   33  N8  UNL     1     -59.848  28.456  -3.228  1.00  0.00     0.006 NA
HETATM   34  N9  UNL     1     -61.086  28.931  -3.322  1.00  0.00    -0.115 N 
ATOM     35  H9  UNL     1     -61.847  28.720  -2.677  1.00  0.00     0.202 HD
ENDBRANCH  27  29
ENDBRANCH   2  27
TORSDOF 9
ENDMDL
MODEL 4
REMARK VINA RESULT: -8.802996426      2.392      2.799
REMARK  9 active torsions:
REMARK  status: ('A' for Active; 'I' for Inactive)
REMARK    1  A    between atoms: C1_2  and  O2_3 
REMARK    2  A    between atoms: C1_2  and  C6_14 
REMARK    3  A    between atoms: O2_3  and  C2_4 
REMARK    4  A    between atoms: C2_4  and  C3_5 
REMARK    5  A    between atoms: C6_14  and  C7_15 
REMARK    6  A    between atoms: C7_15  and  C8_16 
REMARK    7  A    between atoms: C12_20  and  N3_21 
REMARK    8  A    between atoms: N4_25  and  N5_27 
REMARK    9  A    between atoms: N5_27  and  C14_29 
ROOT
HETATM    1  C6  UNL     1     -61.965  31.783  -8.678  1.00  0.00     0.105 C 
HETATM    2  N4  UNL     1     -62.257  31.031  -9.686  1.00  0.00    -0.284 N 
ATOM      3  H4  UNL     1     -61.642  31.083 -10.498  1.00  0.00     0.187 HD
ENDROOT
BRANCH   1   4
HETATM    4  C1  UNL     1     -60.790  32.629  -8.798  1.00  0.00     0.307 C 
HETATM    5  O1  UNL     1     -60.825  33.819  -9.215  1.00  0.00    -0.258 OA
BRANCH   4   6
HETATM    6  O2  UNL     1     -59.514  32.172  -8.453  1.00  0.00    -0.313 OA
BRANCH   6   7
HETATM    7  C2  UNL     1     -59.244  30.786  -8.383  1.00  0.00     0.241 C 
BRANCH   7   8
HETATM    8  C3  UNL     1     -58.728  30.266  -9.706  1.00  0.00     0.406 C 
HETATM    9  N1  UNL     1     -58.817  28.834  -9.689  1.00  0.00    -0.042 N 
HETATM   10  C4  UNL     1     -57.468  28.330  -9.867  1.00  0.00     0.262 C 
ATOM     11  H12 UNL     1     -59.277  28.469  -8.855  1.00  0.00     0.279 HD
ATOM     12  H11 UNL     1     -59.479  28.465 -10.372  1.00  0.00     0.279 HD
HETATM   13  C5  UNL     1     -56.636  29.480  -9.310  1.00  0.00     0.262 C 
HETATM   14  N2  UNL     1     -57.331  30.622  -9.825  1.00  0.00    -0.042 N 
ATOM     15  H22 UNL     1     -57.048  30.897 -10.765  1.00  0.00     0.279 HD
ATOM     16  H21 UNL     1     -57.084  31.502  -9.373  1.00  0.00     0.279 HD
ENDBRANCH   7   8
ENDBRANCH   6   7
ENDBRANCH   4   6
ENDBRANCH   1   4
BRANCH   1  17
HETATM   17  C7  UNL     1     -62.804  31.754  -7.485  1.00  0.00     0.103 C 
BRANCH  17  18
HETATM   18  C8  UNL     1     -62.570  30.613  -6.573  1.00  0.00    -0.050 A 
HETATM   19  C9  UNL     1     -63.449  29.555  -6.587  1.00  0.00     0.007 A 
HETATM   20  C10 UNL     1     -63.305  28.461  -5.760  1.00  0.00     0.003 A 
HETATM   21  C11 UNL     1     -62.255  28.387  -4.872  1.00  0.00     0.036 A 
HETATM   22  C12 UNL     1     -61.360  29.435  -4.839  1.00  0.00     0.103 A 
HETATM   23  C13 UNL     1     -61.526  30.535  -5.687  1.00  0.00     0.043 A 
BRANCH  22  24
HETATM   24  N3  UNL     1     -60.261  29.389  -3.932  1.00  0.00    -0.116 N 
HETATM   25  O3  UNL     1     -60.142  28.429  -3.112  1.00  0.00    -0.532 OA
HETATM   26  O4  UNL     1     -59.340  30.398  -3.963  1.00  0.00    -0.532 OA
ENDBRANCH  22  24
ENDBRANCH  17  18
ENDBRANCH   1  17
BRANCH   2  27
HETATM   27  N5  UNL     1     -63.323  30.168  -9.759  1.00  0.00    -0.130 N 
ATOM     28  H5  UNL     1     -63.295  29.284  -9.253  1.00  0.00     0.205 HD
BRANCH  27  29
HETATM   29  C14 UNL     1     -64.352  30.468 -10.460  1.00  0.00     0.722 A 
HETATM   30  N6  UNL     1     -64.705  29.863 -11.603  1.00  0.00    -0.115 N 
HETATM   31  N7  UNL     1     -65.814  30.442 -12.031  1.00  0.00     0.006 NA
ATOM     32  H6  UNL     1     -64.208  29.097 -12.059  1.00  0.00     0.202 HD
HETATM   33  N8  UNL     1     -66.184  31.401 -11.197  1.00  0.00     0.006 NA
HETATM   34  N9  UNL     1     -65.278  31.416 -10.225  1.00  0.00    -0.115 N 
ATOM     35  H9  UNL     1     -65.284  32.048  -9.425  1.00  0.00     0.202 HD
ENDBRANCH  27  29
ENDBRANCH   2  27
TORSDOF 9
ENDMDL
MODEL 5
REMARK VINA RESULT: -8.659090636      1.141      1.441
REMARK  9 active torsions:
REMARK  status: ('A' for Active; 'I' for Inactive)
REMARK    1  A    between atoms: C1_2  and  O2_3 
REMARK    2  A    between atoms: C1_2  and  C6_14 
REMARK    3  A    between atoms: O2_3  and  C2_4 
REMARK    4  A    between atoms: C2_4  and  C3_5 
REMARK    5  A    between atoms: C6_14  and  C7_15 
REMARK    6  A    between atoms: C7_15  and  C8_16 
REMARK    7  A    between atoms: C12_20  and  N3_21 
REMARK    8  A    between atoms: N4_25  and  N5_27 
REMARK    9  A    between atoms: N5_27  and  C14_29 
ROOT
HETATM    1  C6  UNL     1     -64.197  30.754  -7.983  1.00  0.00     0.105 C 
HETATM    2  N4  UNL     1     -65.392  30.356  -8.267  1.00  0.00    -0.284 N 
ATOM      3  H4  UNL     1     -65.599  30.167  -9.247  1.00  0.00     0.187 HD
ENDROOT
BRANCH   1   4
HETATM    4  C1  UNL     1     -63.264  30.894  -9.089  1.00  0.00     0.307 C 
HETATM    5  O1  UNL     1     -63.141  30.045 -10.012  1.00  0.00    -0.258 OA
BRANCH   4   6
HETATM    6  O2  UNL     1     -62.421  32.004  -9.204  1.00  0.00    -0.313 OA
BRANCH   6   7
HETATM    7  C2  UNL     1     -61.148  31.878  -9.805  1.00  0.00     0.241 C 
BRANCH   7   8
HETATM    8  C3  UNL     1     -60.108  31.456  -8.792  1.00  0.00     0.406 C 
HETATM    9  N1  UNL     1     -58.814  31.792  -9.312  1.00  0.00    -0.042 N 
HETATM   10  C4  UNL     1     -58.070  30.550  -9.415  1.00  0.00     0.262 C 
ATOM     11  H12 UNL     1     -58.855  32.311 -10.190  1.00  0.00     0.279 HD
ATOM     12  H11 UNL     1     -58.334  32.506  -8.764  1.00  0.00     0.279 HD
HETATM   13  C5  UNL     1     -59.195  29.533  -9.579  1.00  0.00     0.262 C 
HETATM   14  N2  UNL     1     -60.168  30.019  -8.647  1.00  0.00    -0.042 N 
ATOM     15  H22 UNL     1     -60.033  29.688  -7.691  1.00  0.00     0.279 HD
ATOM     16  H21 UNL     1     -61.100  29.623  -8.771  1.00  0.00     0.279 HD
ENDBRANCH   7   8
ENDBRANCH   6   7
ENDBRANCH   4   6
ENDBRANCH   1   4
BRANCH   1  17
HETATM   17  C7  UNL     1     -63.837  31.038  -6.600  1.00  0.00     0.103 C 
BRANCH  17  18
HETATM   18  C8  UNL     1     -63.047  29.988  -5.920  1.00  0.00    -0.050 A 
HETATM   19  C9  UNL     1     -63.546  28.708  -5.863  1.00  0.00     0.007 A 
HETATM   20  C10 UNL     1     -62.874  27.678  -5.239  1.00  0.00     0.003 A 
HETATM   21  C11 UNL     1     -61.655  27.899  -4.639  1.00  0.00     0.036 A 
HETATM   22  C12 UNL     1     -61.134  29.174  -4.683  1.00  0.00     0.103 A 
HETATM   23  C13 UNL     1     -61.832  30.204  -5.320  1.00  0.00     0.043 A 
BRANCH  22  24
HETATM   24  N3  UNL     1     -59.873  29.436  -4.071  1.00  0.00    -0.116 N 
HETATM   25  O3  UNL     1     -59.145  28.483  -3.658  1.00  0.00    -0.532 OA
HETATM   26  O4  UNL     1     -59.463  30.733  -3.938  1.00  0.00    -0.532 OA
ENDBRANCH  22  24
ENDBRANCH  17  18
ENDBRANCH   1  17
BRANCH   2  27
HETATM   27  N5  UNL     1     -66.408  30.165  -7.362  1.00  0.00    -0.130 N 
ATOM     28  H5  UNL     1     -66.274  29.531  -6.575  1.00  0.00     0.205 HD
BRANCH  27  29
HETATM   29  C14 UNL     1     -67.524  30.778  -7.502  1.00  0.00     0.722 A 
HETATM   30  N6  UNL     1     -68.214  31.351  -6.505  1.00  0.00    -0.115 N 
HETATM   31  N7  UNL     1     -69.305  31.881  -7.034  1.00  0.00     0.006 NA
ATOM     32  H6  UNL     1     -67.947  31.374  -5.521  1.00  0.00     0.202 HD
HETATM   33  N8  UNL     1     -69.335  31.664  -8.339  1.00  0.00     0.006 NA
HETATM   34  N9  UNL     1     -68.232  30.982  -8.627  1.00  0.00    -0.115 N 
ATOM     35  H9  UNL     1     -67.964  30.661  -9.558  1.00  0.00     0.202 HD
ENDBRANCH  27  29
ENDBRANCH   2  27
TORSDOF 9
ENDMDL
