MODEL 1
REMARK VINA RESULT: -8.042431776      0.000      0.000
REMARK  11 active torsions:
REMARK  status: ('A' for Active; 'I' for Inactive)
REMARK    1  A    between atoms: C2_5  and  C3_6 
REMARK    2  A    between atoms: C3_6  and  C4_7 
REMARK    3  A    between atoms: C4_7  and  N3_8 
REMARK    4  A    between atoms: N3_8  and  C5_10 
REMARK    5  A    between atoms: N4_13  and  C8_14 
REMARK    6  A    between atoms: C8_14  and  O1_15 
REMARK    7  A    between atoms: O1_15  and  C9_16 
REMARK    8  A    between atoms: C9_16  and  C10_17 
REMARK    9  A    between atoms: C10_17  and  O2_18 
REMARK   10  A    between atoms: N5_22  and  N6_23 
REMARK   11  A    between atoms: N6_23  and  N7_25 
ROOT
HETATM    1  C1  UNL     1     -68.962  31.448  -6.039  1.00  0.00     0.179 C 
HETATM    2  N1  UNL     1     -68.332  30.228  -6.529  1.00  0.00    -0.280 N 
HETATM    3  N2  UNL     1     -68.031  29.179  -5.792  1.00  0.00    -0.300 N 
ATOM      4  H2  UNL     1     -68.207  29.108  -4.790  1.00  0.00     0.187 HD
HETATM    5  C2  UNL     1     -67.461  28.215  -6.532  1.00  0.00     0.046 A 
HETATM    6  C12 UNL     1     -67.403  28.694  -7.811  1.00  0.00     0.056 A 
HETATM    7  C13 UNL     1     -67.010  28.412  -9.116  1.00  0.00     0.076 A 
HETATM    8  C14 UNL     1     -66.388  27.183  -9.543  1.00  0.00     0.102 C 
HETATM    9  N8  UNL     1     -65.889  26.190  -9.868  1.00  0.00    -0.191 NA
HETATM   10  C15 UNL     1     -67.334  29.523  -9.869  1.00  0.00     0.113 A 
HETATM   11  N9  UNL     1     -67.897  30.433  -9.058  1.00  0.00    -0.349 N 
ATOM     12  H9  UNL     1     -68.232  31.350  -9.357  1.00  0.00     0.167 HD
HETATM   13  C16 UNL     1     -67.959  29.973  -7.802  1.00  0.00     0.135 A 
ENDROOT
BRANCH   5  14
HETATM   14  C3  UNL     1     -66.994  26.890  -6.031  1.00  0.00     0.104 C 
BRANCH  14  15
HETATM   15  C4  UNL     1     -65.472  26.814  -6.147  1.00  0.00     0.068 C 
BRANCH  15  16
HETATM   16  N3  UNL     1     -64.823  27.986  -5.862  1.00  0.00    -0.354 N 
ATOM     17  H3  UNL     1     -65.309  28.436  -5.087  1.00  0.00     0.166 HD
BRANCH  16  18
HETATM   18  C5  UNL     1     -63.866  28.712  -6.188  1.00  0.00     0.134 A 
HETATM   19  C6  UNL     1     -64.073  29.765  -7.115  1.00  0.00     0.068 A 
HETATM   20  C7  UNL     1     -63.057  30.584  -7.519  1.00  0.00     0.102 A 
HETATM   21  N4  UNL     1     -61.829  30.386  -7.025  1.00  0.00    -0.286 N 
HETATM   22  C11 UNL     1     -61.639  29.398  -6.155  1.00  0.00     0.352 A 
HETATM   23  O3  UNL     1     -60.463  29.211  -5.682  1.00  0.00    -0.244 OA
HETATM   24  N5  UNL     1     -62.626  28.554  -5.722  1.00  0.00    -0.174 N 
BRANCH  21  25
HETATM   25  C8  UNL     1     -60.740  31.262  -7.454  1.00  0.00     0.302 C 
BRANCH  25  26
HETATM   26  O1  UNL     1     -60.198  30.866  -8.646  1.00  0.00    -0.369 OA
BRANCH  26  27
HETATM   27  C9  UNL     1     -59.903  31.940  -9.434  1.00  0.00     0.196 C 
BRANCH  27  28
HETATM   28  C10 UNL     1     -61.021  32.915  -9.673  1.00  0.00     0.190 C 
BRANCH  28  29
HETATM   29  O2  UNL     1     -60.494  34.206  -9.426  1.00  0.00    -0.399 OA
ATOM     30  H2  UNL     1     -59.590  34.192  -9.719  1.00  0.00     0.209 HD
ENDBRANCH  28  29
ENDBRANCH  27  28
ENDBRANCH  26  27
ENDBRANCH  25  26
ENDBRANCH  21  25
BRANCH  24  31
HETATM   31  N6  UNL     1     -62.248  27.575  -4.772  1.00  0.00    -0.237 N 
ATOM     32  H6  UNL     1     -62.308  26.587  -5.018  1.00  0.00     0.208 HD
BRANCH  31  33
HETATM   33  N7  UNL     1     -61.795  27.941  -3.507  1.00  0.00    -0.330 N 
ATOM     34  H72 UNL     1     -60.840  27.698  -3.243  1.00  0.00     0.178 HD
ATOM     35  H71 UNL     1     -62.402  28.440  -2.856  1.00  0.00     0.178 HD
ENDBRANCH  31  33
ENDBRANCH  24  31
ENDBRANCH  16  18
ENDBRANCH  15  16
ENDBRANCH  14  15
ENDBRANCH   5  14
TORSDOF 11
ENDMDL
MODEL 2
REMARK VINA RESULT: -7.904629329      2.620      5.503
REMARK  11 active torsions:
REMARK  status: ('A' for Active; 'I' for Inactive)
REMARK    1  A    between atoms: C2_5  and  C3_6 
REMARK    2  A    between atoms: C3_6  and  C4_7 
REMARK    3  A    between atoms: C4_7  and  N3_8 
REMARK    4  A    between atoms: N3_8  and  C5_10 
REMARK    5  A    between atoms: N4_13  and  C8_14 
REMARK    6  A    between atoms: C8_14  and  O1_15 
REMARK    7  A    between atoms: O1_15  and  C9_16 
REMARK    8  A    between atoms: C9_16  and  C10_17 
REMARK    9  A    between atoms: C10_17  and  O2_18 
REMARK   10  A    between atoms: N5_22  and  N6_23 
REMARK   11  A    between atoms: N6_23  and  N7_25 
ROOT
HETATM    1  C1  UNL     1     -63.509  27.553 -13.587  1.00  0.00     0.179 C 
HETATM    2  N1  UNL     1     -64.351  28.247 -12.620  1.00  0.00    -0.280 N 
HETATM    3  N2  UNL     1     -64.702  29.515 -12.688  1.00  0.00    -0.300 N 
ATOM      4  H2  UNL     1     -64.417  30.152 -13.432  1.00  0.00     0.187 HD
HETATM    5  C2  UNL     1     -65.482  29.858 -11.651  1.00  0.00     0.046 A 
HETATM    6  C12 UNL     1     -65.626  28.734 -10.888  1.00  0.00     0.056 A 
HETATM    7  C13 UNL     1     -66.205  28.204  -9.739  1.00  0.00     0.076 A 
HETATM    8  C14 UNL     1     -67.032  28.942  -8.816  1.00  0.00     0.102 C 
HETATM    9  N8  UNL     1     -67.693  29.550  -8.085  1.00  0.00    -0.191 NA
HETATM   10  C15 UNL     1     -65.825  26.878  -9.687  1.00  0.00     0.113 A 
HETATM   11  N9  UNL     1     -65.053  26.618 -10.755  1.00  0.00    -0.349 N 
ATOM     12  H9  UNL     1     -64.636  25.710 -10.962  1.00  0.00     0.167 HD
HETATM   13  C16 UNL     1     -64.906  27.714 -11.510  1.00  0.00     0.135 A 
ENDROOT
BRANCH   5  14
HETATM   14  C3  UNL     1     -66.064  31.210 -11.406  1.00  0.00     0.104 C 
BRANCH  14  15
HETATM   15  C4  UNL     1     -64.946  32.181 -11.030  1.00  0.00     0.068 C 
BRANCH  15  16
HETATM   16  N3  UNL     1     -63.850  31.591 -10.460  1.00  0.00    -0.354 N 
ATOM     17  H3  UNL     1     -63.267  31.216 -11.209  1.00  0.00     0.166 HD
BRANCH  16  18
HETATM   18  C5  UNL     1     -63.293  31.336  -9.377  1.00  0.00     0.134 A 
HETATM   19  C6  UNL     1     -64.069  30.878  -8.282  1.00  0.00     0.068 A 
HETATM   20  C7  UNL     1     -63.513  30.597  -7.066  1.00  0.00     0.102 A 
HETATM   21  N4  UNL     1     -62.194  30.759  -6.904  1.00  0.00    -0.286 N 
HETATM   22  C11 UNL     1     -61.469  31.188  -7.933  1.00  0.00     0.352 A 
HETATM   23  O3  UNL     1     -60.207  31.342  -7.776  1.00  0.00    -0.244 OA
HETATM   24  N5  UNL     1     -61.983  31.482  -9.168  1.00  0.00    -0.174 N 
BRANCH  21  25
HETATM   25  C8  UNL     1     -61.595  30.458  -5.605  1.00  0.00     0.302 C 
BRANCH  25  26
HETATM   26  O1  UNL     1     -61.228  29.144  -5.498  1.00  0.00    -0.369 OA
BRANCH  26  27
HETATM   27  C9  UNL     1     -60.027  29.019  -4.862  1.00  0.00     0.196 C 
BRANCH  27  28
HETATM   28  C10 UNL     1     -60.076  28.917  -3.365  1.00  0.00     0.190 C 
BRANCH  28  29
HETATM   29  O2  UNL     1     -61.152  28.050  -3.051  1.00  0.00    -0.399 OA
ATOM     30  H2  UNL     1     -60.793  27.354  -2.514  1.00  0.00     0.209 HD
ENDBRANCH  28  29
ENDBRANCH  27  28
ENDBRANCH  26  27
ENDBRANCH  25  26
ENDBRANCH  21  25
BRANCH  24  31
HETATM   31  N6  UNL     1     -61.058  31.901 -10.154  1.00  0.00    -0.237 N 
ATOM     32  H6  UNL     1     -60.784  31.253 -10.893  1.00  0.00     0.208 HD
BRANCH  31  33
HETATM   33  N7  UNL     1     -60.517  33.184 -10.129  1.00  0.00    -0.330 N 
ATOM     34  H72 UNL     1     -60.138  33.536  -9.250  1.00  0.00     0.178 HD
ATOM     35  H71 UNL     1     -60.498  33.761 -10.970  1.00  0.00     0.178 HD
ENDBRANCH  31  33
ENDBRANCH  24  31
ENDBRANCH  16  18
ENDBRANCH  15  16
ENDBRANCH  14  15
ENDBRANCH   5  14
TORSDOF 11
ENDMDL
MODEL 3
REMARK VINA RESULT: -7.865716708      3.548      6.920
REMARK  11 active torsions:
REMARK  status: ('A' for Active; 'I' for Inactive)
REMARK    1  A    between atoms: C2_5  and  C3_6 
REMARK    2  A    between atoms: C3_6  and  C4_7 
REMARK    3  A    between atoms: C4_7  and  N3_8 
REMARK    4  A    between atoms: N3_8  and  C5_10 
REMARK    5  A    between atoms: N4_13  and  C8_14 
REMARK    6  A    between atoms: C8_14  and  O1_15 
REMARK    7  A    between atoms: O1_15  and  C9_16 
REMARK    8  A    between atoms: C9_16  and  C10_17 
REMARK    9  A    between atoms: C10_17  and  O2_18 
REMARK   10  A    between atoms: N5_22  and  N6_23 
REMARK   11  A    between atoms: N6_23  and  N7_25 
ROOT
HETATM    1  C1  UNL     1     -59.935  29.864  -4.916  1.00  0.00     0.179 C 
HETATM    2  N1  UNL     1     -61.292  29.778  -5.443  1.00  0.00    -0.280 N 
HETATM    3  N2  UNL     1     -61.920  30.741  -6.085  1.00  0.00    -0.300 N 
ATOM      4  H2  UNL     1     -61.521  31.658  -6.283  1.00  0.00     0.187 HD
HETATM    5  C2  UNL     1     -63.156  30.357  -6.444  1.00  0.00     0.046 A 
HETATM    6  C12 UNL     1     -63.307  29.075  -5.997  1.00  0.00     0.056 A 
HETATM    7  C13 UNL     1     -64.174  27.989  -5.924  1.00  0.00     0.076 A 
HETATM    8  C14 UNL     1     -65.510  27.963  -6.465  1.00  0.00     0.102 C 
HETATM    9  N8  UNL     1     -66.582  27.960  -6.905  1.00  0.00    -0.191 NA
HETATM   10  C15 UNL     1     -63.497  26.994  -5.248  1.00  0.00     0.113 A 
HETATM   11  N9  UNL     1     -62.277  27.456  -4.928  1.00  0.00    -0.349 N 
ATOM     12  H9  UNL     1     -61.568  26.923  -4.423  1.00  0.00     0.167 HD
HETATM   13  C16 UNL     1     -62.119  28.713  -5.362  1.00  0.00     0.135 A 
ENDROOT
BRANCH   5  14
HETATM   14  C3  UNL     1     -64.147  31.188  -7.187  1.00  0.00     0.104 C 
BRANCH  14  15
HETATM   15  C4  UNL     1     -63.664  31.385  -8.624  1.00  0.00     0.068 C 
BRANCH  15  16
HETATM   16  N3  UNL     1     -64.594  31.076  -9.582  1.00  0.00    -0.354 N 
ATOM     17  H3  UNL     1     -64.926  31.948  -9.993  1.00  0.00     0.166 HD
BRANCH  16  18
HETATM   18  C5  UNL     1     -65.188  30.137 -10.142  1.00  0.00     0.134 A 
HETATM   19  C6  UNL     1     -64.543  29.422 -11.182  1.00  0.00     0.068 A 
HETATM   20  C7  UNL     1     -65.153  28.392 -11.840  1.00  0.00     0.102 A 
HETATM   21  N4  UNL     1     -66.399  28.048 -11.493  1.00  0.00    -0.286 N 
HETATM   22  C11 UNL     1     -67.002  28.720 -10.516  1.00  0.00     0.352 A 
HETATM   23  O3  UNL     1     -68.193  28.389 -10.184  1.00  0.00    -0.244 OA
HETATM   24  N5  UNL     1     -66.429  29.758  -9.829  1.00  0.00    -0.174 N 
BRANCH  21  25
HETATM   25  C8  UNL     1     -67.054  26.946 -12.194  1.00  0.00     0.302 C 
BRANCH  25  26
HETATM   26  O1  UNL     1     -66.365  25.770 -12.068  1.00  0.00    -0.369 OA
BRANCH  26  27
HETATM   27  C9  UNL     1     -66.796  25.060 -10.986  1.00  0.00     0.196 C 
BRANCH  27  28
HETATM   28  C10 UNL     1     -66.086  25.327  -9.690  1.00  0.00     0.190 C 
BRANCH  28  29
HETATM   29  O2  UNL     1     -67.066  25.785  -8.776  1.00  0.00    -0.399 OA
ATOM     30  H2  UNL     1     -66.687  25.708  -7.909  1.00  0.00     0.209 HD
ENDBRANCH  28  29
ENDBRANCH  27  28
ENDBRANCH  26  27
ENDBRANCH  25  26
ENDBRANCH  21  25
BRANCH  24  31
HETATM   31  N6  UNL     1     -67.208  30.341  -8.802  1.00  0.00    -0.237 N 
ATOM     32  H6  UNL     1     -66.927  30.220  -7.828  1.00  0.00     0.208 HD
BRANCH  31  33
HETATM   33  N7  UNL     1     -68.352  31.077  -9.100  1.00  0.00    -0.330 N 
ATOM     34  H72 UNL     1     -68.830  30.898  -9.984  1.00  0.00     0.178 HD
ATOM     35  H71 UNL     1     -68.708  31.780  -8.452  1.00  0.00     0.178 HD
ENDBRANCH  31  33
ENDBRANCH  24  31
ENDBRANCH  16  18
ENDBRANCH  15  16
ENDBRANCH  14  15
ENDBRANCH   5  14
TORSDOF 11
ENDMDL
MODEL 4
REMARK VINA RESULT: -7.842230398      2.657      4.858
REMARK  11 active torsions:
REMARK  status: ('A' for Active; 'I' for Inactive)
REMARK    1  A    between atoms: C2_5  and  C3_6 
REMARK    2  A    between atoms: C3_6  and  C4_7 
REMARK    3  A    between atoms: C4_7  and  N3_8 
REMARK    4  A    between atoms: N3_8  and  C5_10 
REMARK    5  A    between atoms: N4_13  and  C8_14 
REMARK    6  A    between atoms: C8_14  and  O1_15 
REMARK    7  A    between atoms: O1_15  and  C9_16 
REMARK    8  A    between atoms: C9_16  and  C10_17 
REMARK    9  A    between atoms: C10_17  and  O2_18 
REMARK   10  A    between atoms: N5_22  and  N6_23 
REMARK   11  A    between atoms: N6_23  and  N7_25 
ROOT
HETATM    1  C1  UNL     1     -66.076  26.603  -7.096  1.00  0.00     0.179 C 
HETATM    2  N1  UNL     1     -65.899  27.113  -8.450  1.00  0.00    -0.280 N 
HETATM    3  N2  UNL     1     -65.299  28.242  -8.765  1.00  0.00    -0.300 N 
ATOM      4  H2  UNL     1     -64.893  28.888  -8.088  1.00  0.00     0.187 HD
HETATM    5  C2  UNL     1     -65.294  28.434 -10.094  1.00  0.00     0.046 A 
HETATM    6  C12 UNL     1     -65.930  27.355 -10.642  1.00  0.00     0.056 A 
HETATM    7  C13 UNL     1     -66.348  26.762 -11.829  1.00  0.00     0.076 A 
HETATM    8  C14 UNL     1     -66.143  27.315 -13.145  1.00  0.00     0.102 C 
HETATM    9  N8  UNL     1     -65.971  27.775 -14.194  1.00  0.00    -0.191 NA
HETATM   10  C15 UNL     1     -66.972  25.582 -11.476  1.00  0.00     0.113 A 
HETATM   11  N9  UNL     1     -66.934  25.468 -10.139  1.00  0.00    -0.349 N 
ATOM     12  H9  UNL     1     -67.324  24.686  -9.611  1.00  0.00     0.167 HD
HETATM   13  C16 UNL     1     -66.311  26.520  -9.592  1.00  0.00     0.135 A 
ENDROOT
BRANCH   5  14
HETATM   14  C3  UNL     1     -64.700  29.602 -10.806  1.00  0.00     0.104 C 
BRANCH  14  15
HETATM   15  C4  UNL     1     -65.104  30.890 -10.087  1.00  0.00     0.068 C 
BRANCH  15  16
HETATM   16  N3  UNL     1     -64.115  31.444  -9.318  1.00  0.00    -0.354 N 
ATOM     17  H3  UNL     1     -64.162  32.457  -9.426  1.00  0.00     0.166 HD
BRANCH  16  18
HETATM   18  C5  UNL     1     -63.182  31.183  -8.538  1.00  0.00     0.134 A 
HETATM   19  C6  UNL     1     -63.472  30.764  -7.215  1.00  0.00     0.068 A 
HETATM   20  C7  UNL     1     -62.487  30.479  -6.312  1.00  0.00     0.102 A 
HETATM   21  N4  UNL     1     -61.208  30.599  -6.689  1.00  0.00    -0.286 N 
HETATM   22  C11 UNL     1     -60.939  30.992  -7.931  1.00  0.00     0.352 A 
HETATM   23  O3  UNL     1     -59.715  31.105  -8.289  1.00  0.00    -0.244 OA
HETATM   24  N5  UNL     1     -61.893  31.287  -8.868  1.00  0.00    -0.174 N 
BRANCH  21  25
HETATM   25  C8  UNL     1     -60.152  30.293  -5.727  1.00  0.00     0.302 C 
BRANCH  25  26
HETATM   26  O1  UNL     1     -59.991  28.946  -5.546  1.00  0.00    -0.369 OA
BRANCH  26  27
HETATM   27  C9  UNL     1     -59.502  28.670  -4.302  1.00  0.00     0.196 C 
BRANCH  27  28
HETATM   28  C10 UNL     1     -60.407  28.990  -3.148  1.00  0.00     0.190 C 
BRANCH  28  29
HETATM   29  O2  UNL     1     -61.416  27.994  -3.134  1.00  0.00    -0.399 OA
ATOM     30  H2  UNL     1     -61.696  27.903  -2.231  1.00  0.00     0.209 HD
ENDBRANCH  28  29
ENDBRANCH  27  28
ENDBRANCH  26  27
ENDBRANCH  25  26
ENDBRANCH  21  25
BRANCH  24  31
HETATM   31  N6  UNL     1     -61.424  31.664 -10.149  1.00  0.00    -0.237 N 
ATOM     32  H6  UNL     1     -61.480  30.999 -10.921  1.00  0.00     0.208 HD
BRANCH  31  33
HETATM   33  N7  UNL     1     -60.887  32.929 -10.372  1.00  0.00    -0.330 N 
ATOM     34  H72 UNL     1     -60.532  33.456  -9.573  1.00  0.00     0.178 HD
ATOM     35  H71 UNL     1     -60.846  33.324 -11.312  1.00  0.00     0.178 HD
ENDBRANCH  31  33
ENDBRANCH  24  31
ENDBRANCH  16  18
ENDBRANCH  15  16
ENDBRANCH  14  15
ENDBRANCH   5  14
TORSDOF 11
ENDMDL
MODEL 5
REMARK VINA RESULT: -7.808811302      2.718      5.175
REMARK  11 active torsions:
REMARK  status: ('A' for Active; 'I' for Inactive)
REMARK    1  A    between atoms: C2_5  and  C3_6 
REMARK    2  A    between atoms: C3_6  and  C4_7 
REMARK    3  A    between atoms: C4_7  and  N3_8 
REMARK    4  A    between atoms: N3_8  and  C5_10 
REMARK    5  A    between atoms: N4_13  and  C8_14 
REMARK    6  A    between atoms: C8_14  and  O1_15 
REMARK    7  A    between atoms: O1_15  and  C9_16 
REMARK    8  A    between atoms: C9_16  and  C10_17 
REMARK    9  A    between atoms: C10_17  and  O2_18 
REMARK   10  A    between atoms: N5_22  and  N6_23 
REMARK   11  A    between atoms: N6_23  and  N7_25 
ROOT
HETATM    1  C1  UNL     1     -63.992  27.788 -14.517  1.00  0.00     0.179 C 
HETATM    2  N1  UNL     1     -64.748  28.260 -13.363  1.00  0.00    -0.280 N 
HETATM    3  N2  UNL     1     -64.909  29.523 -13.025  1.00  0.00    -0.300 N 
ATOM      4  H2  UNL     1     -64.518  30.312 -13.539  1.00  0.00     0.187 HD
HETATM    5  C2  UNL     1     -65.656  29.635 -11.916  1.00  0.00     0.046 A 
HETATM    6  C12 UNL     1     -65.980  28.363 -11.538  1.00  0.00     0.056 A 
HETATM    7  C13 UNL     1     -66.657  27.591 -10.598  1.00  0.00     0.076 A 
HETATM    8  C14 UNL     1     -67.390  28.116  -9.473  1.00  0.00     0.102 C 
HETATM    9  N8  UNL     1     -67.974  28.556  -8.575  1.00  0.00    -0.191 NA
HETATM   10  C15 UNL     1     -66.475  26.274 -10.971  1.00  0.00     0.113 A 
HETATM   11  N9  UNL     1     -65.722  26.251 -12.083  1.00  0.00    -0.349 N 
ATOM     12  H9  UNL     1     -65.436  25.402 -12.573  1.00  0.00     0.167 HD
HETATM   13  C16 UNL     1     -65.400  27.494 -12.462  1.00  0.00     0.135 A 
ENDROOT
BRANCH   5  14
HETATM   14  C3  UNL     1     -66.043  30.912 -11.249  1.00  0.00     0.104 C 
BRANCH  14  15
HETATM   15  C4  UNL     1     -64.821  31.509 -10.552  1.00  0.00     0.068 C 
BRANCH  15  16
HETATM   16  N3  UNL     1     -64.600  31.031  -9.287  1.00  0.00    -0.354 N 
ATOM     17  H3  UNL     1     -65.494  30.722  -8.906  1.00  0.00     0.166 HD
BRANCH  16  18
HETATM   18  C5  UNL     1     -63.725  30.830  -8.425  1.00  0.00     0.134 A 
HETATM   19  C6  UNL     1     -62.402  31.285  -8.653  1.00  0.00     0.068 A 
HETATM   20  C7  UNL     1     -61.399  31.079  -7.748  1.00  0.00     0.102 A 
HETATM   21  N4  UNL     1     -61.675  30.428  -6.611  1.00  0.00    -0.286 N 
HETATM   22  C11 UNL     1     -62.918  30.003  -6.401  1.00  0.00     0.352 A 
HETATM   23  O3  UNL     1     -63.180  29.382  -5.312  1.00  0.00    -0.244 OA
HETATM   24  N5  UNL     1     -63.953  30.187  -7.278  1.00  0.00    -0.174 N 
BRANCH  21  25
HETATM   25  C8  UNL     1     -60.606  30.208  -5.640  1.00  0.00     0.302 C 
BRANCH  25  26
HETATM   26  O1  UNL     1     -59.945  29.029  -5.857  1.00  0.00    -0.369 OA
BRANCH  26  27
HETATM   27  C9  UNL     1     -59.674  28.393  -4.680  1.00  0.00     0.196 C 
BRANCH  27  28
HETATM   28  C10 UNL     1     -60.353  28.940  -3.458  1.00  0.00     0.190 C 
BRANCH  28  29
HETATM   29  O2  UNL     1     -61.377  28.022  -3.117  1.00  0.00    -0.399 OA
ATOM     30  H2  UNL     1     -62.174  28.337  -3.527  1.00  0.00     0.209 HD
ENDBRANCH  28  29
ENDBRANCH  27  28
ENDBRANCH  26  27
ENDBRANCH  25  26
ENDBRANCH  21  25
BRANCH  24  31
HETATM   31  N6  UNL     1     -65.217  29.691  -6.877  1.00  0.00    -0.237 N 
ATOM     32  H6  UNL     1     -65.997  30.338  -6.763  1.00  0.00     0.208 HD
BRANCH  31  33
HETATM   33  N7  UNL     1     -65.410  28.333  -6.636  1.00  0.00    -0.330 N 
ATOM     34  H72 UNL     1     -64.748  27.668  -7.037  1.00  0.00     0.178 HD
ATOM     35  H71 UNL     1     -66.194  28.007  -6.071  1.00  0.00     0.178 HD
ENDBRANCH  31  33
ENDBRANCH  24  31
ENDBRANCH  16  18
ENDBRANCH  15  16
ENDBRANCH  14  15
ENDBRANCH   5  14
TORSDOF 11
ENDMDL
