MODEL 1
REMARK VINA RESULT: -7.825095569      0.000      0.000
REMARK  7 active torsions:
REMARK  status: ('A' for Active; 'I' for Inactive)
REMARK    1  A    between atoms: C2_2  and  N1_5 
REMARK    2  A    between atoms: N1_5  and  C5_7 
REMARK    3  A    between atoms: C10_15  and  N4_16 
REMARK    4  A    between atoms: N4_16  and  C11_17 
REMARK    5  A    between atoms: C11_17  and  O1_18 
REMARK    6  A    between atoms: C11_17  and  C12_20 
REMARK    7  A    between atoms: C12_20  and  C13_21 
ROOT
HETATM    1  C5  UNL     1      39.439  12.462  10.943  1.00  0.00     0.089 A 
HETATM    2  C6  UNL     1      38.509  11.482  11.204  1.00  0.00     0.058 A 
HETATM    3  C7  UNL     1      38.940  10.170  11.240  1.00  0.00     0.062 A 
HETATM    4  C8  UNL     1      38.032   9.112  11.505  1.00  0.00     0.101 C 
HETATM    5  N2  UNL     1      37.295   8.250  11.702  1.00  0.00    -0.191 NA
HETATM    6  C9  UNL     1      40.253   9.868  11.020  1.00  0.00     0.113 A 
HETATM    7  N3  UNL     1      41.100  10.844  10.775  1.00  0.00    -0.338 N 
ATOM      8  H3  UNL     1      42.074  10.587  10.616  1.00  0.00     0.168 HD
HETATM    9  C10 UNL     1      40.787  12.180  10.715  1.00  0.00     0.208 A 
ENDROOT
BRANCH   1  10
HETATM   10  N1  UNL     1      38.959  13.790  10.896  1.00  0.00    -0.378 N 
ATOM     11  H1  UNL     1      39.016  14.254   9.990  1.00  0.00     0.160 HD
BRANCH  10  12
HETATM   12  C2  UNL     1      38.403  14.560  11.959  1.00  0.00     0.019 C 
HETATM   13  C1  UNL     1      38.713  16.050  11.682  1.00  0.00     0.037 C 
HETATM   14  C3  UNL     1      38.969  14.208  13.334  1.00  0.00     0.037 C 
HETATM   15  C4  UNL     1      36.898  14.499  12.066  1.00  0.00     0.037 C 
ENDBRANCH  10  12
ENDBRANCH   1  10
BRANCH   9  16
HETATM   16  N4  UNL     1      41.656  12.961  10.500  1.00  0.00    -0.362 NA
BRANCH  16  17
HETATM   17  C11 UNL     1      42.682  13.646  10.013  1.00  0.00     0.233 C 
BRANCH  17  18
HETATM   18  O1  UNL     1      43.748  12.966   9.705  1.00  0.00    -0.337 OA
ATOM     19  H1  UNL     1      44.466  12.991  10.326  1.00  0.00     0.220 HD
ENDBRANCH  17  18
BRANCH  17  20
HETATM   20  C12 UNL     1      42.836  15.126   9.740  1.00  0.00     0.246 C 
HETATM   21  N5  UNL     1      44.168  15.326   9.178  1.00  0.00    -0.051 N 
HETATM   22  C16 UNL     1      45.032  15.363  10.331  1.00  0.00     0.271 C 
ATOM     23  H52 UNL     1      44.434  14.635   8.476  1.00  0.00     0.278 HD
ATOM     24  H51 UNL     1      44.247  16.139   8.568  1.00  0.00     0.278 HD
HETATM   25  C17 UNL     1      44.247  16.345  11.189  1.00  0.00     0.206 C 
HETATM   26  F2  UNL     1      44.634  16.217  12.476  1.00  0.00    -0.247 F 
HETATM   27  C18 UNL     1      42.783  15.921  10.933  1.00  0.00     0.030 C 
HETATM   28  C19 UNL     1      42.390  15.227  12.240  1.00  0.00     0.021 C 
HETATM   29  C20 UNL     1      42.034  17.227  10.948  1.00  0.00     0.021 C 
BRANCH  20  30
HETATM   30  C13 UNL     1      41.942  15.427   8.572  1.00  0.00     0.139 C 
HETATM   31  C14 UNL     1      40.554  15.826   8.859  1.00  0.00     0.054 C 
HETATM   32  C15 UNL     1      42.554  16.230   7.461  1.00  0.00     0.054 C 
HETATM   33  F1  UNL     1      41.813  14.151   7.930  1.00  0.00    -0.240 F 
ENDBRANCH  20  30
ENDBRANCH  17  20
ENDBRANCH  16  17
ENDBRANCH   9  16
TORSDOF 7
ENDMDL
MODEL 2
REMARK VINA RESULT: -7.712726806      4.404      7.459
REMARK  7 active torsions:
REMARK  status: ('A' for Active; 'I' for Inactive)
REMARK    1  A    between atoms: C2_2  and  N1_5 
REMARK    2  A    between atoms: N1_5  and  C5_7 
REMARK    3  A    between atoms: C10_15  and  N4_16 
REMARK    4  A    between atoms: N4_16  and  C11_17 
REMARK    5  A    between atoms: C11_17  and  O1_18 
REMARK    6  A    between atoms: C11_17  and  C12_20 
REMARK    7  A    between atoms: C12_20  and  C13_21 
ROOT
HETATM    1  C5  UNL     1      38.235  13.088  10.568  1.00  0.00     0.089 A 
HETATM    2  C6  UNL     1      39.402  12.438  10.902  1.00  0.00     0.058 A 
HETATM    3  C7  UNL     1      39.329  11.097  11.222  1.00  0.00     0.062 A 
HETATM    4  C8  UNL     1      40.496  10.369  11.576  1.00  0.00     0.101 C 
HETATM    5  N2  UNL     1      41.436   9.780  11.880  1.00  0.00    -0.191 NA
HETATM    6  C9  UNL     1      38.130  10.445  11.203  1.00  0.00     0.113 A 
HETATM    7  N3  UNL     1      37.045  11.114  10.876  1.00  0.00    -0.338 N 
ATOM      8  H3  UNL     1      36.165  10.600  10.870  1.00  0.00     0.168 HD
HETATM    9  C10 UNL     1      36.996  12.445  10.541  1.00  0.00     0.208 A 
ENDROOT
BRANCH   1  10
HETATM   10  N1  UNL     1      38.344  14.463  10.264  1.00  0.00    -0.378 N 
ATOM     11  H1  UNL     1      38.363  14.702   9.273  1.00  0.00     0.160 HD
BRANCH  10  12
HETATM   12  C2  UNL     1      38.431  15.559  11.172  1.00  0.00     0.019 C 
HETATM   13  C1  UNL     1      37.620  16.735  10.581  1.00  0.00     0.037 C 
HETATM   14  C3  UNL     1      39.860  16.045  11.415  1.00  0.00     0.037 C 
HETATM   15  C4  UNL     1      37.808  15.310  12.526  1.00  0.00     0.037 C 
ENDBRANCH  10  12
ENDBRANCH   1  10
BRANCH   9  16
HETATM   16  N4  UNL     1      35.948  12.922  10.249  1.00  0.00    -0.362 NA
BRANCH  16  17
HETATM   17  C11 UNL     1      34.959  13.677   9.789  1.00  0.00     0.233 C 
BRANCH  17  18
HETATM   18  O1  UNL     1      35.294  14.705   9.064  1.00  0.00    -0.337 OA
ATOM     19  H1  UNL     1      34.690  14.957   8.374  1.00  0.00     0.220 HD
ENDBRANCH  17  18
BRANCH  17  20
HETATM   20  C12 UNL     1      33.461  13.549   9.961  1.00  0.00     0.246 C 
HETATM   21  N5  UNL     1      32.839  14.516   9.063  1.00  0.00    -0.051 N 
HETATM   22  C16 UNL     1      32.900  15.759   9.790  1.00  0.00     0.271 C 
ATOM     23  H52 UNL     1      33.256  14.552   8.133  1.00  0.00     0.278 HD
ATOM     24  H51 UNL     1      31.902  14.257   8.753  1.00  0.00     0.278 HD
HETATM   25  C17 UNL     1      32.363  15.281  11.131  1.00  0.00     0.206 C 
HETATM   26  F2  UNL     1      32.719  16.161  12.090  1.00  0.00    -0.247 F 
HETATM   27  C18 UNL     1      33.022  13.891  11.283  1.00  0.00     0.030 C 
HETATM   28  C19 UNL     1      34.089  14.130  12.355  1.00  0.00     0.021 C 
HETATM   29  C20 UNL     1      31.960  13.075  11.971  1.00  0.00     0.021 C 
BRANCH  20  30
HETATM   30  C13 UNL     1      33.084  12.236   9.339  1.00  0.00     0.139 C 
HETATM   31  C14 UNL     1      33.442  11.007  10.066  1.00  0.00     0.054 C 
HETATM   32  C15 UNL     1      31.716  12.165   8.725  1.00  0.00     0.054 C 
HETATM   33  F1  UNL     1      33.900  12.194   8.159  1.00  0.00    -0.240 F 
ENDBRANCH  20  30
ENDBRANCH  17  20
ENDBRANCH  16  17
ENDBRANCH   9  16
TORSDOF 7
ENDMDL
MODEL 3
REMARK VINA RESULT: -7.633770362      4.773      7.837
REMARK  7 active torsions:
REMARK  status: ('A' for Active; 'I' for Inactive)
REMARK    1  A    between atoms: C2_2  and  N1_5 
REMARK    2  A    between atoms: N1_5  and  C5_7 
REMARK    3  A    between atoms: C10_15  and  N4_16 
REMARK    4  A    between atoms: N4_16  and  C11_17 
REMARK    5  A    between atoms: C11_17  and  O1_18 
REMARK    6  A    between atoms: C11_17  and  C12_20 
REMARK    7  A    between atoms: C12_20  and  C13_21 
ROOT
HETATM    1  C5  UNL     1      37.574  12.232  10.806  1.00  0.00     0.089 A 
HETATM    2  C6  UNL     1      38.878  11.808  10.934  1.00  0.00     0.058 A 
HETATM    3  C7  UNL     1      39.102  10.472  11.203  1.00  0.00     0.062 A 
HETATM    4  C8  UNL     1      40.423   9.971  11.347  1.00  0.00     0.101 C 
HETATM    5  N2  UNL     1      41.491   9.565  11.481  1.00  0.00    -0.191 NA
HETATM    6  C9  UNL     1      38.055   9.608  11.335  1.00  0.00     0.113 A 
HETATM    7  N3  UNL     1      36.829  10.066  11.203  1.00  0.00    -0.338 N 
ATOM      8  H3  UNL     1      36.067   9.395  11.306  1.00  0.00     0.168 HD
HETATM    9  C10 UNL     1      36.485  11.368  10.937  1.00  0.00     0.208 A 
ENDROOT
BRANCH   1  10
HETATM   10  N1  UNL     1      37.381  13.608  10.549  1.00  0.00    -0.378 N 
ATOM     11  H1  UNL     1      36.796  13.835   9.746  1.00  0.00     0.160 HD
BRANCH  10  12
HETATM   12  C2  UNL     1      37.903  14.718  11.275  1.00  0.00     0.019 C 
HETATM   13  C1  UNL     1      36.828  15.829  11.288  1.00  0.00     0.037 C 
HETATM   14  C3  UNL     1      39.179  15.303  10.669  1.00  0.00     0.037 C 
HETATM   15  C4  UNL     1      38.185  14.445  12.733  1.00  0.00     0.037 C 
ENDBRANCH  10  12
ENDBRANCH   1  10
BRANCH   9  16
HETATM   16  N4  UNL     1      35.335  11.644  10.825  1.00  0.00    -0.362 NA
BRANCH  16  17
HETATM   17  C11 UNL     1      34.058  11.952  11.015  1.00  0.00     0.233 C 
BRANCH  17  18
HETATM   18  O1  UNL     1      33.592  11.799  12.221  1.00  0.00    -0.337 OA
ATOM     19  H1  UNL     1      33.987  12.329  12.903  1.00  0.00     0.220 HD
ENDBRANCH  17  18
BRANCH  17  20
HETATM   20  C12 UNL     1      33.016  12.469  10.049  1.00  0.00     0.246 C 
HETATM   21  N5  UNL     1      33.586  12.378   8.709  1.00  0.00    -0.051 N 
HETATM   22  C16 UNL     1      34.401  13.562   8.595  1.00  0.00     0.271 C 
ATOM     23  H52 UNL     1      34.084  11.507   8.524  1.00  0.00     0.278 HD
ATOM     24  H51 UNL     1      32.896  12.271   7.966  1.00  0.00     0.278 HD
HETATM   25  C17 UNL     1      33.398  14.593   9.092  1.00  0.00     0.206 C 
HETATM   26  F2  UNL     1      34.059  15.707   9.472  1.00  0.00    -0.247 F 
HETATM   27  C18 UNL     1      32.701  13.853  10.256  1.00  0.00     0.030 C 
HETATM   28  C19 UNL     1      33.277  14.541  11.498  1.00  0.00     0.021 C 
HETATM   29  C20 UNL     1      31.278  14.335  10.174  1.00  0.00     0.021 C 
BRANCH  20  30
HETATM   30  C13 UNL     1      31.933  11.430  10.012  1.00  0.00     0.139 C 
HETATM   31  C14 UNL     1      31.109  11.258  11.221  1.00  0.00     0.054 C 
HETATM   32  C15 UNL     1      31.125  11.361   8.749  1.00  0.00     0.054 C 
HETATM   33  F1  UNL     1      32.670  10.202   9.915  1.00  0.00    -0.240 F 
ENDBRANCH  20  30
ENDBRANCH  17  20
ENDBRANCH  16  17
ENDBRANCH   9  16
TORSDOF 7
ENDMDL
MODEL 4
REMARK VINA RESULT: -7.463768385      4.326      7.553
REMARK  7 active torsions:
REMARK  status: ('A' for Active; 'I' for Inactive)
REMARK    1  A    between atoms: C2_2  and  N1_5 
REMARK    2  A    between atoms: N1_5  and  C5_7 
REMARK    3  A    between atoms: C10_15  and  N4_16 
REMARK    4  A    between atoms: N4_16  and  C11_17 
REMARK    5  A    between atoms: C11_17  and  O1_18 
REMARK    6  A    between atoms: C11_17  and  C12_20 
REMARK    7  A    between atoms: C12_20  and  C13_21 
ROOT
HETATM    1  C5  UNL     1      38.507  13.256  10.659  1.00  0.00     0.089 A 
HETATM    2  C6  UNL     1      39.639  12.506  10.885  1.00  0.00     0.058 A 
HETATM    3  C7  UNL     1      39.481  11.164  11.174  1.00  0.00     0.062 A 
HETATM    4  C8  UNL     1      40.608  10.335  11.417  1.00  0.00     0.101 C 
HETATM    5  N2  UNL     1      41.517   9.664  11.632  1.00  0.00    -0.191 NA
HETATM    6  C9  UNL     1      38.235  10.610  11.229  1.00  0.00     0.113 A 
HETATM    7  N3  UNL     1      37.187  11.374  11.004  1.00  0.00    -0.338 N 
ATOM      8  H3  UNL     1      36.270  10.931  11.052  1.00  0.00     0.168 HD
HETATM    9  C10 UNL     1      37.222  12.714  10.710  1.00  0.00     0.208 A 
ENDROOT
BRANCH   1  10
HETATM   10  N1  UNL     1      38.705  14.628  10.385  1.00  0.00    -0.378 N 
ATOM     11  H1  UNL     1      38.824  14.875   9.403  1.00  0.00     0.160 HD
BRANCH  10  12
HETATM   12  C2  UNL     1      38.759  15.709  11.312  1.00  0.00     0.019 C 
HETATM   13  C1  UNL     1      37.670  16.733  10.916  1.00  0.00     0.037 C 
HETATM   14  C3  UNL     1      40.104  16.435  11.332  1.00  0.00     0.037 C 
HETATM   15  C4  UNL     1      38.431  15.338  12.739  1.00  0.00     0.037 C 
ENDBRANCH  10  12
ENDBRANCH   1  10
BRANCH   9  16
HETATM   16  N4  UNL     1      36.197  13.282  10.511  1.00  0.00    -0.362 NA
BRANCH  16  17
HETATM   17  C11 UNL     1      35.146  13.900   9.987  1.00  0.00     0.233 C 
BRANCH  17  18
HETATM   18  O1  UNL     1      35.363  14.641   8.940  1.00  0.00    -0.337 OA
ATOM     19  H1  UNL     1      35.865  15.436   9.075  1.00  0.00     0.220 HD
ENDBRANCH  17  18
BRANCH  17  20
HETATM   20  C12 UNL     1      33.692  13.891  10.404  1.00  0.00     0.246 C 
HETATM   21  N5  UNL     1      33.628  13.302  11.737  1.00  0.00    -0.051 N 
HETATM   22  C16 UNL     1      33.653  11.882  11.493  1.00  0.00     0.271 C 
ATOM     23  H52 UNL     1      34.351  13.632  12.376  1.00  0.00     0.278 HD
ATOM     24  H51 UNL     1      32.836  13.617  12.297  1.00  0.00     0.278 HD
HETATM   25  C17 UNL     1      32.588  11.803  10.409  1.00  0.00     0.206 C 
HETATM   26  F2  UNL     1      32.731  10.646   9.731  1.00  0.00    -0.247 F 
HETATM   27  C18 UNL     1      32.876  13.064   9.562  1.00  0.00     0.030 C 
HETATM   28  C19 UNL     1      33.509  12.489   8.291  1.00  0.00     0.021 C 
HETATM   29  C20 UNL     1      31.505  13.520   9.139  1.00  0.00     0.021 C 
BRANCH  20  30
HETATM   30  C13 UNL     1      33.326  15.324  10.663  1.00  0.00     0.139 C 
HETATM   31  C14 UNL     1      33.136  16.202   9.497  1.00  0.00     0.054 C 
HETATM   32  C15 UNL     1      32.305  15.562  11.737  1.00  0.00     0.054 C 
HETATM   33  F1  UNL     1      34.501  15.843  11.303  1.00  0.00    -0.240 F 
ENDBRANCH  20  30
ENDBRANCH  17  20
ENDBRANCH  16  17
ENDBRANCH   9  16
TORSDOF 7
ENDMDL
MODEL 5
REMARK VINA RESULT: -7.458543979      5.003      8.426
REMARK  7 active torsions:
REMARK  status: ('A' for Active; 'I' for Inactive)
REMARK    1  A    between atoms: C2_2  and  N1_5 
REMARK    2  A    between atoms: N1_5  and  C5_7 
REMARK    3  A    between atoms: C10_15  and  N4_16 
REMARK    4  A    between atoms: N4_16  and  C11_17 
REMARK    5  A    between atoms: C11_17  and  O1_18 
REMARK    6  A    between atoms: C11_17  and  C12_20 
REMARK    7  A    between atoms: C12_20  and  C13_21 
ROOT
HETATM    1  C5  UNL     1      37.269  11.852  10.804  1.00  0.00     0.089 A 
HETATM    2  C6  UNL     1      38.608  11.569  10.949  1.00  0.00     0.058 A 
HETATM    3  C7  UNL     1      38.968  10.271  11.255  1.00  0.00     0.062 A 
HETATM    4  C8  UNL     1      40.332   9.913  11.417  1.00  0.00     0.101 C 
HETATM    5  N2  UNL     1      41.435   9.623  11.566  1.00  0.00    -0.191 NA
HETATM    6  C9  UNL     1      38.014   9.307  11.407  1.00  0.00     0.113 A 
HETATM    7  N3  UNL     1      36.748   9.633  11.258  1.00  0.00    -0.338 N 
ATOM      8  H3  UNL     1      36.059   8.890  11.377  1.00  0.00     0.168 HD
HETATM    9  C10 UNL     1      36.274  10.885  10.955  1.00  0.00     0.208 A 
ENDROOT
BRANCH   1  10
HETATM   10  N1  UNL     1      36.937  13.194  10.509  1.00  0.00    -0.378 N 
ATOM     11  H1  UNL     1      36.058  13.338  10.013  1.00  0.00     0.160 HD
BRANCH  10  12
HETATM   12  C2  UNL     1      37.679  14.371  10.819  1.00  0.00     0.019 C 
HETATM   13  C1  UNL     1      36.833  15.595  10.399  1.00  0.00     0.037 C 
HETATM   14  C3  UNL     1      39.024  14.457  10.098  1.00  0.00     0.037 C 
HETATM   15  C4  UNL     1      37.946  14.582  12.291  1.00  0.00     0.037 C 
ENDBRANCH  10  12
ENDBRANCH   1  10
BRANCH   9  16
HETATM   16  N4  UNL     1      35.102  11.038  10.831  1.00  0.00    -0.362 NA
BRANCH  16  17
HETATM   17  C11 UNL     1      33.779  11.003  10.933  1.00  0.00     0.233 C 
BRANCH  17  18
HETATM   18  O1  UNL     1      33.237   9.836  11.130  1.00  0.00    -0.337 OA
ATOM     19  H1  UNL     1      33.213   9.245  10.387  1.00  0.00     0.220 HD
ENDBRANCH  17  18
BRANCH  17  20
HETATM   20  C12 UNL     1      32.758  12.116  10.861  1.00  0.00     0.246 C 
HETATM   21  N5  UNL     1      31.445  11.510  11.056  1.00  0.00    -0.051 N 
HETATM   22  C16 UNL     1      31.100  10.996   9.754  1.00  0.00     0.271 C 
ATOM     23  H52 UNL     1      31.410  10.817  11.803  1.00  0.00     0.278 HD
ATOM     24  H51 UNL     1      30.749  12.139  11.456  1.00  0.00     0.278 HD
HETATM   25  C17 UNL     1      31.423  12.225   8.916  1.00  0.00     0.206 C 
HETATM   26  F2  UNL     1      31.580  11.854   7.628  1.00  0.00    -0.247 F 
HETATM   27  C18 UNL     1      32.717  12.753   9.576  1.00  0.00     0.030 C 
HETATM   28  C19 UNL     1      33.800  12.384   8.558  1.00  0.00     0.021 C 
HETATM   29  C20 UNL     1      32.579  14.248   9.468  1.00  0.00     0.021 C 
BRANCH  20  30
HETATM   30  C13 UNL     1      32.934  12.922  12.115  1.00  0.00     0.139 C 
HETATM   31  C14 UNL     1      34.137  13.763  12.224  1.00  0.00     0.054 C 
HETATM   32  C15 UNL     1      31.704  13.604  12.641  1.00  0.00     0.054 C 
HETATM   33  F1  UNL     1      33.121  11.914  13.120  1.00  0.00    -0.240 F 
ENDBRANCH  20  30
ENDBRANCH  17  20
ENDBRANCH  16  17
ENDBRANCH   9  16
TORSDOF 7
ENDMDL
