MODEL 1
REMARK VINA RESULT: -8.311092040      0.000      0.000
REMARK  5 active torsions:
REMARK  status: ('A' for Active; 'I' for Inactive)
REMARK    1  A    between atoms: C7_8  and  C8_9 
REMARK    2  A    between atoms: C8_9  and  O1_10 
REMARK    3  A    between atoms: C16_19  and  O2_20 
REMARK    4  A    between atoms: C19_26  and  C20_27 
REMARK    5  A    between atoms: C20_27  and  O4_28 
ROOT
HETATM    1  C1  UNL     1      40.269  16.890  13.199  1.00  0.00     0.011 C 
HETATM    2  C2  UNL     1      40.960  15.646  12.807  1.00  0.00    -0.006 C 
HETATM    3  C3  UNL     1      40.496  14.471  13.576  1.00  0.00     0.043 C 
HETATM    4  C4  UNL     1      39.339  13.719  13.042  1.00  0.00     0.179 C 
HETATM    5  F1  UNL     1      39.379  12.462  13.668  1.00  0.00    -0.249 F 
HETATM    6  C5  UNL     1      39.538  13.484  11.573  1.00  0.00     0.057 C 
HETATM    7  C6  UNL     1      38.256  12.823  11.083  1.00  0.00    -0.074 C 
HETATM    8  C7  UNL     1      38.142  11.507  11.263  1.00  0.00     0.002 C 
HETATM    9  C9  UNL     1      37.160  13.548  10.428  1.00  0.00     0.034 C 
HETATM   10  C10 UNL     1      37.450  14.975  10.172  1.00  0.00     0.005 C 
HETATM   11  C11 UNL     1      38.602  15.572  10.928  1.00  0.00     0.011 C 
HETATM   12  C12 UNL     1      39.851  14.720  10.783  1.00  0.00    -0.026 C 
HETATM   13  C13 UNL     1      39.936  14.349   9.348  1.00  0.00     0.016 C 
HETATM   14  C14 UNL     1      41.088  15.401  11.303  1.00  0.00    -0.024 C 
HETATM   15  C15 UNL     1      41.394  16.719  10.726  1.00  0.00     0.046 C 
HETATM   16  C16 UNL     1      42.169  16.745   9.438  1.00  0.00     0.164 C 
HETATM   17  C17 UNL     1      43.459  16.004   9.568  1.00  0.00     0.183 C 
HETATM   18  F2  UNL     1      43.945  15.663   8.317  1.00  0.00    -0.234 F 
HETATM   19  C18 UNL     1      44.452  16.706  10.448  1.00  0.00     0.218 C 
HETATM   20  O3  UNL     1      44.280  15.723  11.400  1.00  0.00    -0.371 OA
HETATM   21  C19 UNL     1      43.486  14.937  10.563  1.00  0.00     0.123 C 
HETATM   22  C21 UNL     1      42.234  14.438  11.145  1.00  0.00     0.054 C 
ENDROOT
BRANCH  16  23
HETATM   23  O2  UNL     1      42.536  18.105   9.247  1.00  0.00    -0.392 OA
ATOM     24  H2  UNL     1      41.753  18.533   8.923  1.00  0.00     0.210 HD
ENDBRANCH  16  23
BRANCH  21  25
HETATM   25  C20 UNL     1      44.350  13.771  10.056  1.00  0.00     0.205 C 
BRANCH  25  26
HETATM   26  O4  UNL     1      43.578  12.705   9.664  1.00  0.00    -0.398 OA
ATOM     27  H4  UNL     1      44.011  12.188   8.994  1.00  0.00     0.209 HD
ENDBRANCH  25  26
ENDBRANCH  21  25
BRANCH   8  28
HETATM   28  C8  UNL     1      37.029  10.640  10.893  1.00  0.00     0.191 C 
BRANCH  28  29
HETATM   29  O1  UNL     1      37.054   9.347  11.355  1.00  0.00    -0.397 OA
ATOM     30  H1  UNL     1      37.338   8.672  10.750  1.00  0.00     0.209 HD
ENDBRANCH  28  29
ENDBRANCH   8  28
TORSDOF 5
ENDMDL
MODEL 2
REMARK VINA RESULT: -8.005064470      2.467      3.408
REMARK  5 active torsions:
REMARK  status: ('A' for Active; 'I' for Inactive)
REMARK    1  A    between atoms: C7_8  and  C8_9 
REMARK    2  A    between atoms: C8_9  and  O1_10 
REMARK    3  A    between atoms: C16_19  and  O2_20 
REMARK    4  A    between atoms: C19_26  and  C20_27 
REMARK    5  A    between atoms: C20_27  and  O4_28 
ROOT
HETATM    1  C1  UNL     1      39.906  13.119  13.037  1.00  0.00     0.011 C 
HETATM    2  C2  UNL     1      39.772  13.166  11.568  1.00  0.00    -0.006 C 
HETATM    3  C3  UNL     1      38.765  12.211  11.057  1.00  0.00     0.043 C 
HETATM    4  C4  UNL     1      37.364  12.681  10.966  1.00  0.00     0.179 C 
HETATM    5  F1  UNL     1      36.724  11.798  10.080  1.00  0.00    -0.249 F 
HETATM    6  C5  UNL     1      37.339  14.038  10.327  1.00  0.00     0.057 C 
HETATM    7  C6  UNL     1      35.888  14.496  10.387  1.00  0.00    -0.074 C 
HETATM    8  C7  UNL     1      35.068  14.050   9.434  1.00  0.00     0.002 C 
HETATM    9  C9  UNL     1      35.355  15.395  11.419  1.00  0.00     0.034 C 
HETATM   10  C10 UNL     1      36.378  15.922  12.346  1.00  0.00     0.005 C 
HETATM   11  C11 UNL     1      37.697  15.203  12.367  1.00  0.00     0.011 C 
HETATM   12  C12 UNL     1      38.254  15.042  10.964  1.00  0.00    -0.026 C 
HETATM   13  C13 UNL     1      38.061  16.348  10.287  1.00  0.00     0.016 C 
HETATM   14  C14 UNL     1      39.682  14.563  10.952  1.00  0.00    -0.024 C 
HETATM   15  C15 UNL     1      40.645  15.377  11.708  1.00  0.00     0.046 C 
HETATM   16  C16 UNL     1      41.250  16.560  11.005  1.00  0.00     0.164 C 
HETATM   17  C17 UNL     1      41.915  16.150   9.731  1.00  0.00     0.183 C 
HETATM   18  F2  UNL     1      42.077  17.245   8.900  1.00  0.00    -0.234 F 
HETATM   19  C18 UNL     1      43.165  15.349   9.954  1.00  0.00     0.218 C 
HETATM   20  O3  UNL     1      42.514  14.230   9.480  1.00  0.00    -0.371 OA
HETATM   21  C19 UNL     1      41.384  14.951   9.091  1.00  0.00     0.123 C 
HETATM   22  C21 UNL     1      40.090  14.399   9.512  1.00  0.00     0.054 C 
ENDROOT
BRANCH  16  23
HETATM   23  O2  UNL     1      42.304  17.001  11.850  1.00  0.00    -0.392 OA
ATOM     24  H2  UNL     1      42.551  17.856  11.518  1.00  0.00     0.210 HD
ENDBRANCH  16  23
BRANCH  21  25
HETATM   25  C20 UNL     1      41.432  15.110   7.562  1.00  0.00     0.205 C 
BRANCH  25  26
HETATM   26  O4  UNL     1      40.249  15.605   7.070  1.00  0.00    -0.398 OA
ATOM     27  H4  UNL     1      40.371  16.451   6.654  1.00  0.00     0.209 HD
ENDBRANCH  25  26
ENDBRANCH  21  25
BRANCH   8  28
HETATM   28  C8  UNL     1      33.647  14.331   9.264  1.00  0.00     0.191 C 
BRANCH  28  29
HETATM   29  O1  UNL     1      33.307  15.459   8.558  1.00  0.00    -0.397 OA
ATOM     30  H1  UNL     1      32.559  15.400   7.974  1.00  0.00     0.209 HD
ENDBRANCH  28  29
ENDBRANCH   8  28
TORSDOF 5
ENDMDL
MODEL 3
REMARK VINA RESULT: -7.916334689      2.499      4.063
REMARK  5 active torsions:
REMARK  status: ('A' for Active; 'I' for Inactive)
REMARK    1  A    between atoms: C7_8  and  C8_9 
REMARK    2  A    between atoms: C8_9  and  O1_10 
REMARK    3  A    between atoms: C16_19  and  O2_20 
REMARK    4  A    between atoms: C19_26  and  C20_27 
REMARK    5  A    between atoms: C20_27  and  O4_28 
ROOT
HETATM    1  C1  UNL     1      40.632  13.243  12.426  1.00  0.00     0.011 C 
HETATM    2  C2  UNL     1      40.569  13.917  11.115  1.00  0.00    -0.006 C 
HETATM    3  C3  UNL     1      39.260  13.742  10.448  1.00  0.00     0.043 C 
HETATM    4  C4  UNL     1      38.204  14.735  10.747  1.00  0.00     0.179 C 
HETATM    5  F1  UNL     1      37.267  14.619   9.706  1.00  0.00    -0.249 F 
HETATM    6  C5  UNL     1      38.786  16.116  10.661  1.00  0.00     0.057 C 
HETATM    7  C6  UNL     1      37.675  17.060  11.101  1.00  0.00    -0.074 C 
HETATM    8  C7  UNL     1      36.767  17.402  10.186  1.00  0.00     0.002 C 
HETATM    9  C9  UNL     1      37.558  17.609  12.458  1.00  0.00     0.034 C 
HETATM   10  C10 UNL     1      38.685  17.261  13.349  1.00  0.00     0.005 C 
HETATM   11  C11 UNL     1      39.562  16.123  12.907  1.00  0.00     0.011 C 
HETATM   12  C12 UNL     1      40.029  16.318  11.475  1.00  0.00    -0.026 C 
HETATM   13  C13 UNL     1      40.438  17.740  11.361  1.00  0.00     0.016 C 
HETATM   14  C14 UNL     1      41.108  15.347  11.074  1.00  0.00    -0.024 C 
HETATM   15  C15 UNL     1      42.309  15.327  11.922  1.00  0.00     0.046 C 
HETATM   16  C16 UNL     1      43.384  16.333  11.618  1.00  0.00     0.164 C 
HETATM   17  C17 UNL     1      43.838  16.227  10.198  1.00  0.00     0.183 C 
HETATM   18  F2  UNL     1      44.480  17.392   9.813  1.00  0.00    -0.234 F 
HETATM   19  C18 UNL     1      44.611  14.971   9.922  1.00  0.00     0.218 C 
HETATM   20  O3  UNL     1      43.552  14.502   9.175  1.00  0.00    -0.371 OA
HETATM   21  C19 UNL     1      42.856  15.709   9.251  1.00  0.00     0.123 C 
HETATM   22  C21 UNL     1      41.441  15.615   9.631  1.00  0.00     0.054 C 
ENDROOT
BRANCH  16  23
HETATM   23  O2  UNL     1      44.503  15.934  12.398  1.00  0.00    -0.392 OA
ATOM     24  H2  UNL     1      44.702  16.679  12.952  1.00  0.00     0.210 HD
ENDBRANCH  16  23
BRANCH  21  25
HETATM   25  C20 UNL     1      43.007  16.425   7.899  1.00  0.00     0.205 C 
BRANCH  25  26
HETATM   26  O4  UNL     1      42.020  16.052   7.019  1.00  0.00    -0.398 OA
ATOM     27  H4  UNL     1      41.157  16.271   7.352  1.00  0.00     0.209 HD
ENDBRANCH  25  26
ENDBRANCH  21  25
BRANCH   8  28
HETATM   28  C8  UNL     1      35.613  18.280  10.347  1.00  0.00     0.191 C 
BRANCH  28  29
HETATM   29  O1  UNL     1      35.694  19.536   9.799  1.00  0.00    -0.397 OA
ATOM     30  H1  UNL     1      34.884  20.026   9.707  1.00  0.00     0.209 HD
ENDBRANCH  28  29
ENDBRANCH   8  28
TORSDOF 5
ENDMDL
MODEL 4
REMARK VINA RESULT: -7.687547984      2.821      6.469
REMARK  5 active torsions:
REMARK  status: ('A' for Active; 'I' for Inactive)
REMARK    1  A    between atoms: C7_8  and  C8_9 
REMARK    2  A    between atoms: C8_9  and  O1_10 
REMARK    3  A    between atoms: C16_19  and  O2_20 
REMARK    4  A    between atoms: C19_26  and  C20_27 
REMARK    5  A    between atoms: C20_27  and  O4_28 
ROOT
HETATM    1  C1  UNL     1      39.445  12.062  12.647  1.00  0.00     0.011 C 
HETATM    2  C2  UNL     1      39.210  13.515  12.760  1.00  0.00    -0.006 C 
HETATM    3  C3  UNL     1      40.342  14.227  13.392  1.00  0.00     0.043 C 
HETATM    4  C4  UNL     1      41.425  14.709  12.505  1.00  0.00     0.179 C 
HETATM    5  F1  UNL     1      42.112  15.689  13.242  1.00  0.00    -0.249 F 
HETATM    6  C5  UNL     1      40.821  15.396  11.316  1.00  0.00     0.057 C 
HETATM    7  C6  UNL     1      41.989  15.745  10.403  1.00  0.00    -0.074 C 
HETATM    8  C7  UNL     1      42.670  16.858  10.682  1.00  0.00     0.002 C 
HETATM    9  C9  UNL     1      42.395  14.936   9.247  1.00  0.00     0.034 C 
HETATM   10  C10 UNL     1      41.496  13.797   8.963  1.00  0.00     0.005 C 
HETATM   11  C11 UNL     1      40.558  13.393  10.065  1.00  0.00     0.011 C 
HETATM   12  C12 UNL     1      39.785  14.589  10.592  1.00  0.00    -0.026 C 
HETATM   13  C13 UNL     1      39.343  15.356   9.400  1.00  0.00     0.016 C 
HETATM   14  C14 UNL     1      38.657  14.199  11.510  1.00  0.00    -0.024 C 
HETATM   15  C15 UNL     1      37.672  13.256  10.961  1.00  0.00     0.046 C 
HETATM   16  C16 UNL     1      36.543  13.830  10.152  1.00  0.00     0.164 C 
HETATM   17  C17 UNL     1      35.790  14.861  10.928  1.00  0.00     0.183 C 
HETATM   18  F2  UNL     1      35.064  15.671  10.071  1.00  0.00    -0.234 F 
HETATM   19  C18 UNL     1      34.991  14.276  12.056  1.00  0.00     0.218 C 
HETATM   20  O3  UNL     1      35.866  14.851  12.953  1.00  0.00    -0.371 OA
HETATM   21  C19 UNL     1      36.546  15.560  11.962  1.00  0.00     0.123 C 
HETATM   22  C21 UNL     1      38.011  15.470  11.995  1.00  0.00     0.054 C 
ENDROOT
BRANCH  16  23
HETATM   23  O2  UNL     1      35.628  12.758   9.969  1.00  0.00    -0.392 OA
ATOM     24  H2  UNL     1      35.885  12.345   9.153  1.00  0.00     0.210 HD
ENDBRANCH  16  23
BRANCH  21  25
HETATM   25  C20 UNL     1      36.092  17.027  12.038  1.00  0.00     0.205 C 
BRANCH  25  26
HETATM   26  O4  UNL     1      36.470  17.609  13.223  1.00  0.00    -0.398 OA
ATOM     27  H4  UNL     1      36.638  18.539  13.117  1.00  0.00     0.209 HD
ENDBRANCH  25  26
ENDBRANCH  21  25
BRANCH   8  28
HETATM   28  C8  UNL     1      43.819  17.412   9.976  1.00  0.00     0.191 C 
BRANCH  28  29
HETATM   29  O1  UNL     1      44.759  18.078  10.723  1.00  0.00    -0.397 OA
ATOM     30  H1  UNL     1      44.590  18.991  10.925  1.00  0.00     0.209 HD
ENDBRANCH  28  29
ENDBRANCH   8  28
TORSDOF 5
ENDMDL
MODEL 5
REMARK VINA RESULT: -7.673281553      3.066      6.556
REMARK  5 active torsions:
REMARK  status: ('A' for Active; 'I' for Inactive)
REMARK    1  A    between atoms: C7_8  and  C8_9 
REMARK    2  A    between atoms: C8_9  and  O1_10 
REMARK    3  A    between atoms: C16_19  and  O2_20 
REMARK    4  A    between atoms: C19_26  and  C20_27 
REMARK    5  A    between atoms: C20_27  and  O4_28 
ROOT
HETATM    1  C1  UNL     1      39.879  15.447  13.798  1.00  0.00     0.011 C 
HETATM    2  C2  UNL     1      39.464  16.444  12.791  1.00  0.00    -0.006 C 
HETATM    3  C3  UNL     1      40.553  17.380  12.435  1.00  0.00     0.043 C 
HETATM    4  C4  UNL     1      41.457  16.987  11.331  1.00  0.00     0.179 C 
HETATM    5  F1  UNL     1      42.083  18.173  10.911  1.00  0.00    -0.249 F 
HETATM    6  C5  UNL     1      40.639  16.489  10.176  1.00  0.00     0.057 C 
HETATM    7  C6  UNL     1      41.641  15.992   9.143  1.00  0.00    -0.074 C 
HETATM    8  C7  UNL     1      42.192  16.904   8.341  1.00  0.00     0.002 C 
HETATM    9  C9  UNL     1      42.022  14.583   8.984  1.00  0.00     0.034 C 
HETATM   10  C10 UNL     1      41.258  13.652   9.841  1.00  0.00     0.005 C 
HETATM   11  C11 UNL     1      40.511  14.261  10.993  1.00  0.00     0.011 C 
HETATM   12  C12 UNL     1      39.647  15.421  10.531  1.00  0.00    -0.026 C 
HETATM   13  C13 UNL     1      38.977  14.971   9.286  1.00  0.00     0.016 C 
HETATM   14  C14 UNL     1      38.690  15.897  11.592  1.00  0.00    -0.024 C 
HETATM   15  C15 UNL     1      37.786  14.881  12.152  1.00  0.00     0.046 C 
HETATM   16  C16 UNL     1      36.508  14.610  11.408  1.00  0.00     0.164 C 
HETATM   17  C17 UNL     1      35.713  15.862  11.224  1.00  0.00     0.183 C 
HETATM   18  F2  UNL     1      34.795  15.701  10.201  1.00  0.00    -0.234 F 
HETATM   19  C18 UNL     1      35.130  16.379  12.507  1.00  0.00     0.218 C 
HETATM   20  O3  UNL     1      36.013  17.437  12.464  1.00  0.00    -0.371 OA
HETATM   21  C19 UNL     1      36.478  17.104  11.191  1.00  0.00     0.123 C 
HETATM   22  C21 UNL     1      37.936  17.071  11.026  1.00  0.00     0.054 C 
ENDROOT
BRANCH  16  23
HETATM   23  O2  UNL     1      35.731  13.800  12.280  1.00  0.00    -0.392 OA
ATOM     24  H2  UNL     1      35.288  13.177  11.715  1.00  0.00     0.210 HD
ENDBRANCH  16  23
BRANCH  21  25
HETATM   25  C20 UNL     1      35.842  18.082  10.189  1.00  0.00     0.205 C 
BRANCH  25  26
HETATM   26  O4  UNL     1      36.346  19.351  10.335  1.00  0.00    -0.398 OA
ATOM     27  H4  UNL     1      36.254  19.857   9.535  1.00  0.00     0.209 HD
ENDBRANCH  25  26
ENDBRANCH  21  25
BRANCH   8  28
HETATM   28  C8  UNL     1      43.172  16.696   7.280  1.00  0.00     0.191 C 
BRANCH  28  29
HETATM   29  O1  UNL     1      43.096  17.515   6.180  1.00  0.00    -0.397 OA
ATOM     30  H1  UNL     1      43.847  18.067   5.994  1.00  0.00     0.209 HD
ENDBRANCH  28  29
ENDBRANCH   8  28
TORSDOF 5
ENDMDL
