MODEL 1
REMARK VINA RESULT: -6.971919130      0.000      0.000
REMARK  13 active torsions:
REMARK  status: ('A' for Active; 'I' for Inactive)
REMARK    1  A    between atoms: C2_2  and  C3_3 
REMARK    2  A    between atoms: C2_2  and  C29_38 
REMARK    3  A    between atoms: C4_4  and  C5_5 
REMARK    4  A    between atoms: C5_5  and  O2_7 
REMARK    5  A    between atoms: O2_7  and  C6_8 
REMARK    6  A    between atoms: C12_14  and  C13_15 
REMARK    7  A    between atoms: C13_15  and  C15_17 
REMARK    8  A    between atoms: C15_17  and  O3_18 
REMARK    9  A    between atoms: C15_17  and  C16_20 
REMARK   10  A    between atoms: C16_20  and  O4_21 
REMARK   11  A    between atoms: C16_20  and  C17_23 
REMARK   12  A    between atoms: C17_23  and  O5_26 
REMARK   13  A    between atoms: C29_38  and  N1_39 
ROOT
HETATM    1  C6  UNL     1      41.783 -34.648  20.035  1.00  0.00     0.141 C 
HETATM    2  C7  UNL     1      42.250 -33.785  21.253  1.00  0.00     0.041 C 
HETATM    3  C8  UNL     1      40.950 -33.594  22.050  1.00  0.00     0.030 C 
HETATM    4  C9  UNL     1      40.303 -34.919  22.330  1.00  0.00     0.005 C 
HETATM    5  C10 UNL     1      41.109 -36.096  21.941  1.00  0.00     0.002 A 
HETATM    6  C11 UNL     1      40.324 -37.313  21.472  1.00  0.00     0.012 A 
HETATM    7  C12 UNL     1      40.954 -37.131  20.105  1.00  0.00     0.003 A 
HETATM    8  C20 UNL     1      41.722 -36.008  20.545  1.00  0.00    -0.009 A 
HETATM    9  C21 UNL     1      43.232 -36.395  20.764  1.00  0.00     0.018 C 
HETATM   10  C22 UNL     1      39.944 -35.067  23.806  1.00  0.00    -0.043 C 
HETATM   11  C23 UNL     1      38.937 -36.196  23.987  1.00  0.00     0.015 C 
HETATM   12  C24 UNL     1      41.113 -35.365  24.681  1.00  0.00     0.015 C 
HETATM   13  C25 UNL     1      39.222 -33.801  24.207  1.00  0.00     0.012 C 
HETATM   14  C26 UNL     1      40.228 -32.708  24.291  1.00  0.00     0.041 C 
HETATM   15  C27 UNL     1      41.299 -32.779  23.242  1.00  0.00     0.086 A 
HETATM   16  C28 UNL     1      41.851 -31.400  22.877  1.00  0.00     0.207 A 
HETATM   17  O6  UNL     1      42.588 -32.369  23.509  1.00  0.00    -0.375 OA
ENDROOT
BRANCH   1  18
HETATM   18  O2  UNL     1      40.722 -33.954  19.547  1.00  0.00    -0.312 OA
BRANCH  18  19
HETATM   19  C5  UNL     1      40.762 -33.373  18.262  1.00  0.00     0.283 C 
HETATM   20  O1  UNL     1      40.891 -34.183  17.319  1.00  0.00    -0.260 OA
BRANCH  19  21
HETATM   21  C4  UNL     1      40.658 -31.955  18.074  1.00  0.00     0.078 C 
HETATM   22  C3  UNL     1      40.006 -31.274  17.195  1.00  0.00    -0.015 C 
BRANCH  22  23
HETATM   23  C2  UNL     1      39.157 -31.758  16.102  1.00  0.00     0.032 C 
HETATM   24  C1  UNL     1      38.641 -30.584  15.248  1.00  0.00     0.016 C 
BRANCH  23  25
HETATM   25  C29 UNL     1      37.904 -32.414  16.650  1.00  0.00     0.280 C 
BRANCH  25  26
HETATM   26  N1  UNL     1      37.146 -33.076  15.607  1.00  0.00     0.093 N 
HETATM   27  C30 UNL     1      36.061 -33.820  16.216  1.00  0.00     0.298 C 
HETATM   28  C31 UNL     1      36.499 -35.117  16.810  1.00  0.00     0.198 C 
HETATM   29  O7  UNL     1      37.246 -35.893  15.932  1.00  0.00    -0.388 OA
HETATM   30  C32 UNL     1      37.295 -35.308  14.653  1.00  0.00     0.198 C 
HETATM   31  C33 UNL     1      38.007 -33.963  14.844  1.00  0.00     0.298 C 
ENDBRANCH  25  26
ENDBRANCH  23  25
ENDBRANCH  22  23
ENDBRANCH  19  21
ENDBRANCH  18  19
ENDBRANCH   1  18
BRANCH   7  32
HETATM   32  C13 UNL     1      40.066 -37.287  18.942  1.00  0.00     0.018 C 
HETATM   33  C14 UNL     1      38.863 -38.128  19.069  1.00  0.00     0.013 C 
BRANCH  32  34
HETATM   34  C15 UNL     1      40.881 -37.890  17.772  1.00  0.00     0.154 C 
BRANCH  34  35
HETATM   35  O3  UNL     1      41.913 -36.948  17.520  1.00  0.00    -0.393 OA
ATOM     36  H3  UNL     1      41.649 -36.502  16.724  1.00  0.00     0.210 HD
ENDBRANCH  34  35
BRANCH  34  37
HETATM   37  C16 UNL     1      40.099 -37.975  16.511  1.00  0.00     0.180 C 
BRANCH  37  38
HETATM   38  O4  UNL     1      40.197 -36.740  15.848  1.00  0.00    -0.390 OA
ATOM     39  H4  UNL     1      39.480 -36.677  15.228  1.00  0.00     0.210 HD
ENDBRANCH  37  38
BRANCH  37  40
HETATM   40  C17 UNL     1      40.760 -38.978  15.582  1.00  0.00     0.079 C 
HETATM   41  C18 UNL     1      41.402 -40.107  16.348  1.00  0.00     0.048 C 
HETATM   42  C19 UNL     1      39.665 -39.614  14.715  1.00  0.00     0.048 C 
BRANCH  40  43
HETATM   43  O5  UNL     1      41.659 -38.397  14.721  1.00  0.00    -0.388 OA
ATOM     44  H5  UNL     1      41.511 -38.639  13.815  1.00  0.00     0.210 HD
ENDBRANCH  40  43
ENDBRANCH  37  40
ENDBRANCH  34  37
ENDBRANCH  32  34
ENDBRANCH   7  32
TORSDOF 13
ENDMDL
MODEL 2
REMARK VINA RESULT: -6.343838254      1.398      1.944
REMARK  13 active torsions:
REMARK  status: ('A' for Active; 'I' for Inactive)
REMARK    1  A    between atoms: C2_2  and  C3_3 
REMARK    2  A    between atoms: C2_2  and  C29_38 
REMARK    3  A    between atoms: C4_4  and  C5_5 
REMARK    4  A    between atoms: C5_5  and  O2_7 
REMARK    5  A    between atoms: O2_7  and  C6_8 
REMARK    6  A    between atoms: C12_14  and  C13_15 
REMARK    7  A    between atoms: C13_15  and  C15_17 
REMARK    8  A    between atoms: C15_17  and  O3_18 
REMARK    9  A    between atoms: C15_17  and  C16_20 
REMARK   10  A    between atoms: C16_20  and  O4_21 
REMARK   11  A    between atoms: C16_20  and  C17_23 
REMARK   12  A    between atoms: C17_23  and  O5_26 
REMARK   13  A    between atoms: C29_38  and  N1_39 
ROOT
HETATM    1  C6  UNL     1      41.896 -34.232  19.789  1.00  0.00     0.141 C 
HETATM    2  C7  UNL     1      42.305 -33.403  21.050  1.00  0.00     0.041 C 
HETATM    3  C8  UNL     1      41.055 -33.501  21.939  1.00  0.00     0.030 C 
HETATM    4  C9  UNL     1      40.658 -34.935  22.135  1.00  0.00     0.005 C 
HETATM    5  C10 UNL     1      41.615 -35.922  21.591  1.00  0.00     0.002 A 
HETATM    6  C11 UNL     1      41.008 -37.213  21.061  1.00  0.00     0.012 A 
HETATM    7  C12 UNL     1      41.495 -36.818  19.680  1.00  0.00     0.003 A 
HETATM    8  C20 UNL     1      42.099 -35.619  20.175  1.00  0.00    -0.009 A 
HETATM    9  C21 UNL     1      43.663 -35.759  20.264  1.00  0.00     0.018 C 
HETATM   10  C22 UNL     1      40.440 -35.260  23.610  1.00  0.00    -0.043 C 
HETATM   11  C23 UNL     1      39.650 -36.555  23.747  1.00  0.00     0.015 C 
HETATM   12  C24 UNL     1      41.705 -35.424  24.381  1.00  0.00     0.015 C 
HETATM   13  C25 UNL     1      39.553 -34.171  24.168  1.00  0.00     0.012 C 
HETATM   14  C26 UNL     1      40.368 -32.933  24.292  1.00  0.00     0.041 C 
HETATM   15  C27 UNL     1      41.354 -32.737  23.177  1.00  0.00     0.086 A 
HETATM   16  C28 UNL     1      41.643 -31.259  22.907  1.00  0.00     0.207 A 
HETATM   17  O6  UNL     1      42.575 -32.136  23.402  1.00  0.00    -0.375 OA
ENDROOT
BRANCH   1  18
HETATM   18  O2  UNL     1      40.703 -33.692  19.432  1.00  0.00    -0.312 OA
BRANCH  18  19
HETATM   19  C5  UNL     1      40.526 -33.083  18.172  1.00  0.00     0.283 C 
HETATM   20  O1  UNL     1      40.198 -31.877  18.209  1.00  0.00    -0.260 OA
BRANCH  19  21
HETATM   21  C4  UNL     1      40.716 -33.810  16.950  1.00  0.00     0.078 C 
HETATM   22  C3  UNL     1      39.865 -34.178  16.056  1.00  0.00    -0.015 C 
BRANCH  22  23
HETATM   23  C2  UNL     1      38.416 -33.956  16.020  1.00  0.00     0.032 C 
HETATM   24  C1  UNL     1      37.660 -35.187  16.555  1.00  0.00     0.016 C 
BRANCH  23  25
HETATM   25  C29 UNL     1      37.934 -33.801  14.590  1.00  0.00     0.280 C 
BRANCH  25  26
HETATM   26  N1  UNL     1      37.170 -34.952  14.154  1.00  0.00     0.093 N 
HETATM   27  C30 UNL     1      38.005 -35.772  13.297  1.00  0.00     0.298 C 
HETATM   28  C31 UNL     1      38.119 -35.241  11.907  1.00  0.00     0.198 C 
HETATM   29  O7  UNL     1      36.888 -34.955  11.330  1.00  0.00    -0.388 OA
HETATM   30  C32 UNL     1      35.830 -35.360  12.166  1.00  0.00     0.198 C 
HETATM   31  C33 UNL     1      35.976 -34.526  13.445  1.00  0.00     0.298 C 
ENDBRANCH  25  26
ENDBRANCH  23  25
ENDBRANCH  22  23
ENDBRANCH  19  21
ENDBRANCH  18  19
ENDBRANCH   1  18
BRANCH   7  32
HETATM   32  C13 UNL     1      40.559 -37.028  18.564  1.00  0.00     0.018 C 
HETATM   33  C14 UNL     1      39.178 -37.448  18.859  1.00  0.00     0.013 C 
BRANCH  32  34
HETATM   34  C15 UNL     1      41.141 -38.116  17.628  1.00  0.00     0.154 C 
BRANCH  34  35
HETATM   35  O3  UNL     1      42.351 -37.563  17.131  1.00  0.00    -0.393 OA
ATOM     36  H3  UNL     1      42.634 -38.164  16.452  1.00  0.00     0.210 HD
ENDBRANCH  34  35
BRANCH  34  37
HETATM   37  C16 UNL     1      40.290 -38.359  16.433  1.00  0.00     0.180 C 
BRANCH  37  38
HETATM   38  O4  UNL     1      40.667 -37.448  15.431  1.00  0.00    -0.390 OA
ATOM     39  H4  UNL     1      40.692 -37.912  14.602  1.00  0.00     0.210 HD
ENDBRANCH  37  38
BRANCH  37  40
HETATM   40  C17 UNL     1      40.610 -39.730  15.865  1.00  0.00     0.079 C 
HETATM   41  C18 UNL     1      40.640 -40.786  16.941  1.00  0.00     0.048 C 
HETATM   42  C19 UNL     1      39.477 -40.123  14.908  1.00  0.00     0.048 C 
BRANCH  40  43
HETATM   43  O5  UNL     1      41.771 -39.747  15.131  1.00  0.00    -0.388 OA
ATOM     44  H5  UNL     1      42.092 -40.625  14.967  1.00  0.00     0.210 HD
ENDBRANCH  40  43
ENDBRANCH  37  40
ENDBRANCH  34  37
ENDBRANCH  32  34
ENDBRANCH   7  32
TORSDOF 13
ENDMDL
MODEL 3
REMARK VINA RESULT: -5.954382368     18.490     21.305
REMARK  13 active torsions:
REMARK  status: ('A' for Active; 'I' for Inactive)
REMARK    1  A    between atoms: C2_2  and  C3_3 
REMARK    2  A    between atoms: C2_2  and  C29_38 
REMARK    3  A    between atoms: C4_4  and  C5_5 
REMARK    4  A    between atoms: C5_5  and  O2_7 
REMARK    5  A    between atoms: O2_7  and  C6_8 
REMARK    6  A    between atoms: C12_14  and  C13_15 
REMARK    7  A    between atoms: C13_15  and  C15_17 
REMARK    8  A    between atoms: C15_17  and  O3_18 
REMARK    9  A    between atoms: C15_17  and  C16_20 
REMARK   10  A    between atoms: C16_20  and  O4_21 
REMARK   11  A    between atoms: C16_20  and  C17_23 
REMARK   12  A    between atoms: C17_23  and  O5_26 
REMARK   13  A    between atoms: C29_38  and  N1_39 
ROOT
HETATM    1  C6  UNL     1      58.546 -35.146   9.387  1.00  0.00     0.141 C 
HETATM    2  C7  UNL     1      59.664 -34.053   9.392  1.00  0.00     0.041 C 
HETATM    3  C8  UNL     1      60.886 -34.819   8.859  1.00  0.00     0.030 C 
HETATM    4  C9  UNL     1      60.561 -35.490   7.557  1.00  0.00     0.005 C 
HETATM    5  C10 UNL     1      59.235 -35.148   6.998  1.00  0.00     0.002 A 
HETATM    6  C11 UNL     1      58.541 -36.252   6.214  1.00  0.00     0.012 A 
HETATM    7  C12 UNL     1      57.464 -36.266   7.281  1.00  0.00     0.003 A 
HETATM    8  C20 UNL     1      58.091 -35.205   8.007  1.00  0.00    -0.009 A 
HETATM    9  C21 UNL     1      57.331 -33.843   7.803  1.00  0.00     0.018 C 
HETATM   10  C22 UNL     1      61.610 -35.184   6.491  1.00  0.00    -0.043 C 
HETATM   11  C23 UNL     1      61.497 -36.183   5.347  1.00  0.00     0.015 C 
HETATM   12  C24 UNL     1      61.489 -33.818   5.906  1.00  0.00     0.015 C 
HETATM   13  C25 UNL     1      62.959 -35.430   7.126  1.00  0.00     0.012 C 
HETATM   14  C26 UNL     1      63.226 -34.321   8.080  1.00  0.00     0.041 C 
HETATM   15  C27 UNL     1      62.012 -33.849   8.824  1.00  0.00     0.086 A 
HETATM   16  C28 UNL     1      62.355 -33.289  10.207  1.00  0.00     0.207 A 
HETATM   17  O6  UNL     1      61.861 -32.525   9.180  1.00  0.00    -0.375 OA
ENDROOT
BRANCH   1  18
HETATM   18  O2  UNL     1      59.112 -36.179  10.062  1.00  0.00    -0.312 OA
BRANCH  18  19
HETATM   19  C5  UNL     1      58.347 -36.994  10.923  1.00  0.00     0.283 C 
HETATM   20  O1  UNL     1      58.873 -38.088  11.221  1.00  0.00    -0.260 OA
BRANCH  19  21
HETATM   21  C4  UNL     1      57.063 -36.578  11.410  1.00  0.00     0.078 C 
HETATM   22  C3  UNL     1      56.664 -36.333  12.610  1.00  0.00    -0.015 C 
BRANCH  22  23
HETATM   23  C2  UNL     1      57.421 -36.408  13.863  1.00  0.00     0.032 C 
HETATM   24  C1  UNL     1      57.486 -37.858  14.379  1.00  0.00     0.016 C 
BRANCH  23  25
HETATM   25  C29 UNL     1      56.711 -35.641  14.964  1.00  0.00     0.280 C 
BRANCH  25  26
HETATM   26  N1  UNL     1      57.576 -34.652  15.573  1.00  0.00     0.093 N 
HETATM   27  C30 UNL     1      58.371 -35.295  16.602  1.00  0.00     0.298 C 
HETATM   28  C31 UNL     1      57.620 -35.514  17.872  1.00  0.00     0.198 C 
HETATM   29  O7  UNL     1      56.983 -34.368  18.333  1.00  0.00    -0.388 OA
HETATM   30  C32 UNL     1      57.314 -33.251  17.543  1.00  0.00     0.198 C 
HETATM   31  C33 UNL     1      56.787 -33.571  16.139  1.00  0.00     0.298 C 
ENDBRANCH  25  26
ENDBRANCH  23  25
ENDBRANCH  22  23
ENDBRANCH  19  21
ENDBRANCH  18  19
ENDBRANCH   1  18
BRANCH   7  32
HETATM   32  C13 UNL     1      56.995 -37.587   7.730  1.00  0.00     0.018 C 
HETATM   33  C14 UNL     1      57.541 -38.795   7.087  1.00  0.00     0.013 C 
BRANCH  32  34
HETATM   34  C15 UNL     1      55.461 -37.661   7.535  1.00  0.00     0.154 C 
BRANCH  34  35
HETATM   35  O3  UNL     1      55.198 -36.861   6.392  1.00  0.00    -0.393 OA
ATOM     36  H3  UNL     1      54.253 -36.762   6.374  1.00  0.00     0.210 HD
ENDBRANCH  34  35
BRANCH  34  37
HETATM   37  C16 UNL     1      54.710 -37.027   8.651  1.00  0.00     0.180 C 
BRANCH  37  38
HETATM   38  O4  UNL     1      53.864 -36.044   8.108  1.00  0.00    -0.390 OA
ATOM     39  H4  UNL     1      53.053 -36.044   8.604  1.00  0.00     0.210 HD
ENDBRANCH  37  38
BRANCH  37  40
HETATM   40  C17 UNL     1      53.779 -38.054   9.271  1.00  0.00     0.079 C 
HETATM   41  C18 UNL     1      53.215 -38.992   8.234  1.00  0.00     0.048 C 
HETATM   42  C19 UNL     1      54.603 -38.920  10.232  1.00  0.00     0.048 C 
BRANCH  40  43
HETATM   43  O5  UNL     1      52.774 -37.485  10.013  1.00  0.00    -0.388 OA
ATOM     44  H5  UNL     1      53.065 -37.198  10.871  1.00  0.00     0.210 HD
ENDBRANCH  40  43
ENDBRANCH  37  40
ENDBRANCH  34  37
ENDBRANCH  32  34
ENDBRANCH   7  32
TORSDOF 13
ENDMDL
MODEL 4
REMARK VINA RESULT: -5.883094864      3.000      9.495
REMARK  13 active torsions:
REMARK  status: ('A' for Active; 'I' for Inactive)
REMARK    1  A    between atoms: C2_2  and  C3_3 
REMARK    2  A    between atoms: C2_2  and  C29_38 
REMARK    3  A    between atoms: C4_4  and  C5_5 
REMARK    4  A    between atoms: C5_5  and  O2_7 
REMARK    5  A    between atoms: O2_7  and  C6_8 
REMARK    6  A    between atoms: C12_14  and  C13_15 
REMARK    7  A    between atoms: C13_15  and  C15_17 
REMARK    8  A    between atoms: C15_17  and  O3_18 
REMARK    9  A    between atoms: C15_17  and  C16_20 
REMARK   10  A    between atoms: C16_20  and  O4_21 
REMARK   11  A    between atoms: C16_20  and  C17_23 
REMARK   12  A    between atoms: C17_23  and  O5_26 
REMARK   13  A    between atoms: C29_38  and  N1_39 
ROOT
HETATM    1  C6  UNL     1      39.696 -36.915  13.829  1.00  0.00     0.141 C 
HETATM    2  C7  UNL     1      40.473 -37.727  12.741  1.00  0.00     0.041 C 
HETATM    3  C8  UNL     1      39.348 -38.481  12.015  1.00  0.00     0.030 C 
HETATM    4  C9  UNL     1      38.283 -37.528  11.558  1.00  0.00     0.005 C 
HETATM    5  C10 UNL     1      38.610 -36.098  11.747  1.00  0.00     0.002 A 
HETATM    6  C11 UNL     1      37.432 -35.183  12.050  1.00  0.00     0.012 A 
HETATM    7  C12 UNL     1      38.046 -34.925  13.412  1.00  0.00     0.003 A 
HETATM    8  C20 UNL     1      39.174 -35.756  13.124  1.00  0.00    -0.009 A 
HETATM    9  C21 UNL     1      40.455 -34.897  12.812  1.00  0.00     0.018 C 
HETATM   10  C22 UNL     1      37.937 -37.736  10.086  1.00  0.00    -0.043 C 
HETATM   11  C23 UNL     1      36.603 -37.076   9.765  1.00  0.00     0.015 C 
HETATM   12  C24 UNL     1      38.950 -37.177   9.147  1.00  0.00     0.015 C 
HETATM   13  C25 UNL     1      37.722 -39.220   9.897  1.00  0.00     0.012 C 
HETATM   14  C26 UNL     1      39.051 -39.887   9.949  1.00  0.00     0.041 C 
HETATM   15  C27 UNL     1      39.996 -39.287  10.949  1.00  0.00     0.086 A 
HETATM   16  C28 UNL     1      40.990 -40.312  11.501  1.00  0.00     0.207 A 
HETATM   17  O6  UNL     1      41.355 -39.249  10.713  1.00  0.00    -0.375 OA
ENDROOT
BRANCH   1  18
HETATM   18  O2  UNL     1      38.936 -37.859  14.442  1.00  0.00    -0.312 OA
BRANCH  18  19
HETATM   19  C5  UNL     1      39.043 -38.093  15.829  1.00  0.00     0.283 C 
HETATM   20  O1  UNL     1      37.971 -37.996  16.465  1.00  0.00    -0.260 OA
BRANCH  19  21
HETATM   21  C4  UNL     1      40.297 -38.417  16.443  1.00  0.00     0.078 C 
HETATM   22  C3  UNL     1      40.873 -37.916  17.482  1.00  0.00    -0.015 C 
BRANCH  22  23
HETATM   23  C2  UNL     1      40.406 -36.843  18.364  1.00  0.00     0.032 C 
HETATM   24  C1  UNL     1      40.762 -35.461  17.783  1.00  0.00     0.016 C 
BRANCH  23  25
HETATM   25  C29 UNL     1      41.126 -36.895  19.698  1.00  0.00     0.280 C 
BRANCH  25  26
HETATM   26  N1  UNL     1      41.733 -35.622  20.030  1.00  0.00     0.093 N 
HETATM   27  C30 UNL     1      43.146 -35.828  20.283  1.00  0.00     0.298 C 
HETATM   28  C31 UNL     1      43.423 -36.387  21.639  1.00  0.00     0.198 C 
HETATM   29  O7  UNL     1      42.800 -35.677  22.659  1.00  0.00    -0.388 OA
HETATM   30  C32 UNL     1      42.161 -34.527  22.159  1.00  0.00     0.198 C 
HETATM   31  C33 UNL     1      41.086 -35.042  21.194  1.00  0.00     0.298 C 
ENDBRANCH  25  26
ENDBRANCH  23  25
ENDBRANCH  22  23
ENDBRANCH  19  21
ENDBRANCH  18  19
ENDBRANCH   1  18
BRANCH   7  32
HETATM   32  C13 UNL     1      37.127 -34.923  14.562  1.00  0.00     0.018 C 
HETATM   33  C14 UNL     1      35.873 -34.155  14.473  1.00  0.00     0.013 C 
BRANCH  32  34
HETATM   34  C15 UNL     1      37.878 -34.366  15.796  1.00  0.00     0.154 C 
BRANCH  34  35
HETATM   35  O3  UNL     1      37.314 -35.049  16.907  1.00  0.00    -0.393 OA
ATOM     36  H3  UNL     1      36.374 -34.970  16.791  1.00  0.00     0.210 HD
ENDBRANCH  34  35
BRANCH  34  37
HETATM   37  C16 UNL     1      37.604 -32.924  16.031  1.00  0.00     0.180 C 
BRANCH  37  38
HETATM   38  O4  UNL     1      37.018 -32.788  17.301  1.00  0.00    -0.390 OA
ATOM     39  H4  UNL     1      36.399 -32.068  17.267  1.00  0.00     0.210 HD
ENDBRANCH  37  38
BRANCH  37  40
HETATM   40  C17 UNL     1      38.923 -32.176  16.120  1.00  0.00     0.079 C 
HETATM   41  C18 UNL     1      38.823 -30.797  15.518  1.00  0.00     0.048 C 
HETATM   42  C19 UNL     1      39.255 -31.975  17.604  1.00  0.00     0.048 C 
BRANCH  40  43
HETATM   43  O5  UNL     1      39.971 -32.873  15.571  1.00  0.00    -0.388 OA
ATOM     44  H5  UNL     1      40.814 -32.471  15.745  1.00  0.00     0.210 HD
ENDBRANCH  40  43
ENDBRANCH  37  40
ENDBRANCH  34  37
ENDBRANCH  32  34
ENDBRANCH   7  32
TORSDOF 13
ENDMDL
MODEL 5
REMARK VINA RESULT: -5.760545617      3.071      6.464
REMARK  13 active torsions:
REMARK  status: ('A' for Active; 'I' for Inactive)
REMARK    1  A    between atoms: C2_2  and  C3_3 
REMARK    2  A    between atoms: C2_2  and  C29_38 
REMARK    3  A    between atoms: C4_4  and  C5_5 
REMARK    4  A    between atoms: C5_5  and  O2_7 
REMARK    5  A    between atoms: O2_7  and  C6_8 
REMARK    6  A    between atoms: C12_14  and  C13_15 
REMARK    7  A    between atoms: C13_15  and  C15_17 
REMARK    8  A    between atoms: C15_17  and  O3_18 
REMARK    9  A    between atoms: C15_17  and  C16_20 
REMARK   10  A    between atoms: C16_20  and  O4_21 
REMARK   11  A    between atoms: C16_20  and  C17_23 
REMARK   12  A    between atoms: C17_23  and  O5_26 
REMARK   13  A    between atoms: C29_38  and  N1_39 
ROOT
HETATM    1  C6  UNL     1      39.254 -36.589  16.855  1.00  0.00     0.141 C 
HETATM    2  C7  UNL     1      39.079 -37.325  18.223  1.00  0.00     0.041 C 
HETATM    3  C8  UNL     1      37.692 -37.971  18.084  1.00  0.00     0.030 C 
HETATM    4  C9  UNL     1      37.614 -38.788  16.828  1.00  0.00     0.005 C 
HETATM    5  C10 UNL     1      38.894 -38.932  16.102  1.00  0.00     0.002 A 
HETATM    6  C11 UNL     1      38.791 -39.025  14.587  1.00  0.00     0.012 A 
HETATM    7  C12 UNL     1      39.536 -37.707  14.503  1.00  0.00     0.003 A 
HETATM    8  C20 UNL     1      39.669 -37.627  15.925  1.00  0.00    -0.009 A 
HETATM    9  C21 UNL     1      41.131 -37.983  16.386  1.00  0.00     0.018 C 
HETATM   10  C22 UNL     1      37.075 -40.190  17.103  1.00  0.00    -0.043 C 
HETATM   11  C23 UNL     1      36.615 -40.836  15.803  1.00  0.00     0.015 C 
HETATM   12  C24 UNL     1      38.072 -41.104  17.728  1.00  0.00     0.015 C 
HETATM   13  C25 UNL     1      35.831 -40.019  17.944  1.00  0.00     0.012 C 
HETATM   14  C26 UNL     1      36.255 -39.629  19.316  1.00  0.00     0.041 C 
HETATM   15  C27 UNL     1      37.437 -38.705  19.351  1.00  0.00     0.086 A 
HETATM   16  C28 UNL     1      37.424 -37.787  20.575  1.00  0.00     0.207 A 
HETATM   17  O6  UNL     1      38.362 -38.767  20.371  1.00  0.00    -0.375 OA
ENDROOT
BRANCH   1  18
HETATM   18  O2  UNL     1      38.116 -35.857  16.744  1.00  0.00    -0.312 OA
BRANCH  18  19
HETATM   19  C5  UNL     1      38.142 -34.542  16.234  1.00  0.00     0.283 C 
HETATM   20  O1  UNL     1      37.052 -33.932  16.291  1.00  0.00    -0.260 OA
BRANCH  19  21
HETATM   21  C4  UNL     1      39.341 -33.966  15.697  1.00  0.00     0.078 C 
HETATM   22  C3  UNL     1      40.344 -33.418  16.292  1.00  0.00    -0.015 C 
BRANCH  22  23
HETATM   23  C2  UNL     1      40.563 -33.216  17.727  1.00  0.00     0.032 C 
HETATM   24  C1  UNL     1      40.680 -31.716  18.058  1.00  0.00     0.016 C 
BRANCH  23  25
HETATM   25  C29 UNL     1      41.894 -33.807  18.153  1.00  0.00     0.280 C 
BRANCH  25  26
HETATM   26  N1  UNL     1      41.968 -33.981  19.589  1.00  0.00     0.093 N 
HETATM   27  C30 UNL     1      43.149 -34.760  19.907  1.00  0.00     0.298 C 
HETATM   28  C31 UNL     1      42.967 -36.223  19.674  1.00  0.00     0.198 C 
HETATM   29  O7  UNL     1      41.820 -36.732  20.272  1.00  0.00    -0.388 OA
HETATM   30  C32 UNL     1      41.181 -35.754  21.057  1.00  0.00     0.198 C 
HETATM   31  C33 UNL     1      40.772 -34.646  20.079  1.00  0.00     0.298 C 
ENDBRANCH  25  26
ENDBRANCH  23  25
ENDBRANCH  22  23
ENDBRANCH  19  21
ENDBRANCH  18  19
ENDBRANCH   1  18
BRANCH   7  32
HETATM   32  C13 UNL     1      39.032 -36.723  13.532  1.00  0.00     0.018 C 
HETATM   33  C14 UNL     1      37.750 -36.980  12.855  1.00  0.00     0.013 C 
BRANCH  32  34
HETATM   34  C15 UNL     1      40.080 -36.557  12.404  1.00  0.00     0.154 C 
BRANCH  34  35
HETATM   35  O3  UNL     1      41.055 -35.672  12.937  1.00  0.00    -0.393 OA
ATOM     36  H3  UNL     1      40.600 -34.845  13.047  1.00  0.00     0.210 HD
ENDBRANCH  34  35
BRANCH  34  37
HETATM   37  C16 UNL     1      39.529 -35.873  11.205  1.00  0.00     0.180 C 
BRANCH  37  38
HETATM   38  O4  UNL     1      40.200 -34.648  11.050  1.00  0.00    -0.390 OA
ATOM     39  H4  UNL     1      39.582 -34.012  10.709  1.00  0.00     0.210 HD
ENDBRANCH  37  38
BRANCH  37  40
HETATM   40  C17 UNL     1      39.881 -36.679   9.967  1.00  0.00     0.079 C 
HETATM   41  C18 UNL     1      40.453 -38.028  10.325  1.00  0.00     0.048 C 
HETATM   42  C19 UNL     1      38.585 -36.952   9.194  1.00  0.00     0.048 C 
BRANCH  40  43
HETATM   43  O5  UNL     1      40.717 -36.005   9.111  1.00  0.00    -0.388 OA
ATOM     44  H5  UNL     1      40.250 -35.532   8.434  1.00  0.00     0.210 HD
ENDBRANCH  40  43
ENDBRANCH  37  40
ENDBRANCH  34  37
ENDBRANCH  32  34
ENDBRANCH   7  32
TORSDOF 13
ENDMDL
