MODEL 1
REMARK VINA RESULT: -6.227019992      0.000      0.000
REMARK  13 active torsions:
REMARK  status: ('A' for Active; 'I' for Inactive)
REMARK    1  A    between atoms: C4_4  and  C5_5 
REMARK    2  A    between atoms: C5_5  and  C8_8 
REMARK    3  A    between atoms: C8_8  and  O1_10 
REMARK    4  A    between atoms: C11_13  and  O2_14 
REMARK    5  A    between atoms: C12_16  and  C13_17 
REMARK    6  A    between atoms: C14_18  and  C15_19 
REMARK    7  A    between atoms: C20_24  and  O3_25 
REMARK    8  A    between atoms: O3_25  and  C21_26 
REMARK    9  A    between atoms: C24_30  and  O5_31 
REMARK   10  A    between atoms: C26_33  and  O6_34 
REMARK   11  A    between atoms: C28_36  and  O7_37 
REMARK   12  A    between atoms: O7_37  and  C29_38 
REMARK   13  A    between atoms: C31_41  and  O9_42 
ROOT
HETATM    1  C15 UNL     1      38.208 -33.904  15.361  1.00  0.00     0.039 C 
HETATM    2  C16 UNL     1      37.126 -33.778  16.414  1.00  0.00     0.011 C 
HETATM    3  C17 UNL     1      37.209 -32.356  16.930  1.00  0.00     0.007 C 
HETATM    4  C18 UNL     1      38.606 -31.832  17.011  1.00  0.00     0.013 C 
HETATM    5  C19 UNL     1      38.878 -30.771  15.942  1.00  0.00     0.012 C 
HETATM    6  C20 UNL     1      39.674 -32.868  17.054  1.00  0.00     0.158 C 
HETATM    7  C31 UNL     1      39.520 -33.997  16.100  1.00  0.00     0.155 C 
ENDROOT
BRANCH   1   8
HETATM    8  C14 UNL     1      37.989 -35.109  14.490  1.00  0.00    -0.023 C 
HETATM    9  C13 UNL     1      38.159 -35.065  13.204  1.00  0.00    -0.019 C 
BRANCH   9  10
HETATM   10  C12 UNL     1      38.034 -36.007  12.128  1.00  0.00     0.065 C 
HETATM   11  C2  UNL     1      36.798 -36.169  11.375  1.00  0.00    -0.079 C 
HETATM   12  C1  UNL     1      35.875 -35.310  11.146  1.00  0.00     0.015 C 
HETATM   13  C3  UNL     1      36.653 -37.557  10.748  1.00  0.00     0.039 C 
HETATM   14  C4  UNL     1      38.019 -37.781  10.121  1.00  0.00     0.002 C 
HETATM   15  C10 UNL     1      38.650 -36.457   9.766  1.00  0.00     0.038 C 
HETATM   16  C11 UNL     1      39.072 -35.672  11.008  1.00  0.00     0.130 C 
BRANCH  14  17
HETATM   17  C5  UNL     1      37.988 -38.755   8.995  1.00  0.00    -0.018 C 
HETATM   18  C6  UNL     1      38.608 -40.084   9.371  1.00  0.00     0.018 C 
HETATM   19  C7  UNL     1      36.531 -39.080   8.633  1.00  0.00     0.018 C 
BRANCH  17  20
HETATM   20  C8  UNL     1      38.644 -38.291   7.731  1.00  0.00     0.122 C 
HETATM   21  C9  UNL     1      37.679 -38.479   6.551  1.00  0.00     0.040 C 
BRANCH  20  22
HETATM   22  O1  UNL     1      39.767 -39.058   7.384  1.00  0.00    -0.395 OA
ATOM     23  H1  UNL     1      40.290 -38.660   6.698  1.00  0.00     0.210 HD
ENDBRANCH  20  22
ENDBRANCH  17  20
ENDBRANCH  14  17
BRANCH  16  24
HETATM   24  O2  UNL     1      40.352 -35.937  11.415  1.00  0.00    -0.395 OA
ATOM     25  H2  UNL     1      40.443 -36.765  11.871  1.00  0.00     0.210 HD
ENDBRANCH  16  24
ENDBRANCH   9  10
ENDBRANCH   1   8
BRANCH   7  26
HETATM   26  O9  UNL     1      40.598 -34.141  15.233  1.00  0.00    -0.392 OA
ATOM     27  H9  UNL     1      41.395 -34.377  15.692  1.00  0.00     0.210 HD
ENDBRANCH   7  26
BRANCH   6  28
HETATM   28  O3  UNL     1      39.827 -33.287  18.371  1.00  0.00    -0.350 OA
BRANCH  28  29
HETATM   29  C21 UNL     1      41.117 -33.232  18.836  1.00  0.00     0.293 C 
HETATM   30  O4  UNL     1      41.386 -32.220  19.701  1.00  0.00    -0.351 OA
HETATM   31  C22 UNL     1      41.088 -32.359  21.000  1.00  0.00     0.152 C 
HETATM   32  C23 UNL     1      42.125 -31.574  21.815  1.00  0.00     0.042 C 
HETATM   33  C24 UNL     1      40.963 -33.720  21.569  1.00  0.00     0.181 C 
HETATM   34  C26 UNL     1      40.549 -34.779  20.564  1.00  0.00     0.186 C 
HETATM   35  C28 UNL     1      41.470 -34.604  19.371  1.00  0.00     0.218 C 
BRANCH  33  36
HETATM   36  O5  UNL     1      42.129 -34.195  22.169  1.00  0.00    -0.385 OA
HETATM   37  C25 UNL     1      41.961 -34.431  23.529  1.00  0.00     0.202 C 
ENDBRANCH  33  36
BRANCH  34  38
HETATM   38  O6  UNL     1      40.717 -36.009  21.188  1.00  0.00    -0.385 OA
HETATM   39  C27 UNL     1      40.154 -37.058  20.485  1.00  0.00     0.202 C 
ENDBRANCH  34  38
BRANCH  35  40
HETATM   40  O7  UNL     1      42.791 -34.678  19.844  1.00  0.00    -0.309 OA
BRANCH  40  41
HETATM   41  C29 UNL     1      43.553 -35.805  19.573  1.00  0.00     0.255 C 
HETATM   42  C30 UNL     1      44.733 -36.116  20.436  1.00  0.00     0.126 C 
HETATM   43  O8  UNL     1      43.218 -36.521  18.607  1.00  0.00    -0.266 OA
ENDBRANCH  40  41
ENDBRANCH  35  40
ENDBRANCH  28  29
ENDBRANCH   6  28
TORSDOF 13
ENDMDL
MODEL 2
REMARK VINA RESULT: -6.210563819      1.778      3.317
REMARK  13 active torsions:
REMARK  status: ('A' for Active; 'I' for Inactive)
REMARK    1  A    between atoms: C4_4  and  C5_5 
REMARK    2  A    between atoms: C5_5  and  C8_8 
REMARK    3  A    between atoms: C8_8  and  O1_10 
REMARK    4  A    between atoms: C11_13  and  O2_14 
REMARK    5  A    between atoms: C12_16  and  C13_17 
REMARK    6  A    between atoms: C14_18  and  C15_19 
REMARK    7  A    between atoms: C20_24  and  O3_25 
REMARK    8  A    between atoms: O3_25  and  C21_26 
REMARK    9  A    between atoms: C24_30  and  O5_31 
REMARK   10  A    between atoms: C26_33  and  O6_34 
REMARK   11  A    between atoms: C28_36  and  O7_37 
REMARK   12  A    between atoms: O7_37  and  C29_38 
REMARK   13  A    between atoms: C31_41  and  O9_42 
ROOT
HETATM    1  C15 UNL     1      40.644 -33.731  16.940  1.00  0.00     0.039 C 
HETATM    2  C16 UNL     1      39.350 -33.079  17.383  1.00  0.00     0.011 C 
HETATM    3  C17 UNL     1      39.742 -32.003  18.374  1.00  0.00     0.007 C 
HETATM    4  C18 UNL     1      40.898 -32.382  19.241  1.00  0.00     0.013 C 
HETATM    5  C19 UNL     1      42.162 -31.599  18.878  1.00  0.00     0.012 C 
HETATM    6  C20 UNL     1      41.159 -33.844  19.351  1.00  0.00     0.158 C 
HETATM    7  C31 UNL     1      41.095 -34.611  18.080  1.00  0.00     0.155 C 
ENDROOT
BRANCH   1   8
HETATM    8  C14 UNL     1      40.455 -34.528  15.681  1.00  0.00    -0.023 C 
HETATM    9  C13 UNL     1      39.275 -34.780  15.200  1.00  0.00    -0.019 C 
BRANCH   9  10
HETATM   10  C12 UNL     1      38.772 -35.489  14.059  1.00  0.00     0.065 C 
HETATM   11  C2  UNL     1      37.382 -35.396  13.635  1.00  0.00    -0.079 C 
HETATM   12  C1  UNL     1      36.555 -34.429  13.791  1.00  0.00     0.015 C 
HETATM   13  C3  UNL     1      36.906 -36.624  12.856  1.00  0.00     0.039 C 
HETATM   14  C4  UNL     1      38.040 -36.850  11.871  1.00  0.00     0.002 C 
HETATM   15  C10 UNL     1      38.740 -35.546  11.578  1.00  0.00     0.038 C 
HETATM   16  C11 UNL     1      39.548 -35.048  12.776  1.00  0.00     0.130 C 
BRANCH  14  17
HETATM   17  C5  UNL     1      37.610 -37.590  10.652  1.00  0.00    -0.018 C 
HETATM   18  C6  UNL     1      38.582 -38.690  10.278  1.00  0.00     0.018 C 
HETATM   19  C7  UNL     1      36.280 -38.307  10.925  1.00  0.00     0.018 C 
BRANCH  17  20
HETATM   20  C8  UNL     1      37.394 -36.745   9.434  1.00  0.00     0.122 C 
HETATM   21  C9  UNL     1      36.090 -37.166   8.741  1.00  0.00     0.040 C 
BRANCH  20  22
HETATM   22  O1  UNL     1      38.382 -36.934   8.455  1.00  0.00    -0.395 OA
ATOM     23  H1  UNL     1      38.133 -36.589   7.606  1.00  0.00     0.210 HD
ENDBRANCH  20  22
ENDBRANCH  17  20
ENDBRANCH  14  17
BRANCH  16  24
HETATM   24  O2  UNL     1      40.841 -35.498  12.791  1.00  0.00    -0.395 OA
ATOM     25  H2  UNL     1      41.474 -34.828  13.020  1.00  0.00     0.210 HD
ENDBRANCH  16  24
ENDBRANCH   9  10
ENDBRANCH   1   8
BRANCH   7  26
HETATM   26  O9  UNL     1      42.274 -35.287  17.782  1.00  0.00    -0.392 OA
ATOM     27  H9  UNL     1      42.196 -36.222  17.930  1.00  0.00     0.210 HD
ENDBRANCH   7  26
BRANCH   6  28
HETATM   28  O3  UNL     1      40.334 -34.364  20.341  1.00  0.00    -0.350 OA
BRANCH  28  29
HETATM   29  C21 UNL     1      40.649 -33.955  21.613  1.00  0.00     0.293 C 
HETATM   30  O4  UNL     1      39.952 -34.556  22.612  1.00  0.00    -0.351 OA
HETATM   31  C22 UNL     1      40.341 -35.755  23.067  1.00  0.00     0.152 C 
HETATM   32  C23 UNL     1      39.998 -35.833  24.562  1.00  0.00     0.042 C 
HETATM   33  C24 UNL     1      41.747 -36.176  22.876  1.00  0.00     0.181 C 
HETATM   34  C26 UNL     1      42.427 -35.550  21.673  1.00  0.00     0.186 C 
HETATM   35  C28 UNL     1      42.152 -34.061  21.769  1.00  0.00     0.218 C 
BRANCH  33  36
HETATM   36  O5  UNL     1      42.574 -35.909  23.967  1.00  0.00    -0.385 OA
HETATM   37  C25 UNL     1      43.086 -37.071  24.534  1.00  0.00     0.202 C 
ENDBRANCH  33  36
BRANCH  34  38
HETATM   38  O6  UNL     1      43.780 -35.847  21.779  1.00  0.00    -0.385 OA
HETATM   39  C27 UNL     1      44.366 -36.155  20.565  1.00  0.00     0.202 C 
ENDBRANCH  34  38
BRANCH  35  40
HETATM   40  O7  UNL     1      42.598 -33.630  23.029  1.00  0.00    -0.309 OA
BRANCH  40  41
HETATM   41  C29 UNL     1      42.155 -32.416  23.535  1.00  0.00     0.255 C 
HETATM   42  C30 UNL     1      42.373 -31.170  22.739  1.00  0.00     0.126 C 
HETATM   43  O8  UNL     1      41.587 -32.416  24.646  1.00  0.00    -0.266 OA
ENDBRANCH  40  41
ENDBRANCH  35  40
ENDBRANCH  28  29
ENDBRANCH   6  28
TORSDOF 13
ENDMDL
MODEL 3
REMARK VINA RESULT: -6.041918187      2.653     10.826
REMARK  13 active torsions:
REMARK  status: ('A' for Active; 'I' for Inactive)
REMARK    1  A    between atoms: C4_4  and  C5_5 
REMARK    2  A    between atoms: C5_5  and  C8_8 
REMARK    3  A    between atoms: C8_8  and  O1_10 
REMARK    4  A    between atoms: C11_13  and  O2_14 
REMARK    5  A    between atoms: C12_16  and  C13_17 
REMARK    6  A    between atoms: C14_18  and  C15_19 
REMARK    7  A    between atoms: C20_24  and  O3_25 
REMARK    8  A    between atoms: O3_25  and  C21_26 
REMARK    9  A    between atoms: C24_30  and  O5_31 
REMARK   10  A    between atoms: C26_33  and  O6_34 
REMARK   11  A    between atoms: C28_36  and  O7_37 
REMARK   12  A    between atoms: O7_37  and  C29_38 
REMARK   13  A    between atoms: C31_41  and  O9_42 
ROOT
HETATM    1  C15 UNL     1      40.563 -38.023  18.343  1.00  0.00     0.039 C 
HETATM    2  C16 UNL     1      39.051 -38.120  18.374  1.00  0.00     0.011 C 
HETATM    3  C17 UNL     1      38.716 -39.544  17.982  1.00  0.00     0.007 C 
HETATM    4  C18 UNL     1      39.630 -40.108  16.944  1.00  0.00     0.013 C 
HETATM    5  C19 UNL     1      40.561 -41.175  17.526  1.00  0.00     0.012 C 
HETATM    6  C20 UNL     1      40.371 -39.104  16.133  1.00  0.00     0.158 C 
HETATM    7  C31 UNL     1      40.962 -37.969  16.889  1.00  0.00     0.155 C 
ENDROOT
BRANCH   1   8
HETATM    8  C14 UNL     1      41.051 -36.811  19.085  1.00  0.00    -0.023 C 
HETATM    9  C13 UNL     1      40.576 -36.482  20.248  1.00  0.00    -0.019 C 
BRANCH   9  10
HETATM   10  C12 UNL     1      40.819 -35.421  21.184  1.00  0.00     0.065 C 
HETATM   11  C2  UNL     1      41.675 -35.592  22.349  1.00  0.00    -0.079 C 
HETATM   12  C1  UNL     1      42.672 -36.382  22.508  1.00  0.00     0.015 C 
HETATM   13  C3  UNL     1      41.330 -34.638  23.495  1.00  0.00     0.039 C 
HETATM   14  C4  UNL     1      41.188 -33.304  22.782  1.00  0.00     0.002 C 
HETATM   15  C10 UNL     1      42.038 -33.288  21.535  1.00  0.00     0.038 C 
HETATM   16  C11 UNL     1      41.480 -34.210  20.450  1.00  0.00     0.130 C 
BRANCH  14  17
HETATM   17  C5  UNL     1      41.416 -32.139  23.682  1.00  0.00    -0.018 C 
HETATM   18  C6  UNL     1      40.268 -31.928  24.646  1.00  0.00     0.018 C 
HETATM   19  C7  UNL     1      42.641 -32.404  24.569  1.00  0.00     0.018 C 
BRANCH  17  20
HETATM   20  C8  UNL     1      41.669 -30.836  22.988  1.00  0.00     0.122 C 
HETATM   21  C9  UNL     1      43.024 -30.268  23.438  1.00  0.00     0.040 C 
BRANCH  20  22
HETATM   22  O1  UNL     1      40.744 -29.841  23.338  1.00  0.00    -0.395 OA
ATOM     23  H1  UNL     1      39.917 -29.925  22.879  1.00  0.00     0.210 HD
ENDBRANCH  20  22
ENDBRANCH  17  20
ENDBRANCH  14  17
BRANCH  16  24
HETATM   24  O2  UNL     1      40.598 -33.591  19.606  1.00  0.00    -0.395 OA
ATOM     25  H2  UNL     1      40.547 -32.651  19.732  1.00  0.00     0.210 HD
ENDBRANCH  16  24
ENDBRANCH   9  10
ENDBRANCH   1   8
BRANCH   7  26
HETATM   26  O9  UNL     1      42.340 -37.856  16.731  1.00  0.00    -0.392 OA
ATOM     27  H9  UNL     1      42.679 -37.059  17.121  1.00  0.00     0.210 HD
ENDBRANCH   7  26
BRANCH   6  28
HETATM   28  O3  UNL     1      39.551 -38.692  15.089  1.00  0.00    -0.350 OA
BRANCH  28  29
HETATM   29  C21 UNL     1      39.826 -37.433  14.616  1.00  0.00     0.293 C 
HETATM   30  O4  UNL     1      40.271 -37.373  13.334  1.00  0.00    -0.351 OA
HETATM   31  C22 UNL     1      39.392 -37.392  12.323  1.00  0.00     0.152 C 
HETATM   32  C23 UNL     1      39.966 -36.550  11.174  1.00  0.00     0.042 C 
HETATM   33  C24 UNL     1      37.996 -36.970  12.574  1.00  0.00     0.181 C 
HETATM   34  C26 UNL     1      37.531 -37.174  14.004  1.00  0.00     0.186 C 
HETATM   35  C28 UNL     1      38.611 -36.569  14.882  1.00  0.00     0.218 C 
BRANCH  33  36
HETATM   36  O5  UNL     1      37.743 -35.632  12.275  1.00  0.00    -0.385 OA
HETATM   37  C25 UNL     1      36.721 -35.486  11.344  1.00  0.00     0.202 C 
ENDBRANCH  33  36
BRANCH  34  38
HETATM   38  O6  UNL     1      36.316 -36.513  14.128  1.00  0.00    -0.385 OA
HETATM   39  C27 UNL     1      35.830 -36.502  15.422  1.00  0.00     0.202 C 
ENDBRANCH  34  38
BRANCH  35  40
HETATM   40  O7  UNL     1      38.792 -35.238  14.471  1.00  0.00    -0.309 OA
BRANCH  40  41
HETATM   41  C29 UNL     1      39.099 -34.266  15.412  1.00  0.00     0.255 C 
HETATM   42  C30 UNL     1      38.021 -33.749  16.308  1.00  0.00     0.126 C 
HETATM   43  O8  UNL     1      40.277 -33.859  15.471  1.00  0.00    -0.266 OA
ENDBRANCH  40  41
ENDBRANCH  35  40
ENDBRANCH  28  29
ENDBRANCH   6  28
TORSDOF 13
ENDMDL
MODEL 4
REMARK VINA RESULT: -6.000756289      2.920     11.343
REMARK  13 active torsions:
REMARK  status: ('A' for Active; 'I' for Inactive)
REMARK    1  A    between atoms: C4_4  and  C5_5 
REMARK    2  A    between atoms: C5_5  and  C8_8 
REMARK    3  A    between atoms: C8_8  and  O1_10 
REMARK    4  A    between atoms: C11_13  and  O2_14 
REMARK    5  A    between atoms: C12_16  and  C13_17 
REMARK    6  A    between atoms: C14_18  and  C15_19 
REMARK    7  A    between atoms: C20_24  and  O3_25 
REMARK    8  A    between atoms: O3_25  and  C21_26 
REMARK    9  A    between atoms: C24_30  and  O5_31 
REMARK   10  A    between atoms: C26_33  and  O6_34 
REMARK   11  A    between atoms: C28_36  and  O7_37 
REMARK   12  A    between atoms: O7_37  and  C29_38 
REMARK   13  A    between atoms: C31_41  and  O9_42 
ROOT
HETATM    1  C15 UNL     1      40.454 -38.014  18.398  1.00  0.00     0.039 C 
HETATM    2  C16 UNL     1      38.939 -38.035  18.386  1.00  0.00     0.011 C 
HETATM    3  C17 UNL     1      38.543 -39.449  18.018  1.00  0.00     0.007 C 
HETATM    4  C18 UNL     1      39.457 -40.084  17.021  1.00  0.00     0.013 C 
HETATM    5  C19 UNL     1      40.316 -41.181  17.654  1.00  0.00     0.012 C 
HETATM    6  C20 UNL     1      40.271 -39.138  16.209  1.00  0.00     0.158 C 
HETATM    7  C31 UNL     1      40.897 -38.016  16.956  1.00  0.00     0.155 C 
ENDROOT
BRANCH   1   8
HETATM    8  C14 UNL     1      40.981 -36.811  19.127  1.00  0.00    -0.023 C 
HETATM    9  C13 UNL     1      40.504 -36.441  20.276  1.00  0.00    -0.019 C 
BRANCH   9  10
HETATM   10  C12 UNL     1      40.777 -35.375  21.197  1.00  0.00     0.065 C 
HETATM   11  C2  UNL     1      41.722 -35.518  22.296  1.00  0.00    -0.079 C 
HETATM   12  C1  UNL     1      42.755 -36.273  22.377  1.00  0.00     0.015 C 
HETATM   13  C3  UNL     1      41.429 -34.580  23.468  1.00  0.00     0.039 C 
HETATM   14  C4  UNL     1      41.188 -33.250  22.775  1.00  0.00     0.002 C 
HETATM   15  C10 UNL     1      41.943 -33.201  21.469  1.00  0.00     0.038 C 
HETATM   16  C11 UNL     1      41.340 -34.139  20.423  1.00  0.00     0.130 C 
BRANCH  14  17
HETATM   17  C5  UNL     1      41.440 -32.080  23.661  1.00  0.00    -0.018 C 
HETATM   18  C6  UNL     1      40.309 -31.850  24.641  1.00  0.00     0.018 C 
HETATM   19  C7  UNL     1      42.676 -32.348  24.532  1.00  0.00     0.018 C 
BRANCH  17  20
HETATM   20  C8  UNL     1      41.694 -30.785  22.952  1.00  0.00     0.122 C 
HETATM   21  C9  UNL     1      43.071 -30.237  23.359  1.00  0.00     0.040 C 
BRANCH  20  22
HETATM   22  O1  UNL     1      40.796 -29.772  23.324  1.00  0.00    -0.395 OA
ATOM     23  H1  UNL     1      40.855 -29.545  24.245  1.00  0.00     0.210 HD
ENDBRANCH  20  22
ENDBRANCH  17  20
ENDBRANCH  14  17
BRANCH  16  24
HETATM   24  O2  UNL     1      40.377 -33.550  19.649  1.00  0.00    -0.395 OA
ATOM     25  H2  UNL     1      39.525 -33.964  19.721  1.00  0.00     0.210 HD
ENDBRANCH  16  24
ENDBRANCH   9  10
ENDBRANCH   1   8
BRANCH   7  26
HETATM   26  O9  UNL     1      42.282 -37.975  16.836  1.00  0.00    -0.392 OA
ATOM     27  H9  UNL     1      42.716 -38.120  17.668  1.00  0.00     0.210 HD
ENDBRANCH   7  26
BRANCH   6  28
HETATM   28  O3  UNL     1      39.503 -38.712  15.132  1.00  0.00    -0.350 OA
BRANCH  28  29
HETATM   29  C21 UNL     1      40.208 -38.038  14.165  1.00  0.00     0.293 C 
HETATM   30  O4  UNL     1      41.369 -38.623  13.772  1.00  0.00    -0.351 OA
HETATM   31  C22 UNL     1      41.344 -39.599  12.854  1.00  0.00     0.152 C 
HETATM   32  C23 UNL     1      42.640 -39.517  12.034  1.00  0.00     0.042 C 
HETATM   33  C24 UNL     1      40.195 -39.686  11.925  1.00  0.00     0.181 C 
HETATM   34  C26 UNL     1      38.902 -39.114  12.478  1.00  0.00     0.186 C 
HETATM   35  C28 UNL     1      39.255 -37.743  13.025  1.00  0.00     0.218 C 
BRANCH  33  36
HETATM   36  O5  UNL     1      40.403 -39.051  10.702  1.00  0.00    -0.385 OA
HETATM   37  C25 UNL     1      40.470 -39.954   9.646  1.00  0.00     0.202 C 
ENDBRANCH  33  36
BRANCH  34  38
HETATM   38  O6  UNL     1      38.008 -39.048  11.418  1.00  0.00    -0.385 OA
HETATM   39  C27 UNL     1      36.704 -38.823  11.817  1.00  0.00     0.202 C 
ENDBRANCH  34  38
BRANCH  35  40
HETATM   40  O7  UNL     1      39.861 -37.018  11.986  1.00  0.00    -0.309 OA
BRANCH  40  41
HETATM   41  C29 UNL     1      39.445 -35.721  11.722  1.00  0.00     0.255 C 
HETATM   42  C30 UNL     1      37.993 -35.383  11.832  1.00  0.00     0.126 C 
HETATM   43  O8  UNL     1      40.310 -34.882  11.400  1.00  0.00    -0.266 OA
ENDBRANCH  40  41
ENDBRANCH  35  40
ENDBRANCH  28  29
ENDBRANCH   6  28
TORSDOF 13
ENDMDL
MODEL 5
REMARK VINA RESULT: -5.968892364     13.887     16.274
REMARK  13 active torsions:
REMARK  status: ('A' for Active; 'I' for Inactive)
REMARK    1  A    between atoms: C4_4  and  C5_5 
REMARK    2  A    between atoms: C5_5  and  C8_8 
REMARK    3  A    between atoms: C8_8  and  O1_10 
REMARK    4  A    between atoms: C11_13  and  O2_14 
REMARK    5  A    between atoms: C12_16  and  C13_17 
REMARK    6  A    between atoms: C14_18  and  C15_19 
REMARK    7  A    between atoms: C20_24  and  O3_25 
REMARK    8  A    between atoms: O3_25  and  C21_26 
REMARK    9  A    between atoms: C24_30  and  O5_31 
REMARK   10  A    between atoms: C26_33  and  O6_34 
REMARK   11  A    between atoms: C28_36  and  O7_37 
REMARK   12  A    between atoms: O7_37  and  C29_38 
REMARK   13  A    between atoms: C31_41  and  O9_42 
ROOT
HETATM    1  C15 UNL     1      55.446 -37.145   7.460  1.00  0.00     0.039 C 
HETATM    2  C16 UNL     1      55.316 -35.826   8.195  1.00  0.00     0.011 C 
HETATM    3  C17 UNL     1      56.682 -35.176   8.131  1.00  0.00     0.007 C 
HETATM    4  C18 UNL     1      57.811 -36.149   8.227  1.00  0.00     0.013 C 
HETATM    5  C19 UNL     1      58.541 -36.308   6.891  1.00  0.00     0.012 C 
HETATM    6  C20 UNL     1      57.469 -37.464   8.836  1.00  0.00     0.158 C 
HETATM    7  C31 UNL     1      56.195 -38.078   8.378  1.00  0.00     0.155 C 
ENDROOT
BRANCH   1   8
HETATM    8  C14 UNL     1      54.100 -37.706   7.096  1.00  0.00    -0.023 C 
HETATM    9  C13 UNL     1      53.020 -37.363   7.730  1.00  0.00    -0.019 C 
BRANCH   9  10
HETATM   10  C12 UNL     1      51.630 -37.707   7.633  1.00  0.00     0.065 C 
HETATM   11  C2  UNL     1      50.800 -37.932   8.809  1.00  0.00    -0.079 C 
HETATM   12  C1  UNL     1      50.918 -37.437   9.985  1.00  0.00     0.015 C 
HETATM   13  C3  UNL     1      49.608 -38.851   8.537  1.00  0.00     0.039 C 
HETATM   14  C4  UNL     1      49.045 -38.288   7.242  1.00  0.00     0.002 C 
HETATM   15  C10 UNL     1      49.368 -36.818   7.133  1.00  0.00     0.038 C 
HETATM   16  C11 UNL     1      50.856 -36.576   6.882  1.00  0.00     0.130 C 
BRANCH  14  17
HETATM   17  C5  UNL     1      47.602 -38.604   7.052  1.00  0.00    -0.018 C 
HETATM   18  C6  UNL     1      46.780 -37.367   6.756  1.00  0.00     0.018 C 
HETATM   19  C7  UNL     1      47.428 -39.504   5.820  1.00  0.00     0.018 C 
BRANCH  17  20
HETATM   20  C8  UNL     1      46.948 -39.318   8.195  1.00  0.00     0.122 C 
HETATM   21  C9  UNL     1      46.217 -40.564   7.671  1.00  0.00     0.040 C 
BRANCH  20  22
HETATM   22  O1  UNL     1      45.941 -38.559   8.810  1.00  0.00    -0.395 OA
ATOM     23  H1  UNL     1      45.389 -38.101   8.187  1.00  0.00     0.210 HD
ENDBRANCH  20  22
ENDBRANCH  17  20
ENDBRANCH  14  17
BRANCH  16  24
HETATM   24  O2  UNL     1      51.189 -36.535   5.555  1.00  0.00    -0.395 OA
ATOM     25  H2  UNL     1      51.386 -37.388   5.186  1.00  0.00     0.210 HD
ENDBRANCH  16  24
ENDBRANCH   9  10
ENDBRANCH   1   8
BRANCH   7  26
HETATM   26  O9  UNL     1      56.359 -39.341   7.817  1.00  0.00    -0.392 OA
ATOM     27  H9  UNL     1      56.885 -39.909   8.368  1.00  0.00     0.210 HD
ENDBRANCH   7  26
BRANCH   6  28
HETATM   28  O3  UNL     1      57.547 -37.342  10.218  1.00  0.00    -0.350 OA
BRANCH  28  29
HETATM   29  C21 UNL     1      56.917 -38.344  10.912  1.00  0.00     0.293 C 
HETATM   30  O4  UNL     1      57.735 -39.220  11.550  1.00  0.00    -0.351 OA
HETATM   31  C22 UNL     1      58.231 -38.910  12.755  1.00  0.00     0.152 C 
HETATM   32  C23 UNL     1      58.388 -40.210  13.557  1.00  0.00     0.042 C 
HETATM   33  C24 UNL     1      57.524 -37.915  13.592  1.00  0.00     0.181 C 
HETATM   34  C26 UNL     1      56.720 -36.898  12.803  1.00  0.00     0.186 C 
HETATM   35  C28 UNL     1      55.889 -37.698  11.818  1.00  0.00     0.218 C 
BRANCH  33  36
HETATM   36  O5  UNL     1      56.638 -38.473  14.513  1.00  0.00    -0.385 OA
HETATM   37  C25 UNL     1      57.099 -38.357  15.820  1.00  0.00     0.202 C 
ENDBRANCH  33  36
BRANCH  34  38
HETATM   38  O6  UNL     1      55.937 -36.209  13.720  1.00  0.00    -0.385 OA
HETATM   39  C27 UNL     1      56.499 -35.013  14.127  1.00  0.00     0.202 C 
ENDBRANCH  34  38
BRANCH  35  40
HETATM   40  O7  UNL     1      55.149 -38.637  12.556  1.00  0.00    -0.309 OA
BRANCH  40  41
HETATM   41  C29 UNL     1      54.395 -39.592  11.889  1.00  0.00     0.255 C 
HETATM   42  C30 UNL     1      54.699 -41.040  12.096  1.00  0.00     0.126 C 
HETATM   43  O8  UNL     1      53.482 -39.196  11.135  1.00  0.00    -0.266 OA
ENDBRANCH  40  41
ENDBRANCH  35  40
ENDBRANCH  28  29
ENDBRANCH   6  28
TORSDOF 13
ENDMDL
