MODEL 1
REMARK VINA RESULT: -6.958253686      0.000      0.000
REMARK  12 active torsions:
REMARK  status: ('A' for Active; 'I' for Inactive)
REMARK    1  A    between atoms: O1_2  and  C2_3 
REMARK    2  A    between atoms: C3_4  and  O2_5 
REMARK    3  A    between atoms: C6_10  and  O4_11 
REMARK    4  A    between atoms: O4_11  and  C7_12 
REMARK    5  A    between atoms: C21_27  and  C23_29 
REMARK    6  A    between atoms: C24_30  and  C25_31 
REMARK    7  A    between atoms: C26_32  and  C27_33 
REMARK    8  A    between atoms: C27_33  and  C28_34 
REMARK    9  A    between atoms: C28_34  and  O7_36 
REMARK   10  A    between atoms: O7_36  and  C29_37 
REMARK   11  A    between atoms: C29_37  and  C30_38 
REMARK   12  A    between atoms: C31_41  and  O10_42 
ROOT
HETATM    1  C7  UNL     1      54.079 -40.101  10.124  1.00  0.00     0.053 C 
HETATM    2  C8  UNL     1      53.372 -41.108  10.627  1.00  0.00     0.038 C 
HETATM    3  C9  UNL     1      53.786 -42.092  11.591  1.00  0.00    -0.063 C 
HETATM    4  C10 UNL     1      53.928 -43.536  11.160  1.00  0.00     0.048 C 
HETATM    5  C11 UNL     1      54.016 -41.858  12.895  1.00  0.00    -0.019 C 
HETATM    6  C12 UNL     1      53.883 -40.578  13.574  1.00  0.00     0.036 C 
HETATM    7  C13 UNL     1      55.150 -40.006  14.171  1.00  0.00    -0.040 C 
HETATM    8  C14 UNL     1      56.204 -41.049  14.095  1.00  0.00     0.015 C 
HETATM    9  C15 UNL     1      54.853 -39.815  15.673  1.00  0.00     0.015 C 
HETATM   10  C16 UNL     1      55.396 -38.703  13.525  1.00  0.00     0.014 A 
HETATM   11  C17 UNL     1      56.386 -38.705  12.425  1.00  0.00     0.041 A 
HETATM   12  C18 UNL     1      55.696 -38.453  11.133  1.00  0.00     0.093 A 
HETATM   13  C19 UNL     1      55.886 -37.310  10.281  1.00  0.00     0.207 A 
HETATM   14  O5  UNL     1      54.699 -37.534  10.980  1.00  0.00    -0.374 OA
HETATM   15  C20 UNL     1      55.478 -39.779  10.451  1.00  0.00     0.105 C 
HETATM   16  C21 UNL     1      56.552 -37.835  13.567  1.00  0.00    -0.015 A 
HETATM   17  C22 UNL     1      57.750 -38.161  14.482  1.00  0.00     0.020 C 
ENDROOT
BRANCH   1  18
HETATM   18  O4  UNL     1      53.435 -39.281   9.203  1.00  0.00    -0.322 OA
BRANCH  18  19
HETATM   19  C6  UNL     1      52.059 -39.307   8.995  1.00  0.00     0.297 C 
HETATM   20  O3  UNL     1      51.728 -39.681   7.723  1.00  0.00    -0.351 OA
HETATM   21  C4  UNL     1      50.473 -39.432   7.288  1.00  0.00     0.152 C 
HETATM   22  C3  UNL     1      49.443 -39.063   8.293  1.00  0.00     0.178 C 
HETATM   23  C5  UNL     1      50.016 -40.615   6.429  1.00  0.00     0.042 C 
HETATM   24  C2  UNL     1      49.921 -38.355   9.500  1.00  0.00     0.185 C 
HETATM   25  C31 UNL     1      51.388 -37.980   9.252  1.00  0.00     0.205 C 
BRANCH  22  26
HETATM   26  O2  UNL     1      48.436 -38.259   7.704  1.00  0.00    -0.390 OA
ATOM     27  H2  UNL     1      47.607 -38.520   8.087  1.00  0.00     0.210 HD
ENDBRANCH  22  26
BRANCH  24  28
HETATM   28  O1  UNL     1      49.922 -39.239  10.577  1.00  0.00    -0.385 OA
HETATM   29  C1  UNL     1      48.612 -39.698  10.821  1.00  0.00     0.202 C 
ENDBRANCH  24  28
BRANCH  25  30
HETATM   30  O10 UNL     1      51.925 -37.283  10.306  1.00  0.00    -0.388 OA
ATOM     31  H10 UNL     1      52.432 -36.534  10.016  1.00  0.00     0.210 HD
ENDBRANCH  25  30
ENDBRANCH  18  19
ENDBRANCH   1  18
BRANCH  16  32
HETATM   32  C23 UNL     1      56.291 -36.371  13.555  1.00  0.00    -0.017 C 
HETATM   33  C24 UNL     1      57.049 -35.604  14.363  1.00  0.00    -0.004 C 
BRANCH  33  34
HETATM   34  C25 UNL     1      56.848 -34.164  14.403  1.00  0.00    -0.004 C 
HETATM   35  C26 UNL     1      57.151 -33.448  15.438  1.00  0.00    -0.017 C 
BRANCH  35  36
HETATM   36  C27 UNL     1      57.724 -33.941  16.694  1.00  0.00     0.138 C 
BRANCH  36  37
HETATM   37  C28 UNL     1      56.948 -33.481  17.884  1.00  0.00     0.262 C 
HETATM   38  O6  UNL     1      57.011 -34.171  18.928  1.00  0.00    -0.265 OA
BRANCH  37  39
HETATM   39  O7  UNL     1      56.205 -32.330  17.782  1.00  0.00    -0.311 OA
BRANCH  39  40
HETATM   40  C29 UNL     1      54.946 -32.219  18.383  1.00  0.00     0.291 C 
BRANCH  40  41
HETATM   41  C30 UNL     1      53.819 -32.063  17.464  1.00  0.00     0.198 C 
HETATM   42  O8  UNL     1      53.951 -32.378  16.260  1.00  0.00    -0.646 OA
HETATM   43  O9  UNL     1      52.582 -31.580  17.846  1.00  0.00    -0.646 OA
ENDBRANCH  40  41
ENDBRANCH  39  40
ENDBRANCH  37  39
ENDBRANCH  36  37
ENDBRANCH  35  36
ENDBRANCH  33  34
ENDBRANCH  16  32
TORSDOF 12
ENDMDL
MODEL 2
REMARK VINA RESULT: -6.532277179      1.192      2.175
REMARK  12 active torsions:
REMARK  status: ('A' for Active; 'I' for Inactive)
REMARK    1  A    between atoms: O1_2  and  C2_3 
REMARK    2  A    between atoms: C3_4  and  O2_5 
REMARK    3  A    between atoms: C6_10  and  O4_11 
REMARK    4  A    between atoms: O4_11  and  C7_12 
REMARK    5  A    between atoms: C21_27  and  C23_29 
REMARK    6  A    between atoms: C24_30  and  C25_31 
REMARK    7  A    between atoms: C26_32  and  C27_33 
REMARK    8  A    between atoms: C27_33  and  C28_34 
REMARK    9  A    between atoms: C28_34  and  O7_36 
REMARK   10  A    between atoms: O7_36  and  C29_37 
REMARK   11  A    between atoms: C29_37  and  C30_38 
REMARK   12  A    between atoms: C31_41  and  O10_42 
ROOT
HETATM    1  C7  UNL     1      54.073 -40.110   9.965  1.00  0.00     0.053 C 
HETATM    2  C8  UNL     1      53.408 -41.152  10.456  1.00  0.00     0.038 C 
HETATM    3  C9  UNL     1      53.872 -42.144  11.387  1.00  0.00    -0.063 C 
HETATM    4  C10 UNL     1      54.052 -43.572  10.918  1.00  0.00     0.048 C 
HETATM    5  C11 UNL     1      54.118 -41.934  12.693  1.00  0.00    -0.019 C 
HETATM    6  C12 UNL     1      53.956 -40.676  13.405  1.00  0.00     0.036 C 
HETATM    7  C13 UNL     1      55.216 -40.078  13.994  1.00  0.00    -0.040 C 
HETATM    8  C14 UNL     1      56.301 -41.084  13.873  1.00  0.00     0.015 C 
HETATM    9  C15 UNL     1      54.941 -39.933  15.505  1.00  0.00     0.015 C 
HETATM   10  C16 UNL     1      55.408 -38.753  13.375  1.00  0.00     0.014 A 
HETATM   11  C17 UNL     1      56.377 -38.695  12.258  1.00  0.00     0.041 A 
HETATM   12  C18 UNL     1      55.655 -38.435  10.985  1.00  0.00     0.093 A 
HETATM   13  C19 UNL     1      55.792 -37.266  10.159  1.00  0.00     0.207 A 
HETATM   14  O5  UNL     1      54.626 -37.545  10.873  1.00  0.00    -0.374 OA
HETATM   15  C20 UNL     1      55.466 -39.751  10.275  1.00  0.00     0.105 C 
HETATM   16  C21 UNL     1      56.536 -37.849  13.418  1.00  0.00    -0.015 A 
HETATM   17  C22 UNL     1      57.761 -38.157  14.303  1.00  0.00     0.020 C 
ENDROOT
BRANCH   1  18
HETATM   18  O4  UNL     1      53.386 -39.289   9.076  1.00  0.00    -0.322 OA
BRANCH  18  19
HETATM   19  C6  UNL     1      51.999 -39.296   8.954  1.00  0.00     0.297 C 
HETATM   20  O3  UNL     1      51.585 -39.652   7.701  1.00  0.00    -0.351 OA
HETATM   21  C4  UNL     1      50.310 -39.383   7.347  1.00  0.00     0.152 C 
HETATM   22  C3  UNL     1      49.349 -39.011   8.417  1.00  0.00     0.178 C 
HETATM   23  C5  UNL     1      49.784 -40.551   6.507  1.00  0.00     0.042 C 
HETATM   24  C2  UNL     1      49.909 -38.322   9.599  1.00  0.00     0.185 C 
HETATM   25  C31 UNL     1      51.363 -37.963   9.264  1.00  0.00     0.205 C 
BRANCH  22  26
HETATM   26  O2  UNL     1      48.318 -38.188   7.899  1.00  0.00    -0.390 OA
ATOM     27  H2  UNL     1      47.732 -37.985   8.618  1.00  0.00     0.210 HD
ENDBRANCH  22  26
BRANCH  24  28
HETATM   28  O1  UNL     1      49.965 -39.216  10.665  1.00  0.00    -0.385 OA
HETATM   29  C1  UNL     1      48.760 -39.943  10.744  1.00  0.00     0.202 C 
ENDBRANCH  24  28
BRANCH  25  30
HETATM   30  O10 UNL     1      51.974 -37.283  10.289  1.00  0.00    -0.388 OA
ATOM     31  H10 UNL     1      52.720 -36.779   9.987  1.00  0.00     0.210 HD
ENDBRANCH  25  30
ENDBRANCH  18  19
ENDBRANCH   1  18
BRANCH  16  32
HETATM   32  C23 UNL     1      56.228 -36.394  13.447  1.00  0.00    -0.017 C 
HETATM   33  C24 UNL     1      56.907 -35.639  14.332  1.00  0.00    -0.004 C 
BRANCH  33  34
HETATM   34  C25 UNL     1      56.656 -34.209  14.416  1.00  0.00    -0.004 C 
HETATM   35  C26 UNL     1      57.147 -33.470  15.360  1.00  0.00    -0.017 C 
BRANCH  35  36
HETATM   36  C27 UNL     1      58.000 -33.927  16.461  1.00  0.00     0.138 C 
BRANCH  36  37
HETATM   37  C28 UNL     1      57.305 -33.851  17.780  1.00  0.00     0.262 C 
HETATM   38  O6  UNL     1      56.820 -32.749  18.124  1.00  0.00    -0.265 OA
BRANCH  37  39
HETATM   39  O7  UNL     1      57.228 -34.985  18.551  1.00  0.00    -0.311 OA
BRANCH  39  40
HETATM   40  C29 UNL     1      57.942 -36.143  18.220  1.00  0.00     0.291 C 
BRANCH  40  41
HETATM   41  C30 UNL     1      57.415 -37.390  18.773  1.00  0.00     0.198 C 
HETATM   42  O8  UNL     1      56.685 -38.123  18.069  1.00  0.00    -0.646 OA
HETATM   43  O9  UNL     1      57.679 -37.827  20.057  1.00  0.00    -0.646 OA
ENDBRANCH  40  41
ENDBRANCH  39  40
ENDBRANCH  37  39
ENDBRANCH  36  37
ENDBRANCH  35  36
ENDBRANCH  33  34
ENDBRANCH  16  32
TORSDOF 12
ENDMDL
MODEL 3
REMARK VINA RESULT: -6.313961310      1.708      2.130
REMARK  12 active torsions:
REMARK  status: ('A' for Active; 'I' for Inactive)
REMARK    1  A    between atoms: O1_2  and  C2_3 
REMARK    2  A    between atoms: C3_4  and  O2_5 
REMARK    3  A    between atoms: C6_10  and  O4_11 
REMARK    4  A    between atoms: O4_11  and  C7_12 
REMARK    5  A    between atoms: C21_27  and  C23_29 
REMARK    6  A    between atoms: C24_30  and  C25_31 
REMARK    7  A    between atoms: C26_32  and  C27_33 
REMARK    8  A    between atoms: C27_33  and  C28_34 
REMARK    9  A    between atoms: C28_34  and  O7_36 
REMARK   10  A    between atoms: O7_36  and  C29_37 
REMARK   11  A    between atoms: C29_37  and  C30_38 
REMARK   12  A    between atoms: C31_41  and  O10_42 
ROOT
HETATM    1  C7  UNL     1      56.086 -39.435   9.836  1.00  0.00     0.053 C 
HETATM    2  C8  UNL     1      55.339 -40.521  10.012  1.00  0.00     0.038 C 
HETATM    3  C9  UNL     1      55.459 -41.527  11.032  1.00  0.00    -0.063 C 
HETATM    4  C10 UNL     1      55.881 -42.928  10.643  1.00  0.00     0.048 C 
HETATM    5  C11 UNL     1      55.171 -41.356  12.334  1.00  0.00    -0.019 C 
HETATM    6  C12 UNL     1      54.681 -40.133  12.951  1.00  0.00     0.036 C 
HETATM    7  C13 UNL     1      55.582 -39.506  13.992  1.00  0.00    -0.040 C 
HETATM    8  C14 UNL     1      56.681 -40.460  14.283  1.00  0.00     0.015 C 
HETATM    9  C15 UNL     1      54.738 -39.428  15.282  1.00  0.00     0.015 C 
HETATM   10  C16 UNL     1      55.928 -38.151  13.521  1.00  0.00     0.014 A 
HETATM   11  C17 UNL     1      57.248 -38.012  12.868  1.00  0.00     0.041 A 
HETATM   12  C18 UNL     1      57.061 -37.735  11.419  1.00  0.00     0.093 A 
HETATM   13  C19 UNL     1      57.445 -36.532  10.731  1.00  0.00     0.207 A 
HETATM   14  O5  UNL     1      56.111 -36.886  10.934  1.00  0.00    -0.374 OA
HETATM   15  C20 UNL     1      57.231 -39.031  10.667  1.00  0.00     0.105 C 
HETATM   16  C21 UNL     1      56.903 -37.204  14.014  1.00  0.00    -0.015 A 
HETATM   17  C22 UNL     1      57.706 -37.494  15.298  1.00  0.00     0.020 C 
ENDROOT
BRANCH   1  18
HETATM   18  O4  UNL     1      55.753 -38.612   8.765  1.00  0.00    -0.322 OA
BRANCH  18  19
HETATM   19  C6  UNL     1      54.458 -38.502   8.265  1.00  0.00     0.297 C 
HETATM   20  O3  UNL     1      54.255 -39.284   7.163  1.00  0.00    -0.351 OA
HETATM   21  C4  UNL     1      53.176 -39.032   6.390  1.00  0.00     0.152 C 
HETATM   22  C3  UNL     1      52.115 -38.147   6.933  1.00  0.00     0.178 C 
HETATM   23  C5  UNL     1      52.599 -40.369   5.914  1.00  0.00     0.042 C 
HETATM   24  C2  UNL     1      52.546 -37.110   7.894  1.00  0.00     0.185 C 
HETATM   25  C31 UNL     1      54.081 -37.093   7.880  1.00  0.00     0.205 C 
BRANCH  22  26
HETATM   26  O2  UNL     1      51.426 -37.489   5.884  1.00  0.00    -0.390 OA
ATOM     27  H2  UNL     1      51.538 -38.013   5.100  1.00  0.00     0.210 HD
ENDBRANCH  22  26
BRANCH  24  28
HETATM   28  O1  UNL     1      52.173 -37.495   9.180  1.00  0.00    -0.385 OA
HETATM   29  C1  UNL     1      50.768 -37.528   9.281  1.00  0.00     0.202 C 
ENDBRANCH  24  28
BRANCH  25  30
HETATM   30  O10 UNL     1      54.592 -36.134   8.720  1.00  0.00    -0.388 OA
ATOM     31  H10 UNL     1      54.552 -36.400   9.630  1.00  0.00     0.210 HD
ENDBRANCH  25  30
ENDBRANCH  18  19
ENDBRANCH   1  18
BRANCH  16  32
HETATM   32  C23 UNL     1      56.532 -35.765  13.948  1.00  0.00    -0.017 C 
HETATM   33  C24 UNL     1      57.140 -34.932  14.814  1.00  0.00    -0.004 C 
BRANCH  33  34
HETATM   34  C25 UNL     1      56.825 -33.512  14.806  1.00  0.00    -0.004 C 
HETATM   35  C26 UNL     1      56.546 -32.856  15.887  1.00  0.00    -0.017 C 
BRANCH  35  36
HETATM   36  C27 UNL     1      56.500 -33.404  17.246  1.00  0.00     0.138 C 
BRANCH  36  37
HETATM   37  C28 UNL     1      55.405 -32.797  18.060  1.00  0.00     0.262 C 
HETATM   38  O6  UNL     1      55.371 -33.061  19.284  1.00  0.00    -0.265 OA
BRANCH  37  39
HETATM   39  O7  UNL     1      54.493 -31.982  17.435  1.00  0.00    -0.311 OA
BRANCH  39  40
HETATM   40  C29 UNL     1      53.350 -31.522  18.100  1.00  0.00     0.291 C 
BRANCH  40  41
HETATM   41  C30 UNL     1      52.098 -31.629  17.353  1.00  0.00     0.198 C 
HETATM   42  O8  UNL     1      51.010 -31.395  17.926  1.00  0.00    -0.646 OA
HETATM   43  O9  UNL     1      52.032 -31.980  16.018  1.00  0.00    -0.646 OA
ENDBRANCH  40  41
ENDBRANCH  39  40
ENDBRANCH  37  39
ENDBRANCH  36  37
ENDBRANCH  35  36
ENDBRANCH  33  34
ENDBRANCH  16  32
TORSDOF 12
ENDMDL
MODEL 4
REMARK VINA RESULT: -6.249476362     13.662     15.830
REMARK  12 active torsions:
REMARK  status: ('A' for Active; 'I' for Inactive)
REMARK    1  A    between atoms: O1_2  and  C2_3 
REMARK    2  A    between atoms: C3_4  and  O2_5 
REMARK    3  A    between atoms: C6_10  and  O4_11 
REMARK    4  A    between atoms: O4_11  and  C7_12 
REMARK    5  A    between atoms: C21_27  and  C23_29 
REMARK    6  A    between atoms: C24_30  and  C25_31 
REMARK    7  A    between atoms: C26_32  and  C27_33 
REMARK    8  A    between atoms: C27_33  and  C28_34 
REMARK    9  A    between atoms: C28_34  and  O7_36 
REMARK   10  A    between atoms: O7_36  and  C29_37 
REMARK   11  A    between atoms: C29_37  and  C30_38 
REMARK   12  A    between atoms: C31_41  and  O10_42 
ROOT
HETATM    1  C7  UNL     1      39.097 -39.105  14.891  1.00  0.00     0.053 C 
HETATM    2  C8  UNL     1      37.817 -38.998  14.544  1.00  0.00     0.038 C 
HETATM    3  C9  UNL     1      36.666 -39.533  15.218  1.00  0.00    -0.063 C 
HETATM    4  C10 UNL     1      35.864 -40.632  14.553  1.00  0.00     0.048 C 
HETATM    5  C11 UNL     1      36.180 -39.103  16.396  1.00  0.00    -0.019 C 
HETATM    6  C12 UNL     1      36.721 -38.019  17.202  1.00  0.00     0.036 C 
HETATM    7  C13 UNL     1      37.233 -38.400  18.574  1.00  0.00    -0.040 C 
HETATM    8  C14 UNL     1      36.835 -39.806  18.837  1.00  0.00     0.015 C 
HETATM    9  C15 UNL     1      36.430 -37.540  19.572  1.00  0.00     0.015 C 
HETATM   10  C16 UNL     1      38.664 -38.049  18.626  1.00  0.00     0.014 A 
HETATM   11  C17 UNL     1      39.611 -39.163  18.398  1.00  0.00     0.041 A 
HETATM   12  C18 UNL     1      40.305 -38.968  17.097  1.00  0.00     0.093 A 
HETATM   13  C19 UNL     1      41.714 -38.742  16.915  1.00  0.00     0.207 A 
HETATM   14  O5  UNL     1      40.758 -37.758  16.661  1.00  0.00    -0.374 OA
HETATM   15  C20 UNL     1      39.616 -39.824  16.065  1.00  0.00     0.105 C 
HETATM   16  C21 UNL     1      39.677 -38.373  19.606  1.00  0.00    -0.015 A 
HETATM   17  C22 UNL     1      39.309 -39.115  20.906  1.00  0.00     0.020 C 
ENDROOT
BRANCH   1  18
HETATM   18  O4  UNL     1      40.025 -38.482  14.063  1.00  0.00    -0.322 OA
BRANCH  18  19
HETATM   19  C6  UNL     1      39.672 -37.543  13.097  1.00  0.00     0.297 C 
HETATM   20  O3  UNL     1      40.221 -37.816  11.876  1.00  0.00    -0.351 OA
HETATM   21  C4  UNL     1      40.240 -36.835  10.948  1.00  0.00     0.152 C 
HETATM   22  C3  UNL     1      39.399 -35.633  11.181  1.00  0.00     0.178 C 
HETATM   23  C5  UNL     1      39.954 -37.459   9.578  1.00  0.00     0.042 C 
HETATM   24  C2  UNL     1      39.154 -35.261  12.591  1.00  0.00     0.185 C 
HETATM   25  C31 UNL     1      40.075 -36.134  13.454  1.00  0.00     0.205 C 
BRANCH  22  26
HETATM   26  O2  UNL     1      39.956 -34.500  10.538  1.00  0.00    -0.390 OA
ATOM     27  H2  UNL     1      40.405 -34.810   9.761  1.00  0.00     0.210 HD
ENDBRANCH  22  26
BRANCH  24  28
HETATM   28  O1  UNL     1      37.850 -35.612  12.936  1.00  0.00    -0.385 OA
HETATM   29  C1  UNL     1      36.939 -34.978  12.069  1.00  0.00     0.202 C 
ENDBRANCH  24  28
BRANCH  25  30
HETATM   30  O10 UNL     1      39.952 -35.845  14.791  1.00  0.00    -0.388 OA
ATOM     31  H10 UNL     1      40.781 -35.919  15.249  1.00  0.00     0.210 HD
ENDBRANCH  25  30
ENDBRANCH  18  19
ENDBRANCH   1  18
BRANCH  16  32
HETATM   32  C23 UNL     1      40.706 -37.332  19.876  1.00  0.00    -0.017 C 
HETATM   33  C24 UNL     1      40.312 -36.046  19.811  1.00  0.00    -0.004 C 
BRANCH  33  34
HETATM   34  C25 UNL     1      41.265 -34.977  20.062  1.00  0.00    -0.004 C 
HETATM   35  C26 UNL     1      41.736 -34.228  19.117  1.00  0.00    -0.017 C 
BRANCH  35  36
HETATM   36  C27 UNL     1      41.407 -34.324  17.691  1.00  0.00     0.138 C 
BRANCH  36  37
HETATM   37  C28 UNL     1      40.704 -33.105  17.194  1.00  0.00     0.262 C 
HETATM   38  O6  UNL     1      40.577 -32.139  17.981  1.00  0.00    -0.265 OA
BRANCH  37  39
HETATM   39  O7  UNL     1      40.230 -33.097  15.904  1.00  0.00    -0.311 OA
BRANCH  39  40
HETATM   40  C29 UNL     1      39.008 -32.496  15.579  1.00  0.00     0.291 C 
BRANCH  40  41
HETATM   41  C30 UNL     1      37.816 -33.172  16.092  1.00  0.00     0.198 C 
HETATM   42  O8  UNL     1      37.715 -34.415  15.989  1.00  0.00    -0.646 OA
HETATM   43  O9  UNL     1      36.766 -32.512  16.700  1.00  0.00    -0.646 OA
ENDBRANCH  40  41
ENDBRANCH  39  40
ENDBRANCH  37  39
ENDBRANCH  36  37
ENDBRANCH  35  36
ENDBRANCH  33  34
ENDBRANCH  16  32
TORSDOF 12
ENDMDL
MODEL 5
REMARK VINA RESULT: -6.246911480      8.344     13.044
REMARK  12 active torsions:
REMARK  status: ('A' for Active; 'I' for Inactive)
REMARK    1  A    between atoms: O1_2  and  C2_3 
REMARK    2  A    between atoms: C3_4  and  O2_5 
REMARK    3  A    between atoms: C6_10  and  O4_11 
REMARK    4  A    between atoms: O4_11  and  C7_12 
REMARK    5  A    between atoms: C21_27  and  C23_29 
REMARK    6  A    between atoms: C24_30  and  C25_31 
REMARK    7  A    between atoms: C26_32  and  C27_33 
REMARK    8  A    between atoms: C27_33  and  C28_34 
REMARK    9  A    between atoms: C28_34  and  O7_36 
REMARK   10  A    between atoms: O7_36  and  C29_37 
REMARK   11  A    between atoms: C29_37  and  C30_38 
REMARK   12  A    between atoms: C31_41  and  O10_42 
ROOT
HETATM    1  C7  UNL     1      46.211 -27.513  14.610  1.00  0.00     0.053 C 
HETATM    2  C8  UNL     1      45.373 -27.908  13.656  1.00  0.00     0.038 C 
HETATM    3  C9  UNL     1      45.684 -28.329  12.317  1.00  0.00    -0.063 C 
HETATM    4  C10 UNL     1      45.247 -27.468  11.151  1.00  0.00     0.048 C 
HETATM    5  C11 UNL     1      46.298 -29.478  11.983  1.00  0.00    -0.019 C 
HETATM    6  C12 UNL     1      46.754 -30.506  12.905  1.00  0.00     0.036 C 
HETATM    7  C13 UNL     1      48.245 -30.765  12.930  1.00  0.00    -0.040 C 
HETATM    8  C14 UNL     1      48.858 -30.020  11.802  1.00  0.00     0.015 C 
HETATM    9  C15 UNL     1      48.414 -32.261  12.591  1.00  0.00     0.015 C 
HETATM   10  C16 UNL     1      48.719 -30.490  14.299  1.00  0.00     0.014 A 
HETATM   11  C17 UNL     1      49.345 -29.167  14.513  1.00  0.00     0.041 A 
HETATM   12  C18 UNL     1      48.467 -28.333  15.376  1.00  0.00     0.093 A 
HETATM   13  C19 UNL     1      48.787 -27.848  16.691  1.00  0.00     0.207 A 
HETATM   14  O5  UNL     1      47.809 -28.817  16.468  1.00  0.00    -0.374 OA
HETATM   15  C20 UNL     1      47.674 -27.410  14.486  1.00  0.00     0.105 C 
HETATM   16  C21 UNL     1      50.061 -30.382  14.826  1.00  0.00    -0.015 A 
HETATM   17  C22 UNL     1      51.285 -30.680  13.936  1.00  0.00     0.020 C 
ENDROOT
BRANCH   1  18
HETATM   18  O4  UNL     1      45.649 -27.161  15.833  1.00  0.00    -0.322 OA
BRANCH  18  19
HETATM   19  C6  UNL     1      44.587 -26.270  15.952  1.00  0.00     0.297 C 
HETATM   20  O3  UNL     1      44.839 -25.070  15.346  1.00  0.00    -0.351 OA
HETATM   21  C4  UNL     1      44.054 -24.017  15.661  1.00  0.00     0.152 C 
HETATM   22  C3  UNL     1      42.787 -24.279  16.389  1.00  0.00     0.178 C 
HETATM   23  C5  UNL     1      43.808 -23.200  14.388  1.00  0.00     0.042 C 
HETATM   24  C2  UNL     1      42.768 -25.458  17.281  1.00  0.00     0.185 C 
HETATM   25  C31 UNL     1      44.212 -25.969  17.382  1.00  0.00     0.205 C 
BRANCH  22  26
HETATM   26  O2  UNL     1      42.417 -23.156  17.170  1.00  0.00    -0.390 OA
ATOM     27  H2  UNL     1      41.896 -22.587  16.615  1.00  0.00     0.210 HD
ENDBRANCH  22  26
BRANCH  24  28
HETATM   28  O1  UNL     1      42.036 -26.477  16.676  1.00  0.00    -0.385 OA
HETATM   29  C1  UNL     1      41.017 -25.924  15.876  1.00  0.00     0.202 C 
ENDBRANCH  24  28
BRANCH  25  30
HETATM   30  O10 UNL     1      44.316 -27.052  18.220  1.00  0.00    -0.388 OA
ATOM     31  H10 UNL     1      44.631 -27.825  17.767  1.00  0.00     0.210 HD
ENDBRANCH  25  30
ENDBRANCH  18  19
ENDBRANCH   1  18
BRANCH  16  32
HETATM   32  C23 UNL     1      50.284 -30.896  16.204  1.00  0.00    -0.017 C 
HETATM   33  C24 UNL     1      51.556 -31.150  16.568  1.00  0.00    -0.004 C 
BRANCH  33  34
HETATM   34  C25 UNL     1      51.847 -31.655  17.900  1.00  0.00    -0.004 C 
HETATM   35  C26 UNL     1      53.025 -32.071  18.244  1.00  0.00    -0.017 C 
BRANCH  35  36
HETATM   36  C27 UNL     1      54.215 -32.105  17.389  1.00  0.00     0.138 C 
BRANCH  36  37
HETATM   37  C28 UNL     1      55.417 -32.607  18.119  1.00  0.00     0.262 C 
HETATM   38  O6  UNL     1      55.257 -33.039  19.284  1.00  0.00    -0.265 OA
BRANCH  37  39
HETATM   39  O7  UNL     1      56.635 -32.575  17.484  1.00  0.00    -0.311 OA
BRANCH  39  40
HETATM   40  C29 UNL     1      57.067 -33.636  16.680  1.00  0.00     0.291 C 
BRANCH  40  41
HETATM   41  C30 UNL     1      57.933 -34.615  17.338  1.00  0.00     0.198 C 
HETATM   42  O8  UNL     1      57.424 -35.568  17.969  1.00  0.00    -0.646 OA
HETATM   43  O9  UNL     1      59.313 -34.557  17.306  1.00  0.00    -0.646 OA
ENDBRANCH  40  41
ENDBRANCH  39  40
ENDBRANCH  37  39
ENDBRANCH  36  37
ENDBRANCH  35  36
ENDBRANCH  33  34
ENDBRANCH  16  32
TORSDOF 12
ENDMDL
