MODEL 1
REMARK VINA RESULT: -7.267694624      0.000      0.000
REMARK  11 active torsions:
REMARK  status: ('A' for Active; 'I' for Inactive)
REMARK    1  A    between atoms: C5_5  and  O1_6 
REMARK    2  A    between atoms: O1_6  and  C6_7 
REMARK    3  A    between atoms: C6_7  and  C7_8 
REMARK    4  A    between atoms: C7_8  and  C8_9 
REMARK    5  A    between atoms: C8_9  and  N1_10 
REMARK    6  A    between atoms: N1_10  and  C10_12 
REMARK    7  A    between atoms: C11_15  and  C12_16 
REMARK       I    between atoms: C12_16  and  N3_18 
REMARK    8  A    between atoms: N3_18  and  C13_20 
REMARK    9  A    between atoms: C16_27  and  O3_28 
REMARK   10  A    between atoms: C17_30  and  O4_31 
REMARK   11  A    between atoms: C18_33  and  N5_34 
ROOT
HETATM    1  C10 UNL     1     -26.711  29.117  33.209  1.00  0.00     0.213 C 
HETATM    2  N2  UNL     1     -27.124  29.970  32.118  1.00  0.00    -0.371 N 
ATOM      3  H2  UNL     1     -26.624  30.828  31.884  1.00  0.00     0.157 HD
HETATM    4  C11 UNL     1     -28.261  29.544  31.396  1.00  0.00     0.271 C 
HETATM    5  N4  UNL     1     -28.995  28.421  31.742  1.00  0.00    -0.367 N 
ATOM      6  H4  UNL     1     -29.937  28.280  31.377  1.00  0.00     0.158 HD
HETATM    7  C16 UNL     1     -28.402  27.465  32.619  1.00  0.00     0.248 C 
HETATM    8  C17 UNL     1     -26.926  27.690  32.825  1.00  0.00     0.208 C 
ENDROOT
BRANCH   1   9
HETATM    9  N1  UNL     1     -27.315  29.589  34.384  1.00  0.00    -0.375 N 
HETATM   10  C9  UNL     1     -28.231  30.662  34.207  1.00  0.00     0.150 C 
BRANCH   9  11
HETATM   11  C8  UNL     1     -26.893  29.255  35.644  1.00  0.00     0.062 C 
BRANCH  11  12
HETATM   12  C7  UNL     1     -25.515  29.603  36.109  1.00  0.00     0.070 C 
BRANCH  12  13
HETATM   13  C6  UNL     1     -24.675  28.400  36.480  1.00  0.00     0.173 C 
BRANCH  13  14
HETATM   14  O1  UNL     1     -24.443  27.555  35.386  1.00  0.00    -0.383 OA
BRANCH  14  15
HETATM   15  C5  UNL     1     -23.175  27.767  34.850  1.00  0.00     0.151 C 
HETATM   16  C4  UNL     1     -23.213  28.388  33.478  1.00  0.00     0.034 C 
HETATM   17  C3  UNL     1     -23.121  27.342  32.384  1.00  0.00     0.007 C 
HETATM   18  C2  UNL     1     -21.742  26.711  32.403  1.00  0.00    -0.016 C 
HETATM   19  C1  UNL     1     -20.851  27.443  31.437  1.00  0.00     0.010 C 
HETATM   20  C19 UNL     1     -21.209  26.745  33.793  1.00  0.00     0.039 C 
HETATM   21  C18 UNL     1     -22.287  26.566  34.857  1.00  0.00     0.212 C 
BRANCH  21  22
HETATM   22  N5  UNL     1     -21.608  26.441  36.133  1.00  0.00    -0.073 N 
ATOM     23  H53 UNL     1     -20.596  26.531  36.033  1.00  0.00     0.274 HD
ATOM     24  H52 UNL     1     -21.774  27.250  36.732  1.00  0.00     0.274 HD
ATOM     25  H51 UNL     1     -21.866  25.569  36.594  1.00  0.00     0.274 HD
ENDBRANCH  21  22
ENDBRANCH  14  15
ENDBRANCH  13  14
ENDBRANCH  12  13
ENDBRANCH  11  12
ENDBRANCH   9  11
ENDBRANCH   1   9
BRANCH   8  26
HETATM   26  O4  UNL     1     -26.427  26.732  33.646  1.00  0.00    -0.387 OA
ATOM     27  H4  UNL     1     -26.600  25.825  33.425  1.00  0.00     0.210 HD
ENDBRANCH   8  26
BRANCH   4  28
HETATM   28  C12 UNL     1     -27.897  29.483  29.956  1.00  0.00     0.260 C 
HETATM   29  O2  UNL     1     -28.153  30.443  29.165  1.00  0.00    -0.269 OA
HETATM   30  N3  UNL     1     -27.247  28.347  29.412  1.00  0.00    -0.352 N 
ATOM     31  H3  UNL     1     -27.037  27.578  30.050  1.00  0.00     0.163 HD
BRANCH  30  32
HETATM   32  C13 UNL     1     -26.859  28.188  28.030  1.00  0.00     0.104 C 
HETATM   33  C14 UNL     1     -25.349  27.981  28.054  1.00  0.00     0.112 C 
HETATM   34  S1  UNL     1     -24.903  27.653  26.297  1.00  0.00    -0.096 SA
HETATM   35  S2  UNL     1     -26.789  26.694  25.823  1.00  0.00    -0.096 SA
HETATM   36  C15 UNL     1     -27.505  26.955  27.495  1.00  0.00     0.112 C 
ENDBRANCH  30  32
ENDBRANCH   4  28
BRANCH   7  37
HETATM   37  O3  UNL     1     -29.093  27.413  33.829  1.00  0.00    -0.374 OA
ATOM     38  H3  UNL     1     -29.216  26.512  34.107  1.00  0.00     0.212 HD
ENDBRANCH   7  37
TORSDOF 11
ENDMDL
MODEL 2
REMARK VINA RESULT: -6.830987838      0.775      1.031
REMARK  11 active torsions:
REMARK  status: ('A' for Active; 'I' for Inactive)
REMARK    1  A    between atoms: C5_5  and  O1_6 
REMARK    2  A    between atoms: O1_6  and  C6_7 
REMARK    3  A    between atoms: C6_7  and  C7_8 
REMARK    4  A    between atoms: C7_8  and  C8_9 
REMARK    5  A    between atoms: C8_9  and  N1_10 
REMARK    6  A    between atoms: N1_10  and  C10_12 
REMARK    7  A    between atoms: C11_15  and  C12_16 
REMARK       I    between atoms: C12_16  and  N3_18 
REMARK    8  A    between atoms: N3_18  and  C13_20 
REMARK    9  A    between atoms: C16_27  and  O3_28 
REMARK   10  A    between atoms: C17_30  and  O4_31 
REMARK   11  A    between atoms: C18_33  and  N5_34 
ROOT
HETATM    1  C10 UNL     1     -26.832  28.924  32.924  1.00  0.00     0.213 C 
HETATM    2  N2  UNL     1     -27.276  29.613  31.734  1.00  0.00    -0.371 N 
ATOM      3  H2  UNL     1     -26.723  30.352  31.300  1.00  0.00     0.157 HD
HETATM    4  C11 UNL     1     -28.521  29.201  31.208  1.00  0.00     0.271 C 
HETATM    5  N4  UNL     1     -29.319  28.249  31.822  1.00  0.00    -0.367 N 
ATOM      6  H4  UNL     1     -30.304  28.156  31.576  1.00  0.00     0.158 HD
HETATM    7  C16 UNL     1     -28.730  27.401  32.806  1.00  0.00     0.248 C 
HETATM    8  C17 UNL     1     -27.226  27.486  32.834  1.00  0.00     0.208 C 
ENDROOT
BRANCH   1   9
HETATM    9  N1  UNL     1     -27.255  29.662  34.039  1.00  0.00    -0.375 N 
HETATM   10  C9  UNL     1     -27.917  30.885  33.740  1.00  0.00     0.150 C 
BRANCH   9  11
HETATM   11  C8  UNL     1     -26.856  29.399  35.323  1.00  0.00     0.062 C 
BRANCH  11  12
HETATM   12  C7  UNL     1     -25.446  29.649  35.753  1.00  0.00     0.070 C 
BRANCH  12  13
HETATM   13  C6  UNL     1     -24.734  28.411  36.255  1.00  0.00     0.173 C 
BRANCH  13  14
HETATM   14  O1  UNL     1     -24.446  27.508  35.223  1.00  0.00    -0.383 OA
BRANCH  14  15
HETATM   15  C5  UNL     1     -23.177  27.735  34.699  1.00  0.00     0.151 C 
HETATM   16  C4  UNL     1     -23.210  28.346  33.322  1.00  0.00     0.034 C 
HETATM   17  C3  UNL     1     -23.090  27.293  32.237  1.00  0.00     0.007 C 
HETATM   18  C2  UNL     1     -21.702  26.683  32.275  1.00  0.00    -0.016 C 
HETATM   19  C1  UNL     1     -20.812  27.422  31.312  1.00  0.00     0.010 C 
HETATM   20  C19 UNL     1     -21.184  26.736  33.670  1.00  0.00     0.039 C 
HETATM   21  C18 UNL     1     -22.271  26.548  34.724  1.00  0.00     0.212 C 
BRANCH  21  22
HETATM   22  N5  UNL     1     -21.602  26.443  36.008  1.00  0.00    -0.073 N 
ATOM     23  H53 UNL     1     -20.590  26.379  35.903  1.00  0.00     0.274 HD
ATOM     24  H52 UNL     1     -21.646  27.318  36.530  1.00  0.00     0.274 HD
ATOM     25  H51 UNL     1     -21.978  25.662  36.546  1.00  0.00     0.274 HD
ENDBRANCH  21  22
ENDBRANCH  14  15
ENDBRANCH  13  14
ENDBRANCH  12  13
ENDBRANCH  11  12
ENDBRANCH   9  11
ENDBRANCH   1   9
BRANCH   8  26
HETATM   26  O4  UNL     1     -26.736  26.637  33.773  1.00  0.00    -0.387 OA
ATOM     27  H4  UNL     1     -26.408  25.795  33.480  1.00  0.00     0.210 HD
ENDBRANCH   8  26
BRANCH   4  28
HETATM   28  C12 UNL     1     -28.322  28.845  29.778  1.00  0.00     0.260 C 
HETATM   29  O2  UNL     1     -29.302  28.557  29.024  1.00  0.00    -0.269 OA
HETATM   30  N3  UNL     1     -27.027  28.813  29.204  1.00  0.00    -0.352 N 
ATOM     31  H3  UNL     1     -26.241  29.049  29.810  1.00  0.00     0.163 HD
BRANCH  30  32
HETATM   32  C13 UNL     1     -26.730  28.474  27.832  1.00  0.00     0.104 C 
HETATM   33  C14 UNL     1     -26.907  29.769  27.046  1.00  0.00     0.112 C 
HETATM   34  S1  UNL     1     -26.397  29.337  25.330  1.00  0.00    -0.096 SA
HETATM   35  S2  UNL     1     -24.938  27.861  25.956  1.00  0.00    -0.096 SA
HETATM   36  C15 UNL     1     -25.302  28.051  27.747  1.00  0.00     0.112 C 
ENDBRANCH  30  32
ENDBRANCH   4  28
BRANCH   7  37
HETATM   37  O3  UNL     1     -29.288  27.644  34.061  1.00  0.00    -0.374 OA
ATOM     38  H3  UNL     1     -28.883  27.091  34.720  1.00  0.00     0.212 HD
ENDBRANCH   7  37
TORSDOF 11
ENDMDL
MODEL 3
REMARK VINA RESULT: -6.789955853      1.779      2.087
REMARK  11 active torsions:
REMARK  status: ('A' for Active; 'I' for Inactive)
REMARK    1  A    between atoms: C5_5  and  O1_6 
REMARK    2  A    between atoms: O1_6  and  C6_7 
REMARK    3  A    between atoms: C6_7  and  C7_8 
REMARK    4  A    between atoms: C7_8  and  C8_9 
REMARK    5  A    between atoms: C8_9  and  N1_10 
REMARK    6  A    between atoms: N1_10  and  C10_12 
REMARK    7  A    between atoms: C11_15  and  C12_16 
REMARK       I    between atoms: C12_16  and  N3_18 
REMARK    8  A    between atoms: N3_18  and  C13_20 
REMARK    9  A    between atoms: C16_27  and  O3_28 
REMARK   10  A    between atoms: C17_30  and  O4_31 
REMARK   11  A    between atoms: C18_33  and  N5_34 
ROOT
HETATM    1  C10 UNL     1     -26.734  29.153  33.211  1.00  0.00     0.213 C 
HETATM    2  N2  UNL     1     -27.206  30.043  32.174  1.00  0.00    -0.371 N 
ATOM      3  H2  UNL     1     -26.741  30.927  31.968  1.00  0.00     0.157 HD
HETATM    4  C11 UNL     1     -28.349  29.613  31.464  1.00  0.00     0.271 C 
HETATM    5  N4  UNL     1     -29.036  28.451  31.775  1.00  0.00    -0.367 N 
ATOM      6  H4  UNL     1     -29.983  28.296  31.431  1.00  0.00     0.158 HD
HETATM    7  C16 UNL     1     -28.387  27.475  32.589  1.00  0.00     0.248 C 
HETATM    8  C17 UNL     1     -26.914  27.740  32.764  1.00  0.00     0.208 C 
ENDROOT
BRANCH   1   9
HETATM    9  N1  UNL     1     -27.318  29.549  34.423  1.00  0.00    -0.375 N 
HETATM   10  C9  UNL     1     -28.282  30.589  34.321  1.00  0.00     0.150 C 
BRANCH   9  11
HETATM   11  C8  UNL     1     -26.842  29.179  35.654  1.00  0.00     0.062 C 
BRANCH  11  12
HETATM   12  C7  UNL     1     -25.465  29.563  36.090  1.00  0.00     0.070 C 
BRANCH  12  13
HETATM   13  C6  UNL     1     -24.581  28.381  36.428  1.00  0.00     0.173 C 
BRANCH  13  14
HETATM   14  O1  UNL     1     -24.371  27.542  35.326  1.00  0.00    -0.383 OA
BRANCH  14  15
HETATM   15  C5  UNL     1     -23.108  27.745  34.775  1.00  0.00     0.151 C 
HETATM   16  C4  UNL     1     -23.157  28.371  33.406  1.00  0.00     0.034 C 
HETATM   17  C3  UNL     1     -23.086  27.328  32.308  1.00  0.00     0.007 C 
HETATM   18  C2  UNL     1     -21.712  26.686  32.309  1.00  0.00    -0.016 C 
HETATM   19  C1  UNL     1     -20.827  27.414  31.334  1.00  0.00     0.010 C 
HETATM   20  C19 UNL     1     -21.163  26.711  33.692  1.00  0.00     0.039 C 
HETATM   21  C18 UNL     1     -22.230  26.537  34.768  1.00  0.00     0.212 C 
BRANCH  21  22
HETATM   22  N5  UNL     1     -21.537  26.402  36.035  1.00  0.00    -0.073 N 
ATOM     23  H53 UNL     1     -21.925  27.022  36.747  1.00  0.00     0.274 HD
ATOM     24  H52 UNL     1     -21.738  25.508  36.485  1.00  0.00     0.274 HD
ATOM     25  H51 UNL     1     -20.534  26.546  35.914  1.00  0.00     0.274 HD
ENDBRANCH  21  22
ENDBRANCH  14  15
ENDBRANCH  13  14
ENDBRANCH  12  13
ENDBRANCH  11  12
ENDBRANCH   9  11
ENDBRANCH   1   9
BRANCH   8  26
HETATM   26  O4  UNL     1     -26.360  26.762  33.525  1.00  0.00    -0.387 OA
ATOM     27  H4  UNL     1     -25.449  26.859  33.776  1.00  0.00     0.210 HD
ENDBRANCH   8  26
BRANCH   4  28
HETATM   28  C12 UNL     1     -28.025  29.632  30.013  1.00  0.00     0.260 C 
HETATM   29  O2  UNL     1     -27.378  28.687  29.465  1.00  0.00    -0.269 OA
HETATM   30  N3  UNL     1     -28.428  30.711  29.186  1.00  0.00    -0.352 N 
ATOM     31  H3  UNL     1     -28.953  31.467  29.626  1.00  0.00     0.163 HD
BRANCH  30  32
HETATM   32  C13 UNL     1     -28.158  30.825  27.772  1.00  0.00     0.104 C 
HETATM   33  C14 UNL     1     -29.387  30.251  27.076  1.00  0.00     0.112 C 
HETATM   34  S1  UNL     1     -29.070  30.529  25.283  1.00  0.00    -0.096 SA
HETATM   35  S2  UNL     1     -27.931  32.347  25.595  1.00  0.00    -0.096 SA
HETATM   36  C15 UNL     1     -28.042  32.271  27.428  1.00  0.00     0.112 C 
ENDBRANCH  30  32
ENDBRANCH   4  28
BRANCH   7  37
HETATM   37  O3  UNL     1     -29.040  27.343  33.814  1.00  0.00    -0.374 OA
ATOM     38  H3  UNL     1     -28.845  26.501  34.209  1.00  0.00     0.212 HD
ENDBRANCH   7  37
TORSDOF 11
ENDMDL
MODEL 4
REMARK VINA RESULT: -6.584923568      3.545      4.179
REMARK  11 active torsions:
REMARK  status: ('A' for Active; 'I' for Inactive)
REMARK    1  A    between atoms: C5_5  and  O1_6 
REMARK    2  A    between atoms: O1_6  and  C6_7 
REMARK    3  A    between atoms: C6_7  and  C7_8 
REMARK    4  A    between atoms: C7_8  and  C8_9 
REMARK    5  A    between atoms: C8_9  and  N1_10 
REMARK    6  A    between atoms: N1_10  and  C10_12 
REMARK    7  A    between atoms: C11_15  and  C12_16 
REMARK       I    between atoms: C12_16  and  N3_18 
REMARK    8  A    between atoms: N3_18  and  C13_20 
REMARK    9  A    between atoms: C16_27  and  O3_28 
REMARK   10  A    between atoms: C17_30  and  O4_31 
REMARK   11  A    between atoms: C18_33  and  N5_34 
ROOT
HETATM    1  C10 UNL     1     -27.055  29.983  32.901  1.00  0.00     0.213 C 
HETATM    2  N2  UNL     1     -27.967  31.094  32.754  1.00  0.00    -0.371 N 
ATOM      3  H2  UNL     1     -27.761  32.017  33.136  1.00  0.00     0.157 HD
HETATM    4  C11 UNL     1     -29.162  30.825  32.048  1.00  0.00     0.271 C 
HETATM    5  N4  UNL     1     -29.493  29.562  31.583  1.00  0.00    -0.367 N 
ATOM      6  H4  UNL     1     -30.451  29.340  31.313  1.00  0.00     0.158 HD
HETATM    7  C16 UNL     1     -28.462  28.581  31.490  1.00  0.00     0.248 C 
HETATM    8  C17 UNL     1     -27.080  29.159  31.656  1.00  0.00     0.208 C 
ENDROOT
BRANCH   1   9
HETATM    9  N1  UNL     1     -27.331  29.352  34.124  1.00  0.00    -0.375 N 
HETATM   10  C9  UNL     1     -28.450  29.868  34.834  1.00  0.00     0.150 C 
BRANCH   9  11
HETATM   11  C8  UNL     1     -26.469  28.487  34.745  1.00  0.00     0.062 C 
BRANCH  11  12
HETATM   12  C7  UNL     1     -25.838  28.842  36.053  1.00  0.00     0.070 C 
BRANCH  12  13
HETATM   13  C6  UNL     1     -24.455  28.257  36.241  1.00  0.00     0.173 C 
BRANCH  13  14
HETATM   14  O1  UNL     1     -24.137  27.316  35.252  1.00  0.00    -0.383 OA
BRANCH  14  15
HETATM   15  C5  UNL     1     -22.898  27.592  34.678  1.00  0.00     0.151 C 
HETATM   16  C4  UNL     1     -23.009  28.236  33.321  1.00  0.00     0.034 C 
HETATM   17  C3  UNL     1     -22.910  27.215  32.204  1.00  0.00     0.007 C 
HETATM   18  C2  UNL     1     -21.506  26.644  32.164  1.00  0.00    -0.016 C 
HETATM   19  C1  UNL     1     -20.680  27.432  31.183  1.00  0.00     0.010 C 
HETATM   20  C19 UNL     1     -20.928  26.676  33.536  1.00  0.00     0.039 C 
HETATM   21  C18 UNL     1     -21.961  26.430  34.632  1.00  0.00     0.212 C 
BRANCH  21  22
HETATM   22  N5  UNL     1     -21.233  26.312  35.881  1.00  0.00    -0.073 N 
ATOM     23  H53 UNL     1     -21.352  27.137  36.469  1.00  0.00     0.274 HD
ATOM     24  H52 UNL     1     -21.656  25.621  36.502  1.00  0.00     0.274 HD
ATOM     25  H51 UNL     1     -20.248  26.111  35.706  1.00  0.00     0.274 HD
ENDBRANCH  21  22
ENDBRANCH  14  15
ENDBRANCH  13  14
ENDBRANCH  12  13
ENDBRANCH  11  12
ENDBRANCH   9  11
ENDBRANCH   1   9
BRANCH   8  26
HETATM   26  O4  UNL     1     -26.154  28.175  31.531  1.00  0.00    -0.387 OA
ATOM     27  H4  UNL     1     -26.240  27.577  30.798  1.00  0.00     0.210 HD
ENDBRANCH   8  26
BRANCH   4  28
HETATM   28  C12 UNL     1     -29.278  31.814  30.944  1.00  0.00     0.260 C 
HETATM   29  O2  UNL     1     -28.702  31.633  29.828  1.00  0.00    -0.269 OA
HETATM   30  N3  UNL     1     -30.039  32.999  31.100  1.00  0.00    -0.352 N 
ATOM     31  H3  UNL     1     -30.506  33.142  31.996  1.00  0.00     0.163 HD
BRANCH  30  32
HETATM   32  C13 UNL     1     -30.208  34.022  30.094  1.00  0.00     0.104 C 
HETATM   33  C14 UNL     1     -31.698  34.031  29.771  1.00  0.00     0.112 C 
HETATM   34  S1  UNL     1     -31.902  35.427  28.586  1.00  0.00    -0.096 SA
HETATM   35  S2  UNL     1     -30.293  36.604  29.438  1.00  0.00    -0.096 SA
HETATM   36  C15 UNL     1     -29.837  35.338  30.689  1.00  0.00     0.112 C 
ENDBRANCH  30  32
ENDBRANCH   4  28
BRANCH   7  37
HETATM   37  O3  UNL     1     -28.698  27.534  32.382  1.00  0.00    -0.374 OA
ATOM     38  H3  UNL     1     -27.881  27.218  32.751  1.00  0.00     0.212 HD
ENDBRANCH   7  37
TORSDOF 11
ENDMDL
MODEL 5
REMARK VINA RESULT: -6.486198584      2.592      2.900
REMARK  11 active torsions:
REMARK  status: ('A' for Active; 'I' for Inactive)
REMARK    1  A    between atoms: C5_5  and  O1_6 
REMARK    2  A    between atoms: O1_6  and  C6_7 
REMARK    3  A    between atoms: C6_7  and  C7_8 
REMARK    4  A    between atoms: C7_8  and  C8_9 
REMARK    5  A    between atoms: C8_9  and  N1_10 
REMARK    6  A    between atoms: N1_10  and  C10_12 
REMARK    7  A    between atoms: C11_15  and  C12_16 
REMARK       I    between atoms: C12_16  and  N3_18 
REMARK    8  A    between atoms: N3_18  and  C13_20 
REMARK    9  A    between atoms: C16_27  and  O3_28 
REMARK   10  A    between atoms: C17_30  and  O4_31 
REMARK   11  A    between atoms: C18_33  and  N5_34 
ROOT
HETATM    1  C10 UNL     1     -27.005  30.019  32.976  1.00  0.00     0.213 C 
HETATM    2  N2  UNL     1     -27.861  31.176  32.846  1.00  0.00    -0.371 N 
ATOM      3  H2  UNL     1     -27.612  32.080  33.248  1.00  0.00     0.157 HD
HETATM    4  C11 UNL     1     -29.062  30.980  32.128  1.00  0.00     0.271 C 
HETATM    5  N4  UNL     1     -29.451  29.745  31.635  1.00  0.00    -0.367 N 
ATOM      6  H4  UNL     1     -30.417  29.575  31.355  1.00  0.00     0.158 HD
HETATM    7  C16 UNL     1     -28.469  28.716  31.528  1.00  0.00     0.248 C 
HETATM    8  C17 UNL     1     -27.061  29.223  31.714  1.00  0.00     0.208 C 
ENDROOT
BRANCH   1   9
HETATM    9  N1  UNL     1     -27.319  29.378  34.183  1.00  0.00    -0.375 N 
HETATM   10  C9  UNL     1     -28.428  29.922  34.888  1.00  0.00     0.150 C 
BRANCH   9  11
HETATM   11  C8  UNL     1     -26.497  28.472  34.800  1.00  0.00     0.062 C 
BRANCH  11  12
HETATM   12  C7  UNL     1     -25.774  28.826  36.060  1.00  0.00     0.070 C 
BRANCH  12  13
HETATM   13  C6  UNL     1     -24.420  28.165  36.192  1.00  0.00     0.173 C 
BRANCH  13  14
HETATM   14  O1  UNL     1     -24.139  27.307  35.121  1.00  0.00    -0.383 OA
BRANCH  14  15
HETATM   15  C5  UNL     1     -22.899  27.597  34.558  1.00  0.00     0.151 C 
HETATM   16  C4  UNL     1     -23.004  28.247  33.204  1.00  0.00     0.034 C 
HETATM   17  C3  UNL     1     -22.887  27.233  32.082  1.00  0.00     0.007 C 
HETATM   18  C2  UNL     1     -21.478  26.674  32.052  1.00  0.00    -0.016 C 
HETATM   19  C1  UNL     1     -20.651  27.473  31.081  1.00  0.00     0.010 C 
HETATM   20  C19 UNL     1     -20.912  26.703  33.428  1.00  0.00     0.039 C 
HETATM   21  C18 UNL     1     -21.951  26.443  34.514  1.00  0.00     0.212 C 
BRANCH  21  22
HETATM   22  N5  UNL     1     -21.233  26.323  35.769  1.00  0.00    -0.073 N 
ATOM     23  H53 UNL     1     -21.407  27.120  36.382  1.00  0.00     0.274 HD
ATOM     24  H52 UNL     1     -21.622  25.588  36.359  1.00  0.00     0.274 HD
ATOM     25  H51 UNL     1     -20.236  26.186  35.601  1.00  0.00     0.274 HD
ENDBRANCH  21  22
ENDBRANCH  14  15
ENDBRANCH  13  14
ENDBRANCH  12  13
ENDBRANCH  11  12
ENDBRANCH   9  11
ENDBRANCH   1   9
BRANCH   8  26
HETATM   26  O4  UNL     1     -26.183  28.198  31.573  1.00  0.00    -0.387 OA
ATOM     27  H4  UNL     1     -26.332  27.582  30.866  1.00  0.00     0.210 HD
ENDBRANCH   8  26
BRANCH   4  28
HETATM   28  C12 UNL     1     -29.123  31.996  31.044  1.00  0.00     0.260 C 
HETATM   29  O2  UNL     1     -29.282  33.229  31.299  1.00  0.00    -0.269 OA
HETATM   30  N3  UNL     1     -29.004  31.621  29.682  1.00  0.00    -0.352 N 
ATOM     31  H3  UNL     1     -28.870  30.631  29.479  1.00  0.00     0.163 HD
BRANCH  30  32
HETATM   32  C13 UNL     1     -29.056  32.528  28.560  1.00  0.00     0.104 C 
HETATM   33  C14 UNL     1     -28.078  31.964  27.535  1.00  0.00     0.112 C 
HETATM   34  S1  UNL     1     -28.263  33.064  26.069  1.00  0.00    -0.096 SA
HETATM   35  S2  UNL     1     -30.359  33.479  26.437  1.00  0.00    -0.096 SA
HETATM   36  C15 UNL     1     -30.431  32.490  27.983  1.00  0.00     0.112 C 
ENDBRANCH  30  32
ENDBRANCH   4  28
BRANCH   7  37
HETATM   37  O3  UNL     1     -28.761  27.665  32.397  1.00  0.00    -0.374 OA
ATOM     38  H3  UNL     1     -29.683  27.667  32.628  1.00  0.00     0.212 HD
ENDBRANCH   7  37
TORSDOF 11
ENDMDL
