MODEL 1
REMARK VINA RESULT: -6.876241071      0.000      0.000
REMARK  12 active torsions:
REMARK  status: ('A' for Active; 'I' for Inactive)
REMARK    1  A    between atoms: C3_3  and  O1_4 
REMARK    2  A    between atoms: C5_7  and  N1_8 
REMARK       I    between atoms: N1_8  and  C6_10 
REMARK    3  A    between atoms: C6_10  and  C7_12 
REMARK    4  A    between atoms: C7_12  and  C8_13 
REMARK    5  A    between atoms: C8_13  and  N2_14 
REMARK    6  A    between atoms: C9_18  and  O3_19 
REMARK    7  A    between atoms: C10_21  and  C11_22 
REMARK    8  A    between atoms: C12_24  and  C13_25 
REMARK    9  A    between atoms: C13_25  and  S1_26 
REMARK   10  A    between atoms: S1_26  and  C14_27 
REMARK   11  A    between atoms: C20_33  and  O5_34 
REMARK   12  A    between atoms: C21_36  and  O6_37 
ROOT
HETATM    1  C1  UNL     1     -29.468  30.988  29.094  1.00  0.00     0.017 C 
HETATM    2  C2  UNL     1     -29.370  31.331  30.246  1.00  0.00    -0.049 C 
HETATM    3  C3  UNL     1     -29.273  31.766  31.661  1.00  0.00     0.231 C 
HETATM    4  C4  UNL     1     -30.632  32.312  32.047  1.00  0.00     0.111 C 
HETATM    5  C5  UNL     1     -31.400  31.145  32.668  1.00  0.00     0.121 C 
HETATM    6  C9  UNL     1     -30.747  30.833  33.992  1.00  0.00     0.172 C 
HETATM    7  C10 UNL     1     -29.271  30.700  33.722  1.00  0.00     0.188 C 
HETATM    8  O7  UNL     1     -28.930  30.652  32.389  1.00  0.00    -0.334 OA
ENDROOT
BRANCH   3   9
HETATM    9  O1  UNL     1     -28.294  32.753  31.686  1.00  0.00    -0.355 OA
ATOM     10  H1  UNL     1     -28.351  33.195  30.846  1.00  0.00     0.214 HD
ENDBRANCH   3   9
BRANCH   5  11
HETATM   11  N1  UNL     1     -32.797  31.375  32.734  1.00  0.00    -0.354 N 
HETATM   12  C6  UNL     1     -33.789  30.361  32.770  1.00  0.00     0.219 C 
HETATM   13  O2  UNL     1     -33.494  29.127  32.744  1.00  0.00    -0.274 OA
ATOM     14  H1  UNL     1     -33.114  32.344  32.758  1.00  0.00     0.163 HD
BRANCH  12  15
HETATM   15  C7  UNL     1     -35.234  30.684  32.840  1.00  0.00     0.130 C 
BRANCH  15  16
HETATM   16  C8  UNL     1     -35.610  31.262  34.169  1.00  0.00     0.238 C 
BRANCH  16  17
HETATM   17  N2  UNL     1     -34.831  30.666  35.237  1.00  0.00    -0.079 N 
ATOM     18  H23 UNL     1     -34.142  30.006  34.876  1.00  0.00     0.274 HD
ATOM     19  H22 UNL     1     -34.194  31.342  35.659  1.00  0.00     0.274 HD
ATOM     20  H21 UNL     1     -35.436  30.233  35.936  1.00  0.00     0.274 HD
ENDBRANCH  16  17
ENDBRANCH  15  16
ENDBRANCH  12  15
ENDBRANCH   5  11
BRANCH   7  21
HETATM   21  C11 UNL     1     -28.688  29.474  34.400  1.00  0.00     0.185 C 
HETATM   22  O4  UNL     1     -27.584  29.836  35.123  1.00  0.00    -0.372 OA
HETATM   23  C12 UNL     1     -26.674  28.780  35.099  1.00  0.00     0.163 C 
HETATM   24  C20 UNL     1     -26.816  28.204  33.700  1.00  0.00     0.179 C 
HETATM   25  C21 UNL     1     -28.284  28.395  33.460  1.00  0.00     0.181 C 
BRANCH  23  26
HETATM   26  C13 UNL     1     -25.288  29.348  35.226  1.00  0.00     0.114 C 
BRANCH  26  27
HETATM   27  S1  UNL     1     -24.078  28.152  35.820  1.00  0.00    -0.127 SA
BRANCH  27  28
HETATM   28  C14 UNL     1     -23.054  27.528  34.526  1.00  0.00     0.000 A 
HETATM   29  C15 UNL     1     -21.985  26.686  34.811  1.00  0.00     0.018 A 
HETATM   30  C16 UNL     1     -21.169  26.185  33.819  1.00  0.00     0.001 A 
HETATM   31  C17 UNL     1     -21.394  26.507  32.496  1.00  0.00     0.000 A 
HETATM   32  C18 UNL     1     -22.454  27.341  32.209  1.00  0.00     0.001 A 
HETATM   33  C19 UNL     1     -23.272  27.847  33.197  1.00  0.00     0.018 A 
ENDBRANCH  27  28
ENDBRANCH  26  27
ENDBRANCH  23  26
BRANCH  24  34
HETATM   34  O5  UNL     1     -26.460  26.863  33.736  1.00  0.00    -0.390 OA
ATOM     35  H5  UNL     1     -26.814  26.477  34.529  1.00  0.00     0.210 HD
ENDBRANCH  24  34
BRANCH  25  36
HETATM   36  O6  UNL     1     -28.899  27.170  33.752  1.00  0.00    -0.390 OA
ATOM     37  H6  UNL     1     -28.540  26.452  33.244  1.00  0.00     0.210 HD
ENDBRANCH  25  36
ENDBRANCH   7  21
BRANCH   6  38
HETATM   38  O3  UNL     1     -31.336  29.706  34.511  1.00  0.00    -0.391 OA
ATOM     39  H3  UNL     1     -31.079  28.961  33.981  1.00  0.00     0.210 HD
ENDBRANCH   6  38
TORSDOF 12
ENDMDL
MODEL 2
REMARK VINA RESULT: -6.859901805      4.145      5.281
REMARK  12 active torsions:
REMARK  status: ('A' for Active; 'I' for Inactive)
REMARK    1  A    between atoms: C3_3  and  O1_4 
REMARK    2  A    between atoms: C5_7  and  N1_8 
REMARK       I    between atoms: N1_8  and  C6_10 
REMARK    3  A    between atoms: C6_10  and  C7_12 
REMARK    4  A    between atoms: C7_12  and  C8_13 
REMARK    5  A    between atoms: C8_13  and  N2_14 
REMARK    6  A    between atoms: C9_18  and  O3_19 
REMARK    7  A    between atoms: C10_21  and  C11_22 
REMARK    8  A    between atoms: C12_24  and  C13_25 
REMARK    9  A    between atoms: C13_25  and  S1_26 
REMARK   10  A    between atoms: S1_26  and  C14_27 
REMARK   11  A    between atoms: C20_33  and  O5_34 
REMARK   12  A    between atoms: C21_36  and  O6_37 
ROOT
HETATM    1  C1  UNL     1     -32.512  27.854  28.859  1.00  0.00     0.017 C 
HETATM    2  C2  UNL     1     -32.202  27.870  30.024  1.00  0.00    -0.049 C 
HETATM    3  C3  UNL     1     -31.833  27.868  31.461  1.00  0.00     0.231 C 
HETATM    4  C4  UNL     1     -32.250  26.523  32.020  1.00  0.00     0.111 C 
HETATM    5  C5  UNL     1     -31.023  25.617  31.911  1.00  0.00     0.121 C 
HETATM    6  C9  UNL     1     -30.005  26.121  32.904  1.00  0.00     0.172 C 
HETATM    7  C10 UNL     1     -29.867  27.601  32.664  1.00  0.00     0.188 C 
HETATM    8  O7  UNL     1     -30.473  28.059  31.517  1.00  0.00    -0.334 OA
ENDROOT
BRANCH   3   9
HETATM    9  O1  UNL     1     -32.552  28.911  32.037  1.00  0.00    -0.355 OA
ATOM     10  H1  UNL     1     -32.614  28.701  32.961  1.00  0.00     0.214 HD
ENDBRANCH   3   9
BRANCH   5  11
HETATM   11  N1  UNL     1     -31.339  24.240  32.030  1.00  0.00    -0.354 N 
HETATM   12  C6  UNL     1     -31.364  23.314  30.957  1.00  0.00     0.219 C 
HETATM   13  O2  UNL     1     -31.096  23.655  29.764  1.00  0.00    -0.274 OA
ATOM     14  H1  UNL     1     -31.566  23.889  32.961  1.00  0.00     0.163 HD
BRANCH  12  15
HETATM   15  C7  UNL     1     -31.705  21.886  31.165  1.00  0.00     0.130 C 
BRANCH  15  16
HETATM   16  C8  UNL     1     -31.571  21.094  29.902  1.00  0.00     0.238 C 
BRANCH  16  17
HETATM   17  N2  UNL     1     -30.205  20.648  29.707  1.00  0.00    -0.079 N 
ATOM     18  H23 UNL     1     -29.541  21.415  29.816  1.00  0.00     0.274 HD
ATOM     19  H22 UNL     1     -29.889  20.058  30.476  1.00  0.00     0.274 HD
ATOM     20  H21 UNL     1     -30.096  20.181  28.806  1.00  0.00     0.274 HD
ENDBRANCH  16  17
ENDBRANCH  15  16
ENDBRANCH  12  15
ENDBRANCH   5  11
BRANCH   7  21
HETATM   21  C11 UNL     1     -28.411  28.027  32.628  1.00  0.00     0.185 C 
HETATM   22  O4  UNL     1     -27.841  27.803  33.852  1.00  0.00    -0.372 OA
HETATM   23  C12 UNL     1     -26.882  28.789  34.080  1.00  0.00     0.163 C 
HETATM   24  C20 UNL     1     -27.487  30.041  33.466  1.00  0.00     0.179 C 
HETATM   25  C21 UNL     1     -28.206  29.460  32.285  1.00  0.00     0.181 C 
BRANCH  23  26
HETATM   26  C13 UNL     1     -26.773  29.008  35.563  1.00  0.00     0.114 C 
BRANCH  26  27
HETATM   27  S1  UNL     1     -25.083  29.288  36.122  1.00  0.00    -0.127 SA
BRANCH  27  28
HETATM   28  C14 UNL     1     -23.928  28.201  35.349  1.00  0.00     0.000 A 
HETATM   29  C15 UNL     1     -23.835  28.132  33.964  1.00  0.00     0.018 A 
HETATM   30  C16 UNL     1     -22.940  27.291  33.335  1.00  0.00     0.001 A 
HETATM   31  C17 UNL     1     -22.100  26.483  34.073  1.00  0.00     0.000 A 
HETATM   32  C18 UNL     1     -22.188  26.548  35.447  1.00  0.00     0.001 A 
HETATM   33  C19 UNL     1     -23.081  27.386  36.081  1.00  0.00     0.018 A 
ENDBRANCH  27  28
ENDBRANCH  26  27
ENDBRANCH  23  26
BRANCH  24  34
HETATM   34  O5  UNL     1     -26.457  30.890  33.087  1.00  0.00    -0.390 OA
ATOM     35  H5  UNL     1     -25.755  30.367  32.716  1.00  0.00     0.210 HD
ENDBRANCH  24  34
BRANCH  25  36
HETATM   36  O6  UNL     1     -27.363  29.632  31.179  1.00  0.00    -0.390 OA
ATOM     37  H6  UNL     1     -26.986  30.503  31.141  1.00  0.00     0.210 HD
ENDBRANCH  25  36
ENDBRANCH   7  21
BRANCH   6  38
HETATM   38  O3  UNL     1     -28.845  25.405  32.737  1.00  0.00    -0.391 OA
ATOM     39  H3  UNL     1     -29.066  24.482  32.688  1.00  0.00     0.210 HD
ENDBRANCH   6  38
TORSDOF 12
ENDMDL
MODEL 3
REMARK VINA RESULT: -6.797821957      3.048      4.469
REMARK  12 active torsions:
REMARK  status: ('A' for Active; 'I' for Inactive)
REMARK    1  A    between atoms: C3_3  and  O1_4 
REMARK    2  A    between atoms: C5_7  and  N1_8 
REMARK       I    between atoms: N1_8  and  C6_10 
REMARK    3  A    between atoms: C6_10  and  C7_12 
REMARK    4  A    between atoms: C7_12  and  C8_13 
REMARK    5  A    between atoms: C8_13  and  N2_14 
REMARK    6  A    between atoms: C9_18  and  O3_19 
REMARK    7  A    between atoms: C10_21  and  C11_22 
REMARK    8  A    between atoms: C12_24  and  C13_25 
REMARK    9  A    between atoms: C13_25  and  S1_26 
REMARK   10  A    between atoms: S1_26  and  C14_27 
REMARK   11  A    between atoms: C20_33  and  O5_34 
REMARK   12  A    between atoms: C21_36  and  O6_37 
ROOT
HETATM    1  C1  UNL     1     -33.655  32.291  30.208  1.00  0.00     0.017 C 
HETATM    2  C2  UNL     1     -32.455  32.187  30.147  1.00  0.00    -0.049 C 
HETATM    3  C3  UNL     1     -30.978  32.083  30.060  1.00  0.00     0.231 C 
HETATM    4  C4  UNL     1     -30.471  33.422  29.565  1.00  0.00     0.111 C 
HETATM    5  C5  UNL     1     -30.139  34.241  30.813  1.00  0.00     0.121 C 
HETATM    6  C9  UNL     1     -28.926  33.610  31.452  1.00  0.00     0.172 C 
HETATM    7  C10 UNL     1     -29.224  32.139  31.577  1.00  0.00     0.188 C 
HETATM    8  O7  UNL     1     -30.531  31.791  31.326  1.00  0.00    -0.334 OA
ENDROOT
BRANCH   3   9
HETATM    9  O1  UNL     1     -30.725  31.066  29.146  1.00  0.00    -0.355 OA
ATOM     10  H1  UNL     1     -30.771  30.256  29.642  1.00  0.00     0.214 HD
ENDBRANCH   3   9
BRANCH   5  11
HETATM   11  N1  UNL     1     -30.017  35.628  30.548  1.00  0.00    -0.354 N 
HETATM   12  C6  UNL     1     -30.355  36.663  31.457  1.00  0.00     0.219 C 
HETATM   13  O2  UNL     1     -30.808  36.421  32.618  1.00  0.00    -0.274 OA
ATOM     14  H1  UNL     1     -29.659  35.903  29.634  1.00  0.00     0.163 HD
BRANCH  12  15
HETATM   15  C7  UNL     1     -30.198  38.094  31.104  1.00  0.00     0.130 C 
BRANCH  15  16
HETATM   16  C8  UNL     1     -30.628  38.992  32.222  1.00  0.00     0.238 C 
BRANCH  16  17
HETATM   17  N2  UNL     1     -32.073  39.087  32.290  1.00  0.00    -0.079 N 
ATOM     18  H23 UNL     1     -32.523  38.385  31.701  1.00  0.00     0.274 HD
ATOM     19  H22 UNL     1     -32.427  38.779  33.196  1.00  0.00     0.274 HD
ATOM     20  H21 UNL     1     -32.391  40.029  32.062  1.00  0.00     0.274 HD
ENDBRANCH  16  17
ENDBRANCH  15  16
ENDBRANCH  12  15
ENDBRANCH   5  11
BRANCH   7  21
HETATM   21  C11 UNL     1     -28.852  31.610  32.950  1.00  0.00     0.185 C 
HETATM   22  O4  UNL     1     -27.520  31.301  32.974  1.00  0.00    -0.372 OA
HETATM   23  C12 UNL     1     -27.334  30.209  33.820  1.00  0.00     0.163 C 
HETATM   24  C20 UNL     1     -28.562  29.346  33.583  1.00  0.00     0.179 C 
HETATM   25  C21 UNL     1     -29.609  30.396  33.358  1.00  0.00     0.181 C 
BRANCH  23  26
HETATM   26  C13 UNL     1     -26.132  29.441  33.344  1.00  0.00     0.114 C 
BRANCH  26  27
HETATM   27  S1  UNL     1     -25.274  28.566  34.665  1.00  0.00    -0.127 SA
BRANCH  27  28
HETATM   28  C14 UNL     1     -23.770  27.823  34.117  1.00  0.00     0.000 A 
HETATM   29  C15 UNL     1     -23.447  27.789  32.765  1.00  0.00     0.018 A 
HETATM   30  C16 UNL     1     -22.279  27.214  32.311  1.00  0.00     0.001 A 
HETATM   31  C17 UNL     1     -21.384  26.648  33.197  1.00  0.00     0.000 A 
HETATM   32  C18 UNL     1     -21.701  26.680  34.538  1.00  0.00     0.001 A 
HETATM   33  C19 UNL     1     -22.868  27.253  34.998  1.00  0.00     0.018 A 
ENDBRANCH  27  28
ENDBRANCH  26  27
ENDBRANCH  23  26
BRANCH  24  34
HETATM   34  O5  UNL     1     -28.805  28.599  34.727  1.00  0.00    -0.390 OA
ATOM     35  H5  UNL     1     -29.724  28.683  34.954  1.00  0.00     0.210 HD
ENDBRANCH  24  34
BRANCH  25  36
HETATM   36  O6  UNL     1     -30.275  30.564  34.580  1.00  0.00    -0.390 OA
ATOM     37  H6  UNL     1     -30.691  29.765  34.880  1.00  0.00     0.210 HD
ENDBRANCH  25  36
ENDBRANCH   7  21
BRANCH   6  38
HETATM   38  O3  UNL     1     -28.683  34.247  32.644  1.00  0.00    -0.391 OA
ATOM     39  H3  UNL     1     -28.082  33.715  33.152  1.00  0.00     0.210 HD
ENDBRANCH   6  38
TORSDOF 12
ENDMDL
MODEL 4
REMARK VINA RESULT: -6.766675260      2.593      3.610
REMARK  12 active torsions:
REMARK  status: ('A' for Active; 'I' for Inactive)
REMARK    1  A    between atoms: C3_3  and  O1_4 
REMARK    2  A    between atoms: C5_7  and  N1_8 
REMARK       I    between atoms: N1_8  and  C6_10 
REMARK    3  A    between atoms: C6_10  and  C7_12 
REMARK    4  A    between atoms: C7_12  and  C8_13 
REMARK    5  A    between atoms: C8_13  and  N2_14 
REMARK    6  A    between atoms: C9_18  and  O3_19 
REMARK    7  A    between atoms: C10_21  and  C11_22 
REMARK    8  A    between atoms: C12_24  and  C13_25 
REMARK    9  A    between atoms: C13_25  and  S1_26 
REMARK   10  A    between atoms: S1_26  and  C14_27 
REMARK   11  A    between atoms: C20_33  and  O5_34 
REMARK   12  A    between atoms: C21_36  and  O6_37 
ROOT
HETATM    1  C1  UNL     1     -31.610  30.348  28.612  1.00  0.00     0.017 C 
HETATM    2  C2  UNL     1     -30.651  30.818  29.172  1.00  0.00    -0.049 C 
HETATM    3  C3  UNL     1     -29.476  31.420  29.849  1.00  0.00     0.231 C 
HETATM    4  C4  UNL     1     -29.562  32.917  29.632  1.00  0.00     0.111 C 
HETATM    5  C5  UNL     1     -30.299  33.482  30.846  1.00  0.00     0.121 C 
HETATM    6  C9  UNL     1     -29.378  33.342  32.033  1.00  0.00     0.172 C 
HETATM    7  C10 UNL     1     -28.904  31.912  32.043  1.00  0.00     0.188 C 
HETATM    8  O7  UNL     1     -29.572  31.077  31.176  1.00  0.00    -0.334 OA
ENDROOT
BRANCH   3   9
HETATM    9  O1  UNL     1     -28.360  30.871  29.226  1.00  0.00    -0.355 OA
ATOM     10  H1  UNL     1     -27.628  31.423  29.476  1.00  0.00     0.214 HD
ENDBRANCH   3   9
BRANCH   5  11
HETATM   11  N1  UNL     1     -30.796  34.792  30.631  1.00  0.00    -0.354 N 
HETATM   12  C6  UNL     1     -32.067  35.101  30.083  1.00  0.00     0.219 C 
HETATM   13  O2  UNL     1     -32.887  34.200  29.729  1.00  0.00    -0.274 OA
ATOM     14  H1  UNL     1     -30.193  35.573  30.892  1.00  0.00     0.163 HD
BRANCH  12  15
HETATM   15  C7  UNL     1     -32.515  36.501  29.890  1.00  0.00     0.130 C 
BRANCH  15  16
HETATM   16  C8  UNL     1     -33.149  37.057  31.127  1.00  0.00     0.238 C 
BRANCH  16  17
HETATM   17  N2  UNL     1     -34.320  36.290  31.503  1.00  0.00    -0.079 N 
ATOM     18  H23 UNL     1     -35.163  36.865  31.500  1.00  0.00     0.274 HD
ATOM     19  H22 UNL     1     -34.584  35.625  30.775  1.00  0.00     0.274 HD
ATOM     20  H21 UNL     1     -34.184  35.827  32.402  1.00  0.00     0.274 HD
ENDBRANCH  16  17
ENDBRANCH  15  16
ENDBRANCH  12  15
ENDBRANCH   5  11
BRANCH   7  21
HETATM   21  C11 UNL     1     -28.983  31.308  33.432  1.00  0.00     0.185 C 
HETATM   22  O4  UNL     1     -27.768  30.775  33.767  1.00  0.00    -0.372 OA
HETATM   23  C12 UNL     1     -27.982  29.655  34.569  1.00  0.00     0.163 C 
HETATM   24  C20 UNL     1     -29.233  29.018  33.987  1.00  0.00     0.179 C 
HETATM   25  C21 UNL     1     -30.005  30.235  33.570  1.00  0.00     0.181 C 
BRANCH  23  26
HETATM   26  C13 UNL     1     -26.840  28.700  34.361  1.00  0.00     0.114 C 
BRANCH  26  27
HETATM   27  S1  UNL     1     -25.481  28.949  35.519  1.00  0.00    -0.127 SA
BRANCH  27  28
HETATM   28  C14 UNL     1     -24.049  28.012  35.090  1.00  0.00     0.000 A 
HETATM   29  C15 UNL     1     -23.710  27.802  33.759  1.00  0.00     0.018 A 
HETATM   30  C16 UNL     1     -22.596  27.074  33.397  1.00  0.00     0.001 A 
HETATM   31  C17 UNL     1     -21.773  26.526  34.360  1.00  0.00     0.000 A 
HETATM   32  C18 UNL     1     -22.105  26.732  35.682  1.00  0.00     0.001 A 
HETATM   33  C19 UNL     1     -23.218  27.458  36.050  1.00  0.00     0.018 A 
ENDBRANCH  27  28
ENDBRANCH  26  27
ENDBRANCH  23  26
BRANCH  24  34
HETATM   34  O5  UNL     1     -29.876  28.308  34.990  1.00  0.00    -0.390 OA
ATOM     35  H5  UNL     1     -29.597  27.400  34.945  1.00  0.00     0.210 HD
ENDBRANCH  24  34
BRANCH  25  36
HETATM   36  O6  UNL     1     -30.923  30.497  34.597  1.00  0.00    -0.390 OA
ATOM     37  H6  UNL     1     -31.744  30.846  34.270  1.00  0.00     0.210 HD
ENDBRANCH  25  36
ENDBRANCH   7  21
BRANCH   6  38
HETATM   38  O3  UNL     1     -30.062  33.724  33.161  1.00  0.00    -0.391 OA
ATOM     39  H3  UNL     1     -29.513  34.318  33.659  1.00  0.00     0.210 HD
ENDBRANCH   6  38
TORSDOF 12
ENDMDL
MODEL 5
REMARK VINA RESULT: -6.744398777      2.875      4.142
REMARK  12 active torsions:
REMARK  status: ('A' for Active; 'I' for Inactive)
REMARK    1  A    between atoms: C3_3  and  O1_4 
REMARK    2  A    between atoms: C5_7  and  N1_8 
REMARK       I    between atoms: N1_8  and  C6_10 
REMARK    3  A    between atoms: C6_10  and  C7_12 
REMARK    4  A    between atoms: C7_12  and  C8_13 
REMARK    5  A    between atoms: C8_13  and  N2_14 
REMARK    6  A    between atoms: C9_18  and  O3_19 
REMARK    7  A    between atoms: C10_21  and  C11_22 
REMARK    8  A    between atoms: C12_24  and  C13_25 
REMARK    9  A    between atoms: C13_25  and  S1_26 
REMARK   10  A    between atoms: S1_26  and  C14_27 
REMARK   11  A    between atoms: C20_33  and  O5_34 
REMARK   12  A    between atoms: C21_36  and  O6_37 
ROOT
HETATM    1  C1  UNL     1     -31.431  32.101  27.665  1.00  0.00     0.017 C 
HETATM    2  C2  UNL     1     -30.510  32.110  28.442  1.00  0.00    -0.049 C 
HETATM    3  C3  UNL     1     -29.372  32.146  29.393  1.00  0.00     0.231 C 
HETATM    4  C4  UNL     1     -29.000  33.603  29.578  1.00  0.00     0.111 C 
HETATM    5  C5  UNL     1     -29.778  34.089  30.802  1.00  0.00     0.121 C 
HETATM    6  C9  UNL     1     -29.182  33.409  32.010  1.00  0.00     0.172 C 
HETATM    7  C10 UNL     1     -29.129  31.938  31.691  1.00  0.00     0.188 C 
HETATM    8  O7  UNL     1     -29.816  31.568  30.557  1.00  0.00    -0.334 OA
ENDROOT
BRANCH   3   9
HETATM    9  O1  UNL     1     -28.349  31.426  28.785  1.00  0.00    -0.355 OA
ATOM     10  H1  UNL     1     -27.633  31.417  29.410  1.00  0.00     0.214 HD
ENDBRANCH   3   9
BRANCH   5  11
HETATM   11  N1  UNL     1     -29.845  35.503  30.889  1.00  0.00    -0.354 N 
HETATM   12  C6  UNL     1     -31.042  36.263  30.883  1.00  0.00     0.219 C 
HETATM   13  O2  UNL     1     -32.186  35.720  30.796  1.00  0.00    -0.274 OA
ATOM     14  H1  UNL     1     -28.964  36.012  30.962  1.00  0.00     0.163 HD
BRANCH  12  15
HETATM   15  C7  UNL     1     -31.028  37.742  30.979  1.00  0.00     0.130 C 
BRANCH  15  16
HETATM   16  C8  UNL     1     -30.921  38.206  32.398  1.00  0.00     0.238 C 
BRANCH  16  17
HETATM   17  N2  UNL     1     -32.095  37.829  33.161  1.00  0.00    -0.079 N 
ATOM     18  H23 UNL     1     -32.955  38.108  32.688  1.00  0.00     0.274 HD
ATOM     19  H22 UNL     1     -32.237  36.819  33.158  1.00  0.00     0.274 HD
ATOM     20  H21 UNL     1     -32.051  38.199  34.111  1.00  0.00     0.274 HD
ENDBRANCH  16  17
ENDBRANCH  15  16
ENDBRANCH  12  15
ENDBRANCH   5  11
BRANCH   7  21
HETATM   21  C11 UNL     1     -29.642  31.098  32.846  1.00  0.00     0.185 C 
HETATM   22  O4  UNL     1     -28.719  31.100  33.855  1.00  0.00    -0.372 OA
HETATM   23  C12 UNL     1     -28.768  29.866  34.502  1.00  0.00     0.163 C 
HETATM   24  C20 UNL     1     -29.032  28.873  33.382  1.00  0.00     0.179 C 
HETATM   25  C21 UNL     1     -29.925  29.682  32.489  1.00  0.00     0.181 C 
BRANCH  23  26
HETATM   26  C13 UNL     1     -27.406  29.573  35.066  1.00  0.00     0.114 C 
BRANCH  26  27
HETATM   27  S1  UNL     1     -26.137  29.374  33.802  1.00  0.00    -0.127 SA
BRANCH  27  28
HETATM   28  C14 UNL     1     -24.751  28.446  34.377  1.00  0.00     0.000 A 
HETATM   29  C15 UNL     1     -24.440  28.399  35.731  1.00  0.00     0.018 A 
HETATM   30  C16 UNL     1     -23.363  27.682  36.207  1.00  0.00     0.001 A 
HETATM   31  C17 UNL     1     -22.551  26.978  35.340  1.00  0.00     0.000 A 
HETATM   32  C18 UNL     1     -22.855  27.021  33.996  1.00  0.00     0.001 A 
HETATM   33  C19 UNL     1     -23.931  27.738  33.515  1.00  0.00     0.018 A 
ENDBRANCH  27  28
ENDBRANCH  26  27
ENDBRANCH  23  26
BRANCH  24  34
HETATM   34  O5  UNL     1     -29.683  27.769  33.914  1.00  0.00    -0.390 OA
ATOM     35  H5  UNL     1     -29.674  27.072  33.267  1.00  0.00     0.210 HD
ENDBRANCH  24  34
BRANCH  25  36
HETATM   36  O6  UNL     1     -31.240  29.304  32.791  1.00  0.00    -0.390 OA
ATOM     37  H6  UNL     1     -31.341  28.362  32.860  1.00  0.00     0.210 HD
ENDBRANCH  25  36
ENDBRANCH   7  21
BRANCH   6  38
HETATM   38  O3  UNL     1     -29.944  33.728  33.107  1.00  0.00    -0.391 OA
ATOM     39  H3  UNL     1     -30.140  32.928  33.580  1.00  0.00     0.210 HD
ENDBRANCH   6  38
TORSDOF 12
ENDMDL
