MODEL 1
REMARK VINA RESULT: -8.862323285      0.000      0.000
REMARK  6 active torsions:
REMARK  status: ('A' for Active; 'I' for Inactive)
REMARK    1  A    between atoms: O1_2  and  C2_3 
REMARK    2  A    between atoms: C5_6  and  N1_7 
REMARK    3  A    between atoms: N1_7  and  N2_9 
REMARK    4  A    between atoms: C6_11  and  C7_13 
REMARK    5  A    between atoms: N9_23  and  N10_25 
REMARK    6  A    between atoms: C12_33  and  O3_34 
ROOT
HETATM    1  C2  UNL     1       7.694  -4.989 -23.391  1.00  0.00     0.102 A 
HETATM    2  C3  UNL     1       6.509  -4.324 -23.075  1.00  0.00     0.057 A 
HETATM    3  C4  UNL     1       5.731  -3.797 -24.083  1.00  0.00     0.046 A 
HETATM    4  C5  UNL     1       4.551  -3.133 -23.795  1.00  0.00     0.136 A 
HETATM    5  N8  UNL     1       3.851  -2.648 -24.880  1.00  0.00    -0.305 N 
ATOM      6  H8  UNL     1       2.973  -2.149 -24.740  1.00  0.00     0.171 HD
HETATM    7  C8  UNL     1       4.323  -2.831 -26.103  1.00  0.00     0.245 A 
HETATM    8  N9  UNL     1       3.630  -2.353 -27.119  1.00  0.00    -0.263 N 
ATOM      9  H9  UNL     1       2.755  -1.856 -26.956  1.00  0.00     0.190 HD
HETATM   10  O2  UNL     1       5.441  -3.461 -26.348  1.00  0.00    -0.277 OA
HETATM   11  C10 UNL     1       6.174  -3.958 -25.388  1.00  0.00     0.096 A 
HETATM   12  C11 UNL     1       7.368  -4.629 -25.684  1.00  0.00     0.077 A 
HETATM   13  C12 UNL     1       8.144  -5.154 -24.679  1.00  0.00     0.101 A 
ENDROOT
BRANCH   4  14
HETATM   14  N1  UNL     1       4.066  -2.935 -22.665  1.00  0.00    -0.283 N 
ATOM     15  H1  UNL     1       4.404  -2.028 -22.342  1.00  0.00     0.188 HD
BRANCH  14  16
HETATM   16  N2  UNL     1       3.289  -3.430 -21.716  1.00  0.00    -0.283 N 
HETATM   17  C6  UNL     1       3.573  -3.342 -20.455  1.00  0.00     0.177 C 
HETATM   18  N3  UNL     1       2.637  -3.925 -19.558  1.00  0.00    -0.077 NA
ATOM     19  H2  UNL     1       2.427  -3.902 -21.989  1.00  0.00     0.188 HD
BRANCH  17  20
HETATM   20  C7  UNL     1       4.751  -2.705 -19.936  1.00  0.00     0.174 A 
HETATM   21  N4  UNL     1       5.970  -3.235 -19.806  1.00  0.00    -0.268 N 
HETATM   22  N5  UNL     1       6.793  -2.313 -19.281  1.00  0.00    -0.007 NA
ATOM     23  H4  UNL     1       6.234  -4.185 -20.064  1.00  0.00     0.185 HD
HETATM   24  N6  UNL     1       6.091  -1.211 -19.084  1.00  0.00    -0.007 NA
HETATM   25  N7  UNL     1       4.839  -1.451 -19.485  1.00  0.00    -0.268 N 
ATOM     26  H7  UNL     1       4.071  -0.781 -19.452  1.00  0.00     0.185 HD
ENDBRANCH  17  20
ENDBRANCH  14  16
ENDBRANCH   4  14
BRANCH   1  27
HETATM   27  O1  UNL     1       8.477  -5.518 -22.374  1.00  0.00    -0.353 OA
HETATM   28  C1  UNL     1       9.254  -4.639 -21.587  1.00  0.00     0.210 C 
ENDBRANCH   1  27
BRANCH   8  29
HETATM   29  N10 UNL     1       4.105  -2.533 -28.416  1.00  0.00    -0.273 N 
HETATM   30  C9  UNL     1       4.381  -1.493 -29.115  1.00  0.00     0.215 C 
HETATM   31  N11 UNL     1       4.863  -1.652 -30.431  1.00  0.00    -0.065 NA
HETATM   32  N12 UNL     1       4.212  -0.188 -28.600  1.00  0.00    -0.065 NA
ATOM     33  H10 UNL     1       4.231  -3.470 -28.801  1.00  0.00     0.189 HD
ENDBRANCH   8  29
BRANCH  13  34
HETATM   34  O3  UNL     1       9.340  -5.829 -24.964  1.00  0.00    -0.358 OA
ATOM     35  H3  UNL     1       9.521  -6.186 -25.825  1.00  0.00     0.217 HD
ENDBRANCH  13  34
TORSDOF 6
ENDMDL
MODEL 2
REMARK VINA RESULT: -8.819644500      3.791      7.268
REMARK  6 active torsions:
REMARK  status: ('A' for Active; 'I' for Inactive)
REMARK    1  A    between atoms: O1_2  and  C2_3 
REMARK    2  A    between atoms: C5_6  and  N1_7 
REMARK    3  A    between atoms: N1_7  and  N2_9 
REMARK    4  A    between atoms: C6_11  and  C7_13 
REMARK    5  A    between atoms: N9_23  and  N10_25 
REMARK    6  A    between atoms: C12_33  and  O3_34 
ROOT
HETATM    1  C2  UNL     1       4.856  -2.480 -27.708  1.00  0.00     0.102 A 
HETATM    2  C3  UNL     1       5.894  -3.181 -27.093  1.00  0.00     0.057 A 
HETATM    3  C4  UNL     1       5.901  -3.330 -25.723  1.00  0.00     0.046 A 
HETATM    4  C5  UNL     1       6.920  -4.021 -25.090  1.00  0.00     0.136 A 
HETATM    5  N8  UNL     1       6.826  -4.110 -23.717  1.00  0.00    -0.305 N 
ATOM      6  H8  UNL     1       7.542  -4.606 -23.187  1.00  0.00     0.171 HD
HETATM    7  C8  UNL     1       5.804  -3.550 -23.089  1.00  0.00     0.245 A 
HETATM    8  N9  UNL     1       5.745  -3.652 -21.775  1.00  0.00    -0.263 N 
ATOM      9  H9  UNL     1       6.473  -4.151 -21.264  1.00  0.00     0.190 HD
HETATM   10  O2  UNL     1       4.855  -2.902 -23.710  1.00  0.00    -0.277 OA
HETATM   11  C10 UNL     1       4.854  -2.764 -25.009  1.00  0.00     0.096 A 
HETATM   12  C11 UNL     1       3.821  -2.064 -25.646  1.00  0.00     0.077 A 
HETATM   13  C12 UNL     1       3.814  -1.914 -27.011  1.00  0.00     0.101 A 
ENDROOT
BRANCH   4  14
HETATM   14  N1  UNL     1       7.900  -4.564 -25.634  1.00  0.00    -0.283 N 
ATOM     15  H1  UNL     1       8.666  -4.556 -24.961  1.00  0.00     0.188 HD
BRANCH  14  16
HETATM   16  N2  UNL     1       8.344  -5.146 -26.735  1.00  0.00    -0.283 N 
HETATM   17  C6  UNL     1       8.907  -6.313 -26.737  1.00  0.00     0.177 C 
HETATM   18  N3  UNL     1       9.332  -6.802 -28.002  1.00  0.00    -0.077 NA
ATOM     19  H2  UNL     1       8.240  -4.654 -27.622  1.00  0.00     0.188 HD
BRANCH  17  20
HETATM   20  C7  UNL     1       9.116  -7.110 -25.561  1.00  0.00     0.174 A 
HETATM   21  N4  UNL     1       9.021  -6.719 -24.288  1.00  0.00    -0.268 N 
HETATM   22  N5  UNL     1       9.292  -7.763 -23.489  1.00  0.00    -0.007 NA
ATOM     23  H4  UNL     1       8.782  -5.778 -23.973  1.00  0.00     0.185 HD
HETATM   24  N6  UNL     1       9.554  -8.803 -24.259  1.00  0.00    -0.007 NA
HETATM   25  N7  UNL     1       9.447  -8.404 -25.530  1.00  0.00    -0.268 N 
ATOM     26  H7  UNL     1       9.594  -8.994 -26.348  1.00  0.00     0.185 HD
ENDBRANCH  17  20
ENDBRANCH  14  16
ENDBRANCH   4  14
BRANCH   1  27
HETATM   27  O1  UNL     1       4.851  -2.330 -29.088  1.00  0.00    -0.353 OA
HETATM   28  C1  UNL     1       6.040  -2.587 -29.803  1.00  0.00     0.210 C 
ENDBRANCH   1  27
BRANCH   8  29
HETATM   29  N10 UNL     1       4.679  -3.072 -21.091  1.00  0.00    -0.273 N 
HETATM   30  C9  UNL     1       4.846  -2.751 -19.860  1.00  0.00     0.215 C 
HETATM   31  N11 UNL     1       3.781  -2.162 -19.147  1.00  0.00    -0.065 NA
HETATM   32  N12 UNL     1       6.074  -2.972 -19.196  1.00  0.00    -0.065 NA
ATOM     33  H10 UNL     1       3.787  -2.906 -21.558  1.00  0.00     0.189 HD
ENDBRANCH   8  29
BRANCH  13  34
HETATM   34  O3  UNL     1       2.785  -1.216 -27.660  1.00  0.00    -0.358 OA
ATOM     35  H3  UNL     1       1.903  -1.182 -27.306  1.00  0.00     0.217 HD
ENDBRANCH  13  34
TORSDOF 6
ENDMDL
MODEL 3
REMARK VINA RESULT: -8.712054539      3.289      7.571
REMARK  6 active torsions:
REMARK  status: ('A' for Active; 'I' for Inactive)
REMARK    1  A    between atoms: O1_2  and  C2_3 
REMARK    2  A    between atoms: C5_6  and  N1_7 
REMARK    3  A    between atoms: N1_7  and  N2_9 
REMARK    4  A    between atoms: C6_11  and  C7_13 
REMARK    5  A    between atoms: N9_23  and  N10_25 
REMARK    6  A    between atoms: C12_33  and  O3_34 
ROOT
HETATM    1  C2  UNL     1       4.871  -1.772 -28.027  1.00  0.00     0.102 A 
HETATM    2  C3  UNL     1       5.847  -2.356 -27.219  1.00  0.00     0.057 A 
HETATM    3  C4  UNL     1       5.527  -2.751 -25.938  1.00  0.00     0.046 A 
HETATM    4  C5  UNL     1       6.477  -3.332 -25.117  1.00  0.00     0.136 A 
HETATM    5  N8  UNL     1       6.048  -3.690 -23.856  1.00  0.00    -0.305 N 
ATOM      6  H8  UNL     1       6.697  -4.124 -23.199  1.00  0.00     0.171 HD
HETATM    7  C8  UNL     1       4.792  -3.468 -23.500  1.00  0.00     0.245 A 
HETATM    8  N9  UNL     1       4.414  -3.821 -22.287  1.00  0.00    -0.263 N 
ATOM      9  H9  UNL     1       5.079  -4.252 -21.645  1.00  0.00     0.190 HD
HETATM   10  O2  UNL     1       3.914  -2.917 -24.295  1.00  0.00    -0.277 OA
HETATM   11  C10 UNL     1       4.224  -2.545 -25.507  1.00  0.00     0.096 A 
HETATM   12  C11 UNL     1       3.259  -1.957 -26.336  1.00  0.00     0.077 A 
HETATM   13  C12 UNL     1       3.577  -1.562 -27.612  1.00  0.00     0.101 A 
ENDROOT
BRANCH   4  14
HETATM   14  N1  UNL     1       7.668  -3.561 -25.403  1.00  0.00    -0.283 N 
ATOM     15  H1  UNL     1       7.836  -4.554 -25.243  1.00  0.00     0.188 HD
BRANCH  14  16
HETATM   16  N2  UNL     1       8.801  -3.031 -25.833  1.00  0.00    -0.283 N 
HETATM   17  C6  UNL     1       9.444  -3.482 -26.864  1.00  0.00     0.177 C 
HETATM   18  N3  UNL     1      10.648  -2.804 -27.198  1.00  0.00    -0.077 NA
ATOM     19  H2  UNL     1       9.187  -2.232 -25.329  1.00  0.00     0.188 HD
BRANCH  17  20
HETATM   20  C7  UNL     1       9.012  -4.597 -27.658  1.00  0.00     0.174 A 
HETATM   21  N4  UNL     1       8.069  -4.606 -28.602  1.00  0.00    -0.268 N 
HETATM   22  N5  UNL     1       7.967  -5.845 -29.108  1.00  0.00    -0.007 NA
ATOM     23  H4  UNL     1       7.514  -3.801 -28.893  1.00  0.00     0.185 HD
HETATM   24  N6  UNL     1       8.845  -6.609 -28.482  1.00  0.00    -0.007 NA
HETATM   25  N7  UNL     1       9.486  -5.845 -27.592  1.00  0.00    -0.268 N 
ATOM     26  H7  UNL     1      10.221  -6.164 -26.962  1.00  0.00     0.185 HD
ENDBRANCH  17  20
ENDBRANCH  14  16
ENDBRANCH   4  14
BRANCH   1  27
HETATM   27  O1  UNL     1       5.195  -1.374 -29.317  1.00  0.00    -0.353 OA
HETATM   28  C1  UNL     1       5.898  -2.273 -30.149  1.00  0.00     0.210 C 
ENDBRANCH   1  27
BRANCH   8  29
HETATM   29  N10 UNL     1       3.098  -3.599 -21.889  1.00  0.00    -0.273 N 
HETATM   30  C9  UNL     1       2.841  -3.545 -20.632  1.00  0.00     0.215 C 
HETATM   31  N11 UNL     1       1.515  -3.321 -20.207  1.00  0.00    -0.065 NA
HETATM   32  N12 UNL     1       3.854  -3.704 -19.661  1.00  0.00    -0.065 NA
ATOM     33  H10 UNL     1       2.356  -3.483 -22.579  1.00  0.00     0.189 HD
ENDBRANCH   8  29
BRANCH  13  34
HETATM   34  O3  UNL     1       2.619  -0.973 -28.451  1.00  0.00    -0.358 OA
ATOM     35  H3  UNL     1       2.778  -0.842 -29.378  1.00  0.00     0.217 HD
ENDBRANCH  13  34
TORSDOF 6
ENDMDL
MODEL 4
REMARK VINA RESULT: -8.675002919      1.644      6.739
REMARK  6 active torsions:
REMARK  status: ('A' for Active; 'I' for Inactive)
REMARK    1  A    between atoms: O1_2  and  C2_3 
REMARK    2  A    between atoms: C5_6  and  N1_7 
REMARK    3  A    between atoms: N1_7  and  N2_9 
REMARK    4  A    between atoms: C6_11  and  C7_13 
REMARK    5  A    between atoms: N9_23  and  N10_25 
REMARK    6  A    between atoms: C12_33  and  O3_34 
ROOT
HETATM    1  C2  UNL     1       8.173  -5.827 -26.087  1.00  0.00     0.102 A 
HETATM    2  C3  UNL     1       7.202  -4.897 -26.457  1.00  0.00     0.057 A 
HETATM    3  C4  UNL     1       6.519  -4.198 -25.486  1.00  0.00     0.046 A 
HETATM    4  C5  UNL     1       5.551  -3.269 -25.828  1.00  0.00     0.136 A 
HETATM    5  N8  UNL     1       4.931  -2.628 -24.777  1.00  0.00    -0.305 N 
ATOM      6  H8  UNL     1       4.209  -1.931 -24.957  1.00  0.00     0.171 HD
HETATM    7  C8  UNL     1       5.276  -2.919 -23.532  1.00  0.00     0.245 A 
HETATM    8  N9  UNL     1       4.663  -2.289 -22.549  1.00  0.00    -0.263 N 
ATOM      9  H9  UNL     1       3.942  -1.596 -22.752  1.00  0.00     0.190 HD
HETATM   10  O2  UNL     1       6.193  -3.801 -23.235  1.00  0.00    -0.277 OA
HETATM   11  C10 UNL     1       6.837  -4.460 -24.161  1.00  0.00     0.096 A 
HETATM   12  C11 UNL     1       7.816  -5.399 -23.810  1.00  0.00     0.077 A 
HETATM   13  C12 UNL     1       8.497  -6.097 -24.778  1.00  0.00     0.101 A 
ENDROOT
BRANCH   4  14
HETATM   14  N1  UNL     1       5.191  -2.961 -26.980  1.00  0.00    -0.283 N 
ATOM     15  H1  UNL     1       6.028  -2.929 -27.563  1.00  0.00     0.188 HD
BRANCH  14  16
HETATM   16  N2  UNL     1       4.159  -2.658 -27.750  1.00  0.00    -0.283 N 
HETATM   17  C6  UNL     1       4.243  -1.843 -28.753  1.00  0.00     0.177 C 
HETATM   18  N3  UNL     1       3.044  -1.620 -29.483  1.00  0.00    -0.077 NA
ATOM     19  H2  UNL     1       3.256  -3.086 -27.544  1.00  0.00     0.188 HD
BRANCH  17  20
HETATM   20  C7  UNL     1       5.451  -1.174 -29.150  1.00  0.00     0.174 A 
HETATM   21  N4  UNL     1       6.421  -1.648 -29.935  1.00  0.00    -0.268 N 
HETATM   22  N5  UNL     1       7.376  -0.713 -30.061  1.00  0.00    -0.007 NA
ATOM     23  H4  UNL     1       6.434  -2.570 -30.369  1.00  0.00     0.185 HD
HETATM   24  N6  UNL     1       7.004   0.342 -29.357  1.00  0.00    -0.007 NA
HETATM   25  N7  UNL     1       5.824   0.059 -28.798  1.00  0.00    -0.268 N 
ATOM     26  H7  UNL     1       5.290   0.687 -28.197  1.00  0.00     0.185 HD
ENDBRANCH  17  20
ENDBRANCH  14  16
ENDBRANCH   4  14
BRANCH   1  27
HETATM   27  O1  UNL     1       8.860  -6.531 -27.067  1.00  0.00    -0.353 OA
HETATM   28  C1  UNL     1       8.780  -6.087 -28.404  1.00  0.00     0.210 C 
ENDBRANCH   1  27
BRANCH   8  29
HETATM   29  N10 UNL     1       5.008  -2.577 -21.230  1.00  0.00    -0.273 N 
HETATM   30  C9  UNL     1       4.144  -3.168 -20.488  1.00  0.00     0.215 C 
HETATM   31  N11 UNL     1       4.472  -3.471 -19.150  1.00  0.00    -0.065 NA
HETATM   32  N12 UNL     1       2.868  -3.525 -20.978  1.00  0.00    -0.065 NA
ATOM     33  H10 UNL     1       5.926  -2.325 -20.864  1.00  0.00     0.189 HD
ENDBRANCH   8  29
BRANCH  13  34
HETATM   34  O3  UNL     1       9.479  -7.039 -24.438  1.00  0.00    -0.358 OA
ATOM     35  H3  UNL     1       9.462  -7.504 -23.610  1.00  0.00     0.217 HD
ENDBRANCH  13  34
TORSDOF 6
ENDMDL
MODEL 5
REMARK VINA RESULT: -8.643082129      2.228      2.855
REMARK  6 active torsions:
REMARK  status: ('A' for Active; 'I' for Inactive)
REMARK    1  A    between atoms: O1_2  and  C2_3 
REMARK    2  A    between atoms: C5_6  and  N1_7 
REMARK    3  A    between atoms: N1_7  and  N2_9 
REMARK    4  A    between atoms: C6_11  and  C7_13 
REMARK    5  A    between atoms: N9_23  and  N10_25 
REMARK    6  A    between atoms: C12_33  and  O3_34 
ROOT
HETATM    1  C2  UNL     1       9.048  -6.898 -26.081  1.00  0.00     0.102 A 
HETATM    2  C3  UNL     1       8.278  -6.087 -25.246  1.00  0.00     0.057 A 
HETATM    3  C4  UNL     1       7.620  -4.996 -25.771  1.00  0.00     0.046 A 
HETATM    4  C5  UNL     1       6.849  -4.177 -24.964  1.00  0.00     0.136 A 
HETATM    5  N8  UNL     1       6.235  -3.114 -25.593  1.00  0.00    -0.305 N 
ATOM      6  H8  UNL     1       5.652  -2.471 -25.059  1.00  0.00     0.171 HD
HETATM    7  C8  UNL     1       6.404  -2.932 -26.894  1.00  0.00     0.245 A 
HETATM    8  N9  UNL     1       5.803  -1.906 -27.465  1.00  0.00    -0.263 N 
ATOM      9  H9  UNL     1       5.226  -1.274 -26.911  1.00  0.00     0.190 HD
HETATM   10  O2  UNL     1       7.138  -3.721 -27.634  1.00  0.00    -0.277 OA
HETATM   11  C10 UNL     1       7.759  -4.753 -27.130  1.00  0.00     0.096 A 
HETATM   12  C11 UNL     1       8.538  -5.580 -27.951  1.00  0.00     0.077 A 
HETATM   13  C12 UNL     1       9.195  -6.667 -27.428  1.00  0.00     0.101 A 
ENDROOT
BRANCH   4  14
HETATM   14  N1  UNL     1       6.660  -4.305 -23.740  1.00  0.00    -0.283 N 
ATOM     15  H1  UNL     1       7.539  -4.087 -23.270  1.00  0.00     0.188 HD
BRANCH  14  16
HETATM   16  N2  UNL     1       5.776  -4.611 -22.805  1.00  0.00    -0.283 N 
HETATM   17  C6  UNL     1       5.294  -3.737 -21.978  1.00  0.00     0.177 C 
HETATM   18  N3  UNL     1       4.353  -4.223 -21.030  1.00  0.00    -0.077 NA
ATOM     19  H2  UNL     1       5.458  -5.577 -22.733  1.00  0.00     0.188 HD
BRANCH  17  20
HETATM   20  C7  UNL     1       5.656  -2.348 -21.971  1.00  0.00     0.174 A 
HETATM   21  N4  UNL     1       5.513  -1.467 -22.964  1.00  0.00    -0.268 N 
HETATM   22  N5  UNL     1       5.974  -0.273 -22.558  1.00  0.00    -0.007 NA
ATOM     23  H4  UNL     1       5.118  -1.668 -23.882  1.00  0.00     0.185 HD
HETATM   24  N6  UNL     1       6.403  -0.407 -21.316  1.00  0.00    -0.007 NA
HETATM   25  N7  UNL     1       6.209  -1.679 -20.955  1.00  0.00    -0.268 N 
ATOM     26  H7  UNL     1       6.445  -2.077 -20.047  1.00  0.00     0.185 HD
ENDBRANCH  17  20
ENDBRANCH  14  16
ENDBRANCH   4  14
BRANCH   1  27
HETATM   27  O1  UNL     1       9.711  -7.996 -25.551  1.00  0.00    -0.353 OA
HETATM   28  C1  UNL     1       9.391  -8.416 -24.241  1.00  0.00     0.210 C 
ENDBRANCH   1  27
BRANCH   8  29
HETATM   29  N10 UNL     1       5.965  -1.693 -28.833  1.00  0.00    -0.273 N 
HETATM   30  C9  UNL     1       4.930  -1.764 -29.588  1.00  0.00     0.215 C 
HETATM   31  N11 UNL     1       5.070  -1.552 -30.975  1.00  0.00    -0.065 NA
HETATM   32  N12 UNL     1       3.649  -2.050 -29.065  1.00  0.00    -0.065 NA
ATOM     33  H10 UNL     1       6.884  -1.486 -29.224  1.00  0.00     0.189 HD
ENDBRANCH   8  29
BRANCH  13  34
HETATM   34  O3  UNL     1       9.976  -7.502 -28.240  1.00  0.00    -0.358 OA
ATOM     35  H3  UNL     1      10.109  -8.420 -28.034  1.00  0.00     0.217 HD
ENDBRANCH  13  34
TORSDOF 6
ENDMDL
