MODEL 1
REMARK VINA RESULT: -8.182633484      0.000      0.000
REMARK  9 active torsions:
REMARK  status: ('A' for Active; 'I' for Inactive)
REMARK    1  A    between atoms: N1_1  and  N2_4 
REMARK       I    between atoms: N2_4  and  C1_6 
REMARK    2  A    between atoms: C1_6  and  C2_8 
REMARK    3  A    between atoms: C2_8  and  N3_9 
REMARK    4  A    between atoms: N3_9  and  N4_11 
REMARK       I    between atoms: N4_11  and  C3_13 
REMARK    5  A    between atoms: C3_13  and  C4_15 
REMARK    6  A    between atoms: C6_17  and  N5_18 
REMARK    7  A    between atoms: C11_29  and  O7_30 
REMARK    8  A    between atoms: C11_29  and  N7_32 
REMARK    9  A    between atoms: N7_32  and  N8_34 
ROOT
HETATM    1  N3  UNL     1       4.339  -2.445 -25.595  1.00  0.00    -0.289 N 
ATOM      2  H3  UNL     1       3.907  -2.512 -24.673  1.00  0.00     0.187 HD
ENDROOT
BRANCH   1   3
HETATM    3  C2  UNL     1       4.031  -1.409 -26.258  1.00  0.00     0.170 C 
HETATM    4  C11 UNL     1       3.489  -1.489 -27.579  1.00  0.00     0.189 C 
BRANCH   3   5
HETATM    5  C1  UNL     1       4.293  -0.128 -25.567  1.00  0.00     0.291 C 
HETATM    6  N2  UNL     1       4.871  -0.166 -24.271  1.00  0.00    -0.271 N 
ATOM      7  H2  UNL     1       5.091  -1.073 -23.861  1.00  0.00     0.189 HD
HETATM    8  O1  UNL     1       4.031   0.971 -26.063  1.00  0.00    -0.264 OA
BRANCH   6   9
HETATM    9  N1  UNL     1       5.149   0.978 -23.540  1.00  0.00    -0.342 N 
ATOM     10  H12 UNL     1       5.200   1.861 -24.047  1.00  0.00     0.176 HD
ATOM     11  H11 UNL     1       5.300   0.965 -22.532  1.00  0.00     0.176 HD
ENDBRANCH   6   9
ENDBRANCH   3   5
BRANCH   4  12
HETATM   12  O7  UNL     1       3.353  -2.690 -28.073  1.00  0.00    -0.343 OA
ATOM     13  H7  UNL     1       3.248  -2.744 -29.016  1.00  0.00     0.219 HD
ENDBRANCH   4  12
BRANCH   4  14
HETATM   14  N7  UNL     1       3.076  -0.434 -28.435  1.00  0.00    -0.285 N 
ATOM     15  H7  UNL     1       2.096  -0.162 -28.507  1.00  0.00     0.188 HD
BRANCH  14  16
HETATM   16  N8  UNL     1       4.084   0.225 -29.184  1.00  0.00    -0.343 N 
ATOM     17  H82 UNL     1       4.942   0.541 -28.732  1.00  0.00     0.176 HD
ATOM     18  H81 UNL     1       3.909   0.363 -30.179  1.00  0.00     0.176 HD
ENDBRANCH  14  16
ENDBRANCH   4  14
ENDBRANCH   1   3
BRANCH   1  19
HETATM   19  N4  UNL     1       5.155  -3.475 -25.922  1.00  0.00    -0.265 N 
HETATM   20  C3  UNL     1       6.400  -3.648 -25.236  1.00  0.00     0.273 C 
HETATM   21  O2  UNL     1       6.701  -2.827 -24.328  1.00  0.00    -0.266 OA
ATOM     22  H4  UNL     1       4.882  -4.128 -26.657  1.00  0.00     0.190 HD
BRANCH  20  23
HETATM   23  C4  UNL     1       7.284  -4.759 -25.578  1.00  0.00     0.072 A 
HETATM   24  C5  UNL     1       7.907  -5.425 -24.556  1.00  0.00     0.056 A 
HETATM   25  C6  UNL     1       8.693  -6.517 -24.849  1.00  0.00     0.106 A 
HETATM   26  C7  UNL     1       8.853  -6.931 -26.154  1.00  0.00     0.068 A 
HETATM   27  C8  UNL     1       8.228  -6.264 -27.186  1.00  0.00     0.074 A 
HETATM   28  N6  UNL     1       8.176  -6.394 -28.530  1.00  0.00    -0.300 N 
HETATM   29  C10 UNL     1       7.438  -5.166 -26.879  1.00  0.00     0.123 A 
HETATM   30  C9  UNL     1       7.386  -5.424 -29.041  1.00  0.00     0.370 A 
ATOM     31  H6  UNL     1       8.657  -7.111 -29.073  1.00  0.00     0.171 HD
HETATM   32  O5  UNL     1       7.159  -5.308 -30.263  1.00  0.00    -0.238 OA
HETATM   33  O6  UNL     1       6.953  -4.700 -28.042  1.00  0.00    -0.258 OA
BRANCH  25  34
HETATM   34  N5  UNL     1       9.342  -7.245 -23.782  1.00  0.00    -0.116 N 
HETATM   35  O3  UNL     1       9.538  -6.732 -22.678  1.00  0.00    -0.532 OA
HETATM   36  O4  UNL     1       9.749  -8.539 -23.990  1.00  0.00    -0.532 OA
ENDBRANCH  25  34
ENDBRANCH  20  23
ENDBRANCH   1  19
TORSDOF 9
ENDMDL
MODEL 2
REMARK VINA RESULT: -8.101693491      3.009      5.006
REMARK  9 active torsions:
REMARK  status: ('A' for Active; 'I' for Inactive)
REMARK    1  A    between atoms: N1_1  and  N2_4 
REMARK       I    between atoms: N2_4  and  C1_6 
REMARK    2  A    between atoms: C1_6  and  C2_8 
REMARK    3  A    between atoms: C2_8  and  N3_9 
REMARK    4  A    between atoms: N3_9  and  N4_11 
REMARK       I    between atoms: N4_11  and  C3_13 
REMARK    5  A    between atoms: C3_13  and  C4_15 
REMARK    6  A    between atoms: C6_17  and  N5_18 
REMARK    7  A    between atoms: C11_29  and  O7_30 
REMARK    8  A    between atoms: C11_29  and  N7_32 
REMARK    9  A    between atoms: N7_32  and  N8_34 
ROOT
HETATM    1  N3  UNL     1       4.005  -2.546 -27.508  1.00  0.00    -0.289 N 
ATOM      2  H3  UNL     1       3.035  -2.791 -27.704  1.00  0.00     0.187 HD
ENDROOT
BRANCH   1   3
HETATM    3  C2  UNL     1       4.542  -1.765 -28.350  1.00  0.00     0.170 C 
HETATM    4  C11 UNL     1       4.387  -0.345 -28.271  1.00  0.00     0.189 C 
BRANCH   3   5
HETATM    5  C1  UNL     1       5.315  -2.436 -29.417  1.00  0.00     0.291 C 
HETATM    6  N2  UNL     1       5.932  -3.679 -29.122  1.00  0.00    -0.271 N 
ATOM      7  H2  UNL     1       5.819  -4.071 -28.188  1.00  0.00     0.189 HD
HETATM    8  O1  UNL     1       5.450  -1.965 -30.549  1.00  0.00    -0.264 OA
BRANCH   6   9
HETATM    9  N1  UNL     1       6.682  -4.383 -30.050  1.00  0.00    -0.342 N 
ATOM     10  H12 UNL     1       6.775  -3.982 -30.983  1.00  0.00     0.176 HD
ATOM     11  H11 UNL     1       7.135  -5.272 -29.835  1.00  0.00     0.176 HD
ENDBRANCH   6   9
ENDBRANCH   3   5
BRANCH   4  12
HETATM   12  O7  UNL     1       3.641   0.099 -27.296  1.00  0.00    -0.343 OA
ATOM     13  H7  UNL     1       3.756   1.013 -27.064  1.00  0.00     0.219 HD
ENDBRANCH   4  12
BRANCH   4  14
HETATM   14  N7  UNL     1       4.937   0.657 -29.114  1.00  0.00    -0.285 N 
ATOM     15  H7  UNL     1       4.532   0.864 -30.026  1.00  0.00     0.188 HD
BRANCH  14  16
HETATM   16  N8  UNL     1       6.072   1.358 -28.632  1.00  0.00    -0.343 N 
ATOM     17  H82 UNL     1       6.888   1.493 -29.229  1.00  0.00     0.176 HD
ATOM     18  H81 UNL     1       6.030   1.712 -27.677  1.00  0.00     0.176 HD
ENDBRANCH  14  16
ENDBRANCH   4  14
ENDBRANCH   1   3
BRANCH   1  19
HETATM   19  N4  UNL     1       4.523  -3.106 -26.389  1.00  0.00    -0.265 N 
HETATM   20  C3  UNL     1       4.204  -2.561 -25.103  1.00  0.00     0.273 C 
HETATM   21  O2  UNL     1       3.433  -1.566 -25.051  1.00  0.00    -0.266 OA
ATOM     22  H4  UNL     1       5.140  -3.915 -26.461  1.00  0.00     0.190 HD
BRANCH  20  23
HETATM   23  C4  UNL     1       4.754  -3.161 -23.890  1.00  0.00     0.072 A 
HETATM   24  C5  UNL     1       4.046  -3.021 -22.725  1.00  0.00     0.056 A 
HETATM   25  C6  UNL     1       4.511  -3.633 -21.582  1.00  0.00     0.106 A 
HETATM   26  C7  UNL     1       5.674  -4.373 -21.611  1.00  0.00     0.068 A 
HETATM   27  C8  UNL     1       6.389  -4.515 -22.781  1.00  0.00     0.074 A 
HETATM   28  N6  UNL     1       7.529  -5.143 -23.146  1.00  0.00    -0.300 N 
HETATM   29  C10 UNL     1       5.911  -3.896 -23.925  1.00  0.00     0.123 A 
HETATM   30  C9  UNL     1       7.753  -4.928 -24.461  1.00  0.00     0.370 A 
ATOM     31  H6  UNL     1       8.126  -5.692 -22.527  1.00  0.00     0.171 HD
HETATM   32  O5  UNL     1       8.740  -5.396 -25.066  1.00  0.00    -0.238 OA
HETATM   33  O6  UNL     1       6.777  -4.183 -24.912  1.00  0.00    -0.258 OA
BRANCH  25  34
HETATM   34  N5  UNL     1       3.768  -3.514 -20.349  1.00  0.00    -0.116 N 
HETATM   35  O3  UNL     1       2.536  -3.450 -20.342  1.00  0.00    -0.532 OA
HETATM   36  O4  UNL     1       4.436  -3.475 -19.151  1.00  0.00    -0.532 OA
ENDBRANCH  25  34
ENDBRANCH  20  23
ENDBRANCH   1  19
TORSDOF 9
ENDMDL
MODEL 3
REMARK VINA RESULT: -7.982764573      2.348      4.271
REMARK  9 active torsions:
REMARK  status: ('A' for Active; 'I' for Inactive)
REMARK    1  A    between atoms: N1_1  and  N2_4 
REMARK       I    between atoms: N2_4  and  C1_6 
REMARK    2  A    between atoms: C1_6  and  C2_8 
REMARK    3  A    between atoms: C2_8  and  N3_9 
REMARK    4  A    between atoms: N3_9  and  N4_11 
REMARK       I    between atoms: N4_11  and  C3_13 
REMARK    5  A    between atoms: C3_13  and  C4_15 
REMARK    6  A    between atoms: C6_17  and  N5_18 
REMARK    7  A    between atoms: C11_29  and  O7_30 
REMARK    8  A    between atoms: C11_29  and  N7_32 
REMARK    9  A    between atoms: N7_32  and  N8_34 
ROOT
HETATM    1  N3  UNL     1       6.143  -3.512 -28.679  1.00  0.00    -0.289 N 
ATOM      2  H3  UNL     1       6.727  -4.092 -29.282  1.00  0.00     0.187 HD
ENDROOT
BRANCH   1   3
HETATM    3  C2  UNL     1       5.553  -2.555 -29.265  1.00  0.00     0.170 C 
HETATM    4  C11 UNL     1       4.274  -2.077 -28.836  1.00  0.00     0.189 C 
BRANCH   3   5
HETATM    5  C1  UNL     1       6.278  -1.994 -30.425  1.00  0.00     0.291 C 
HETATM    6  N2  UNL     1       7.502  -1.316 -30.192  1.00  0.00    -0.271 N 
ATOM      7  H2  UNL     1       7.845  -1.242 -29.234  1.00  0.00     0.189 HD
HETATM    8  O1  UNL     1       5.867  -2.086 -31.585  1.00  0.00    -0.264 OA
BRANCH   6   9
HETATM    9  N1  UNL     1       8.253  -0.751 -31.210  1.00  0.00    -0.342 N 
ATOM     10  H12 UNL     1       7.897  -0.836 -32.162  1.00  0.00     0.176 HD
ATOM     11  H11 UNL     1       9.132  -0.261 -31.042  1.00  0.00     0.176 HD
ENDBRANCH   6   9
ENDBRANCH   3   5
BRANCH   4  12
HETATM   12  O7  UNL     1       3.739  -2.700 -27.821  1.00  0.00    -0.343 OA
ATOM     13  H7  UNL     1       2.808  -2.560 -27.689  1.00  0.00     0.219 HD
ENDBRANCH   4  12
BRANCH   4  14
HETATM   14  N7  UNL     1       3.501  -1.011 -29.366  1.00  0.00    -0.285 N 
ATOM     15  H7  UNL     1       3.317  -0.934 -30.366  1.00  0.00     0.188 HD
BRANCH  14  16
HETATM   16  N8  UNL     1       2.994  -0.059 -28.445  1.00  0.00    -0.343 N 
ATOM     17  H82 UNL     1       3.602   0.349 -27.735  1.00  0.00     0.176 HD
ATOM     18  H81 UNL     1       2.009   0.192 -28.529  1.00  0.00     0.176 HD
ENDBRANCH  14  16
ENDBRANCH   4  14
ENDBRANCH   1   3
BRANCH   1  19
HETATM   19  N4  UNL     1       6.118  -3.881 -27.377  1.00  0.00    -0.265 N 
HETATM   20  C3  UNL     1       7.327  -4.282 -26.723  1.00  0.00     0.273 C 
HETATM   21  O2  UNL     1       8.398  -4.270 -27.388  1.00  0.00    -0.266 OA
ATOM     22  H4  UNL     1       5.237  -3.875 -26.862  1.00  0.00     0.190 HD
BRANCH  20  23
HETATM   23  C4  UNL     1       7.310  -4.677 -25.317  1.00  0.00     0.072 A 
HETATM   24  C5  UNL     1       8.292  -5.526 -24.875  1.00  0.00     0.056 A 
HETATM   25  C6  UNL     1       8.335  -5.861 -23.540  1.00  0.00     0.106 A 
HETATM   26  C7  UNL     1       7.402  -5.352 -22.662  1.00  0.00     0.068 A 
HETATM   27  C8  UNL     1       6.413  -4.499 -23.103  1.00  0.00     0.074 A 
HETATM   28  N6  UNL     1       5.375  -3.846 -22.534  1.00  0.00    -0.300 N 
HETATM   29  C10 UNL     1       6.379  -4.167 -24.449  1.00  0.00     0.123 A 
HETATM   30  C9  UNL     1       4.723  -3.136 -23.481  1.00  0.00     0.370 A 
ATOM     31  H6  UNL     1       5.123  -3.884 -21.546  1.00  0.00     0.171 HD
HETATM   32  O5  UNL     1       3.721  -2.434 -23.231  1.00  0.00    -0.238 OA
HETATM   33  O6  UNL     1       5.336  -3.337 -24.619  1.00  0.00    -0.258 OA
BRANCH  25  34
HETATM   34  N5  UNL     1       9.375  -6.738 -23.051  1.00  0.00    -0.116 N 
HETATM   35  O3  UNL     1      10.087  -6.422 -22.095  1.00  0.00    -0.532 OA
HETATM   36  O4  UNL     1       9.582  -7.952 -23.655  1.00  0.00    -0.532 OA
ENDBRANCH  25  34
ENDBRANCH  20  23
ENDBRANCH   1  19
TORSDOF 9
ENDMDL
MODEL 4
REMARK VINA RESULT: -7.896758549      3.585      6.467
REMARK  9 active torsions:
REMARK  status: ('A' for Active; 'I' for Inactive)
REMARK    1  A    between atoms: N1_1  and  N2_4 
REMARK       I    between atoms: N2_4  and  C1_6 
REMARK    2  A    between atoms: C1_6  and  C2_8 
REMARK    3  A    between atoms: C2_8  and  N3_9 
REMARK    4  A    between atoms: N3_9  and  N4_11 
REMARK       I    between atoms: N4_11  and  C3_13 
REMARK    5  A    between atoms: C3_13  and  C4_15 
REMARK    6  A    between atoms: C6_17  and  N5_18 
REMARK    7  A    between atoms: C11_29  and  O7_30 
REMARK    8  A    between atoms: C11_29  and  N7_32 
REMARK    9  A    between atoms: N7_32  and  N8_34 
ROOT
HETATM    1  N3  UNL     1       5.051  -4.277 -21.891  1.00  0.00    -0.289 N 
ATOM      2  H3  UNL     1       4.633  -5.195 -21.741  1.00  0.00     0.187 HD
ENDROOT
BRANCH   1   3
HETATM    3  C2  UNL     1       5.135  -3.551 -20.854  1.00  0.00     0.170 C 
HETATM    4  C11 UNL     1       6.391  -3.075 -20.363  1.00  0.00     0.189 C 
BRANCH   3   5
HETATM    5  C1  UNL     1       3.845  -3.257 -20.195  1.00  0.00     0.291 C 
HETATM    6  N2  UNL     1       2.662  -3.810 -20.749  1.00  0.00    -0.271 N 
ATOM      7  H2  UNL     1       2.740  -4.396 -21.581  1.00  0.00     0.189 HD
HETATM    8  O1  UNL     1       3.749  -2.552 -19.186  1.00  0.00    -0.264 OA
BRANCH   6   9
HETATM    9  N1  UNL     1       1.405  -3.590 -20.210  1.00  0.00    -0.342 N 
ATOM     10  H12 UNL     1       1.021  -4.311 -19.600  1.00  0.00     0.176 HD
ATOM     11  H11 UNL     1       0.863  -2.747 -20.399  1.00  0.00     0.176 HD
ENDBRANCH   6   9
ENDBRANCH   3   5
BRANCH   4  12
HETATM   12  O7  UNL     1       7.449  -3.452 -21.029  1.00  0.00    -0.343 OA
ATOM     13  H7  UNL     1       8.232  -3.611 -20.514  1.00  0.00     0.219 HD
ENDBRANCH   4  12
BRANCH   4  14
HETATM   14  N7  UNL     1       6.649  -2.243 -19.242  1.00  0.00    -0.285 N 
ATOM     15  H7  UNL     1       7.077  -2.613 -18.393  1.00  0.00     0.188 HD
BRANCH  14  16
HETATM   16  N8  UNL     1       6.288  -0.876 -19.352  1.00  0.00    -0.343 N 
ATOM     17  H82 UNL     1       5.347  -0.568 -19.105  1.00  0.00     0.176 HD
ATOM     18  H81 UNL     1       7.003  -0.231 -19.685  1.00  0.00     0.176 HD
ENDBRANCH  14  16
ENDBRANCH   4  14
ENDBRANCH   1   3
BRANCH   1  19
HETATM   19  N4  UNL     1       5.430  -4.020 -23.165  1.00  0.00    -0.265 N 
HETATM   20  C3  UNL     1       4.510  -3.409 -24.077  1.00  0.00     0.273 C 
HETATM   21  O2  UNL     1       3.358  -3.118 -23.656  1.00  0.00    -0.266 OA
ATOM     22  H4  UNL     1       6.371  -4.261 -23.475  1.00  0.00     0.190 HD
BRANCH  20  23
HETATM   23  C4  UNL     1       4.911  -3.124 -25.451  1.00  0.00     0.072 A 
HETATM   24  C5  UNL     1       4.054  -2.397 -26.235  1.00  0.00     0.056 A 
HETATM   25  C6  UNL     1       4.439  -2.059 -27.513  1.00  0.00     0.106 A 
HETATM   26  C7  UNL     1       5.669  -2.450 -27.997  1.00  0.00     0.068 A 
HETATM   27  C8  UNL     1       6.534  -3.183 -27.213  1.00  0.00     0.074 A 
HETATM   28  N6  UNL     1       7.767  -3.715 -27.370  1.00  0.00    -0.300 N 
HETATM   29  C10 UNL     1       6.136  -3.516 -25.927  1.00  0.00     0.123 A 
HETATM   30  C9  UNL     1       8.125  -4.349 -26.232  1.00  0.00     0.370 A 
ATOM     31  H6  UNL     1       8.336  -3.647 -28.214  1.00  0.00     0.171 HD
HETATM   32  O5  UNL     1       9.222  -4.931 -26.097  1.00  0.00    -0.238 OA
HETATM   33  O6  UNL     1       7.142  -4.221 -25.380  1.00  0.00    -0.258 OA
BRANCH  25  34
HETATM   34  N5  UNL     1       3.557  -1.275 -28.348  1.00  0.00    -0.116 N 
HETATM   35  O3  UNL     1       2.967  -0.284 -27.909  1.00  0.00    -0.532 OA
HETATM   36  O4  UNL     1       3.367  -1.629 -29.660  1.00  0.00    -0.532 OA
ENDBRANCH  25  34
ENDBRANCH  20  23
ENDBRANCH   1  19
TORSDOF 9
ENDMDL
MODEL 5
REMARK VINA RESULT: -7.877262935      3.164      5.174
REMARK  9 active torsions:
REMARK  status: ('A' for Active; 'I' for Inactive)
REMARK    1  A    between atoms: N1_1  and  N2_4 
REMARK       I    between atoms: N2_4  and  C1_6 
REMARK    2  A    between atoms: C1_6  and  C2_8 
REMARK    3  A    between atoms: C2_8  and  N3_9 
REMARK    4  A    between atoms: N3_9  and  N4_11 
REMARK       I    between atoms: N4_11  and  C3_13 
REMARK    5  A    between atoms: C3_13  and  C4_15 
REMARK    6  A    between atoms: C6_17  and  N5_18 
REMARK    7  A    between atoms: C11_29  and  O7_30 
REMARK    8  A    between atoms: C11_29  and  N7_32 
REMARK    9  A    between atoms: N7_32  and  N8_34 
ROOT
HETATM    1  N3  UNL     1       4.506  -3.066 -27.219  1.00  0.00    -0.289 N 
ATOM      2  H3  UNL     1       3.568  -3.401 -27.439  1.00  0.00     0.187 HD
ENDROOT
BRANCH   1   3
HETATM    3  C2  UNL     1       5.062  -2.387 -28.134  1.00  0.00     0.170 C 
HETATM    4  C11 UNL     1       6.436  -2.571 -28.486  1.00  0.00     0.189 C 
BRANCH   3   5
HETATM    5  C1  UNL     1       4.187  -1.388 -28.785  1.00  0.00     0.291 C 
HETATM    6  N2  UNL     1       3.231  -0.707 -27.988  1.00  0.00    -0.271 N 
ATOM      7  H2  UNL     1       3.181  -0.925 -26.993  1.00  0.00     0.189 HD
HETATM    8  O1  UNL     1       4.250  -1.120 -29.988  1.00  0.00    -0.264 OA
BRANCH   6   9
HETATM    9  N1  UNL     1       2.362   0.241 -28.504  1.00  0.00    -0.342 N 
ATOM     10  H12 UNL     1       2.770   1.068 -28.938  1.00  0.00     0.176 HD
ATOM     11  H11 UNL     1       1.348   0.140 -28.464  1.00  0.00     0.176 HD
ENDBRANCH   6   9
ENDBRANCH   3   5
BRANCH   4  12
HETATM   12  O7  UNL     1       7.092  -3.463 -27.794  1.00  0.00    -0.343 OA
ATOM     13  H7  UNL     1       7.993  -3.248 -27.583  1.00  0.00     0.219 HD
ENDBRANCH   4  12
BRANCH   4  14
HETATM   14  N7  UNL     1       7.191  -1.913 -29.492  1.00  0.00    -0.285 N 
ATOM     15  H7  UNL     1       7.940  -1.263 -29.254  1.00  0.00     0.188 HD
BRANCH  14  16
HETATM   16  N8  UNL     1       6.861  -2.199 -30.842  1.00  0.00    -0.343 N 
ATOM     17  H82 UNL     1       6.832  -3.163 -31.174  1.00  0.00     0.176 HD
ATOM     18  H81 UNL     1       6.658  -1.406 -31.449  1.00  0.00     0.176 HD
ENDBRANCH  14  16
ENDBRANCH   4  14
ENDBRANCH   1   3
BRANCH   1  19
HETATM   19  N4  UNL     1       4.966  -3.415 -25.995  1.00  0.00    -0.265 N 
HETATM   20  C3  UNL     1       4.527  -2.700 -24.834  1.00  0.00     0.273 C 
HETATM   21  O2  UNL     1       3.705  -1.757 -24.989  1.00  0.00    -0.266 OA
ATOM     22  H4  UNL     1       5.627  -4.187 -25.898  1.00  0.00     0.190 HD
BRANCH  20  23
HETATM   23  C4  UNL     1       5.014  -3.073 -23.509  1.00  0.00     0.072 A 
HETATM   24  C5  UNL     1       4.170  -2.903 -22.442  1.00  0.00     0.056 A 
HETATM   25  C6  UNL     1       4.583  -3.308 -21.191  1.00  0.00     0.106 A 
HETATM   26  C7  UNL     1       5.829  -3.872 -21.017  1.00  0.00     0.068 A 
HETATM   27  C8  UNL     1       6.680  -4.043 -22.087  1.00  0.00     0.074 A 
HETATM   28  N6  UNL     1       7.926  -4.539 -22.263  1.00  0.00    -0.300 N 
HETATM   29  C10 UNL     1       6.254  -3.634 -23.341  1.00  0.00     0.123 A 
HETATM   30  C9  UNL     1       8.262  -4.446 -23.568  1.00  0.00     0.370 A 
ATOM     31  H6  UNL     1       8.518  -4.922 -21.525  1.00  0.00     0.171 HD
HETATM   32  O5  UNL     1       9.362  -4.834 -24.013  1.00  0.00    -0.238 OA
HETATM   33  O6  UNL     1       7.253  -3.904 -24.199  1.00  0.00    -0.258 OA
BRANCH  25  34
HETATM   34  N5  UNL     1       3.700  -3.157 -20.058  1.00  0.00    -0.116 N 
HETATM   35  O3  UNL     1       2.778  -3.950 -19.849  1.00  0.00    -0.532 OA
HETATM   36  O4  UNL     1       3.884  -2.114 -19.185  1.00  0.00    -0.532 OA
ENDBRANCH  25  34
ENDBRANCH  20  23
ENDBRANCH   1  19
TORSDOF 9
ENDMDL
