MODEL 1
REMARK VINA RESULT: -7.478470882      0.000      0.000
REMARK  9 active torsions:
REMARK  status: ('A' for Active; 'I' for Inactive)
REMARK    1  A    between atoms: C2_2  and  C3_3 
REMARK    2  A    between atoms: C3_3  and  O1_4 
REMARK    3  A    between atoms: C4_9  and  N2_10 
REMARK    4  A    between atoms: C6_16  and  C7_17 
REMARK       I    between atoms: C7_17  and  N5_19 
REMARK    5  A    between atoms: N5_19  and  C8_21 
REMARK    6  A    between atoms: C9_24  and  N7_25 
REMARK    7  A    between atoms: N7_25  and  C10_27 
REMARK    8  A    between atoms: C10_27  and  C11_28 
REMARK    9  A    between atoms: C11_28  and  O4_29 
ROOT
HETATM    1  N2  UNL     1       6.750  -5.011 -29.956  1.00  0.00    -0.124 N 
ATOM      2  H2  UNL     1       6.294  -5.412 -30.776  1.00  0.00     0.197 HD
HETATM    3  C5  UNL     1       7.687  -5.744 -29.225  1.00  0.00     0.196 C 
HETATM    4  N3  UNL     1       8.462  -6.356 -28.604  1.00  0.00    -0.171 NA
ENDROOT
BRANCH   1   5
HETATM    5  C4  UNL     1       6.447  -3.692 -29.524  1.00  0.00     0.707 C 
HETATM    6  N1  UNL     1       6.097  -2.741 -30.518  1.00  0.00    -0.095 N 
HETATM    7  O2  UNL     1       5.400  -1.658 -30.125  1.00  0.00    -0.251 OA
ATOM      8  H1  UNL     1       6.364  -2.873 -31.493  1.00  0.00     0.213 HD
HETATM    9  C2  UNL     1       6.044  -1.033 -29.039  1.00  0.00     0.136 C 
HETATM   10  C1  UNL     1       5.297   0.238 -28.758  1.00  0.00     0.054 C 
HETATM   11  C6  UNL     1       6.160  -1.948 -27.863  1.00  0.00     0.230 C 
HETATM   12  N4  UNL     1       6.474  -3.321 -28.302  1.00  0.00    -0.207 N 
ATOM     13  H4  UNL     1       6.726  -4.009 -27.592  1.00  0.00     0.178 HD
BRANCH   9  14
HETATM   14  C3  UNL     1       7.427  -0.597 -29.544  1.00  0.00     0.207 C 
BRANCH  14  15
HETATM   15  O1  UNL     1       8.433  -1.222 -28.826  1.00  0.00    -0.398 OA
ATOM     16  H1  UNL     1       9.288  -0.904 -29.093  1.00  0.00     0.209 HD
ENDBRANCH  14  15
ENDBRANCH   9  14
BRANCH  11  17
HETATM   17  C7  UNL     1       5.000  -1.952 -26.956  1.00  0.00     0.250 C 
HETATM   18  O3  UNL     1       3.890  -2.405 -27.417  1.00  0.00    -0.271 OA
HETATM   19  N5  UNL     1       5.061  -1.484 -25.618  1.00  0.00    -0.304 N 
ATOM     20  H5  UNL     1       5.233  -0.499 -25.419  1.00  0.00     0.171 HD
BRANCH  19  21
HETATM   21  C8  UNL     1       4.891  -2.342 -24.642  1.00  0.00     0.183 A 
HETATM   22  N6  UNL     1       4.067  -2.256 -23.602  1.00  0.00    -0.168 N 
HETATM   23  C9  UNL     1       4.061  -3.236 -22.741  1.00  0.00     0.686 A 
ATOM     24  H6  UNL     1       3.457  -1.447 -23.480  1.00  0.00     0.186 HD
HETATM   25  N8  UNL     1       4.881  -4.268 -22.953  1.00  0.00    -0.157 N 
HETATM   26  S1  UNL     1       5.662  -3.841 -24.380  1.00  0.00     0.039 SA
ATOM     27  H8  UNL     1       5.005  -5.108 -22.388  1.00  0.00     0.193 HD
BRANCH  23  28
HETATM   28  N7  UNL     1       3.266  -3.226 -21.676  1.00  0.00    -0.223 N 
ATOM     29  H7  UNL     1       2.331  -2.829 -21.768  1.00  0.00     0.177 HD
BRANCH  28  30
HETATM   30  C10 UNL     1       3.662  -3.743 -20.416  1.00  0.00     0.164 C 
BRANCH  30  31
HETATM   31  C11 UNL     1       4.637  -2.772 -19.785  1.00  0.00     0.184 C 
BRANCH  31  32
HETATM   32  O4  UNL     1       3.915  -1.881 -19.021  1.00  0.00    -0.399 OA
ATOM     33  H4  UNL     1       4.494  -1.531 -18.354  1.00  0.00     0.209 HD
ENDBRANCH  31  32
ENDBRANCH  30  31
ENDBRANCH  28  30
ENDBRANCH  23  28
ENDBRANCH  19  21
ENDBRANCH  11  17
ENDBRANCH   1   5
TORSDOF 9
ENDMDL
MODEL 2
REMARK VINA RESULT: -7.282826215      2.024      2.942
REMARK  9 active torsions:
REMARK  status: ('A' for Active; 'I' for Inactive)
REMARK    1  A    between atoms: C2_2  and  C3_3 
REMARK    2  A    between atoms: C3_3  and  O1_4 
REMARK    3  A    between atoms: C4_9  and  N2_10 
REMARK    4  A    between atoms: C6_16  and  C7_17 
REMARK       I    between atoms: C7_17  and  N5_19 
REMARK    5  A    between atoms: N5_19  and  C8_21 
REMARK    6  A    between atoms: C9_24  and  N7_25 
REMARK    7  A    between atoms: N7_25  and  C10_27 
REMARK    8  A    between atoms: C10_27  and  C11_28 
REMARK    9  A    between atoms: C11_28  and  O4_29 
ROOT
HETATM    1  N2  UNL     1       8.257  -0.769 -29.460  1.00  0.00    -0.124 N 
ATOM      2  H2  UNL     1       9.125  -1.010 -28.982  1.00  0.00     0.197 HD
HETATM    3  C5  UNL     1       8.271  -0.240 -30.752  1.00  0.00     0.196 C 
HETATM    4  N3  UNL     1       8.277   0.213 -31.828  1.00  0.00    -0.171 NA
ENDROOT
BRANCH   1   5
HETATM    5  C4  UNL     1       6.999  -0.960 -28.829  1.00  0.00     0.707 C 
HETATM    6  N1  UNL     1       6.295  -2.158 -29.120  1.00  0.00    -0.095 N 
HETATM    7  O2  UNL     1       5.361  -2.561 -28.237  1.00  0.00    -0.251 OA
ATOM      8  H1  UNL     1       6.489  -2.694 -29.965  1.00  0.00     0.213 HD
HETATM    9  C2  UNL     1       4.465  -1.509 -27.963  1.00  0.00     0.136 C 
HETATM   10  C1  UNL     1       3.377  -2.073 -27.098  1.00  0.00     0.054 C 
HETATM   11  C6  UNL     1       5.164  -0.327 -27.375  1.00  0.00     0.230 C 
HETATM   12  N4  UNL     1       6.473  -0.120 -28.024  1.00  0.00    -0.207 N 
ATOM     13  H4  UNL     1       6.983   0.739 -27.819  1.00  0.00     0.178 HD
BRANCH   9  14
HETATM   14  C3  UNL     1       3.791  -1.151 -29.296  1.00  0.00     0.207 C 
BRANCH  14  15
HETATM   15  O1  UNL     1       4.086   0.152 -29.662  1.00  0.00    -0.398 OA
ATOM     16  H1  UNL     1       3.523   0.439 -30.372  1.00  0.00     0.209 HD
ENDBRANCH  14  15
ENDBRANCH   9  14
BRANCH  11  17
HETATM   17  C7  UNL     1       5.317  -0.355 -25.910  1.00  0.00     0.250 C 
HETATM   18  O3  UNL     1       4.596   0.458 -25.224  1.00  0.00    -0.271 OA
HETATM   19  N5  UNL     1       6.210  -1.231 -25.241  1.00  0.00    -0.304 N 
ATOM     20  H5  UNL     1       7.218  -1.135 -25.359  1.00  0.00     0.171 HD
BRANCH  19  21
HETATM   21  C8  UNL     1       5.715  -2.166 -24.467  1.00  0.00     0.183 A 
HETATM   22  N6  UNL     1       4.720  -2.068 -23.589  1.00  0.00    -0.168 N 
HETATM   23  C9  UNL     1       4.387  -3.136 -22.918  1.00  0.00     0.686 A 
ATOM     24  H6  UNL     1       4.232  -1.185 -23.444  1.00  0.00     0.186 HD
HETATM   25  N8  UNL     1       5.063  -4.265 -23.151  1.00  0.00    -0.157 N 
HETATM   26  S1  UNL     1       6.174  -3.802 -24.327  1.00  0.00     0.039 SA
ATOM     27  H8  UNL     1       4.937  -5.181 -22.721  1.00  0.00     0.193 HD
BRANCH  23  28
HETATM   28  N7  UNL     1       3.405  -3.122 -22.024  1.00  0.00    -0.223 N 
ATOM     29  H7  UNL     1       2.527  -2.664 -22.270  1.00  0.00     0.177 HD
BRANCH  28  30
HETATM   30  C10 UNL     1       3.524  -3.717 -20.741  1.00  0.00     0.164 C 
BRANCH  30  31
HETATM   31  C11 UNL     1       4.517  -2.911 -19.931  1.00  0.00     0.184 C 
BRANCH  31  32
HETATM   32  O4  UNL     1       3.808  -2.077 -19.096  1.00  0.00    -0.399 OA
ATOM     33  H4  UNL     1       4.291  -1.999 -18.281  1.00  0.00     0.209 HD
ENDBRANCH  31  32
ENDBRANCH  30  31
ENDBRANCH  28  30
ENDBRANCH  23  28
ENDBRANCH  19  21
ENDBRANCH  11  17
ENDBRANCH   1   5
TORSDOF 9
ENDMDL
MODEL 3
REMARK VINA RESULT: -7.178608741      2.584      4.000
REMARK  9 active torsions:
REMARK  status: ('A' for Active; 'I' for Inactive)
REMARK    1  A    between atoms: C2_2  and  C3_3 
REMARK    2  A    between atoms: C3_3  and  O1_4 
REMARK    3  A    between atoms: C4_9  and  N2_10 
REMARK    4  A    between atoms: C6_16  and  C7_17 
REMARK       I    between atoms: C7_17  and  N5_19 
REMARK    5  A    between atoms: N5_19  and  C8_21 
REMARK    6  A    between atoms: C9_24  and  N7_25 
REMARK    7  A    between atoms: N7_25  and  C10_27 
REMARK    8  A    between atoms: C10_27  and  C11_28 
REMARK    9  A    between atoms: C11_28  and  O4_29 
ROOT
HETATM    1  N2  UNL     1       7.203   1.917 -29.641  1.00  0.00    -0.124 N 
ATOM      2  H2  UNL     1       8.124   2.212 -29.318  1.00  0.00     0.197 HD
HETATM    3  C5  UNL     1       6.585   2.547 -30.722  1.00  0.00     0.196 C 
HETATM    4  N3  UNL     1       6.058   3.078 -31.618  1.00  0.00    -0.171 NA
ENDROOT
BRANCH   1   5
HETATM    5  C4  UNL     1       6.512   0.853 -29.003  1.00  0.00     0.707 C 
HETATM    6  N1  UNL     1       7.124  -0.429 -29.018  1.00  0.00    -0.095 N 
HETATM    7  O2  UNL     1       6.736  -1.315 -28.080  1.00  0.00    -0.251 OA
ATOM      8  H1  UNL     1       7.830  -0.669 -29.712  1.00  0.00     0.213 HD
HETATM    9  C2  UNL     1       5.332  -1.431 -28.072  1.00  0.00     0.136 C 
HETATM   10  C1  UNL     1       4.988  -2.536 -27.117  1.00  0.00     0.054 C 
HETATM   11  C6  UNL     1       4.671  -0.127 -27.764  1.00  0.00     0.230 C 
HETATM   12  N4  UNL     1       5.382   0.986 -28.423  1.00  0.00    -0.207 N 
ATOM     13  H4  UNL     1       4.947   1.909 -28.415  1.00  0.00     0.178 HD
BRANCH   9  14
HETATM   14  C3  UNL     1       4.929  -1.945 -29.463  1.00  0.00     0.207 C 
BRANCH  14  15
HETATM   15  O1  UNL     1       4.025  -1.083 -30.062  1.00  0.00    -0.398 OA
ATOM     16  H1  UNL     1       3.623  -0.512 -29.418  1.00  0.00     0.209 HD
ENDBRANCH  14  15
ENDBRANCH   9  14
BRANCH  11  17
HETATM   17  C7  UNL     1       4.488   0.158 -26.331  1.00  0.00     0.250 C 
HETATM   18  O3  UNL     1       3.291   0.122 -25.868  1.00  0.00    -0.271 OA
HETATM   19  N5  UNL     1       5.565   0.463 -25.458  1.00  0.00    -0.304 N 
ATOM     20  H5  UNL     1       6.102   1.322 -25.576  1.00  0.00     0.171 HD
BRANCH  19  21
HETATM   21  C8  UNL     1       5.855  -0.379 -24.497  1.00  0.00     0.183 A 
HETATM   22  N6  UNL     1       5.023  -1.130 -23.780  1.00  0.00    -0.168 N 
HETATM   23  C9  UNL     1       5.534  -1.906 -22.863  1.00  0.00     0.686 A 
ATOM     24  H6  UNL     1       4.017  -1.101 -23.941  1.00  0.00     0.186 HD
HETATM   25  N8  UNL     1       6.859  -1.901 -22.698  1.00  0.00    -0.157 N 
HETATM   26  S1  UNL     1       7.378  -0.790 -23.849  1.00  0.00     0.039 SA
ATOM     27  H8  UNL     1       7.418  -2.439 -22.036  1.00  0.00     0.193 HD
BRANCH  23  28
HETATM   28  N7  UNL     1       4.771  -2.688 -22.105  1.00  0.00    -0.223 N 
ATOM     29  H7  UNL     1       3.882  -3.015 -22.482  1.00  0.00     0.177 HD
BRANCH  28  30
HETATM   30  C10 UNL     1       5.142  -3.086 -20.796  1.00  0.00     0.164 C 
BRANCH  30  31
HETATM   31  C11 UNL     1       3.903  -3.081 -19.926  1.00  0.00     0.184 C 
BRANCH  31  32
HETATM   32  O4  UNL     1       3.945  -1.956 -19.132  1.00  0.00    -0.399 OA
ATOM     33  H4  UNL     1       4.793  -1.931 -18.704  1.00  0.00     0.209 HD
ENDBRANCH  31  32
ENDBRANCH  30  31
ENDBRANCH  28  30
ENDBRANCH  23  28
ENDBRANCH  19  21
ENDBRANCH  11  17
ENDBRANCH   1   5
TORSDOF 9
ENDMDL
MODEL 4
REMARK VINA RESULT: -7.176529757      3.097      5.687
REMARK  9 active torsions:
REMARK  status: ('A' for Active; 'I' for Inactive)
REMARK    1  A    between atoms: C2_2  and  C3_3 
REMARK    2  A    between atoms: C3_3  and  O1_4 
REMARK    3  A    between atoms: C4_9  and  N2_10 
REMARK    4  A    between atoms: C6_16  and  C7_17 
REMARK       I    between atoms: C7_17  and  N5_19 
REMARK    5  A    between atoms: N5_19  and  C8_21 
REMARK    6  A    between atoms: C9_24  and  N7_25 
REMARK    7  A    between atoms: N7_25  and  C10_27 
REMARK    8  A    between atoms: C10_27  and  C11_28 
REMARK    9  A    between atoms: C11_28  and  O4_29 
ROOT
HETATM    1  N2  UNL     1       3.496  -3.472 -22.986  1.00  0.00    -0.124 N 
ATOM      2  H2  UNL     1       2.500  -3.686 -22.930  1.00  0.00     0.197 HD
HETATM    3  C5  UNL     1       4.347  -3.724 -21.908  1.00  0.00     0.196 C 
HETATM    4  N3  UNL     1       5.061  -3.920 -21.006  1.00  0.00    -0.171 NA
ENDROOT
BRANCH   1   5
HETATM    5  C4  UNL     1       4.056  -2.910 -24.164  1.00  0.00     0.707 C 
HETATM    6  N1  UNL     1       3.924  -1.508 -24.348  1.00  0.00    -0.095 N 
HETATM    7  O2  UNL     1       4.791  -0.905 -25.183  1.00  0.00    -0.251 OA
ATOM      8  H1  UNL     1       3.199  -0.977 -23.865  1.00  0.00     0.213 HD
HETATM    9  C2  UNL     1       4.815  -1.572 -26.424  1.00  0.00     0.136 C 
HETATM   10  C1  UNL     1       5.682  -0.761 -27.342  1.00  0.00     0.054 C 
HETATM   11  C6  UNL     1       5.242  -2.997 -26.277  1.00  0.00     0.230 C 
HETATM   12  N4  UNL     1       4.665  -3.591 -25.056  1.00  0.00    -0.207 N 
ATOM     13  H4  UNL     1       4.758  -4.597 -24.918  1.00  0.00     0.178 HD
BRANCH   9  14
HETATM   14  C3  UNL     1       3.395  -1.474 -27.000  1.00  0.00     0.207 C 
BRANCH  14  15
HETATM   15  O1  UNL     1       2.885  -2.733 -27.270  1.00  0.00    -0.398 OA
ATOM     16  H1  UNL     1       2.695  -2.829 -28.197  1.00  0.00     0.209 HD
ENDBRANCH  14  15
ENDBRANCH   9  14
BRANCH  11  17
HETATM   17  C7  UNL     1       6.698  -3.220 -26.319  1.00  0.00     0.250 C 
HETATM   18  O3  UNL     1       7.404  -2.696 -25.382  1.00  0.00    -0.271 OA
HETATM   19  N5  UNL     1       7.337  -3.980 -27.333  1.00  0.00    -0.304 N 
ATOM     20  H5  UNL     1       7.343  -3.655 -28.299  1.00  0.00     0.171 HD
BRANCH  19  21
HETATM   21  C8  UNL     1       7.918  -5.107 -27.004  1.00  0.00     0.183 A 
HETATM   22  N6  UNL     1       8.084  -5.626 -25.790  1.00  0.00    -0.168 N 
HETATM   23  C9  UNL     1       8.698  -6.773 -25.692  1.00  0.00     0.686 A 
ATOM     24  H6  UNL     1       7.742  -5.142 -24.960  1.00  0.00     0.186 HD
HETATM   25  N8  UNL     1       9.124  -7.360 -26.813  1.00  0.00    -0.157 N 
HETATM   26  S1  UNL     1       8.649  -6.276 -28.008  1.00  0.00     0.039 SA
ATOM     27  H8  UNL     1       9.616  -8.247 -26.919  1.00  0.00     0.193 HD
BRANCH  23  28
HETATM   28  N7  UNL     1       8.904  -7.358 -24.516  1.00  0.00    -0.223 N 
ATOM     29  H7  UNL     1       8.890  -8.376 -24.468  1.00  0.00     0.177 HD
BRANCH  28  30
HETATM   30  C10 UNL     1       9.141  -6.626 -23.324  1.00  0.00     0.164 C 
BRANCH  30  31
HETATM   31  C11 UNL     1       7.839  -6.525 -22.558  1.00  0.00     0.184 C 
BRANCH  31  32
HETATM   32  O4  UNL     1       7.289  -5.288 -22.814  1.00  0.00    -0.399 OA
ATOM     33  H4  UNL     1       6.404  -5.421 -23.134  1.00  0.00     0.209 HD
ENDBRANCH  31  32
ENDBRANCH  30  31
ENDBRANCH  28  30
ENDBRANCH  23  28
ENDBRANCH  19  21
ENDBRANCH  11  17
ENDBRANCH   1   5
TORSDOF 9
ENDMDL
MODEL 5
REMARK VINA RESULT: -7.144911232      2.609      6.983
REMARK  9 active torsions:
REMARK  status: ('A' for Active; 'I' for Inactive)
REMARK    1  A    between atoms: C2_2  and  C3_3 
REMARK    2  A    between atoms: C3_3  and  O1_4 
REMARK    3  A    between atoms: C4_9  and  N2_10 
REMARK    4  A    between atoms: C6_16  and  C7_17 
REMARK       I    between atoms: C7_17  and  N5_19 
REMARK    5  A    between atoms: N5_19  and  C8_21 
REMARK    6  A    between atoms: C9_24  and  N7_25 
REMARK    7  A    between atoms: N7_25  and  C10_27 
REMARK    8  A    between atoms: C10_27  and  C11_28 
REMARK    9  A    between atoms: C11_28  and  O4_29 
ROOT
HETATM    1  N2  UNL     1       3.870  -3.749 -22.011  1.00  0.00    -0.124 N 
ATOM      2  H2  UNL     1       3.196  -4.388 -22.433  1.00  0.00     0.197 HD
HETATM    3  C5  UNL     1       3.995  -3.649 -20.624  1.00  0.00     0.196 C 
HETATM    4  N3  UNL     1       4.094  -3.552 -19.465  1.00  0.00    -0.171 NA
ENDROOT
BRANCH   1   5
HETATM    5  C4  UNL     1       4.709  -2.935 -22.818  1.00  0.00     0.707 C 
HETATM    6  N1  UNL     1       6.095  -3.242 -22.842  1.00  0.00    -0.095 N 
HETATM    7  O2  UNL     1       6.813  -2.801 -23.892  1.00  0.00    -0.251 OA
ATOM      8  H1  UNL     1       6.531  -3.777 -22.091  1.00  0.00     0.213 HD
HETATM    9  C2  UNL     1       6.604  -1.421 -24.079  1.00  0.00     0.136 C 
HETATM   10  C1  UNL     1       7.543  -0.977 -25.162  1.00  0.00     0.054 C 
HETATM   11  C6  UNL     1       5.167  -1.111 -24.349  1.00  0.00     0.230 C 
HETATM   12  N4  UNL     1       4.287  -1.951 -23.515  1.00  0.00    -0.207 N 
ATOM     13  H4  UNL     1       3.290  -1.736 -23.495  1.00  0.00     0.178 HD
BRANCH   9  14
HETATM   14  C3  UNL     1       7.091  -0.728 -22.798  1.00  0.00     0.207 C 
BRANCH  14  15
HETATM   15  O1  UNL     1       6.117   0.118 -22.295  1.00  0.00    -0.398 OA
ATOM     16  H1  UNL     1       5.248  -0.202 -22.507  1.00  0.00     0.209 HD
ENDBRANCH  14  15
ENDBRANCH   9  14
BRANCH  11  17
HETATM   17  C7  UNL     1       4.765  -1.193 -25.764  1.00  0.00     0.250 C 
HETATM   18  O3  UNL     1       4.602  -0.087 -26.398  1.00  0.00    -0.271 OA
HETATM   19  N5  UNL     1       4.557  -2.423 -26.441  1.00  0.00    -0.304 N 
ATOM     20  H5  UNL     1       3.793  -3.041 -26.171  1.00  0.00     0.171 HD
BRANCH  19  21
HETATM   21  C8  UNL     1       5.366  -2.748 -27.418  1.00  0.00     0.183 A 
HETATM   22  N6  UNL     1       6.388  -3.601 -27.394  1.00  0.00    -0.168 N 
HETATM   23  C9  UNL     1       7.066  -3.775 -28.494  1.00  0.00     0.686 A 
ATOM     24  H6  UNL     1       6.633  -4.103 -26.541  1.00  0.00     0.186 HD
HETATM   25  N8  UNL     1       6.698  -3.090 -29.580  1.00  0.00    -0.157 N 
HETATM   26  S1  UNL     1       5.383  -2.196 -29.032  1.00  0.00     0.039 SA
ATOM     27  H8  UNL     1       7.112  -3.105 -30.512  1.00  0.00     0.193 HD
BRANCH  23  28
HETATM   28  N7  UNL     1       8.100  -4.609 -28.553  1.00  0.00    -0.223 N 
ATOM     29  H7  UNL     1       9.042  -4.218 -28.582  1.00  0.00     0.177 HD
BRANCH  28  30
HETATM   30  C10 UNL     1       7.950  -6.019 -28.579  1.00  0.00     0.164 C 
BRANCH  30  31
HETATM   31  C11 UNL     1       8.891  -6.619 -27.556  1.00  0.00     0.184 C 
BRANCH  31  32
HETATM   32  O4  UNL     1       9.935  -7.209 -28.232  1.00  0.00    -0.399 OA
ATOM     33  H4  UNL     1       9.572  -7.715 -28.949  1.00  0.00     0.209 HD
ENDBRANCH  31  32
ENDBRANCH  30  31
ENDBRANCH  28  30
ENDBRANCH  23  28
ENDBRANCH  19  21
ENDBRANCH  11  17
ENDBRANCH   1   5
TORSDOF 9
ENDMDL
