MODEL 1
REMARK VINA RESULT: -8.263999011      0.000      0.000
REMARK  10 active torsions:
REMARK  status: ('A' for Active; 'I' for Inactive)
REMARK    1  A    between atoms: S1_2  and  N1_4 
REMARK    2  A    between atoms: S1_2  and  C14_25 
REMARK       I    between atoms: N1_4  and  C2_6 
REMARK    3  A    between atoms: C2_6  and  O3_8 
REMARK    4  A    between atoms: O3_8  and  C3_9 
REMARK    5  A    between atoms: C3_9  and  C4_10 
REMARK    6  A    between atoms: C3_9  and  C12_21 
REMARK    7  A    between atoms: C4_10  and  C5_11 
REMARK    8  A    between atoms: C5_11  and  C6_13 
REMARK    9  A    between atoms: C11_18  and  O5_19 
REMARK   10  A    between atoms: C12_21  and  O7_23 
ROOT
HETATM    1  O3  UNL     1     -20.002   8.689  -9.734  1.00  0.00    -0.287 OA
ENDROOT
BRANCH   1   2
HETATM    2  C2  UNL     1     -18.698   8.251 -10.028  1.00  0.00     0.372 C 
HETATM    3  N1  UNL     1     -18.176   7.078  -9.438  1.00  0.00    -0.259 N 
ATOM      4  H1  UNL     1     -18.776   6.563  -8.794  1.00  0.00     0.181 HD
HETATM    5  O2  UNL     1     -18.052   8.950 -10.826  1.00  0.00    -0.238 OA
BRANCH   3   6
HETATM    6  S1  UNL     1     -16.625   6.468  -9.724  1.00  0.00     0.058 S 
HETATM    7  C1  UNL     1     -16.511   5.703 -11.127  1.00  0.00     0.142 C 
HETATM    8  O1  UNL     1     -15.682   7.658 -10.017  1.00  0.00    -0.245 OA
BRANCH   6   9
HETATM    9  C14 UNL     1     -15.957   5.514  -8.446  1.00  0.00     0.061 A 
HETATM   10  C15 UNL     1     -15.570   4.199  -8.704  1.00  0.00     0.049 A 
HETATM   11  C16 UNL     1     -15.065   3.361  -7.745  1.00  0.00     0.057 A 
HETATM   12 CL1  UNL     1     -14.597   1.718  -8.145  1.00  0.00    -0.083 Cl
HETATM   13  C17 UNL     1     -14.939   3.867  -6.453  1.00  0.00     0.057 A 
HETATM   14 CL2  UNL     1     -14.284   2.778  -5.215  1.00  0.00    -0.082 Cl
HETATM   15  C18 UNL     1     -15.310   5.159  -6.158  1.00  0.00     0.051 A 
HETATM   16  C19 UNL     1     -15.818   5.973  -7.164  1.00  0.00     0.055 A 
HETATM   17 CL3  UNL     1     -16.230   7.629  -6.742  1.00  0.00    -0.083 Cl
ENDBRANCH   6   9
ENDBRANCH   3   6
ENDBRANCH   1   2
BRANCH   1  18
HETATM   18  C3  UNL     1     -20.948   8.913 -10.788  1.00  0.00     0.240 C 
BRANCH  18  19
HETATM   19  C4  UNL     1     -22.032   7.887 -10.720  1.00  0.00     0.127 C 
BRANCH  19  20
HETATM   20  C5  UNL     1     -21.608   6.620 -11.326  1.00  0.00     0.165 C 
HETATM   21  O4  UNL     1     -20.787   6.665 -12.281  1.00  0.00    -0.292 OA
BRANCH  20  22
HETATM   22  C6  UNL     1     -22.049   5.300 -10.927  1.00  0.00     0.043 A 
HETATM   23  C7  UNL     1     -23.401   4.947 -11.006  1.00  0.00     0.018 A 
HETATM   24  C8  UNL     1     -23.855   3.699 -10.636  1.00  0.00     0.001 A 
HETATM   25  C9  UNL     1     -22.971   2.764 -10.176  1.00  0.00     0.003 A 
HETATM   26  C10 UNL     1     -21.629   3.079 -10.086  1.00  0.00     0.037 A 
HETATM   27  C11 UNL     1     -21.177   4.353 -10.465  1.00  0.00     0.079 A 
BRANCH  27  28
HETATM   28  O5  UNL     1     -19.834   4.633 -10.363  1.00  0.00    -0.360 OA
ATOM     29  H5  UNL     1     -19.310   4.771 -11.143  1.00  0.00     0.217 HD
ENDBRANCH  27  28
ENDBRANCH  20  22
ENDBRANCH  19  20
ENDBRANCH  18  19
BRANCH  18  30
HETATM   30  C12 UNL     1     -21.560  10.295 -10.595  1.00  0.00     0.288 C 
HETATM   31  O6  UNL     1     -22.113  10.822 -11.553  1.00  0.00    -0.262 OA
BRANCH  30  32
HETATM   32  O7  UNL     1     -21.446  10.856  -9.351  1.00  0.00    -0.324 OA
HETATM   33  C13 UNL     1     -22.363  10.578  -8.297  1.00  0.00     0.213 C 
ENDBRANCH  30  32
ENDBRANCH  18  30
ENDBRANCH   1  18
TORSDOF 10
ENDMDL
MODEL 2
REMARK VINA RESULT: -8.148479576      2.404      3.391
REMARK  10 active torsions:
REMARK  status: ('A' for Active; 'I' for Inactive)
REMARK    1  A    between atoms: S1_2  and  N1_4 
REMARK    2  A    between atoms: S1_2  and  C14_25 
REMARK       I    between atoms: N1_4  and  C2_6 
REMARK    3  A    between atoms: C2_6  and  O3_8 
REMARK    4  A    between atoms: O3_8  and  C3_9 
REMARK    5  A    between atoms: C3_9  and  C4_10 
REMARK    6  A    between atoms: C3_9  and  C12_21 
REMARK    7  A    between atoms: C4_10  and  C5_11 
REMARK    8  A    between atoms: C5_11  and  C6_13 
REMARK    9  A    between atoms: C11_18  and  O5_19 
REMARK   10  A    between atoms: C12_21  and  O7_23 
ROOT
HETATM    1  O3  UNL     1     -20.449   8.542  -9.565  1.00  0.00    -0.287 OA
ENDROOT
BRANCH   1   2
HETATM    2  C2  UNL     1     -19.102   8.334  -9.910  1.00  0.00     0.372 C 
HETATM    3  N1  UNL     1     -18.395   7.208  -9.431  1.00  0.00    -0.259 N 
ATOM      4  H1  UNL     1     -18.895   6.554  -8.830  1.00  0.00     0.181 HD
HETATM    5  O2  UNL     1     -18.587   9.190 -10.649  1.00  0.00    -0.238 OA
BRANCH   3   6
HETATM    6  S1  UNL     1     -16.776   6.869  -9.786  1.00  0.00     0.058 S 
HETATM    7  C1  UNL     1     -16.259   5.524  -9.085  1.00  0.00     0.142 C 
HETATM    8  O1  UNL     1     -16.687   6.425 -11.264  1.00  0.00    -0.245 OA
BRANCH   6   9
HETATM    9  C14 UNL     1     -15.670   8.169  -9.514  1.00  0.00     0.061 A 
HETATM   10  C15 UNL     1     -14.877   8.625 -10.566  1.00  0.00     0.049 A 
HETATM   11  C16 UNL     1     -13.951   9.626 -10.433  1.00  0.00     0.057 A 
HETATM   12 CL1  UNL     1     -12.990  10.148 -11.805  1.00  0.00    -0.083 Cl
HETATM   13  C17 UNL     1     -13.810  10.205  -9.173  1.00  0.00     0.057 A 
HETATM   14 CL2  UNL     1     -12.609  11.500  -9.006  1.00  0.00    -0.082 Cl
HETATM   15  C18 UNL     1     -14.574   9.783  -8.109  1.00  0.00     0.051 A 
HETATM   16  C19 UNL     1     -15.501   8.764  -8.292  1.00  0.00     0.055 A 
HETATM   17 CL3  UNL     1     -16.483   8.298  -6.910  1.00  0.00    -0.083 Cl
ENDBRANCH   6   9
ENDBRANCH   3   6
ENDBRANCH   1   2
BRANCH   1  18
HETATM   18  C3  UNL     1     -21.406   8.914 -10.566  1.00  0.00     0.240 C 
BRANCH  18  19
HETATM   19  C4  UNL     1     -22.441   7.845 -10.698  1.00  0.00     0.127 C 
BRANCH  19  20
HETATM   20  C5  UNL     1     -21.880   6.627 -11.295  1.00  0.00     0.165 C 
HETATM   21  O4  UNL     1     -21.065   6.756 -12.248  1.00  0.00    -0.292 OA
BRANCH  20  22
HETATM   22  C6  UNL     1     -22.175   5.270 -10.888  1.00  0.00     0.043 A 
HETATM   23  C7  UNL     1     -23.491   4.793 -10.902  1.00  0.00     0.018 A 
HETATM   24  C8  UNL     1     -23.808   3.506 -10.522  1.00  0.00     0.001 A 
HETATM   25  C9  UNL     1     -22.818   2.655 -10.117  1.00  0.00     0.003 A 
HETATM   26  C10 UNL     1     -21.508   3.093 -10.092  1.00  0.00     0.037 A 
HETATM   27  C11 UNL     1     -21.197   4.406 -10.480  1.00  0.00     0.079 A 
BRANCH  27  28
HETATM   28  O5  UNL     1     -19.882   4.809 -10.443  1.00  0.00    -0.360 OA
ATOM     29  H5  UNL     1     -19.268   4.512 -11.104  1.00  0.00     0.217 HD
ENDBRANCH  27  28
ENDBRANCH  20  22
ENDBRANCH  19  20
ENDBRANCH  18  19
BRANCH  18  30
HETATM   30  C12 UNL     1     -22.081  10.206 -10.125  1.00  0.00     0.288 C 
HETATM   31  O6  UNL     1     -22.870  10.741 -10.895  1.00  0.00    -0.262 OA
BRANCH  30  32
HETATM   32  O7  UNL     1     -21.754  10.685  -8.884  1.00  0.00    -0.324 OA
HETATM   33  C13 UNL     1     -22.663  10.656  -7.787  1.00  0.00     0.213 C 
ENDBRANCH  30  32
ENDBRANCH  18  30
ENDBRANCH   1  18
TORSDOF 10
ENDMDL
MODEL 3
REMARK VINA RESULT: -8.130342020      2.357      2.866
REMARK  10 active torsions:
REMARK  status: ('A' for Active; 'I' for Inactive)
REMARK    1  A    between atoms: S1_2  and  N1_4 
REMARK    2  A    between atoms: S1_2  and  C14_25 
REMARK       I    between atoms: N1_4  and  C2_6 
REMARK    3  A    between atoms: C2_6  and  O3_8 
REMARK    4  A    between atoms: O3_8  and  C3_9 
REMARK    5  A    between atoms: C3_9  and  C4_10 
REMARK    6  A    between atoms: C3_9  and  C12_21 
REMARK    7  A    between atoms: C4_10  and  C5_11 
REMARK    8  A    between atoms: C5_11  and  C6_13 
REMARK    9  A    between atoms: C11_18  and  O5_19 
REMARK   10  A    between atoms: C12_21  and  O7_23 
ROOT
HETATM    1  O3  UNL     1     -19.121  10.116 -11.174  1.00  0.00    -0.287 OA
ENDROOT
BRANCH   1   2
HETATM    2  C2  UNL     1     -17.890   9.485 -11.425  1.00  0.00     0.372 C 
HETATM    3  N1  UNL     1     -17.012   9.161 -10.367  1.00  0.00    -0.259 N 
ATOM      4  H1  UNL     1     -17.302   9.399  -9.418  1.00  0.00     0.181 HD
HETATM    5  O2  UNL     1     -17.633   9.239 -12.615  1.00  0.00    -0.238 OA
BRANCH   3   6
HETATM    6  S1  UNL     1     -15.511   8.404 -10.562  1.00  0.00     0.058 S 
HETATM    7  C1  UNL     1     -15.592   7.103 -11.492  1.00  0.00     0.142 C 
HETATM    8  O1  UNL     1     -14.632   9.299 -11.465  1.00  0.00    -0.245 OA
BRANCH   6   9
HETATM    9  C14 UNL     1     -14.660   8.061  -9.097  1.00  0.00     0.061 A 
HETATM   10  C15 UNL     1     -13.276   8.229  -9.054  1.00  0.00     0.049 A 
HETATM   11  C16 UNL     1     -12.518   7.949  -7.948  1.00  0.00     0.057 A 
HETATM   12 CL1  UNL     1     -10.779   8.186  -7.969  1.00  0.00    -0.083 Cl
HETATM   13  C17 UNL     1     -13.181   7.473  -6.819  1.00  0.00     0.057 A 
HETATM   14 CL2  UNL     1     -12.194   7.112  -5.390  1.00  0.00    -0.082 Cl
HETATM   15  C18 UNL     1     -14.545   7.294  -6.821  1.00  0.00     0.051 A 
HETATM   16  C19 UNL     1     -15.274   7.593  -7.966  1.00  0.00     0.055 A 
HETATM   17 CL3  UNL     1     -17.019   7.391  -7.897  1.00  0.00    -0.083 Cl
ENDBRANCH   6   9
ENDBRANCH   3   6
ENDBRANCH   1   2
BRANCH   1  18
HETATM   18  C3  UNL     1     -20.354   9.421 -11.404  1.00  0.00     0.240 C 
BRANCH  18  19
HETATM   19  C4  UNL     1     -20.345   8.120 -10.670  1.00  0.00     0.127 C 
BRANCH  19  20
HETATM   20  C5  UNL     1     -21.013   7.065 -11.440  1.00  0.00     0.165 C 
HETATM   21  O4  UNL     1     -20.835   7.039 -12.687  1.00  0.00    -0.292 OA
BRANCH  20  22
HETATM   22  C6  UNL     1     -21.871   6.033 -10.897  1.00  0.00     0.043 A 
HETATM   23  C7  UNL     1     -21.398   4.727 -10.734  1.00  0.00     0.018 A 
HETATM   24  C8  UNL     1     -22.187   3.720 -10.219  1.00  0.00     0.001 A 
HETATM   25  C9  UNL     1     -23.475   3.991  -9.850  1.00  0.00     0.003 A 
HETATM   26  C10 UNL     1     -23.974   5.270  -9.997  1.00  0.00     0.037 A 
HETATM   27  C11 UNL     1     -23.162   6.287 -10.523  1.00  0.00     0.079 A 
BRANCH  27  28
HETATM   28  O5  UNL     1     -23.691   7.550 -10.656  1.00  0.00    -0.360 OA
ATOM     29  H5  UNL     1     -24.597   7.718 -10.429  1.00  0.00     0.217 HD
ENDBRANCH  27  28
ENDBRANCH  20  22
ENDBRANCH  19  20
ENDBRANCH  18  19
BRANCH  18  30
HETATM   30  C12 UNL     1     -21.494  10.282 -10.877  1.00  0.00     0.288 C 
HETATM   31  O6  UNL     1     -22.483  10.432 -11.584  1.00  0.00    -0.262 OA
BRANCH  30  32
HETATM   32  O7  UNL     1     -21.331  10.834  -9.633  1.00  0.00    -0.324 OA
HETATM   33  C13 UNL     1     -22.158  10.488  -8.526  1.00  0.00     0.213 C 
ENDBRANCH  30  32
ENDBRANCH  18  30
ENDBRANCH   1  18
TORSDOF 10
ENDMDL
MODEL 4
REMARK VINA RESULT: -8.097453396      1.687      2.306
REMARK  10 active torsions:
REMARK  status: ('A' for Active; 'I' for Inactive)
REMARK    1  A    between atoms: S1_2  and  N1_4 
REMARK    2  A    between atoms: S1_2  and  C14_25 
REMARK       I    between atoms: N1_4  and  C2_6 
REMARK    3  A    between atoms: C2_6  and  O3_8 
REMARK    4  A    between atoms: O3_8  and  C3_9 
REMARK    5  A    between atoms: C3_9  and  C4_10 
REMARK    6  A    between atoms: C3_9  and  C12_21 
REMARK    7  A    between atoms: C4_10  and  C5_11 
REMARK    8  A    between atoms: C5_11  and  C6_13 
REMARK    9  A    between atoms: C11_18  and  O5_19 
REMARK   10  A    between atoms: C12_21  and  O7_23 
ROOT
HETATM    1  O3  UNL     1     -20.114   8.268  -9.912  1.00  0.00    -0.287 OA
ENDROOT
BRANCH   1   2
HETATM    2  C2  UNL     1     -18.755   8.085  -9.604  1.00  0.00     0.372 C 
HETATM    3  N1  UNL     1     -17.796   7.907 -10.626  1.00  0.00    -0.259 N 
ATOM      4  H1  UNL     1     -18.124   7.917 -11.592  1.00  0.00     0.181 HD
HETATM    5  O2  UNL     1     -18.461   8.090  -8.397  1.00  0.00    -0.238 OA
BRANCH   3   6
HETATM    6  S1  UNL     1     -16.141   7.679 -10.362  1.00  0.00     0.058 S 
HETATM    7  C1  UNL     1     -15.335   7.378 -11.713  1.00  0.00     0.142 C 
HETATM    8  O1  UNL     1     -15.515   9.046 -10.001  1.00  0.00    -0.245 OA
BRANCH   6   9
HETATM    9  C14 UNL     1     -15.739   6.528  -9.136  1.00  0.00     0.061 A 
HETATM   10  C15 UNL     1     -14.958   6.926  -8.051  1.00  0.00     0.049 A 
HETATM   11  C16 UNL     1     -14.565   6.074  -7.054  1.00  0.00     0.057 A 
HETATM   12 CL1  UNL     1     -13.583   6.650  -5.719  1.00  0.00    -0.083 Cl
HETATM   13  C17 UNL     1     -14.975   4.746  -7.145  1.00  0.00     0.057 A 
HETATM   14 CL2  UNL     1     -14.462   3.647  -5.851  1.00  0.00    -0.082 Cl
HETATM   15  C18 UNL     1     -15.746   4.313  -8.199  1.00  0.00     0.051 A 
HETATM   16  C19 UNL     1     -16.123   5.214  -9.189  1.00  0.00     0.055 A 
HETATM   17 CL3  UNL     1     -17.148   4.618 -10.487  1.00  0.00    -0.083 Cl
ENDBRANCH   6   9
ENDBRANCH   3   6
ENDBRANCH   1   2
BRANCH   1  18
HETATM   18  C3  UNL     1     -20.504   8.857 -11.160  1.00  0.00     0.240 C 
BRANCH  18  19
HETATM   19  C4  UNL     1     -21.399   7.919 -11.903  1.00  0.00     0.127 C 
BRANCH  19  20
HETATM   20  C5  UNL     1     -22.235   7.137 -10.985  1.00  0.00     0.165 C 
HETATM   21  O4  UNL     1     -23.145   7.739 -10.354  1.00  0.00    -0.292 OA
BRANCH  20  22
HETATM   22  C6  UNL     1     -22.115   5.718 -10.730  1.00  0.00     0.043 A 
HETATM   23  C7  UNL     1     -20.855   5.119 -10.621  1.00  0.00     0.018 A 
HETATM   24  C8  UNL     1     -20.704   3.770 -10.377  1.00  0.00     0.001 A 
HETATM   25  C9  UNL     1     -21.809   2.979 -10.233  1.00  0.00     0.003 A 
HETATM   26  C10 UNL     1     -23.068   3.537 -10.334  1.00  0.00     0.037 A 
HETATM   27  C11 UNL     1     -23.210   4.912 -10.583  1.00  0.00     0.079 A 
BRANCH  27  28
HETATM   28  O5  UNL     1     -24.479   5.436 -10.678  1.00  0.00    -0.360 OA
ATOM     29  H5  UNL     1     -25.095   5.338  -9.962  1.00  0.00     0.217 HD
ENDBRANCH  27  28
ENDBRANCH  20  22
ENDBRANCH  19  20
ENDBRANCH  18  19
BRANCH  18  30
HETATM   30  C12 UNL     1     -21.265  10.142 -10.866  1.00  0.00     0.288 C 
HETATM   31  O6  UNL     1     -21.922  10.647 -11.769  1.00  0.00    -0.262 OA
BRANCH  30  32
HETATM   32  O7  UNL     1     -21.160  10.650  -9.598  1.00  0.00    -0.324 OA
HETATM   33  C13 UNL     1     -22.167  10.457  -8.609  1.00  0.00     0.213 C 
ENDBRANCH  30  32
ENDBRANCH  18  30
ENDBRANCH   1  18
TORSDOF 10
ENDMDL
MODEL 5
REMARK VINA RESULT: -8.065198707      1.915      2.638
REMARK  10 active torsions:
REMARK  status: ('A' for Active; 'I' for Inactive)
REMARK    1  A    between atoms: S1_2  and  N1_4 
REMARK    2  A    between atoms: S1_2  and  C14_25 
REMARK       I    between atoms: N1_4  and  C2_6 
REMARK    3  A    between atoms: C2_6  and  O3_8 
REMARK    4  A    between atoms: O3_8  and  C3_9 
REMARK    5  A    between atoms: C3_9  and  C4_10 
REMARK    6  A    between atoms: C3_9  and  C12_21 
REMARK    7  A    between atoms: C4_10  and  C5_11 
REMARK    8  A    between atoms: C5_11  and  C6_13 
REMARK    9  A    between atoms: C11_18  and  O5_19 
REMARK   10  A    between atoms: C12_21  and  O7_23 
ROOT
HETATM    1  O3  UNL     1     -20.027   8.532  -9.973  1.00  0.00    -0.287 OA
ENDROOT
BRANCH   1   2
HETATM    2  C2  UNL     1     -18.668   8.200  -9.825  1.00  0.00     0.372 C 
HETATM    3  N1  UNL     1     -18.177   7.681  -8.606  1.00  0.00    -0.259 N 
ATOM      4  H1  UNL     1     -18.840   7.556  -7.841  1.00  0.00     0.181 HD
HETATM    5  O2  UNL     1     -17.947   8.389 -10.818  1.00  0.00    -0.238 OA
BRANCH   3   6
HETATM    6  S1  UNL     1     -16.565   7.251  -8.326  1.00  0.00     0.058 S 
HETATM    7  C1  UNL     1     -15.546   8.453  -8.614  1.00  0.00     0.142 C 
HETATM    8  O1  UNL     1     -16.358   7.114  -6.800  1.00  0.00    -0.245 OA
BRANCH   6   9
HETATM    9  C14 UNL     1     -16.040   5.799  -9.104  1.00  0.00     0.061 A 
HETATM   10  C15 UNL     1     -16.791   5.277 -10.158  1.00  0.00     0.049 A 
HETATM   11  C16 UNL     1     -16.468   4.116 -10.808  1.00  0.00     0.057 A 
HETATM   12 CL1  UNL     1     -17.461   3.521 -12.127  1.00  0.00    -0.083 Cl
HETATM   13  C17 UNL     1     -15.330   3.435 -10.381  1.00  0.00     0.057 A 
HETATM   14 CL2  UNL     1     -14.917   1.932 -11.227  1.00  0.00    -0.082 Cl
HETATM   15  C18 UNL     1     -14.563   3.918  -9.346  1.00  0.00     0.051 A 
HETATM   16  C19 UNL     1     -14.928   5.102  -8.715  1.00  0.00     0.055 A 
HETATM   17 CL3  UNL     1     -13.886   5.696  -7.430  1.00  0.00    -0.083 Cl
ENDBRANCH   6   9
ENDBRANCH   3   6
ENDBRANCH   1   2
BRANCH   1  18
HETATM   18  C3  UNL     1     -20.505   9.106 -11.197  1.00  0.00     0.240 C 
BRANCH  18  19
HETATM   19  C4  UNL     1     -21.343   8.110 -11.929  1.00  0.00     0.127 C 
BRANCH  19  20
HETATM   20  C5  UNL     1     -22.139   7.296 -11.002  1.00  0.00     0.165 C 
HETATM   21  O4  UNL     1     -23.054   7.867 -10.349  1.00  0.00    -0.292 OA
BRANCH  20  22
HETATM   22  C6  UNL     1     -21.974   5.879 -10.762  1.00  0.00     0.043 A 
HETATM   23  C7  UNL     1     -20.696   5.322 -10.637  1.00  0.00     0.018 A 
HETATM   24  C8  UNL     1     -20.502   3.977 -10.406  1.00  0.00     0.001 A 
HETATM   25  C9  UNL     1     -21.581   3.146 -10.293  1.00  0.00     0.003 A 
HETATM   26  C10 UNL     1     -22.857   3.661 -10.411  1.00  0.00     0.037 A 
HETATM   27  C11 UNL     1     -23.043   5.034 -10.647  1.00  0.00     0.079 A 
BRANCH  27  28
HETATM   28  O5  UNL     1     -24.327   5.514 -10.759  1.00  0.00    -0.360 OA
ATOM     29  H5  UNL     1     -24.876   5.255 -11.489  1.00  0.00     0.217 HD
ENDBRANCH  27  28
ENDBRANCH  20  22
ENDBRANCH  19  20
ENDBRANCH  18  19
BRANCH  18  30
HETATM   30  C12 UNL     1     -21.360  10.319 -10.854  1.00  0.00     0.288 C 
HETATM   31  O6  UNL     1     -22.079  10.788 -11.729  1.00  0.00    -0.262 OA
BRANCH  30  32
HETATM   32  O7  UNL     1     -21.266  10.804  -9.577  1.00  0.00    -0.324 OA
HETATM   33  C13 UNL     1     -22.240  10.525  -8.576  1.00  0.00     0.213 C 
ENDBRANCH  30  32
ENDBRANCH  18  30
ENDBRANCH   1  18
TORSDOF 10
ENDMDL
