MODEL 1
REMARK VINA RESULT: -8.760870893      0.000      0.000
REMARK  9 active torsions:
REMARK  status: ('A' for Active; 'I' for Inactive)
REMARK    1  A    between atoms: C2_2  and  C3_3 
REMARK    2  A    between atoms: C3_3  and  N1_4 
REMARK    3  A    between atoms: C6_7  and  N2_8 
REMARK    4  A    between atoms: N2_8  and  C7_9 
REMARK    5  A    between atoms: N3_11  and  C8_12 
REMARK    6  A    between atoms: C8_12  and  C9_13 
REMARK    7  A    between atoms: C13_18  and  N5_19 
REMARK    8  A    between atoms: C15_21  and  C16_22 
REMARK    9  A    between atoms: C22_31  and  C23_32 
ROOT
HETATM    1  C9  UNL     1     -17.335   7.694 -11.367  1.00  0.00     0.155 C 
HETATM    2  C10 UNL     1     -17.826   9.046 -11.486  1.00  0.00     0.061 C 
HETATM    3  N4  UNL     1     -18.205  10.141 -11.575  1.00  0.00    -0.197 NA
ENDROOT
BRANCH   1   4
HETATM    4  C8  UNL     1     -17.803   7.012 -10.086  1.00  0.00     0.056 C 
HETATM    5  C11 UNL     1     -17.799   7.928  -8.921  1.00  0.00     0.035 C 
HETATM    6  C12 UNL     1     -16.410   8.129  -8.392  1.00  0.00     0.028 C 
HETATM    7  C13 UNL     1     -15.933   6.780  -7.902  1.00  0.00     0.084 C 
HETATM    8  C19 UNL     1     -15.803   5.864  -9.082  1.00  0.00     0.028 C 
HETATM    9  C20 UNL     1     -17.053   5.737  -9.895  1.00  0.00     0.035 C 
BRANCH   4  10
HETATM   10  N3  UNL     1     -19.209   6.641 -10.346  1.00  0.00    -0.314 N 
HETATM   11  S1  UNL     1     -19.831   5.138 -10.718  1.00  0.00     0.022 SA
HETATM   12  C7  UNL     1     -21.522   5.540 -10.873  1.00  0.00     0.174 A 
HETATM   13  C22 UNL     1     -21.465   6.915 -10.602  1.00  0.00     0.094 A 
HETATM   14  C21 UNL     1     -20.277   7.433 -10.340  1.00  0.00     0.120 A 
BRANCH  12  15
HETATM   15  N2  UNL     1     -22.487   4.842 -11.146  1.00  0.00    -0.431 NA
BRANCH  15  16
HETATM   16  C6  UNL     1     -23.516   4.094 -11.443  1.00  0.00     0.194 C 
HETATM   17  C5  UNL     1     -24.755   4.802 -12.027  1.00  0.00     0.071 C 
HETATM   18  C4  UNL     1     -25.780   3.688 -11.902  1.00  0.00     0.276 C 
HETATM   19  N1  UNL     1     -25.464   2.963 -10.717  1.00  0.00     0.095 N 
HETATM   20  C24 UNL     1     -24.125   3.236 -10.319  1.00  0.00     0.312 C 
BRANCH  19  21
HETATM   21  C3  UNL     1     -26.382   3.301  -9.663  1.00  0.00     0.299 C 
BRANCH  21  22
HETATM   22  C2  UNL     1     -25.679   3.109  -8.369  1.00  0.00    -0.007 C 
HETATM   23  C1  UNL     1     -26.310   3.058  -7.203  1.00  0.00     0.008 C 
ENDBRANCH  21  22
ENDBRANCH  19  21
ENDBRANCH  15  16
ENDBRANCH  12  15
BRANCH  13  24
HETATM   24  C23 UNL     1     -22.726   7.711 -10.626  1.00  0.00     0.270 C 
HETATM   25  N6  UNL     1     -22.762   9.027 -11.160  1.00  0.00    -0.057 NA
HETATM   26  O1  UNL     1     -23.786   7.251 -10.181  1.00  0.00    -0.271 OA
ENDBRANCH  13  24
ENDBRANCH   4  10
BRANCH   7  27
HETATM   27  N5  UNL     1     -14.659   6.866  -7.239  1.00  0.00    -0.385 N 
HETATM   28  C14 UNL     1     -13.506   7.468  -7.805  1.00  0.00     0.097 C 
HETATM   29  C15 UNL     1     -12.519   7.480  -6.922  1.00  0.00     0.042 C 
HETATM   30  C17 UNL     1     -12.945   6.860  -5.635  1.00  0.00     0.064 C 
HETATM   31  C18 UNL     1     -14.342   6.364  -5.911  1.00  0.00     0.127 C 
BRANCH  29  32
HETATM   32  C16 UNL     1     -11.157   8.024  -7.133  1.00  0.00     0.415 C 
HETATM   33  F1  UNL     1     -11.289   9.073  -8.040  1.00  0.00    -0.166 F 
HETATM   34  F2  UNL     1     -10.694   8.563  -5.945  1.00  0.00    -0.166 F 
HETATM   35  F3  UNL     1     -10.270   7.085  -7.571  1.00  0.00    -0.166 F 
ENDBRANCH  29  32
ENDBRANCH   7  27
ENDBRANCH   1   4
TORSDOF 9
ENDMDL
MODEL 2
REMARK VINA RESULT: -8.723222206      5.913     10.835
REMARK  9 active torsions:
REMARK  status: ('A' for Active; 'I' for Inactive)
REMARK    1  A    between atoms: C2_2  and  C3_3 
REMARK    2  A    between atoms: C3_3  and  N1_4 
REMARK    3  A    between atoms: C6_7  and  N2_8 
REMARK    4  A    between atoms: N2_8  and  C7_9 
REMARK    5  A    between atoms: N3_11  and  C8_12 
REMARK    6  A    between atoms: C8_12  and  C9_13 
REMARK    7  A    between atoms: C13_18  and  N5_19 
REMARK    8  A    between atoms: C15_21  and  C16_22 
REMARK    9  A    between atoms: C22_31  and  C23_32 
ROOT
HETATM    1  C9  UNL     1     -20.533   8.747  -9.096  1.00  0.00     0.155 C 
HETATM    2  C10 UNL     1     -21.462   9.842  -8.951  1.00  0.00     0.061 C 
HETATM    3  N4  UNL     1     -22.224  10.712  -8.830  1.00  0.00    -0.197 NA
ENDROOT
BRANCH   1   4
HETATM    4  C8  UNL     1     -20.402   8.278 -10.541  1.00  0.00     0.056 C 
HETATM    5  C11 UNL     1     -21.588   8.623 -11.360  1.00  0.00     0.035 C 
HETATM    6  C12 UNL     1     -22.730   7.692 -11.084  1.00  0.00     0.028 C 
HETATM    7  C13 UNL     1     -22.278   6.313 -11.511  1.00  0.00     0.084 C 
HETATM    8  C19 UNL     1     -21.159   5.880 -10.612  1.00  0.00     0.028 C 
HETATM    9  C20 UNL     1     -20.011   6.839 -10.566  1.00  0.00     0.035 C 
BRANCH   4  10
HETATM   10  N3  UNL     1     -19.258   9.037 -11.085  1.00  0.00    -0.314 N 
HETATM   11  S1  UNL     1     -19.205  10.638 -11.552  1.00  0.00     0.022 SA
HETATM   12  C7  UNL     1     -17.543  10.749 -12.068  1.00  0.00     0.174 A 
HETATM   13  C22 UNL     1     -17.128   9.432 -11.818  1.00  0.00     0.094 A 
HETATM   14  C21 UNL     1     -18.025   8.598 -11.320  1.00  0.00     0.120 A 
BRANCH  12  15
HETATM   15  N2  UNL     1     -16.909  11.688 -12.526  1.00  0.00    -0.431 NA
BRANCH  15  16
HETATM   16  C6  UNL     1     -16.230  12.694 -13.010  1.00  0.00     0.194 C 
HETATM   17  C5  UNL     1     -16.997  14.009 -13.254  1.00  0.00     0.071 C 
HETATM   18  C4  UNL     1     -15.981  14.755 -14.099  1.00  0.00     0.276 C 
HETATM   19  N1  UNL     1     -15.310  13.784 -14.897  1.00  0.00     0.095 N 
HETATM   20  C24 UNL     1     -15.498  12.485 -14.348  1.00  0.00     0.312 C 
BRANCH  19  21
HETATM   21  C3  UNL     1     -15.788  13.832 -16.253  1.00  0.00     0.299 C 
BRANCH  21  22
HETATM   22  C2  UNL     1     -15.858  12.438 -16.760  1.00  0.00    -0.007 C 
HETATM   23  C1  UNL     1     -16.536  12.097 -17.848  1.00  0.00     0.008 C 
ENDBRANCH  21  22
ENDBRANCH  19  21
ENDBRANCH  15  16
ENDBRANCH  12  15
BRANCH  13  24
HETATM   24  C23 UNL     1     -15.720   9.046 -12.123  1.00  0.00     0.270 C 
HETATM   25  N6  UNL     1     -14.679   9.231 -11.173  1.00  0.00    -0.057 NA
HETATM   26  O1  UNL     1     -15.410   8.550 -13.214  1.00  0.00    -0.271 OA
ENDBRANCH  13  24
ENDBRANCH   4  10
BRANCH   7  27
HETATM   27  N5  UNL     1     -23.341   5.347 -11.426  1.00  0.00    -0.385 N 
HETATM   28  C14 UNL     1     -23.800   4.771 -10.214  1.00  0.00     0.097 C 
HETATM   29  C15 UNL     1     -24.846   3.994 -10.447  1.00  0.00     0.042 C 
HETATM   30  C17 UNL     1     -25.193   3.983 -11.896  1.00  0.00     0.064 C 
HETATM   31  C18 UNL     1     -24.108   4.809 -12.540  1.00  0.00     0.127 C 
BRANCH  29  32
HETATM   32  C16 UNL     1     -25.607   3.219  -9.439  1.00  0.00     0.415 C 
HETATM   33  F1  UNL     1     -26.524   2.447 -10.147  1.00  0.00    -0.166 F 
HETATM   34  F2  UNL     1     -24.748   2.347  -8.792  1.00  0.00    -0.166 F 
HETATM   35  F3  UNL     1     -26.220   4.009  -8.511  1.00  0.00    -0.166 F 
ENDBRANCH  29  32
ENDBRANCH   7  27
ENDBRANCH   1   4
TORSDOF 9
ENDMDL
MODEL 3
REMARK VINA RESULT: -8.649275906      5.876     10.683
REMARK  9 active torsions:
REMARK  status: ('A' for Active; 'I' for Inactive)
REMARK    1  A    between atoms: C2_2  and  C3_3 
REMARK    2  A    between atoms: C3_3  and  N1_4 
REMARK    3  A    between atoms: C6_7  and  N2_8 
REMARK    4  A    between atoms: N2_8  and  C7_9 
REMARK    5  A    between atoms: N3_11  and  C8_12 
REMARK    6  A    between atoms: C8_12  and  C9_13 
REMARK    7  A    between atoms: C13_18  and  N5_19 
REMARK    8  A    between atoms: C15_21  and  C16_22 
REMARK    9  A    between atoms: C22_31  and  C23_32 
ROOT
HETATM    1  C9  UNL     1     -19.393   8.187  -9.135  1.00  0.00     0.155 C 
HETATM    2  C10 UNL     1     -18.121   7.740  -8.619  1.00  0.00     0.061 C 
HETATM    3  N4  UNL     1     -17.090   7.397  -8.207  1.00  0.00    -0.197 NA
ENDROOT
BRANCH   1   4
HETATM    4  C8  UNL     1     -19.573   7.858 -10.613  1.00  0.00     0.056 C 
HETATM    5  C11 UNL     1     -20.842   8.390 -11.164  1.00  0.00     0.035 C 
HETATM    6  C12 UNL     1     -22.009   7.541 -10.758  1.00  0.00     0.028 C 
HETATM    7  C13 UNL     1     -21.789   6.178 -11.377  1.00  0.00     0.084 C 
HETATM    8  C19 UNL     1     -20.580   5.557 -10.744  1.00  0.00     0.028 C 
HETATM    9  C20 UNL     1     -19.347   6.400 -10.833  1.00  0.00     0.035 C 
BRANCH   4  10
HETATM   10  N3  UNL     1     -18.470   8.564 -11.296  1.00  0.00    -0.314 N 
HETATM   11  S1  UNL     1     -18.426  10.145 -11.832  1.00  0.00     0.022 SA
HETATM   12  C7  UNL     1     -16.820  10.190 -12.510  1.00  0.00     0.174 A 
HETATM   13  C22 UNL     1     -16.412   8.874 -12.247  1.00  0.00     0.094 A 
HETATM   14  C21 UNL     1     -17.276   8.084 -11.631  1.00  0.00     0.120 A 
BRANCH  12  15
HETATM   15  N2  UNL     1     -16.212  11.094 -13.065  1.00  0.00    -0.431 NA
BRANCH  15  16
HETATM   16  C6  UNL     1     -15.559  12.056 -13.662  1.00  0.00     0.194 C 
HETATM   17  C5  UNL     1     -16.167  13.470 -13.586  1.00  0.00     0.071 C 
HETATM   18  C4  UNL     1     -15.333  14.174 -14.642  1.00  0.00     0.276 C 
HETATM   19  N1  UNL     1     -15.061  13.217 -15.662  1.00  0.00     0.095 N 
HETATM   20  C24 UNL     1     -15.271  11.900 -15.166  1.00  0.00     0.312 C 
BRANCH  19  21
HETATM   21  C3  UNL     1     -15.889  13.460 -16.812  1.00  0.00     0.299 C 
BRANCH  21  22
HETATM   22  C2  UNL     1     -16.291  12.144 -17.370  1.00  0.00    -0.007 C 
HETATM   23  C1  UNL     1     -16.327  11.890 -18.672  1.00  0.00     0.008 C 
ENDBRANCH  21  22
ENDBRANCH  19  21
ENDBRANCH  15  16
ENDBRANCH  12  15
BRANCH  13  24
HETATM   24  C23 UNL     1     -15.050   8.438 -12.670  1.00  0.00     0.270 C 
HETATM   25  N6  UNL     1     -13.967   8.401 -11.752  1.00  0.00    -0.057 NA
HETATM   26  O1  UNL     1     -14.817   8.093 -13.836  1.00  0.00    -0.271 OA
ENDBRANCH  13  24
ENDBRANCH   4  10
BRANCH   7  27
HETATM   27  N5  UNL     1     -22.917   5.307 -11.177  1.00  0.00    -0.385 N 
HETATM   28  C14 UNL     1     -23.339   4.829  -9.910  1.00  0.00     0.097 C 
HETATM   29  C15 UNL     1     -24.456   4.129 -10.036  1.00  0.00     0.042 C 
HETATM   30  C17 UNL     1     -24.896   4.077 -11.460  1.00  0.00     0.064 C 
HETATM   31  C18 UNL     1     -23.794   4.780 -12.211  1.00  0.00     0.127 C 
BRANCH  29  32
HETATM   32  C16 UNL     1     -25.208   3.468  -8.945  1.00  0.00     0.415 C 
HETATM   33  F1  UNL     1     -24.739   2.159  -8.881  1.00  0.00    -0.166 F 
HETATM   34  F2  UNL     1     -24.892   4.077  -7.742  1.00  0.00    -0.166 F 
HETATM   35  F3  UNL     1     -26.559   3.514  -9.124  1.00  0.00    -0.166 F 
ENDBRANCH  29  32
ENDBRANCH   7  27
ENDBRANCH   1   4
TORSDOF 9
ENDMDL
MODEL 4
REMARK VINA RESULT: -8.543400596      5.587      9.944
REMARK  9 active torsions:
REMARK  status: ('A' for Active; 'I' for Inactive)
REMARK    1  A    between atoms: C2_2  and  C3_3 
REMARK    2  A    between atoms: C3_3  and  N1_4 
REMARK    3  A    between atoms: C6_7  and  N2_8 
REMARK    4  A    between atoms: N2_8  and  C7_9 
REMARK    5  A    between atoms: N3_11  and  C8_12 
REMARK    6  A    between atoms: C8_12  and  C9_13 
REMARK    7  A    between atoms: C13_18  and  N5_19 
REMARK    8  A    between atoms: C15_21  and  C16_22 
REMARK    9  A    between atoms: C22_31  and  C23_32 
ROOT
HETATM    1  C9  UNL     1     -14.538   7.826  -8.996  1.00  0.00     0.155 C 
HETATM    2  C10 UNL     1     -14.661   8.968  -8.122  1.00  0.00     0.061 C 
HETATM    3  N4  UNL     1     -14.746   9.881  -7.408  1.00  0.00    -0.197 NA
ENDROOT
BRANCH   1   4
HETATM    4  C8  UNL     1     -15.520   6.712  -8.646  1.00  0.00     0.056 C 
HETATM    5  C11 UNL     1     -15.962   5.949  -9.836  1.00  0.00     0.035 C 
HETATM    6  C12 UNL     1     -16.991   6.709 -10.618  1.00  0.00     0.028 C 
HETATM    7  C13 UNL     1     -18.194   6.865  -9.714  1.00  0.00     0.084 C 
HETATM    8  C19 UNL     1     -17.812   7.744  -8.561  1.00  0.00     0.028 C 
HETATM    9  C20 UNL     1     -16.618   7.262  -7.799  1.00  0.00     0.035 C 
BRANCH   4  10
HETATM   10  N3  UNL     1     -14.751   5.784  -7.792  1.00  0.00    -0.314 N 
HETATM   11  S1  UNL     1     -15.305   4.457  -6.945  1.00  0.00     0.022 SA
HETATM   12  C7  UNL     1     -13.816   3.923  -6.209  1.00  0.00     0.174 A 
HETATM   13  C22 UNL     1     -12.939   4.893  -6.718  1.00  0.00     0.094 A 
HETATM   14  C21 UNL     1     -13.451   5.816  -7.515  1.00  0.00     0.120 A 
BRANCH  12  15
HETATM   15  N2  UNL     1     -13.587   2.987  -5.459  1.00  0.00    -0.431 NA
BRANCH  15  16
HETATM   16  C6  UNL     1     -13.346   1.986  -4.654  1.00  0.00     0.194 C 
HETATM   17  C5  UNL     1     -11.898   1.458  -4.601  1.00  0.00     0.071 C 
HETATM   18  C4  UNL     1     -12.120   0.152  -3.860  1.00  0.00     0.276 C 
HETATM   19  N1  UNL     1     -13.390  -0.348  -4.270  1.00  0.00     0.095 N 
HETATM   20  C24 UNL     1     -14.161   0.694  -4.854  1.00  0.00     0.312 C 
BRANCH  19  21
HETATM   21  C3  UNL     1     -13.225  -1.434  -5.198  1.00  0.00     0.299 C 
BRANCH  21  22
HETATM   22  C2  UNL     1     -14.476  -1.550  -5.989  1.00  0.00    -0.007 C 
HETATM   23  C1  UNL     1     -14.932  -2.704  -6.459  1.00  0.00     0.008 C 
ENDBRANCH  21  22
ENDBRANCH  19  21
ENDBRANCH  15  16
ENDBRANCH  12  15
BRANCH  13  24
HETATM   24  C23 UNL     1     -11.497   4.835  -6.340  1.00  0.00     0.270 C 
HETATM   25  N6  UNL     1     -10.586   3.987  -7.024  1.00  0.00    -0.057 NA
HETATM   26  O1  UNL     1     -11.046   5.526  -5.417  1.00  0.00    -0.271 OA
ENDBRANCH  13  24
ENDBRANCH   4  10
BRANCH   7  27
HETATM   27  N5  UNL     1     -19.310   7.460 -10.400  1.00  0.00    -0.385 N 
HETATM   28  C14 UNL     1     -19.690   8.820 -10.275  1.00  0.00     0.097 C 
HETATM   29  C15 UNL     1     -20.691   9.093 -11.098  1.00  0.00     0.042 C 
HETATM   30  C17 UNL     1     -21.083   7.885 -11.879  1.00  0.00     0.064 C 
HETATM   31  C18 UNL     1     -20.218   6.786 -11.317  1.00  0.00     0.127 C 
BRANCH  29  32
HETATM   32  C16 UNL     1     -21.365  10.402 -11.261  1.00  0.00     0.415 C 
HETATM   33  F1  UNL     1     -21.461  10.956  -9.987  1.00  0.00    -0.166 F 
HETATM   34  F2  UNL     1     -20.557  11.238 -12.012  1.00  0.00    -0.166 F 
HETATM   35  F3  UNL     1     -22.584  10.302 -11.864  1.00  0.00    -0.166 F 
ENDBRANCH  29  32
ENDBRANCH   7  27
ENDBRANCH   1   4
TORSDOF 9
ENDMDL
MODEL 5
REMARK VINA RESULT: -8.527747460      6.175     11.089
REMARK  9 active torsions:
REMARK  status: ('A' for Active; 'I' for Inactive)
REMARK    1  A    between atoms: C2_2  and  C3_3 
REMARK    2  A    between atoms: C3_3  and  N1_4 
REMARK    3  A    between atoms: C6_7  and  N2_8 
REMARK    4  A    between atoms: N2_8  and  C7_9 
REMARK    5  A    between atoms: N3_11  and  C8_12 
REMARK    6  A    between atoms: C8_12  and  C9_13 
REMARK    7  A    between atoms: C13_18  and  N5_19 
REMARK    8  A    between atoms: C15_21  and  C16_22 
REMARK    9  A    between atoms: C22_31  and  C23_32 
ROOT
HETATM    1  C9  UNL     1     -20.551  10.514 -11.387  1.00  0.00     0.155 C 
HETATM    2  C10 UNL     1     -21.222  10.599 -10.111  1.00  0.00     0.061 C 
HETATM    3  N4  UNL     1     -21.752  10.683  -9.080  1.00  0.00    -0.197 NA
ENDROOT
BRANCH   1   4
HETATM    4  C8  UNL     1     -19.394   9.521 -11.374  1.00  0.00     0.056 C 
HETATM    5  C11 UNL     1     -19.450   8.568 -12.506  1.00  0.00     0.035 C 
HETATM    6  C12 UNL     1     -20.468   7.494 -12.263  1.00  0.00     0.028 C 
HETATM    7  C13 UNL     1     -20.001   6.721 -11.050  1.00  0.00     0.084 C 
HETATM    8  C19 UNL     1     -20.057   7.627  -9.857  1.00  0.00     0.028 C 
HETATM    9  C20 UNL     1     -19.284   8.898 -10.023  1.00  0.00     0.035 C 
BRANCH   4  10
HETATM   10  N3  UNL     1     -18.183  10.347 -11.557  1.00  0.00    -0.314 N 
HETATM   11  S1  UNL     1     -16.619  10.015 -11.079  1.00  0.00     0.022 SA
HETATM   12  C7  UNL     1     -15.815  11.453 -11.649  1.00  0.00     0.174 A 
HETATM   13  C22 UNL     1     -16.908  12.131 -12.209  1.00  0.00     0.094 A 
HETATM   14  C21 UNL     1     -18.088  11.538 -12.143  1.00  0.00     0.120 A 
BRANCH  12  15
HETATM   15  N2  UNL     1     -14.643  11.793 -11.581  1.00  0.00    -0.431 NA
BRANCH  15  16
HETATM   16  C6  UNL     1     -13.389  12.156 -11.515  1.00  0.00     0.194 C 
HETATM   17  C5  UNL     1     -12.820  12.466 -10.116  1.00  0.00     0.071 C 
HETATM   18  C4  UNL     1     -11.521  13.148 -10.504  1.00  0.00     0.276 C 
HETATM   19  N1  UNL     1     -11.774  13.875 -11.703  1.00  0.00     0.095 N 
HETATM   20  C24 UNL     1     -12.957  13.390 -12.328  1.00  0.00     0.312 C 
BRANCH  19  21
HETATM   21  C3  UNL     1     -11.894  15.280 -11.422  1.00  0.00     0.299 C 
BRANCH  21  22
HETATM   22  C2  UNL     1     -13.210  15.737 -11.935  1.00  0.00    -0.007 C 
HETATM   23  C1  UNL     1     -13.844  16.800 -11.456  1.00  0.00     0.008 C 
ENDBRANCH  21  22
ENDBRANCH  19  21
ENDBRANCH  15  16
ENDBRANCH  12  15
BRANCH  13  24
HETATM   24  C23 UNL     1     -16.688  13.465 -12.839  1.00  0.00     0.270 C 
HETATM   25  N6  UNL     1     -16.129  13.587 -14.139  1.00  0.00    -0.057 NA
HETATM   26  O1  UNL     1     -16.986  14.513 -12.250  1.00  0.00    -0.271 OA
ENDBRANCH  13  24
ENDBRANCH   4  10
BRANCH   7  27
HETATM   27  N5  UNL     1     -20.825   5.569 -10.796  1.00  0.00    -0.385 N 
HETATM   28  C14 UNL     1     -22.237   5.555 -10.924  1.00  0.00     0.097 C 
HETATM   29  C15 UNL     1     -22.702   4.333 -10.717  1.00  0.00     0.042 C 
HETATM   30  C17 UNL     1     -21.593   3.382 -10.420  1.00  0.00     0.064 C 
HETATM   31  C18 UNL     1     -20.364   4.255 -10.374  1.00  0.00     0.127 C 
BRANCH  29  32
HETATM   32  C16 UNL     1     -24.122   3.912 -10.763  1.00  0.00     0.415 C 
HETATM   33  F1  UNL     1     -24.487   3.907 -12.107  1.00  0.00    -0.166 F 
HETATM   34  F2  UNL     1     -24.225   2.609 -10.305  1.00  0.00    -0.166 F 
HETATM   35  F3  UNL     1     -24.940   4.710 -10.019  1.00  0.00    -0.166 F 
ENDBRANCH  29  32
ENDBRANCH   7  27
ENDBRANCH   1   4
TORSDOF 9
ENDMDL
