MODEL 1
REMARK VINA RESULT: -8.625146317      0.000      0.000
REMARK  8 active torsions:
REMARK  status: ('A' for Active; 'I' for Inactive)
REMARK    1  A    between atoms: C2_2  and  O1_3 
REMARK    2  A    between atoms: O1_3  and  C3_4 
REMARK    3  A    between atoms: C3_4  and  C4_5 
REMARK    4  A    between atoms: C4_5  and  C5_6 
REMARK    5  A    between atoms: C5_6  and  C6_7 
REMARK    6  A    between atoms: C7_8  and  C8_9 
REMARK    7  A    between atoms: N3_17  and  C9_18 
REMARK    8  A    between atoms: C18_29  and  C19_30 
ROOT
HETATM    1  C5  UNL     1     -17.366   8.169 -10.429  1.00  0.00     0.028 C 
HETATM    2  C15 UNL     1     -17.864   7.273  -9.272  1.00  0.00     0.021 C 
HETATM    3  C16 UNL     1     -18.060   7.952  -7.991  1.00  0.00     0.018 C 
HETATM    4  C17 UNL     1     -16.828   8.257  -7.211  1.00  0.00     0.116 C 
HETATM    5  N4  UNL     1     -15.802   7.425  -7.736  1.00  0.00    -0.193 NA
HETATM    6  N5  UNL     1     -14.866   7.098  -6.792  1.00  0.00    -0.134 NA
HETATM    7  C18 UNL     1     -14.000   6.004  -7.179  1.00  0.00     0.197 C 
HETATM    8  N6  UNL     1     -13.845   5.965  -8.645  1.00  0.00    -0.336 N 
ATOM      9  H6  UNL     1     -13.511   5.112  -9.094  1.00  0.00     0.164 HD
HETATM   10  C22 UNL     1     -14.155   7.100  -9.440  1.00  0.00     0.265 C 
HETATM   11  O2  UNL     1     -13.518   7.311 -10.484  1.00  0.00    -0.266 OA
HETATM   12  C23 UNL     1     -15.245   7.953  -8.928  1.00  0.00     0.092 C 
HETATM   13  C24 UNL     1     -16.077   8.680  -9.896  1.00  0.00     0.020 C 
ENDROOT
BRANCH   1  14
HETATM   14  C4  UNL     1     -17.024   7.062 -11.444  1.00  0.00     0.046 C 
BRANCH  14  15
HETATM   15  C3  UNL     1     -17.324   5.697 -10.961  1.00  0.00     0.169 C 
BRANCH  15  16
HETATM   16  O1  UNL     1     -16.182   4.918 -11.194  1.00  0.00    -0.391 OA
BRANCH  16  17
HETATM   17  C2  UNL     1     -16.586   3.573 -11.242  1.00  0.00     0.163 C 
HETATM   18  C1  UNL     1     -18.094   3.574 -11.297  1.00  0.00     0.033 C 
ENDBRANCH  16  17
ENDBRANCH  15  16
ENDBRANCH  14  15
ENDBRANCH   1  14
BRANCH   1  19
HETATM   19  C6  UNL     1     -18.313   9.135 -10.941  1.00  0.00     0.076 A 
HETATM   20  C7  UNL     1     -18.054  10.401 -11.477  1.00  0.00     0.159 A 
HETATM   21  N1  UNL     1     -19.291  10.983 -11.719  1.00  0.00    -0.280 N 
HETATM   22  N2  UNL     1     -20.228  10.171 -11.375  1.00  0.00    -0.239 N 
ATOM     23  H1  UNL     1     -19.435  11.914 -12.111  1.00  0.00     0.188 HD
HETATM   24  N3  UNL     1     -19.662   9.020 -10.890  1.00  0.00    -0.274 N 
ATOM     25  H2  UNL     1     -21.228  10.354 -11.451  1.00  0.00     0.208 HD
BRANCH  20  26
HETATM   26  C8  UNL     1     -16.864  11.093 -11.828  1.00  0.00     0.436 C 
HETATM   27  F1  UNL     1     -16.061  10.608 -12.843  1.00  0.00    -0.165 F 
HETATM   28  F2  UNL     1     -16.130  11.732 -10.851  1.00  0.00    -0.165 F 
HETATM   29  F3  UNL     1     -17.265  12.299 -12.512  1.00  0.00    -0.165 F 
ENDBRANCH  20  26
BRANCH  24  30
HETATM   30  C9  UNL     1     -20.598   8.065 -10.459  1.00  0.00     0.109 C 
HETATM   31  C10 UNL     1     -20.606   6.947 -11.542  1.00  0.00     0.027 C 
HETATM   32  C11 UNL     1     -21.433   5.783 -11.091  1.00  0.00     0.002 C 
HETATM   33  C12 UNL     1     -22.881   6.243 -11.080  1.00  0.00     0.000 C 
HETATM   34  C13 UNL     1     -22.942   7.455 -10.179  1.00  0.00     0.002 C 
HETATM   35  C14 UNL     1     -22.067   8.591 -10.659  1.00  0.00     0.027 C 
ENDBRANCH  24  30
ENDBRANCH   1  19
BRANCH   7  36
HETATM   36  C19 UNL     1     -14.550   4.729  -6.623  1.00  0.00     0.017 C 
HETATM   37  C20 UNL     1     -13.403   3.883  -6.159  1.00  0.00     0.013 C 
HETATM   38  C21 UNL     1     -15.456   3.996  -7.585  1.00  0.00     0.013 C 
ENDBRANCH   7  36
TORSDOF 8
ENDMDL
MODEL 2
REMARK VINA RESULT: -8.509544404      1.658      2.431
REMARK  8 active torsions:
REMARK  status: ('A' for Active; 'I' for Inactive)
REMARK    1  A    between atoms: C2_2  and  O1_3 
REMARK    2  A    between atoms: O1_3  and  C3_4 
REMARK    3  A    between atoms: C3_4  and  C4_5 
REMARK    4  A    between atoms: C4_5  and  C5_6 
REMARK    5  A    between atoms: C5_6  and  C6_7 
REMARK    6  A    between atoms: C7_8  and  C8_9 
REMARK    7  A    between atoms: N3_17  and  C9_18 
REMARK    8  A    between atoms: C18_29  and  C19_30 
ROOT
HETATM    1  C5  UNL     1     -17.468   7.389 -10.055  1.00  0.00     0.028 C 
HETATM    2  C15 UNL     1     -17.134   7.632  -8.566  1.00  0.00     0.021 C 
HETATM    3  C16 UNL     1     -15.885   8.350  -8.311  1.00  0.00     0.018 C 
HETATM    4  C17 UNL     1     -14.629   7.561  -8.454  1.00  0.00     0.116 C 
HETATM    5  N4  UNL     1     -15.005   6.191  -8.397  1.00  0.00    -0.193 NA
HETATM    6  N5  UNL     1     -14.015   5.403  -7.874  1.00  0.00    -0.134 NA
HETATM    7  C18 UNL     1     -14.459   4.080  -7.491  1.00  0.00     0.197 C 
HETATM    8  N6  UNL     1     -15.591   3.654  -8.335  1.00  0.00    -0.336 N 
ATOM      9  H6  UNL     1     -16.193   2.891  -8.024  1.00  0.00     0.164 HD
HETATM   10  C22 UNL     1     -15.854   4.291  -9.576  1.00  0.00     0.265 C 
HETATM   11  O2  UNL     1     -16.344   3.638 -10.510  1.00  0.00    -0.266 OA
HETATM   12  C23 UNL     1     -15.506   5.724  -9.639  1.00  0.00     0.092 C 
HETATM   13  C24 UNL     1     -16.297   6.599 -10.514  1.00  0.00     0.020 C 
ENDROOT
BRANCH   1  14
HETATM   14  C4  UNL     1     -18.633   6.398  -9.870  1.00  0.00     0.046 C 
BRANCH  14  15
HETATM   15  C3  UNL     1     -18.969   5.638 -11.093  1.00  0.00     0.169 C 
BRANCH  15  16
HETATM   16  O1  UNL     1     -19.615   4.464 -10.683  1.00  0.00    -0.391 OA
BRANCH  16  17
HETATM   17  C2  UNL     1     -20.997   4.715 -10.683  1.00  0.00     0.163 C 
HETATM   18  C1  UNL     1     -21.658   3.509 -10.061  1.00  0.00     0.033 C 
ENDBRANCH  16  17
ENDBRANCH  15  16
ENDBRANCH  14  15
ENDBRANCH   1  14
BRANCH   1  19
HETATM   19  C6  UNL     1     -17.834   8.557 -10.826  1.00  0.00     0.076 A 
HETATM   20  C7  UNL     1     -17.028   9.324 -11.673  1.00  0.00     0.159 A 
HETATM   21  N1  UNL     1     -17.804  10.396 -12.087  1.00  0.00    -0.280 N 
HETATM   22  N2  UNL     1     -18.976  10.314 -11.561  1.00  0.00    -0.239 N 
ATOM     23  H1  UNL     1     -17.494  11.138 -12.715  1.00  0.00     0.188 HD
HETATM   24  N3  UNL     1     -19.031   9.191 -10.776  1.00  0.00    -0.274 N 
ATOM     25  H2  UNL     1     -19.738  10.976 -11.704  1.00  0.00     0.208 HD
BRANCH  20  26
HETATM   26  C8  UNL     1     -15.705   9.173 -12.169  1.00  0.00     0.436 C 
HETATM   27  F1  UNL     1     -15.449   8.265 -13.179  1.00  0.00    -0.165 F 
HETATM   28  F2  UNL     1     -14.632   9.306 -11.312  1.00  0.00    -0.165 F 
HETATM   29  F3  UNL     1     -15.410  10.354 -12.946  1.00  0.00    -0.165 F 
ENDBRANCH  20  26
BRANCH  24  30
HETATM   30  C9  UNL     1     -20.264   9.012 -10.127  1.00  0.00     0.109 C 
HETATM   31  C10 UNL     1     -21.233   8.425 -11.194  1.00  0.00     0.027 C 
HETATM   32  C11 UNL     1     -22.528   8.019 -10.561  1.00  0.00     0.002 C 
HETATM   33  C12 UNL     1     -23.237   9.294 -10.137  1.00  0.00     0.000 C 
HETATM   34  C13 UNL     1     -22.286  10.033  -9.224  1.00  0.00     0.002 C 
HETATM   35  C14 UNL     1     -20.981  10.394  -9.898  1.00  0.00     0.027 C 
ENDBRANCH  24  30
ENDBRANCH   1  19
BRANCH   7  36
HETATM   36  C19 UNL     1     -14.795   4.083  -6.034  1.00  0.00     0.017 C 
HETATM   37  C20 UNL     1     -14.061   2.953  -5.378  1.00  0.00     0.013 C 
HETATM   38  C21 UNL     1     -16.281   4.042  -5.760  1.00  0.00     0.013 C 
ENDBRANCH   7  36
TORSDOF 8
ENDMDL
MODEL 3
REMARK VINA RESULT: -8.505753891      3.164      4.284
REMARK  8 active torsions:
REMARK  status: ('A' for Active; 'I' for Inactive)
REMARK    1  A    between atoms: C2_2  and  O1_3 
REMARK    2  A    between atoms: O1_3  and  C3_4 
REMARK    3  A    between atoms: C3_4  and  C4_5 
REMARK    4  A    between atoms: C4_5  and  C5_6 
REMARK    5  A    between atoms: C5_6  and  C6_7 
REMARK    6  A    between atoms: C7_8  and  C8_9 
REMARK    7  A    between atoms: N3_17  and  C9_18 
REMARK    8  A    between atoms: C18_29  and  C19_30 
ROOT
HETATM    1  C5  UNL     1     -16.773   7.008 -10.310  1.00  0.00     0.028 C 
HETATM    2  C15 UNL     1     -16.103   6.432  -9.042  1.00  0.00     0.021 C 
HETATM    3  C16 UNL     1     -16.682   6.870  -7.772  1.00  0.00     0.018 C 
HETATM    4  C17 UNL     1     -16.328   8.246  -7.323  1.00  0.00     0.116 C 
HETATM    5  N4  UNL     1     -15.171   8.623  -8.058  1.00  0.00    -0.193 NA
HETATM    6  N5  UNL     1     -14.375   9.491  -7.361  1.00  0.00    -0.134 NA
HETATM    7  C18 UNL     1     -13.045   9.643  -7.914  1.00  0.00     0.197 C 
HETATM    8  N6  UNL     1     -13.069   9.423  -9.372  1.00  0.00    -0.336 N 
ATOM      9  H6  UNL     1     -12.200   9.214  -9.864  1.00  0.00     0.164 HD
HETATM   10  C22 UNL     1     -14.285   9.497 -10.101  1.00  0.00     0.265 C 
HETATM   11  O2  UNL     1     -14.275   9.901 -11.274  1.00  0.00    -0.266 OA
HETATM   12  C23 UNL     1     -15.492   9.071  -9.364  1.00  0.00     0.092 C 
HETATM   13  C24 UNL     1     -16.597   8.471 -10.121  1.00  0.00     0.020 C 
ENDROOT
BRANCH   1  14
HETATM   14  C4  UNL     1     -15.724   6.560 -11.346  1.00  0.00     0.046 C 
BRANCH  14  15
HETATM   15  C3  UNL     1     -14.563   5.861 -10.754  1.00  0.00     0.169 C 
BRANCH  15  16
HETATM   16  O1  UNL     1     -13.441   6.207 -11.519  1.00  0.00    -0.391 OA
BRANCH  16  17
HETATM   17  C2  UNL     1     -12.307   6.066 -10.701  1.00  0.00     0.163 C 
HETATM   18  C1  UNL     1     -12.706   5.165  -9.558  1.00  0.00     0.033 C 
ENDBRANCH  16  17
ENDBRANCH  15  16
ENDBRANCH  14  15
ENDBRANCH   1  14
BRANCH   1  19
HETATM   19  C6  UNL     1     -18.104   6.523 -10.605  1.00  0.00     0.076 A 
HETATM   20  C7  UNL     1     -18.487   5.247 -11.029  1.00  0.00     0.159 A 
HETATM   21  N1  UNL     1     -19.850   5.312 -11.283  1.00  0.00    -0.280 N 
HETATM   22  N2  UNL     1     -20.281   6.501 -11.044  1.00  0.00    -0.239 N 
ATOM     23  H1  UNL     1     -20.424   4.535 -11.611  1.00  0.00     0.188 HD
HETATM   24  N3  UNL     1     -19.230   7.277 -10.623  1.00  0.00    -0.274 N 
ATOM     25  H2  UNL     1     -21.245   6.815 -11.150  1.00  0.00     0.208 HD
BRANCH  20  26
HETATM   26  C8  UNL     1     -17.797   4.013 -11.173  1.00  0.00     0.436 C 
HETATM   27  F1  UNL     1     -16.916   3.600 -10.192  1.00  0.00    -0.165 F 
HETATM   28  F2  UNL     1     -17.410   3.588 -12.427  1.00  0.00    -0.165 F 
HETATM   29  F3  UNL     1     -18.765   2.963 -10.962  1.00  0.00    -0.165 F 
ENDBRANCH  20  26
BRANCH  24  30
HETATM   30  C9  UNL     1     -19.581   8.610 -10.355  1.00  0.00     0.109 C 
HETATM   31  C10 UNL     1     -21.059   8.579  -9.867  1.00  0.00     0.027 C 
HETATM   32  C11 UNL     1     -21.479   9.929  -9.373  1.00  0.00     0.002 C 
HETATM   33  C12 UNL     1     -21.550  10.844 -10.583  1.00  0.00     0.000 C 
HETATM   34  C13 UNL     1     -20.189  10.800 -11.238  1.00  0.00     0.002 C 
HETATM   35  C14 UNL     1     -19.797   9.411 -11.691  1.00  0.00     0.027 C 
ENDBRANCH  24  30
ENDBRANCH   1  19
BRANCH   7  36
HETATM   36  C19 UNL     1     -12.115   8.712  -7.205  1.00  0.00     0.017 C 
HETATM   37  C20 UNL     1     -11.017   8.330  -8.152  1.00  0.00     0.013 C 
HETATM   38  C21 UNL     1     -12.807   7.508  -6.609  1.00  0.00     0.013 C 
ENDBRANCH   7  36
TORSDOF 8
ENDMDL
MODEL 4
REMARK VINA RESULT: -8.416641218      3.160      4.366
REMARK  8 active torsions:
REMARK  status: ('A' for Active; 'I' for Inactive)
REMARK    1  A    between atoms: C2_2  and  O1_3 
REMARK    2  A    between atoms: O1_3  and  C3_4 
REMARK    3  A    between atoms: C3_4  and  C4_5 
REMARK    4  A    between atoms: C4_5  and  C5_6 
REMARK    5  A    between atoms: C5_6  and  C6_7 
REMARK    6  A    between atoms: C7_8  and  C8_9 
REMARK    7  A    between atoms: N3_17  and  C9_18 
REMARK    8  A    between atoms: C18_29  and  C19_30 
ROOT
HETATM    1  C5  UNL     1     -16.691   7.137 -10.369  1.00  0.00     0.028 C 
HETATM    2  C15 UNL     1     -15.783   6.342  -9.405  1.00  0.00     0.021 C 
HETATM    3  C16 UNL     1     -16.177   6.378  -7.996  1.00  0.00     0.018 C 
HETATM    4  C17 UNL     1     -15.855   7.628  -7.252  1.00  0.00     0.116 C 
HETATM    5  N4  UNL     1     -14.864   8.306  -8.014  1.00  0.00    -0.193 NA
HETATM    6  N5  UNL     1     -14.030   9.055  -7.229  1.00  0.00    -0.134 NA
HETATM    7  C18 UNL     1     -12.824   9.490  -7.901  1.00  0.00     0.197 C 
HETATM    8  N6  UNL     1     -13.069   9.642  -9.348  1.00  0.00    -0.336 N 
ATOM      9  H6  UNL     1     -12.280   9.663  -9.993  1.00  0.00     0.164 HD
HETATM   10  C22 UNL     1     -14.390   9.759  -9.854  1.00  0.00     0.265 C 
HETATM   11  O2  UNL     1     -14.602  10.443 -10.867  1.00  0.00    -0.266 OA
HETATM   12  C23 UNL     1     -15.426   9.028  -9.097  1.00  0.00     0.092 C 
HETATM   13  C24 UNL     1     -16.594   8.516  -9.824  1.00  0.00     0.020 C 
ENDROOT
BRANCH   1  14
HETATM   14  C4  UNL     1     -15.796   7.086 -11.621  1.00  0.00     0.046 C 
BRANCH  14  15
HETATM   15  C3  UNL     1     -14.499   6.411 -11.399  1.00  0.00     0.169 C 
BRANCH  15  16
HETATM   16  O1  UNL     1     -13.570   7.016 -12.256  1.00  0.00    -0.391 OA
BRANCH  16  17
HETATM   17  C2  UNL     1     -14.280   7.849 -13.136  1.00  0.00     0.163 C 
HETATM   18  C1  UNL     1     -13.558   7.798 -14.460  1.00  0.00     0.033 C 
ENDBRANCH  16  17
ENDBRANCH  15  16
ENDBRANCH  14  15
ENDBRANCH   1  14
BRANCH   1  19
HETATM   19  C6  UNL     1     -18.014   6.595 -10.594  1.00  0.00     0.076 A 
HETATM   20  C7  UNL     1     -18.364   5.296 -10.974  1.00  0.00     0.159 A 
HETATM   21  N1  UNL     1     -19.738   5.303 -11.169  1.00  0.00    -0.280 N 
HETATM   22  N2  UNL     1     -20.205   6.479 -10.934  1.00  0.00    -0.239 N 
ATOM     23  H1  UNL     1     -20.295   4.497 -11.454  1.00  0.00     0.188 HD
HETATM   24  N3  UNL     1     -19.169   7.304 -10.576  1.00  0.00    -0.274 N 
ATOM     25  H2  UNL     1     -21.185   6.753 -11.002  1.00  0.00     0.208 HD
BRANCH  20  26
HETATM   26  C8  UNL     1     -17.633   4.088 -11.125  1.00  0.00     0.436 C 
HETATM   27  F1  UNL     1     -16.754   3.688 -10.136  1.00  0.00    -0.165 F 
HETATM   28  F2  UNL     1     -17.211   3.694 -12.378  1.00  0.00    -0.165 F 
HETATM   29  F3  UNL     1     -18.570   3.004 -10.946  1.00  0.00    -0.165 F 
ENDBRANCH  20  26
BRANCH  24  30
HETATM   30  C9  UNL     1     -19.560   8.628 -10.318  1.00  0.00     0.109 C 
HETATM   31  C10 UNL     1     -21.044   8.558  -9.852  1.00  0.00     0.027 C 
HETATM   32  C11 UNL     1     -21.508   9.898  -9.370  1.00  0.00     0.002 C 
HETATM   33  C12 UNL     1     -21.586  10.806 -10.585  1.00  0.00     0.000 C 
HETATM   34  C13 UNL     1     -20.215  10.797 -11.220  1.00  0.00     0.002 C 
HETATM   35  C14 UNL     1     -19.778   9.418 -11.661  1.00  0.00     0.027 C 
ENDBRANCH  24  30
ENDBRANCH   1  19
BRANCH   7  36
HETATM   36  C19 UNL     1     -11.724   8.522  -7.602  1.00  0.00     0.017 C 
HETATM   37  C20 UNL     1     -11.714   7.473  -8.672  1.00  0.00     0.013 C 
HETATM   38  C21 UNL     1     -11.807   7.929  -6.214  1.00  0.00     0.013 C 
ENDBRANCH   7  36
TORSDOF 8
ENDMDL
MODEL 5
REMARK VINA RESULT: -8.390643839      2.443      4.440
REMARK  8 active torsions:
REMARK  status: ('A' for Active; 'I' for Inactive)
REMARK    1  A    between atoms: C2_2  and  O1_3 
REMARK    2  A    between atoms: O1_3  and  C3_4 
REMARK    3  A    between atoms: C3_4  and  C4_5 
REMARK    4  A    between atoms: C4_5  and  C5_6 
REMARK    5  A    between atoms: C5_6  and  C6_7 
REMARK    6  A    between atoms: C7_8  and  C8_9 
REMARK    7  A    between atoms: N3_17  and  C9_18 
REMARK    8  A    between atoms: C18_29  and  C19_30 
ROOT
HETATM    1  C5  UNL     1     -18.093   7.773 -10.199  1.00  0.00     0.028 C 
HETATM    2  C15 UNL     1     -17.695   7.769  -8.706  1.00  0.00     0.021 C 
HETATM    3  C16 UNL     1     -16.409   8.394  -8.396  1.00  0.00     0.018 C 
HETATM    4  C17 UNL     1     -15.193   7.595  -8.713  1.00  0.00     0.116 C 
HETATM    5  N4  UNL     1     -15.622   6.246  -8.852  1.00  0.00    -0.193 NA
HETATM    6  N5  UNL     1     -14.647   5.353  -8.500  1.00  0.00    -0.134 NA
HETATM    7  C18 UNL     1     -15.130   4.002  -8.307  1.00  0.00     0.197 C 
HETATM    8  N6  UNL     1     -16.309   3.752  -9.158  1.00  0.00    -0.336 N 
ATOM      9  H6  UNL     1     -16.930   2.972  -8.943  1.00  0.00     0.164 HD
HETATM   10  C22 UNL     1     -16.591   4.584 -10.273  1.00  0.00     0.265 C 
HETATM   11  O2  UNL     1     -17.141   4.102 -11.276  1.00  0.00    -0.266 OA
HETATM   12  C23 UNL     1     -16.187   5.997 -10.129  1.00  0.00     0.092 C 
HETATM   13  C24 UNL     1     -16.973   7.024 -10.824  1.00  0.00     0.020 C 
ENDROOT
BRANCH   1  14
HETATM   14  C4  UNL     1     -19.290   6.807 -10.120  1.00  0.00     0.046 C 
BRANCH  14  15
HETATM   15  C3  UNL     1     -19.778   6.353 -11.440  1.00  0.00     0.169 C 
BRANCH  15  16
HETATM   16  O1  UNL     1     -20.953   5.624 -11.215  1.00  0.00    -0.391 OA
BRANCH  16  17
HETATM   17  C2  UNL     1     -20.604   4.456 -10.517  1.00  0.00     0.163 C 
HETATM   18  C1  UNL     1     -21.895   3.770 -10.143  1.00  0.00     0.033 C 
ENDBRANCH  16  17
ENDBRANCH  15  16
ENDBRANCH  14  15
ENDBRANCH   1  14
BRANCH   1  19
HETATM   19  C6  UNL     1     -18.439   9.059 -10.764  1.00  0.00     0.076 A 
HETATM   20  C7  UNL     1     -19.653   9.747 -10.673  1.00  0.00     0.159 A 
HETATM   21  N1  UNL     1     -19.524  10.875 -11.471  1.00  0.00    -0.280 N 
HETATM   22  N2  UNL     1     -18.354  10.898 -12.006  1.00  0.00    -0.239 N 
ATOM     23  H1  UNL     1     -20.248  11.580 -11.612  1.00  0.00     0.188 HD
HETATM   24  N3  UNL     1     -17.655   9.792 -11.592  1.00  0.00    -0.274 N 
ATOM     25  H2  UNL     1     -18.003  11.620 -12.635  1.00  0.00     0.208 HD
BRANCH  20  26
HETATM   26  C8  UNL     1     -20.848   9.534  -9.935  1.00  0.00     0.436 C 
HETATM   27  F1  UNL     1     -20.787   9.354  -8.566  1.00  0.00    -0.165 F 
HETATM   28  F2  UNL     1     -21.886   8.825 -10.502  1.00  0.00    -0.165 F 
HETATM   29  F3  UNL     1     -21.547  10.797  -9.893  1.00  0.00    -0.165 F 
ENDBRANCH  20  26
BRANCH  24  30
HETATM   30  C9  UNL     1     -16.364   9.699 -12.137  1.00  0.00     0.109 C 
HETATM   31  C10 UNL     1     -15.434  10.511 -11.188  1.00  0.00     0.027 C 
HETATM   32  C11 UNL     1     -13.999  10.323 -11.572  1.00  0.00     0.002 C 
HETATM   33  C12 UNL     1     -13.799  11.021 -12.905  1.00  0.00     0.000 C 
HETATM   34  C13 UNL     1     -14.799  10.416 -13.864  1.00  0.00     0.002 C 
HETATM   35  C14 UNL     1     -16.231  10.604 -13.418  1.00  0.00     0.027 C 
ENDBRANCH  24  30
ENDBRANCH   1  19
BRANCH   7  36
HETATM   36  C19 UNL     1     -15.412   3.790  -6.854  1.00  0.00     0.017 C 
HETATM   37  C20 UNL     1     -14.402   4.560  -6.059  1.00  0.00     0.013 C 
HETATM   38  C21 UNL     1     -15.468   2.332  -6.460  1.00  0.00     0.013 C 
ENDBRANCH   7  36
TORSDOF 8
ENDMDL
