MODEL 1
REMARK VINA RESULT: -8.335886540      0.000      0.000
REMARK  8 active torsions:
REMARK  status: ('A' for Active; 'I' for Inactive)
REMARK    1  A    between atoms: O1_2  and  N1_3 
REMARK    2  A    between atoms: N2_12  and  C8_13 
REMARK    3  A    between atoms: C8_13  and  C9_14 
REMARK    4  A    between atoms: C8_13  and  C14_20 
REMARK    5  A    between atoms: C9_14  and  C10_15 
REMARK    6  A    between atoms: N5_25  and  C15_26 
REMARK    7  A    between atoms: C15_26  and  C16_27 
REMARK    8  A    between atoms: C22_35  and  N6_36 
ROOT
HETATM    1  C14 UNL     1     -16.926   6.988  -8.762  1.00  0.00     0.095 A 
HETATM    2  N3  UNL     1     -17.845   7.916  -8.476  1.00  0.00    -0.284 N 
ATOM      3  H3  UNL     1     -17.794   8.570  -7.695  1.00  0.00     0.188 HD
HETATM    4  N4  UNL     1     -18.824   7.861  -9.351  1.00  0.00    -0.234 N 
ATOM      5  H4  UNL     1     -19.641   8.472  -9.340  1.00  0.00     0.209 HD
HETATM    6  N5  UNL     1     -18.612   6.894 -10.266  1.00  0.00    -0.234 N 
HETATM    7  C22 UNL     1     -17.439   6.350  -9.909  1.00  0.00     0.148 A 
ENDROOT
BRANCH   1   8
HETATM    8  C8  UNL     1     -15.589   6.742  -8.137  1.00  0.00     0.141 C 
BRANCH   8   9
HETATM    9  N2  UNL     1     -14.843   7.969  -8.491  1.00  0.00    -0.355 N 
HETATM   10  C2  UNL     1     -13.957   8.105  -9.612  1.00  0.00     0.107 C 
HETATM   11  N1  UNL     1     -13.974   7.410 -10.695  1.00  0.00    -0.255 N 
HETATM   12  C3  UNL     1     -13.037   9.216  -9.226  1.00  0.00     0.092 C 
ATOM     13  H1  UNL     1     -14.667   6.673 -10.832  1.00  0.00     0.195 HD
HETATM   14  C4  UNL     1     -12.028   8.799  -8.181  1.00  0.00     0.021 C 
HETATM   15  C5  UNL     1     -14.015  10.160  -8.567  1.00  0.00     0.126 C 
HETATM   16  C6  UNL     1     -14.866  10.837  -9.649  1.00  0.00     0.054 C 
HETATM   17  F1  UNL     1     -13.420  11.095  -7.765  1.00  0.00    -0.241 F 
HETATM   18  C7  UNL     1     -14.881   9.198  -7.760  1.00  0.00     0.169 C 
BRANCH  11  19
HETATM   19  O1  UNL     1     -13.029   7.686 -11.669  1.00  0.00    -0.284 OA
HETATM   20  C1  UNL     1     -13.391   8.044 -12.997  1.00  0.00     0.237 C 
ENDBRANCH  11  19
ENDBRANCH   8   9
BRANCH   8  21
HETATM   21  C9  UNL     1     -15.748   6.697  -6.638  1.00  0.00     0.038 C 
BRANCH  21  22
HETATM   22  C10 UNL     1     -14.942   5.627  -6.043  1.00  0.00     0.014 C 
HETATM   23  C11 UNL     1     -15.313   4.235  -6.645  1.00  0.00     0.033 C 
HETATM   24  C12 UNL     1     -14.242   3.430  -5.916  1.00  0.00     0.168 C 
HETATM   25  O2  UNL     1     -13.144   4.248  -5.714  1.00  0.00    -0.391 OA
HETATM   26  C13 UNL     1     -13.482   5.533  -6.226  1.00  0.00     0.172 C 
ENDBRANCH  21  22
ENDBRANCH   8  21
ENDBRANCH   1   8
BRANCH   7  27
HETATM   27  N6  UNL     1     -16.766   5.411 -10.458  1.00  0.00    -0.382 N 
ATOM     28  H62 UNL     1     -17.064   4.490 -10.780  1.00  0.00     0.157 HD
ATOM     29  H61 UNL     1     -15.774   5.553 -10.651  1.00  0.00     0.157 HD
ENDBRANCH   7  27
BRANCH   6  30
HETATM   30  C15 UNL     1     -19.534   6.535 -11.320  1.00  0.00     0.134 C 
BRANCH  30  31
HETATM   31  C16 UNL     1     -20.895   6.187 -10.973  1.00  0.00     0.025 A 
HETATM   32  C17 UNL     1     -21.972   7.012 -10.918  1.00  0.00     0.047 A 
HETATM   33 CL1  UNL     1     -21.911   8.736 -11.203  1.00  0.00    -0.083 Cl
HETATM   34  C18 UNL     1     -23.258   6.542 -10.575  1.00  0.00     0.025 A 
HETATM   35  C19 UNL     1     -23.485   5.222 -10.277  1.00  0.00     0.003 A 
HETATM   36  C20 UNL     1     -22.386   4.380 -10.330  1.00  0.00     0.025 A 
HETATM   37  C21 UNL     1     -21.142   4.829 -10.661  1.00  0.00     0.047 A 
HETATM   38 CL2  UNL     1     -19.826   3.647 -10.640  1.00  0.00    -0.083 Cl
ENDBRANCH  30  31
ENDBRANCH   6  30
TORSDOF 8
ENDMDL
MODEL 2
REMARK VINA RESULT: -8.285542419      0.107      1.590
REMARK  8 active torsions:
REMARK  status: ('A' for Active; 'I' for Inactive)
REMARK    1  A    between atoms: O1_2  and  N1_3 
REMARK    2  A    between atoms: N2_12  and  C8_13 
REMARK    3  A    between atoms: C8_13  and  C9_14 
REMARK    4  A    between atoms: C8_13  and  C14_20 
REMARK    5  A    between atoms: C9_14  and  C10_15 
REMARK    6  A    between atoms: N5_25  and  C15_26 
REMARK    7  A    between atoms: C15_26  and  C16_27 
REMARK    8  A    between atoms: C22_35  and  N6_36 
ROOT
HETATM    1  C14 UNL     1     -16.961   7.021  -8.736  1.00  0.00     0.095 A 
HETATM    2  N3  UNL     1     -17.872   7.937  -8.394  1.00  0.00    -0.284 N 
ATOM      3  H3  UNL     1     -17.809   8.552  -7.582  1.00  0.00     0.188 HD
HETATM    4  N4  UNL     1     -18.861   7.930  -9.260  1.00  0.00    -0.234 N 
ATOM      5  H4  UNL     1     -19.674   8.543  -9.209  1.00  0.00     0.209 HD
HETATM    6  N5  UNL     1     -18.663   7.008 -10.223  1.00  0.00    -0.234 N 
HETATM    7  C22 UNL     1     -17.490   6.442  -9.907  1.00  0.00     0.148 A 
ENDROOT
BRANCH   1   8
HETATM    8  C8  UNL     1     -15.618   6.739  -8.138  1.00  0.00     0.141 C 
BRANCH   8   9
HETATM    9  N2  UNL     1     -14.856   7.959  -8.480  1.00  0.00    -0.355 N 
HETATM   10  C2  UNL     1     -13.963   8.092  -9.596  1.00  0.00     0.107 C 
HETATM   11  N1  UNL     1     -13.984   7.405 -10.684  1.00  0.00    -0.255 N 
HETATM   12  C3  UNL     1     -13.032   9.189  -9.198  1.00  0.00     0.092 C 
ATOM     13  H1  UNL     1     -14.684   6.677 -10.829  1.00  0.00     0.195 HD
HETATM   14  C4  UNL     1     -12.033   8.754  -8.152  1.00  0.00     0.021 C 
HETATM   15  C5  UNL     1     -14.002  10.140  -8.537  1.00  0.00     0.126 C 
HETATM   16  C6  UNL     1     -14.840  10.835  -9.619  1.00  0.00     0.054 C 
HETATM   17  F1  UNL     1     -13.401  11.063  -7.727  1.00  0.00    -0.241 F 
HETATM   18  C7  UNL     1     -14.883   9.184  -7.741  1.00  0.00     0.169 C 
BRANCH  11  19
HETATM   19  O1  UNL     1     -13.031   7.677 -11.652  1.00  0.00    -0.284 OA
HETATM   20  C1  UNL     1     -13.380   7.966 -13.000  1.00  0.00     0.237 C 
ENDBRANCH  11  19
ENDBRANCH   8   9
BRANCH   8  21
HETATM   21  C9  UNL     1     -15.753   6.666  -6.638  1.00  0.00     0.038 C 
BRANCH  21  22
HETATM   22  C10 UNL     1     -14.905   5.614  -6.071  1.00  0.00     0.014 C 
HETATM   23  C11 UNL     1     -15.174   4.236  -6.757  1.00  0.00     0.033 C 
HETATM   24  C12 UNL     1     -14.082   3.457  -6.034  1.00  0.00     0.168 C 
HETATM   25  O2  UNL     1     -13.040   4.323  -5.752  1.00  0.00    -0.391 OA
HETATM   26  C13 UNL     1     -13.437   5.613  -6.208  1.00  0.00     0.172 C 
ENDBRANCH  21  22
ENDBRANCH   8  21
ENDBRANCH   1   8
BRANCH   7  27
HETATM   27  N6  UNL     1     -16.826   5.528 -10.509  1.00  0.00    -0.382 N 
ATOM     28  H62 UNL     1     -16.200   4.816 -10.134  1.00  0.00     0.157 HD
ATOM     29  H61 UNL     1     -16.913   5.432 -11.521  1.00  0.00     0.157 HD
ENDBRANCH   7  27
BRANCH   6  30
HETATM   30  C15 UNL     1     -19.599   6.704 -11.284  1.00  0.00     0.134 C 
BRANCH  30  31
HETATM   31  C16 UNL     1     -20.855   6.068 -10.950  1.00  0.00     0.025 A 
HETATM   32  C17 UNL     1     -21.066   4.764 -10.640  1.00  0.00     0.047 A 
HETATM   33 CL1  UNL     1     -19.824   3.534 -10.649  1.00  0.00    -0.083 Cl
HETATM   34  C18 UNL     1     -22.348   4.269 -10.319  1.00  0.00     0.025 A 
HETATM   35  C19 UNL     1     -23.451   5.086 -10.304  1.00  0.00     0.003 A 
HETATM   36  C20 UNL     1     -23.237   6.416 -10.622  1.00  0.00     0.025 A 
HETATM   37  C21 UNL     1     -22.000   6.899 -10.933  1.00  0.00     0.047 A 
HETATM   38 CL2  UNL     1     -21.888   8.611 -11.366  1.00  0.00    -0.083 Cl
ENDBRANCH  30  31
ENDBRANCH   6  30
TORSDOF 8
ENDMDL
MODEL 3
REMARK VINA RESULT: -7.997183830      1.483      1.777
REMARK  8 active torsions:
REMARK  status: ('A' for Active; 'I' for Inactive)
REMARK    1  A    between atoms: O1_2  and  N1_3 
REMARK    2  A    between atoms: N2_12  and  C8_13 
REMARK    3  A    between atoms: C8_13  and  C9_14 
REMARK    4  A    between atoms: C8_13  and  C14_20 
REMARK    5  A    between atoms: C9_14  and  C10_15 
REMARK    6  A    between atoms: N5_25  and  C15_26 
REMARK    7  A    between atoms: C15_26  and  C16_27 
REMARK    8  A    between atoms: C22_35  and  N6_36 
ROOT
HETATM    1  C14 UNL     1     -16.667   6.941  -8.672  1.00  0.00     0.095 A 
HETATM    2  N3  UNL     1     -17.604   7.634  -8.018  1.00  0.00    -0.284 N 
ATOM      3  H3  UNL     1     -17.582   7.855  -7.023  1.00  0.00     0.188 HD
HETATM    4  N4  UNL     1     -18.559   7.989  -8.849  1.00  0.00    -0.234 N 
ATOM      5  H4  UNL     1     -19.383   8.528  -8.582  1.00  0.00     0.209 HD
HETATM    6  N5  UNL     1     -18.310   7.551 -10.099  1.00  0.00    -0.234 N 
HETATM    7  C22 UNL     1     -17.141   6.902  -9.998  1.00  0.00     0.148 A 
ENDROOT
BRANCH   1   8
HETATM    8  C8  UNL     1     -15.344   6.433  -8.190  1.00  0.00     0.141 C 
BRANCH   8   9
HETATM    9  N2  UNL     1     -14.477   7.623  -8.330  1.00  0.00    -0.355 N 
HETATM   10  C2  UNL     1     -13.223   7.657  -9.028  1.00  0.00     0.107 C 
HETATM   11  N1  UNL     1     -12.846   6.867  -9.970  1.00  0.00    -0.255 N 
HETATM   12  C3  UNL     1     -12.486   8.799  -8.411  1.00  0.00     0.092 C 
ATOM     13  H1  UNL     1     -13.457   6.120 -10.302  1.00  0.00     0.195 HD
HETATM   14  C4  UNL     1     -11.972   8.480  -7.026  1.00  0.00     0.021 C 
HETATM   15  C5  UNL     1     -13.609   9.798  -8.264  1.00  0.00     0.126 C 
HETATM   16  C6  UNL     1     -13.953  10.374  -9.644  1.00  0.00     0.054 C 
HETATM   17  F1  UNL     1     -13.338  10.803  -7.376  1.00  0.00    -0.241 F 
HETATM   18  C7  UNL     1     -14.751   8.914  -7.777  1.00  0.00     0.169 C 
BRANCH  11  19
HETATM   19  O1  UNL     1     -11.589   7.054 -10.523  1.00  0.00    -0.284 OA
HETATM   20  C1  UNL     1     -10.482   6.226 -10.189  1.00  0.00     0.237 C 
ENDBRANCH  11  19
ENDBRANCH   8   9
BRANCH   8  21
HETATM   21  C9  UNL     1     -15.452   6.091  -6.726  1.00  0.00     0.038 C 
BRANCH  21  22
HETATM   22  C10 UNL     1     -15.188   4.670  -6.483  1.00  0.00     0.014 C 
HETATM   23  C11 UNL     1     -16.258   4.048  -5.531  1.00  0.00     0.033 C 
HETATM   24  C12 UNL     1     -15.756   2.611  -5.606  1.00  0.00     0.168 C 
HETATM   25  O2  UNL     1     -15.192   2.410  -6.854  1.00  0.00    -0.391 OA
HETATM   26  C13 UNL     1     -15.263   3.652  -7.547  1.00  0.00     0.172 C 
ENDBRANCH  21  22
ENDBRANCH   8  21
ENDBRANCH   1   8
BRANCH   7  27
HETATM   27  N6  UNL     1     -16.441   6.320 -10.898  1.00  0.00    -0.382 N 
ATOM     28  H62 UNL     1     -15.725   5.599 -10.808  1.00  0.00     0.157 HD
ATOM     29  H61 UNL     1     -16.592   6.555 -11.879  1.00  0.00     0.157 HD
ENDBRANCH   7  27
BRANCH   6  30
HETATM   30  C15 UNL     1     -19.199   7.718 -11.227  1.00  0.00     0.134 C 
BRANCH  30  31
HETATM   31  C16 UNL     1     -20.606   7.953 -10.983  1.00  0.00     0.025 A 
HETATM   32  C17 UNL     1     -21.244   9.149 -10.902  1.00  0.00     0.047 A 
HETATM   33 CL1  UNL     1     -20.449  10.701 -11.016  1.00  0.00    -0.083 Cl
HETATM   34  C18 UNL     1     -22.632   9.241 -10.670  1.00  0.00     0.025 A 
HETATM   35  C19 UNL     1     -23.412   8.122 -10.513  1.00  0.00     0.003 A 
HETATM   36  C20 UNL     1     -22.761   6.902 -10.592  1.00  0.00     0.025 A 
HETATM   37  C21 UNL     1     -21.419   6.807 -10.816  1.00  0.00     0.047 A 
HETATM   38 CL2  UNL     1     -20.719   5.183 -10.845  1.00  0.00    -0.083 Cl
ENDBRANCH  30  31
ENDBRANCH   6  30
TORSDOF 8
ENDMDL
MODEL 4
REMARK VINA RESULT: -7.977400888      1.534      2.353
REMARK  8 active torsions:
REMARK  status: ('A' for Active; 'I' for Inactive)
REMARK    1  A    between atoms: O1_2  and  N1_3 
REMARK    2  A    between atoms: N2_12  and  C8_13 
REMARK    3  A    between atoms: C8_13  and  C9_14 
REMARK    4  A    between atoms: C8_13  and  C14_20 
REMARK    5  A    between atoms: C9_14  and  C10_15 
REMARK    6  A    between atoms: N5_25  and  C15_26 
REMARK    7  A    between atoms: C15_26  and  C16_27 
REMARK    8  A    between atoms: C22_35  and  N6_36 
ROOT
HETATM    1  C14 UNL     1     -16.630   6.960  -8.705  1.00  0.00     0.095 A 
HETATM    2  N3  UNL     1     -17.586   7.610  -8.034  1.00  0.00    -0.284 N 
ATOM      3  H3  UNL     1     -17.579   7.790  -7.030  1.00  0.00     0.188 HD
HETATM    4  N4  UNL     1     -18.539   7.982  -8.860  1.00  0.00    -0.234 N 
ATOM      5  H4  UNL     1     -19.375   8.494  -8.581  1.00  0.00     0.209 HD
HETATM    6  N5  UNL     1     -18.269   7.599 -10.125  1.00  0.00    -0.234 N 
HETATM    7  C22 UNL     1     -17.090   6.967 -10.037  1.00  0.00     0.148 A 
ENDROOT
BRANCH   1   8
HETATM    8  C8  UNL     1     -15.303   6.456  -8.230  1.00  0.00     0.141 C 
BRANCH   8   9
HETATM    9  N2  UNL     1     -14.446   7.655  -8.352  1.00  0.00    -0.355 N 
HETATM   10  C2  UNL     1     -13.199   7.713  -9.060  1.00  0.00     0.107 C 
HETATM   11  N1  UNL     1     -12.823   6.944 -10.021  1.00  0.00    -0.255 N 
HETATM   12  C3  UNL     1     -12.464   8.847  -8.426  1.00  0.00     0.092 C 
ATOM     13  H1  UNL     1     -13.432   6.200 -10.364  1.00  0.00     0.195 HD
HETATM   14  C4  UNL     1     -11.937   8.504  -7.052  1.00  0.00     0.021 C 
HETATM   15  C5  UNL     1     -13.593   9.835  -8.249  1.00  0.00     0.126 C 
HETATM   16  C6  UNL     1     -13.953  10.436  -9.614  1.00  0.00     0.054 C 
HETATM   17  F1  UNL     1     -13.321  10.823  -7.343  1.00  0.00    -0.241 F 
HETATM   18  C7  UNL     1     -14.725   8.932  -7.771  1.00  0.00     0.169 C 
BRANCH  11  19
HETATM   19  O1  UNL     1     -11.573   7.152 -10.580  1.00  0.00    -0.284 OA
HETATM   20  C1  UNL     1     -10.472   6.291 -10.318  1.00  0.00     0.237 C 
ENDBRANCH  11  19
ENDBRANCH   8   9
BRANCH   8  21
HETATM   21  C9  UNL     1     -15.409   6.093  -6.771  1.00  0.00     0.038 C 
BRANCH  21  22
HETATM   22  C10 UNL     1     -15.148   4.668  -6.549  1.00  0.00     0.014 C 
HETATM   23  C11 UNL     1     -16.194   4.043  -5.572  1.00  0.00     0.033 C 
HETATM   24  C12 UNL     1     -15.704   2.604  -5.676  1.00  0.00     0.168 C 
HETATM   25  O2  UNL     1     -15.178   2.412  -6.942  1.00  0.00    -0.391 OA
HETATM   26  C13 UNL     1     -15.261   3.661  -7.621  1.00  0.00     0.172 C 
ENDBRANCH  21  22
ENDBRANCH   8  21
ENDBRANCH   1   8
BRANCH   7  27
HETATM   27  N6  UNL     1     -16.370   6.435 -10.952  1.00  0.00    -0.382 N 
ATOM     28  H62 UNL     1     -15.358   6.325 -11.011  1.00  0.00     0.157 HD
ATOM     29  H61 UNL     1     -16.824   6.017 -11.765  1.00  0.00     0.157 HD
ENDBRANCH   7  27
BRANCH   6  30
HETATM   30  C15 UNL     1     -19.149   7.797 -11.255  1.00  0.00     0.134 C 
BRANCH  30  31
HETATM   31  C16 UNL     1     -20.571   7.928 -11.022  1.00  0.00     0.025 A 
HETATM   32  C17 UNL     1     -21.470   6.935 -10.802  1.00  0.00     0.047 A 
HETATM   33 CL1  UNL     1     -21.083   5.231 -10.824  1.00  0.00    -0.083 Cl
HETATM   34  C18 UNL     1     -22.837   7.200 -10.574  1.00  0.00     0.025 A 
HETATM   35  C19 UNL     1     -23.329   8.482 -10.563  1.00  0.00     0.003 A 
HETATM   36  C20 UNL     1     -22.413   9.496 -10.791  1.00  0.00     0.025 A 
HETATM   37  C21 UNL     1     -21.092   9.245 -11.011  1.00  0.00     0.047 A 
HETATM   38 CL2  UNL     1     -20.049  10.637 -11.334  1.00  0.00    -0.083 Cl
ENDBRANCH  30  31
ENDBRANCH   6  30
TORSDOF 8
ENDMDL
MODEL 5
REMARK VINA RESULT: -7.938792181      1.433      1.825
REMARK  8 active torsions:
REMARK  status: ('A' for Active; 'I' for Inactive)
REMARK    1  A    between atoms: O1_2  and  N1_3 
REMARK    2  A    between atoms: N2_12  and  C8_13 
REMARK    3  A    between atoms: C8_13  and  C9_14 
REMARK    4  A    between atoms: C8_13  and  C14_20 
REMARK    5  A    between atoms: C9_14  and  C10_15 
REMARK    6  A    between atoms: N5_25  and  C15_26 
REMARK    7  A    between atoms: C15_26  and  C16_27 
REMARK    8  A    between atoms: C22_35  and  N6_36 
ROOT
HETATM    1  C14 UNL     1     -16.704   6.599  -8.718  1.00  0.00     0.095 A 
HETATM    2  N3  UNL     1     -17.291   7.716  -8.276  1.00  0.00    -0.284 N 
ATOM      3  H3  UNL     1     -17.071   8.185  -7.398  1.00  0.00     0.188 HD
HETATM    4  N4  UNL     1     -18.194   8.120  -9.142  1.00  0.00    -0.234 N 
ATOM      5  H4  UNL     1     -18.772   8.952  -9.025  1.00  0.00     0.209 HD
HETATM    6  N5  UNL     1     -18.258   7.295 -10.206  1.00  0.00    -0.234 N 
HETATM    7  C22 UNL     1     -17.339   6.352  -9.952  1.00  0.00     0.148 A 
ENDROOT
BRANCH   1   8
HETATM    8  C8  UNL     1     -15.547   5.839  -8.151  1.00  0.00     0.141 C 
BRANCH   8   9
HETATM    9  N2  UNL     1     -14.486   6.868  -8.099  1.00  0.00    -0.355 N 
HETATM   10  C2  UNL     1     -13.686   7.290  -9.213  1.00  0.00     0.107 C 
HETATM   11  N1  UNL     1     -13.996   7.204 -10.459  1.00  0.00    -0.255 N 
HETATM   12  C3  UNL     1     -12.442   7.834  -8.593  1.00  0.00     0.092 C 
ATOM     13  H1  UNL     1     -14.890   6.807 -10.749  1.00  0.00     0.195 HD
HETATM   14  C4  UNL     1     -11.538   6.751  -8.053  1.00  0.00     0.021 C 
HETATM   15  C5  UNL     1     -13.029   8.570  -7.411  1.00  0.00     0.126 C 
HETATM   16  C6  UNL     1     -13.706   9.855  -7.906  1.00  0.00     0.054 C 
HETATM   17  F1  UNL     1     -12.118   8.851  -6.431  1.00  0.00    -0.241 F 
HETATM   18  C7  UNL     1     -14.089   7.586  -6.927  1.00  0.00     0.169 C 
BRANCH  11  19
HETATM   19  O1  UNL     1     -13.085   7.663 -11.397  1.00  0.00    -0.284 OA
HETATM   20  C1  UNL     1     -13.257   8.898 -12.080  1.00  0.00     0.237 C 
ENDBRANCH  11  19
ENDBRANCH   8   9
BRANCH   8  21
HETATM   21  C9  UNL     1     -15.877   5.423  -6.740  1.00  0.00     0.038 C 
BRANCH  21  22
HETATM   22  C10 UNL     1     -15.491   4.032  -6.484  1.00  0.00     0.014 C 
HETATM   23  C11 UNL     1     -14.009   3.933  -6.003  1.00  0.00     0.033 C 
HETATM   24  C12 UNL     1     -14.005   2.433  -5.730  1.00  0.00     0.168 C 
HETATM   25  O2  UNL     1     -15.280   2.056  -5.345  1.00  0.00    -0.391 OA
HETATM   26  C13 UNL     1     -16.096   3.222  -5.410  1.00  0.00     0.172 C 
ENDBRANCH  21  22
ENDBRANCH   8  21
ENDBRANCH   1   8
BRANCH   7  27
HETATM   27  N6  UNL     1     -16.975   5.345 -10.654  1.00  0.00    -0.382 N 
ATOM     28  H62 UNL     1     -16.153   4.747 -10.567  1.00  0.00     0.157 HD
ATOM     29  H61 UNL     1     -17.568   5.030 -11.421  1.00  0.00     0.157 HD
ENDBRANCH   7  27
BRANCH   6  30
HETATM   30  C15 UNL     1     -19.195   7.424 -11.300  1.00  0.00     0.134 C 
BRANCH  30  31
HETATM   31  C16 UNL     1     -20.571   7.763 -11.007  1.00  0.00     0.025 A 
HETATM   32  C17 UNL     1     -21.116   9.003 -10.911  1.00  0.00     0.047 A 
HETATM   33 CL1  UNL     1     -20.214  10.492 -11.062  1.00  0.00    -0.083 Cl
HETATM   34  C18 UNL     1     -22.485   9.198 -10.631  1.00  0.00     0.025 A 
HETATM   35  C19 UNL     1     -23.338   8.140 -10.440  1.00  0.00     0.003 A 
HETATM   36  C20 UNL     1     -22.782   6.875 -10.535  1.00  0.00     0.025 A 
HETATM   37  C21 UNL     1     -21.461   6.681 -10.806  1.00  0.00     0.047 A 
HETATM   38 CL2  UNL     1     -20.883   5.009 -10.849  1.00  0.00    -0.083 Cl
ENDBRANCH  30  31
ENDBRANCH   6  30
TORSDOF 8
ENDMDL
