MODEL 1
REMARK VINA RESULT: -7.150429410      0.000      0.000
REMARK  11 active torsions:
REMARK  status: ('A' for Active; 'I' for Inactive)
REMARK    1  A    between atoms: C7_8  and  C8_9 
REMARK    2  A    between atoms: C8_9  and  C9_10 
REMARK    3  A    between atoms: C9_10  and  C10_11 
REMARK    4  A    between atoms: C10_11  and  O1_12 
REMARK    5  A    between atoms: C12_15  and  N1_16 
REMARK    6  A    between atoms: N1_16  and  C13_18 
REMARK    7  A    between atoms: C13_18  and  C14_19 
REMARK    8  A    between atoms: C14_19  and  C15_20 
REMARK    9  A    between atoms: C15_20  and  C16_21 
REMARK   10  A    between atoms: C16_21  and  C17_22 
REMARK   11  A    between atoms: C17_22  and  C18_23 
ROOT
HETATM    1  C1  UNL     1       2.495  88.734  97.054  1.00  0.00     0.050 C 
HETATM    2  C2  UNL     1       3.729  88.956  97.860  1.00  0.00    -0.033 A 
HETATM    3  C3  UNL     1       4.956  88.491  97.442  1.00  0.00     0.033 A 
HETATM    4  C4  UNL     1       6.081  88.714  98.211  1.00  0.00     0.035 A 
HETATM    5 CL1  UNL     1       7.649  88.122  97.684  1.00  0.00    -0.084 Cl
HETATM    6  C5  UNL     1       6.018  89.399  99.406  1.00  0.00     0.038 A 
HETATM    7  C6  UNL     1       4.792  89.869  99.831  1.00  0.00    -0.001 A 
HETATM    8  C7  UNL     1       4.715  90.562 101.028  1.00  0.00    -0.042 A 
HETATM    9  C11 UNL     1       3.469  91.013 101.404  1.00  0.00     0.056 A 
HETATM   10  C12 UNL     1       2.319  90.789 100.623  1.00  0.00     0.101 A 
HETATM   11  N2  UNL     1       2.453  90.113  99.477  1.00  0.00    -0.342 N 
ATOM     12  H2  UNL     1       1.628  89.944  98.903  1.00  0.00     0.167 HD
HETATM   13  C19 UNL     1       3.661  89.642  99.054  1.00  0.00     0.050 A 
ENDROOT
BRANCH  10  14
HETATM   14  N1  UNL     1       1.186  91.212 100.989  1.00  0.00    -0.376 N 
ATOM     15  H1  UNL     1       1.107  92.212 101.171  1.00  0.00     0.161 HD
BRANCH  14  16
HETATM   16  C13 UNL     1       0.004  90.432 101.176  1.00  0.00     0.121 C 
BRANCH  16  17
HETATM   17  C14 UNL     1       0.082  89.743 102.522  1.00  0.00     0.020 C 
BRANCH  17  18
HETATM   18  C15 UNL     1       0.421  88.293 102.428  1.00  0.00     0.002 C 
BRANCH  18  19
HETATM   19  C16 UNL     1       1.896  88.047 102.422  1.00  0.00     0.001 C 
BRANCH  19  20
HETATM   20  C17 UNL     1       2.322  87.096 101.325  1.00  0.00     0.011 C 
BRANCH  20  21
HETATM   21  C18 UNL     1       1.137  86.853 100.409  1.00  0.00     0.085 C 
HETATM   22 BR1  UNL     1       0.356  85.116 100.728  1.00  0.00    -0.097 Br
ENDBRANCH  20  21
ENDBRANCH  19  20
ENDBRANCH  18  19
ENDBRANCH  17  18
ENDBRANCH  16  17
ENDBRANCH  14  16
ENDBRANCH  10  14
BRANCH   8  23
HETATM   23  C8  UNL     1       5.910  90.804 101.885  1.00  0.00     0.042 C 
BRANCH  23  24
HETATM   24  C9  UNL     1       5.945  89.893 103.085  1.00  0.00     0.030 C 
BRANCH  24  25
HETATM   25  C10 UNL     1       7.339  89.480 103.420  1.00  0.00     0.164 C 
BRANCH  25  26
HETATM   26  O1  UNL     1       7.496  89.186 104.783  1.00  0.00    -0.401 OA
ATOM     27  H1  UNL     1       8.192  89.692 105.184  1.00  0.00     0.209 HD
ENDBRANCH  25  26
ENDBRANCH  24  25
ENDBRANCH  23  24
ENDBRANCH   8  23
TORSDOF 11
ENDMDL
MODEL 2
REMARK VINA RESULT: -7.103114746      2.076      2.811
REMARK  11 active torsions:
REMARK  status: ('A' for Active; 'I' for Inactive)
REMARK    1  A    between atoms: C7_8  and  C8_9 
REMARK    2  A    between atoms: C8_9  and  C9_10 
REMARK    3  A    between atoms: C9_10  and  C10_11 
REMARK    4  A    between atoms: C10_11  and  O1_12 
REMARK    5  A    between atoms: C12_15  and  N1_16 
REMARK    6  A    between atoms: N1_16  and  C13_18 
REMARK    7  A    between atoms: C13_18  and  C14_19 
REMARK    8  A    between atoms: C14_19  and  C15_20 
REMARK    9  A    between atoms: C15_20  and  C16_21 
REMARK   10  A    between atoms: C16_21  and  C17_22 
REMARK   11  A    between atoms: C17_22  and  C18_23 
ROOT
HETATM    1  C1  UNL     1       2.097  88.562  97.954  1.00  0.00     0.050 C 
HETATM    2  C2  UNL     1       3.463  88.758  98.518  1.00  0.00    -0.033 A 
HETATM    3  C3  UNL     1       4.544  89.028  97.710  1.00  0.00     0.033 A 
HETATM    4  C4  UNL     1       5.797  89.205  98.264  1.00  0.00     0.035 A 
HETATM    5 CL1  UNL     1       7.182  89.550  97.239  1.00  0.00    -0.084 Cl
HETATM    6  C5  UNL     1       6.007  89.120  99.624  1.00  0.00     0.038 A 
HETATM    7  C6  UNL     1       4.927  88.850 100.440  1.00  0.00    -0.001 A 
HETATM    8  C7  UNL     1       5.122  88.765 101.809  1.00  0.00    -0.042 A 
HETATM    9  C11 UNL     1       4.012  88.498 102.579  1.00  0.00     0.056 A 
HETATM   10  C12 UNL     1       2.733  88.318 102.019  1.00  0.00     0.101 A 
HETATM   11  N2  UNL     1       2.604  88.411 100.691  1.00  0.00    -0.342 N 
ATOM     12  H2  UNL     1       1.682  88.281 100.273  1.00  0.00     0.167 HD
HETATM   13  C19 UNL     1       3.667  88.672  99.879  1.00  0.00     0.050 A 
ENDROOT
BRANCH  10  14
HETATM   14  N1  UNL     1       1.729  88.073 102.746  1.00  0.00    -0.376 N 
ATOM     15  H1  UNL     1       1.917  87.741 103.691  1.00  0.00     0.161 HD
BRANCH  14  16
HETATM   16  C13 UNL     1       0.355  88.215 102.378  1.00  0.00     0.121 C 
BRANCH  16  17
HETATM   17  C14 UNL     1      -0.151  89.547 102.888  1.00  0.00     0.020 C 
BRANCH  17  18
HETATM   18  C15 UNL     1      -0.230  90.596 101.829  1.00  0.00     0.002 C 
BRANCH  18  19
HETATM   19  C16 UNL     1      -0.921  90.114 100.594  1.00  0.00     0.001 C 
BRANCH  19  20
HETATM   20  C17 UNL     1      -2.406  90.400 100.611  1.00  0.00     0.011 C 
BRANCH  20  21
HETATM   21  C18 UNL     1      -2.898  90.490  99.178  1.00  0.00     0.085 C 
HETATM   22 BR1  UNL     1      -1.510  89.988  97.934  1.00  0.00    -0.097 Br
ENDBRANCH  20  21
ENDBRANCH  19  20
ENDBRANCH  18  19
ENDBRANCH  17  18
ENDBRANCH  16  17
ENDBRANCH  14  16
ENDBRANCH  10  14
BRANCH   8  23
HETATM   23  C8  UNL     1       6.465  88.937 102.433  1.00  0.00     0.042 C 
BRANCH  23  24
HETATM   24  C9  UNL     1       6.377  89.207 103.913  1.00  0.00     0.030 C 
BRANCH  24  25
HETATM   25  C10 UNL     1       6.896  88.058 104.712  1.00  0.00     0.164 C 
BRANCH  25  26
HETATM   26  O1  UNL     1       5.879  87.399 105.420  1.00  0.00    -0.401 OA
ATOM     27  H1  UNL     1       5.443  87.970 106.042  1.00  0.00     0.209 HD
ENDBRANCH  25  26
ENDBRANCH  24  25
ENDBRANCH  23  24
ENDBRANCH   8  23
TORSDOF 11
ENDMDL
MODEL 3
REMARK VINA RESULT: -7.076562510      2.079      2.801
REMARK  11 active torsions:
REMARK  status: ('A' for Active; 'I' for Inactive)
REMARK    1  A    between atoms: C7_8  and  C8_9 
REMARK    2  A    between atoms: C8_9  and  C9_10 
REMARK    3  A    between atoms: C9_10  and  C10_11 
REMARK    4  A    between atoms: C10_11  and  O1_12 
REMARK    5  A    between atoms: C12_15  and  N1_16 
REMARK    6  A    between atoms: N1_16  and  C13_18 
REMARK    7  A    between atoms: C13_18  and  C14_19 
REMARK    8  A    between atoms: C14_19  and  C15_20 
REMARK    9  A    between atoms: C15_20  and  C16_21 
REMARK   10  A    between atoms: C16_21  and  C17_22 
REMARK   11  A    between atoms: C17_22  and  C18_23 
ROOT
HETATM    1  C1  UNL     1       2.318  88.184  97.688  1.00  0.00     0.050 C 
HETATM    2  C2  UNL     1       3.539  88.559  98.456  1.00  0.00    -0.033 A 
HETATM    3  C3  UNL     1       4.699  88.942  97.820  1.00  0.00     0.033 A 
HETATM    4  C4  UNL     1       5.814  89.283  98.561  1.00  0.00     0.035 A 
HETATM    5 CL1  UNL     1       7.298  89.773  97.757  1.00  0.00    -0.084 Cl
HETATM    6  C5  UNL     1       5.806  89.255  99.939  1.00  0.00     0.038 A 
HETATM    7  C6  UNL     1       4.647  88.872 100.582  1.00  0.00    -0.001 A 
HETATM    8  C7  UNL     1       4.623  88.841 101.967  1.00  0.00    -0.042 A 
HETATM    9  C11 UNL     1       3.441  88.457 102.559  1.00  0.00     0.056 A 
HETATM   10  C12 UNL     1       2.301  88.109 101.809  1.00  0.00     0.101 A 
HETATM   11  N2  UNL     1       2.382  88.156 100.475  1.00  0.00    -0.342 N 
ATOM     12  H2  UNL     1       1.563  87.905  99.920  1.00  0.00     0.167 HD
HETATM   13  C19 UNL     1       3.526  88.528  99.833  1.00  0.00     0.050 A 
ENDROOT
BRANCH  10  14
HETATM   14  N1  UNL     1       1.227  87.759 102.375  1.00  0.00    -0.376 N 
ATOM     15  H1  UNL     1       0.922  86.798 102.224  1.00  0.00     0.161 HD
BRANCH  14  16
HETATM   16  C13 UNL     1       0.397  88.572 103.205  1.00  0.00     0.121 C 
BRANCH  16  17
HETATM   17  C14 UNL     1      -0.447  89.468 102.323  1.00  0.00     0.020 C 
BRANCH  17  18
HETATM   18  C15 UNL     1      -0.045  90.904 102.378  1.00  0.00     0.002 C 
BRANCH  18  19
HETATM   19  C16 UNL     1       0.610  91.365 101.115  1.00  0.00     0.001 C 
BRANCH  19  20
HETATM   20  C17 UNL     1       0.016  90.717  99.883  1.00  0.00     0.011 C 
BRANCH  20  21
HETATM   21  C18 UNL     1      -1.129  91.581  99.387  1.00  0.00     0.085 C 
HETATM   22 BR1  UNL     1      -2.827  90.697  99.637  1.00  0.00    -0.097 Br
ENDBRANCH  20  21
ENDBRANCH  19  20
ENDBRANCH  18  19
ENDBRANCH  17  18
ENDBRANCH  16  17
ENDBRANCH  14  16
ENDBRANCH  10  14
BRANCH   8  23
HETATM   23  C8  UNL     1       5.816  89.190 102.790  1.00  0.00     0.042 C 
BRANCH  23  24
HETATM   24  C9  UNL     1       6.504  87.969 103.344  1.00  0.00     0.030 C 
BRANCH  24  25
HETATM   25  C10 UNL     1       6.652  88.049 104.827  1.00  0.00     0.164 C 
BRANCH  25  26
HETATM   26  O1  UNL     1       5.699  87.270 105.501  1.00  0.00    -0.401 OA
ATOM     27  H1  UNL     1       5.823  86.339 105.352  1.00  0.00     0.209 HD
ENDBRANCH  25  26
ENDBRANCH  24  25
ENDBRANCH  23  24
ENDBRANCH   8  23
TORSDOF 11
ENDMDL
MODEL 4
REMARK VINA RESULT: -6.957667843      3.290      5.203
REMARK  11 active torsions:
REMARK  status: ('A' for Active; 'I' for Inactive)
REMARK    1  A    between atoms: C7_8  and  C8_9 
REMARK    2  A    between atoms: C8_9  and  C9_10 
REMARK    3  A    between atoms: C9_10  and  C10_11 
REMARK    4  A    between atoms: C10_11  and  O1_12 
REMARK    5  A    between atoms: C12_15  and  N1_16 
REMARK    6  A    between atoms: N1_16  and  C13_18 
REMARK    7  A    between atoms: C13_18  and  C14_19 
REMARK    8  A    between atoms: C14_19  and  C15_20 
REMARK    9  A    between atoms: C15_20  and  C16_21 
REMARK   10  A    between atoms: C16_21  and  C17_22 
REMARK   11  A    between atoms: C17_22  and  C18_23 
ROOT
HETATM    1  C1  UNL     1       1.881  88.702  97.419  1.00  0.00     0.050 C 
HETATM    2  C2  UNL     1       2.065  88.160  98.796  1.00  0.00    -0.033 A 
HETATM    3  C3  UNL     1       1.230  87.191  99.306  1.00  0.00     0.033 A 
HETATM    4  C4  UNL     1       1.427  86.710 100.585  1.00  0.00     0.035 A 
HETATM    5 CL1  UNL     1       0.366  85.473 101.242  1.00  0.00    -0.084 Cl
HETATM    6  C5  UNL     1       2.449  87.174 101.385  1.00  0.00     0.038 A 
HETATM    7  C6  UNL     1       3.289  88.145 100.881  1.00  0.00    -0.001 A 
HETATM    8  C7  UNL     1       4.323  88.619 101.672  1.00  0.00    -0.042 A 
HETATM    9  C11 UNL     1       5.135  89.584 101.120  1.00  0.00     0.056 A 
HETATM   10  C12 UNL     1       4.939  90.078  99.816  1.00  0.00     0.101 A 
HETATM   11  N2  UNL     1       3.925  89.584  99.098  1.00  0.00    -0.342 N 
ATOM     12  H2  UNL     1       3.772  89.934  98.152  1.00  0.00     0.167 HD
HETATM   13  C19 UNL     1       3.088  88.628  99.592  1.00  0.00     0.050 A 
ENDROOT
BRANCH  10  14
HETATM   14  N1  UNL     1       5.697  90.964  99.331  1.00  0.00    -0.376 N 
ATOM     15  H1  UNL     1       5.655  91.889  99.760  1.00  0.00     0.161 HD
BRANCH  14  16
HETATM   16  C13 UNL     1       6.609  90.805  98.242  1.00  0.00     0.121 C 
BRANCH  16  17
HETATM   17  C14 UNL     1       7.498  89.612  98.522  1.00  0.00     0.020 C 
BRANCH  17  18
HETATM   18  C15 UNL     1       7.279  88.474  97.581  1.00  0.00     0.002 C 
BRANCH  18  19
HETATM   19  C16 UNL     1       6.289  88.799  96.509  1.00  0.00     0.001 C 
BRANCH  19  20
HETATM   20  C17 UNL     1       5.287  87.686  96.288  1.00  0.00     0.011 C 
BRANCH  20  21
HETATM   21  C18 UNL     1       5.008  87.575  94.800  1.00  0.00     0.085 C 
HETATM   22 BR1  UNL     1       6.032  88.872  93.802  1.00  0.00    -0.097 Br
ENDBRANCH  20  21
ENDBRANCH  19  20
ENDBRANCH  18  19
ENDBRANCH  17  18
ENDBRANCH  16  17
ENDBRANCH  14  16
ENDBRANCH  10  14
BRANCH   8  23
HETATM   23  C8  UNL     1       4.549  88.128 103.062  1.00  0.00     0.042 C 
BRANCH  23  24
HETATM   24  C9  UNL     1       5.750  88.773 103.706  1.00  0.00     0.030 C 
BRANCH  24  25
HETATM   25  C10 UNL     1       6.492  87.809 104.570  1.00  0.00     0.164 C 
BRANCH  25  26
HETATM   26  O1  UNL     1       5.667  87.214 105.537  1.00  0.00    -0.401 OA
ATOM     27  H1  UNL     1       5.279  86.403 105.231  1.00  0.00     0.209 HD
ENDBRANCH  25  26
ENDBRANCH  24  25
ENDBRANCH  23  24
ENDBRANCH   8  23
TORSDOF 11
ENDMDL
MODEL 5
REMARK VINA RESULT: -6.780524323      1.964      2.591
REMARK  11 active torsions:
REMARK  status: ('A' for Active; 'I' for Inactive)
REMARK    1  A    between atoms: C7_8  and  C8_9 
REMARK    2  A    between atoms: C8_9  and  C9_10 
REMARK    3  A    between atoms: C9_10  and  C10_11 
REMARK    4  A    between atoms: C10_11  and  O1_12 
REMARK    5  A    between atoms: C12_15  and  N1_16 
REMARK    6  A    between atoms: N1_16  and  C13_18 
REMARK    7  A    between atoms: C13_18  and  C14_19 
REMARK    8  A    between atoms: C14_19  and  C15_20 
REMARK    9  A    between atoms: C15_20  and  C16_21 
REMARK   10  A    between atoms: C16_21  and  C17_22 
REMARK   11  A    between atoms: C17_22  and  C18_23 
ROOT
HETATM    1  C1  UNL     1       2.504  88.740  97.098  1.00  0.00     0.050 C 
HETATM    2  C2  UNL     1       3.765  88.934  97.869  1.00  0.00    -0.033 A 
HETATM    3  C3  UNL     1       4.983  88.527  97.373  1.00  0.00     0.033 A 
HETATM    4  C4  UNL     1       6.133  88.722  98.113  1.00  0.00     0.035 A 
HETATM    5 CL1  UNL     1       7.691  88.204  97.486  1.00  0.00    -0.084 Cl
HETATM    6  C5  UNL     1       6.104  89.323  99.353  1.00  0.00     0.038 A 
HETATM    7  C6  UNL     1       4.887  89.734  99.856  1.00  0.00    -0.001 A 
HETATM    8  C7  UNL     1       4.843  90.342 101.100  1.00  0.00    -0.042 A 
HETATM    9  C11 UNL     1       3.605  90.738 101.554  1.00  0.00     0.056 A 
HETATM   10  C12 UNL     1       2.430  90.542 100.804  1.00  0.00     0.101 A 
HETATM   11  N2  UNL     1       2.532  89.949  99.610  1.00  0.00    -0.342 N 
ATOM     12  H2  UNL     1       1.687  89.800  99.057  1.00  0.00     0.167 HD
HETATM   13  C19 UNL     1       3.731  89.536  99.109  1.00  0.00     0.050 A 
ENDROOT
BRANCH  10  14
HETATM   14  N1  UNL     1       1.304  90.913 101.242  1.00  0.00    -0.376 N 
ATOM     15  H1  UNL     1       0.648  90.177 101.501  1.00  0.00     0.161 HD
BRANCH  14  16
HETATM   16  C13 UNL     1       0.857  92.259 101.411  1.00  0.00     0.121 C 
BRANCH  16  17
HETATM   17  C14 UNL     1      -0.643  92.303 101.216  1.00  0.00     0.020 C 
BRANCH  17  18
HETATM   18  C15 UNL     1      -1.365  91.197 101.910  1.00  0.00     0.002 C 
BRANCH  18  19
HETATM   19  C16 UNL     1      -2.214  90.392 100.978  1.00  0.00     0.001 C 
BRANCH  19  20
HETATM   20  C17 UNL     1      -2.744  91.212  99.823  1.00  0.00     0.011 C 
BRANCH  20  21
HETATM   21  C18 UNL     1      -2.690  90.365  98.564  1.00  0.00     0.085 C 
HETATM   22 BR1  UNL     1      -0.884  90.226  97.897  1.00  0.00    -0.097 Br
ENDBRANCH  20  21
ENDBRANCH  19  20
ENDBRANCH  18  19
ENDBRANCH  17  18
ENDBRANCH  16  17
ENDBRANCH  14  16
ENDBRANCH  10  14
BRANCH   8  23
HETATM   23  C8  UNL     1       6.067  90.552 101.926  1.00  0.00     0.042 C 
BRANCH  23  24
HETATM   24  C9  UNL     1       6.024  89.775 103.217  1.00  0.00     0.030 C 
BRANCH  24  25
HETATM   25  C10 UNL     1       7.385  89.327 103.633  1.00  0.00     0.164 C 
BRANCH  25  26
HETATM   26  O1  UNL     1       7.464  89.068 105.010  1.00  0.00    -0.401 OA
ATOM     27  H1  UNL     1       6.842  88.406 105.289  1.00  0.00     0.209 HD
ENDBRANCH  25  26
ENDBRANCH  24  25
ENDBRANCH  23  24
ENDBRANCH   8  23
TORSDOF 11
ENDMDL
