MODEL 1
REMARK VINA RESULT: -7.625729255      0.000      0.000
REMARK  8 active torsions:
REMARK  status: ('A' for Active; 'I' for Inactive)
REMARK    1  A    between atoms: C4_4  and  C5_5 
REMARK    2  A    between atoms: C5_5  and  C6_6 
REMARK    3  A    between atoms: C6_6  and  C7_7 
REMARK    4  A    between atoms: C11_12  and  C12_13 
REMARK       I    between atoms: C12_13  and  N1_15 
REMARK    5  A    between atoms: N1_15  and  C13_17 
REMARK    6  A    between atoms: C13_17  and  C14_18 
REMARK    7  A    between atoms: C13_17  and  C18_22 
REMARK    8  A    between atoms: C14_18  and  C15_19 
ROOT
HETATM    1  C7  UNL     1       4.830  89.900 101.273  1.00  0.00    -0.018 C 
HETATM    2  C8  UNL     1       3.951  91.106 101.219  1.00  0.00     0.017 C 
HETATM    3  C9  UNL     1       5.175  89.583 102.742  1.00  0.00     0.067 C 
HETATM    4 BR1  UNL     1       6.969  90.063 103.237  1.00  0.00    -0.090 Br
HETATM    5  C10 UNL     1       5.039  88.122 102.381  1.00  0.00     0.031 C 
HETATM    6  C11 UNL     1       4.103  88.572 101.267  1.00  0.00     0.088 C 
ENDROOT
BRANCH   6   7
HETATM    7  C12 UNL     1       2.719  88.551 101.735  1.00  0.00     0.223 C 
HETATM    8  O1  UNL     1       2.319  88.097 102.851  1.00  0.00    -0.273 OA
HETATM    9  N1  UNL     1       1.704  89.074 100.901  1.00  0.00    -0.346 N 
ATOM     10  H1  UNL     1       1.977  89.451  99.993  1.00  0.00     0.163 HD
BRANCH   9  11
HETATM   11  C13 UNL     1       0.301  89.107 101.258  1.00  0.00     0.185 C 
BRANCH  11  12
HETATM   12  C14 UNL     1      -0.160  90.425 101.774  1.00  0.00     0.040 C 
BRANCH  12  13
HETATM   13  C15 UNL     1       0.234  91.633 101.015  1.00  0.00    -0.020 C 
HETATM   14  C16 UNL     1      -0.851  92.372 100.304  1.00  0.00     0.009 C 
HETATM   15  C17 UNL     1       0.825  92.624 102.032  1.00  0.00     0.009 C 
ENDBRANCH  12  13
ENDBRANCH  11  12
BRANCH  11  16
HETATM   16  C18 UNL     1      -0.532  88.596 100.175  1.00  0.00     0.196 C 
HETATM   17  O2  UNL     1      -0.257  87.502  99.579  1.00  0.00    -0.646 OA
HETATM   18  O3  UNL     1      -1.667  89.242  99.715  1.00  0.00    -0.646 OA
ENDBRANCH  11  16
ENDBRANCH   9  11
ENDBRANCH   6   7
BRANCH   1  19
HETATM   19  C6  UNL     1       6.094  89.929 100.500  1.00  0.00     0.015 C 
BRANCH  19  20
HETATM   20  C5  UNL     1       6.081  90.325  99.086  1.00  0.00     0.028 C 
BRANCH  20  21
HETATM   21  C4  UNL     1       6.260  89.277  98.068  1.00  0.00    -0.025 C 
HETATM   22  C2  UNL     1       5.226  88.660  97.499  1.00  0.00    -0.091 C 
HETATM   23  C1  UNL     1       5.485  87.616  96.483  1.00  0.00     0.042 C 
HETATM   24  C3  UNL     1       3.823  88.991  97.857  1.00  0.00     0.042 C 
ENDBRANCH  20  21
ENDBRANCH  19  20
ENDBRANCH   1  19
TORSDOF 8
ENDMDL
MODEL 2
REMARK VINA RESULT: -7.618019165      0.849      1.316
REMARK  8 active torsions:
REMARK  status: ('A' for Active; 'I' for Inactive)
REMARK    1  A    between atoms: C4_4  and  C5_5 
REMARK    2  A    between atoms: C5_5  and  C6_6 
REMARK    3  A    between atoms: C6_6  and  C7_7 
REMARK    4  A    between atoms: C11_12  and  C12_13 
REMARK       I    between atoms: C12_13  and  N1_15 
REMARK    5  A    between atoms: N1_15  and  C13_17 
REMARK    6  A    between atoms: C13_17  and  C14_18 
REMARK    7  A    between atoms: C13_17  and  C18_22 
REMARK    8  A    between atoms: C14_18  and  C15_19 
ROOT
HETATM    1  C7  UNL     1       5.019  89.715 101.087  1.00  0.00    -0.018 C 
HETATM    2  C8  UNL     1       4.337  90.987 100.702  1.00  0.00     0.017 C 
HETATM    3  C9  UNL     1       5.088  89.615 102.624  1.00  0.00     0.067 C 
HETATM    4 BR1  UNL     1       6.835  89.964 103.344  1.00  0.00    -0.090 Br
HETATM    5  C10 UNL     1       4.805  88.139 102.466  1.00  0.00     0.031 C 
HETATM    6  C11 UNL     1       4.122  88.497 101.152  1.00  0.00     0.088 C 
ENDROOT
BRANCH   6   7
HETATM    7  C12 UNL     1       2.694  88.714 101.372  1.00  0.00     0.223 C 
HETATM    8  O1  UNL     1       2.086  88.593 102.480  1.00  0.00    -0.273 OA
HETATM    9  N1  UNL     1       1.882  89.094 100.279  1.00  0.00    -0.346 N 
ATOM     10  H1  UNL     1       2.325  89.203  99.367  1.00  0.00     0.163 HD
BRANCH   9  11
HETATM   11  C13 UNL     1       0.457  89.336 100.376  1.00  0.00     0.185 C 
BRANCH  11  12
HETATM   12  C14 UNL     1       0.071  90.759 100.171  1.00  0.00     0.040 C 
BRANCH  12  13
HETATM   13  C15 UNL     1      -0.302  91.546 101.368  1.00  0.00    -0.020 C 
HETATM   14  C16 UNL     1      -0.703  90.781 102.586  1.00  0.00     0.009 C 
HETATM   15  C17 UNL     1       0.939  92.361 101.769  1.00  0.00     0.009 C 
ENDBRANCH  12  13
ENDBRANCH  11  12
BRANCH  11  16
HETATM   16  C18 UNL     1      -0.295  88.414  99.530  1.00  0.00     0.196 C 
HETATM   17  O2  UNL     1      -1.042  88.832  98.585  1.00  0.00    -0.646 OA
HETATM   18  O3  UNL     1      -0.257  87.038  99.681  1.00  0.00    -0.646 OA
ENDBRANCH  11  16
ENDBRANCH   9  11
ENDBRANCH   6   7
BRANCH   1  19
HETATM   19  C6  UNL     1       6.378  89.468 100.549  1.00  0.00     0.015 C 
BRANCH  19  20
HETATM   20  C5  UNL     1       6.626  89.571  99.105  1.00  0.00     0.028 C 
BRANCH  20  21
HETATM   21  C4  UNL     1       5.942  88.622  98.212  1.00  0.00    -0.025 C 
HETATM   22  C2  UNL     1       6.052  88.693  96.887  1.00  0.00    -0.091 C 
HETATM   23  C1  UNL     1       5.333  87.704  96.054  1.00  0.00     0.042 C 
HETATM   24  C3  UNL     1       6.875  89.737  96.224  1.00  0.00     0.042 C 
ENDBRANCH  20  21
ENDBRANCH  19  20
ENDBRANCH   1  19
TORSDOF 8
ENDMDL
MODEL 3
REMARK VINA RESULT: -7.497632345      2.387      4.311
REMARK  8 active torsions:
REMARK  status: ('A' for Active; 'I' for Inactive)
REMARK    1  A    between atoms: C4_4  and  C5_5 
REMARK    2  A    between atoms: C5_5  and  C6_6 
REMARK    3  A    between atoms: C6_6  and  C7_7 
REMARK    4  A    between atoms: C11_12  and  C12_13 
REMARK       I    between atoms: C12_13  and  N1_15 
REMARK    5  A    between atoms: N1_15  and  C13_17 
REMARK    6  A    between atoms: C13_17  and  C14_18 
REMARK    7  A    between atoms: C13_17  and  C18_22 
REMARK    8  A    between atoms: C14_18  and  C15_19 
ROOT
HETATM    1  C7  UNL     1       4.597  89.875 101.651  1.00  0.00    -0.018 C 
HETATM    2  C8  UNL     1       3.820  88.729 102.212  1.00  0.00     0.017 C 
HETATM    3  C9  UNL     1       4.968  89.573 100.185  1.00  0.00     0.067 C 
HETATM    4 BR1  UNL     1       6.812  89.094  99.936  1.00  0.00    -0.090 Br
HETATM    5  C10 UNL     1       4.697  91.032  99.895  1.00  0.00     0.031 C 
HETATM    6  C11 UNL     1       3.762  91.009 101.097  1.00  0.00     0.088 C 
ENDROOT
BRANCH   6   7
HETATM    7  C12 UNL     1       2.400  90.705 100.668  1.00  0.00     0.223 C 
HETATM    8  O1  UNL     1       2.072  89.860  99.779  1.00  0.00    -0.273 OA
HETATM    9  N1  UNL     1       1.321  91.392 101.270  1.00  0.00    -0.346 N 
ATOM     10  H1  UNL     1       1.534  92.083 101.989  1.00  0.00     0.163 HD
BRANCH   9  11
HETATM   11  C13 UNL     1      -0.069  91.175 100.926  1.00  0.00     0.185 C 
BRANCH  11  12
HETATM   12  C14 UNL     1      -0.860  90.511 101.998  1.00  0.00     0.040 C 
BRANCH  12  13
HETATM   13  C15 UNL     1      -0.160  90.178 103.258  1.00  0.00    -0.020 C 
HETATM   14  C16 UNL     1      -0.917  90.383 104.529  1.00  0.00     0.009 C 
HETATM   15  C17 UNL     1       0.171  88.677 103.201  1.00  0.00     0.009 C 
ENDBRANCH  12  13
ENDBRANCH  11  12
BRANCH  11  16
HETATM   16  C18 UNL     1      -0.690  92.401 100.436  1.00  0.00     0.196 C 
HETATM   17  O2  UNL     1      -0.205  93.550 100.704  1.00  0.00    -0.646 OA
HETATM   18  O3  UNL     1      -1.834  92.418  99.655  1.00  0.00    -0.646 OA
ENDBRANCH  11  16
ENDBRANCH   9  11
ENDBRANCH   6   7
BRANCH   1  19
HETATM   19  C6  UNL     1       5.831  90.288 102.361  1.00  0.00     0.015 C 
BRANCH  19  20
HETATM   20  C5  UNL     1       6.263  89.565 103.563  1.00  0.00     0.028 C 
BRANCH  20  21
HETATM   21  C4  UNL     1       7.220  88.458 103.405  1.00  0.00    -0.025 C 
HETATM   22  C2  UNL     1       7.347  87.496 104.317  1.00  0.00    -0.091 C 
HETATM   23  C1  UNL     1       8.332  86.416 104.087  1.00  0.00     0.042 C 
HETATM   24  C3  UNL     1       6.530  87.479 105.557  1.00  0.00     0.042 C 
ENDBRANCH  20  21
ENDBRANCH  19  20
ENDBRANCH   1  19
TORSDOF 8
ENDMDL
MODEL 4
REMARK VINA RESULT: -7.254510863      2.340      4.470
REMARK  8 active torsions:
REMARK  status: ('A' for Active; 'I' for Inactive)
REMARK    1  A    between atoms: C4_4  and  C5_5 
REMARK    2  A    between atoms: C5_5  and  C6_6 
REMARK    3  A    between atoms: C6_6  and  C7_7 
REMARK    4  A    between atoms: C11_12  and  C12_13 
REMARK       I    between atoms: C12_13  and  N1_15 
REMARK    5  A    between atoms: N1_15  and  C13_17 
REMARK    6  A    between atoms: C13_17  and  C14_18 
REMARK    7  A    between atoms: C13_17  and  C18_22 
REMARK    8  A    between atoms: C14_18  and  C15_19 
ROOT
HETATM    1  C7  UNL     1       4.949  89.812 101.619  1.00  0.00    -0.018 C 
HETATM    2  C8  UNL     1       4.391  88.547 102.185  1.00  0.00     0.017 C 
HETATM    3  C9  UNL     1       5.343  89.582 100.146  1.00  0.00     0.067 C 
HETATM    4 BR1  UNL     1       7.238  89.431  99.866  1.00  0.00    -0.090 Br
HETATM    5  C10 UNL     1       4.820  90.973  99.867  1.00  0.00     0.031 C 
HETATM    6  C11 UNL     1       3.921  90.786 101.083  1.00  0.00     0.088 C 
ENDROOT
BRANCH   6   7
HETATM    7  C12 UNL     1       2.626  90.252 100.672  1.00  0.00     0.223 C 
HETATM    8  O1  UNL     1       2.122  90.335  99.510  1.00  0.00    -0.273 OA
HETATM    9  N1  UNL     1       1.829  89.574 101.624  1.00  0.00    -0.346 N 
ATOM     10  H1  UNL     1       2.192  89.482 102.573  1.00  0.00     0.163 HD
BRANCH   9  11
HETATM   11  C13 UNL     1       0.531  89.003 101.332  1.00  0.00     0.185 C 
BRANCH  11  12
HETATM   12  C14 UNL     1       0.386  87.583 101.755  1.00  0.00     0.040 C 
BRANCH  12  13
HETATM   13  C15 UNL     1       1.052  86.552 100.929  1.00  0.00    -0.020 C 
HETATM   14  C16 UNL     1       0.483  85.172 100.976  1.00  0.00     0.009 C 
HETATM   15  C17 UNL     1       0.934  87.009  99.465  1.00  0.00     0.009 C 
ENDBRANCH  12  13
ENDBRANCH  11  12
BRANCH  11  16
HETATM   16  C18 UNL     1      -0.544  89.857 101.827  1.00  0.00     0.196 C 
HETATM   17  O2  UNL     1      -0.397  90.586 102.863  1.00  0.00    -0.646 OA
HETATM   18  O3  UNL     1      -1.787  89.946 101.222  1.00  0.00    -0.646 OA
ENDBRANCH  11  16
ENDBRANCH   9  11
ENDBRANCH   6   7
BRANCH   1  19
HETATM   19  C6  UNL     1       6.103  90.431 102.312  1.00  0.00     0.015 C 
BRANCH  19  20
HETATM   20  C5  UNL     1       6.601  89.854 103.567  1.00  0.00     0.028 C 
BRANCH  20  21
HETATM   21  C4  UNL     1       7.523  88.709 103.490  1.00  0.00    -0.025 C 
HETATM   22  C2  UNL     1       7.386  87.638 104.269  1.00  0.00    -0.091 C 
HETATM   23  C1  UNL     1       8.353  86.525 104.133  1.00  0.00     0.042 C 
HETATM   24  C3  UNL     1       6.292  87.529 105.267  1.00  0.00     0.042 C 
ENDBRANCH  20  21
ENDBRANCH  19  20
ENDBRANCH   1  19
TORSDOF 8
ENDMDL
MODEL 5
REMARK VINA RESULT: -7.222823292      2.099      3.826
REMARK  8 active torsions:
REMARK  status: ('A' for Active; 'I' for Inactive)
REMARK    1  A    between atoms: C4_4  and  C5_5 
REMARK    2  A    between atoms: C5_5  and  C6_6 
REMARK    3  A    between atoms: C6_6  and  C7_7 
REMARK    4  A    between atoms: C11_12  and  C12_13 
REMARK       I    between atoms: C12_13  and  N1_15 
REMARK    5  A    between atoms: N1_15  and  C13_17 
REMARK    6  A    between atoms: C13_17  and  C14_18 
REMARK    7  A    between atoms: C13_17  and  C18_22 
REMARK    8  A    between atoms: C14_18  and  C15_19 
ROOT
HETATM    1  C7  UNL     1       4.599  89.676 101.762  1.00  0.00    -0.018 C 
HETATM    2  C8  UNL     1       4.132  88.461 102.494  1.00  0.00     0.017 C 
HETATM    3  C9  UNL     1       4.741  89.347 100.262  1.00  0.00     0.067 C 
HETATM    4 BR1  UNL     1       6.561  89.142  99.683  1.00  0.00    -0.090 Br
HETATM    5  C10 UNL     1       4.191  90.728  99.984  1.00  0.00     0.031 C 
HETATM    6  C11 UNL     1       3.506  90.635 101.342  1.00  0.00     0.088 C 
ENDROOT
BRANCH   6   7
HETATM    7  C12 UNL     1       2.155  90.101 101.187  1.00  0.00     0.223 C 
HETATM    8  O1  UNL     1       1.544  89.371 102.026  1.00  0.00    -0.273 OA
HETATM    9  N1  UNL     1       1.429  90.401 100.011  1.00  0.00    -0.346 N 
ATOM     10  H1  UNL     1       1.879  90.985  99.306  1.00  0.00     0.163 HD
BRANCH   9  11
HETATM   11  C13 UNL     1       0.085  89.930  99.748  1.00  0.00     0.185 C 
BRANCH  11  12
HETATM   12  C14 UNL     1      -0.833  90.980  99.228  1.00  0.00     0.040 C 
BRANCH  12  13
HETATM   13  C15 UNL     1      -2.070  91.248  99.995  1.00  0.00    -0.020 C 
HETATM   14  C16 UNL     1      -3.270  90.426  99.654  1.00  0.00     0.009 C 
HETATM   15  C17 UNL     1      -1.755  90.947 101.469  1.00  0.00     0.009 C 
ENDBRANCH  12  13
ENDBRANCH  11  12
BRANCH  11  16
HETATM   16  C18 UNL     1       0.100  88.727  98.922  1.00  0.00     0.196 C 
HETATM   17  O2  UNL     1      -0.577  87.692  99.235  1.00  0.00    -0.646 OA
HETATM   18  O3  UNL     1       0.835  88.613  97.754  1.00  0.00    -0.646 OA
ENDBRANCH  11  16
ENDBRANCH   9  11
ENDBRANCH   6   7
BRANCH   1  19
HETATM   19  C6  UNL     1       5.859  90.314 102.213  1.00  0.00     0.015 C 
BRANCH  19  20
HETATM   20  C5  UNL     1       6.522  89.846 103.436  1.00  0.00     0.028 C 
BRANCH  20  21
HETATM   21  C4  UNL     1       7.427  88.689 103.338  1.00  0.00    -0.025 C 
HETATM   22  C2  UNL     1       7.361  87.666 104.187  1.00  0.00    -0.091 C 
HETATM   23  C1  UNL     1       8.305  86.538 104.025  1.00  0.00     0.042 C 
HETATM   24  C3  UNL     1       6.366  87.625 105.289  1.00  0.00     0.042 C 
ENDBRANCH  20  21
ENDBRANCH  19  20
ENDBRANCH   1  19
TORSDOF 8
ENDMDL
