MODEL 1
REMARK VINA RESULT: -8.385906571      0.000      0.000
REMARK  10 active torsions:
REMARK  status: ('A' for Active; 'I' for Inactive)
REMARK    1  A    between atoms: C2_2  and  N1_3 
REMARK    2  A    between atoms: N1_3  and  C4_5 
REMARK    3  A    between atoms: N1_3  and  C18_22 
REMARK    4  A    between atoms: C4_5  and  C5_6 
REMARK    5  A    between atoms: C8_9  and  C9_10 
REMARK    6  A    between atoms: C9_10  and  C10_11 
REMARK    7  A    between atoms: C10_11  and  C11_12 
REMARK    8  A    between atoms: C11_12  and  C12_13 
REMARK    9  A    between atoms: C14_15  and  O1_16 
REMARK   10  A    between atoms: C18_22  and  C19_23 
ROOT
HETATM    1  C5  UNL     1       2.014  88.654  98.597  1.00  0.00    -0.052 C 
HETATM    2  C6  UNL     1       1.739  87.710  99.472  1.00  0.00     0.005 C 
HETATM    3  C7  UNL     1       2.374  87.655 100.751  1.00  0.00     0.005 C 
HETATM    4  C8  UNL     1       3.262  88.546 101.137  1.00  0.00    -0.058 C 
HETATM    5  C16 UNL     1       3.499  89.742 100.304  1.00  0.00     0.115 C 
HETATM    6 CL1  UNL     1       2.486  91.036 101.096  1.00  0.00    -0.120 Cl
HETATM    7  C17 UNL     1       3.033  89.657  98.909  1.00  0.00     0.060 C 
ENDROOT
BRANCH   1   8
HETATM    8  C4  UNL     1       1.321  88.657  97.314  1.00  0.00     0.271 C 
BRANCH   8   9
HETATM    9  N1  UNL     1       0.040  89.317  97.239  1.00  0.00    -0.062 N 
HETATM   10  C3  UNL     1      -0.148  90.045  96.002  1.00  0.00     0.273 C 
BRANCH   9  11
HETATM   11  C2  UNL     1      -0.958  88.263  97.222  1.00  0.00     0.233 C 
HETATM   12  C1  UNL     1      -1.749  88.119  95.982  1.00  0.00     0.035 C 
ENDBRANCH   9  11
BRANCH   9  13
HETATM   13  C18 UNL     1      -0.070  90.182  98.395  1.00  0.00     0.297 C 
BRANCH  13  14
HETATM   14  C19 UNL     1      -1.430  90.350  98.923  1.00  0.00     0.075 A 
HETATM   15  N2  UNL     1      -2.595  90.717  98.366  1.00  0.00    -0.352 N 
HETATM   16  C20 UNL     1      -3.582  90.736  99.265  1.00  0.00     0.182 A 
ATOM     17  H2  UNL     1      -2.712  90.952  97.379  1.00  0.00     0.166 HD
HETATM   18  N3  UNL     1      -3.050  90.374 100.432  1.00  0.00    -0.341 N 
HETATM   19  C21 UNL     1      -1.760  90.138 100.247  1.00  0.00     0.128 A 
ATOM     20  H3  UNL     1      -3.550  90.292 101.317  1.00  0.00     0.167 HD
HETATM   21 CL2  UNL     1      -0.652  89.634 101.501  1.00  0.00    -0.062 Cl
ENDBRANCH  13  14
ENDBRANCH   9  13
ENDBRANCH   8   9
ENDBRANCH   1   8
BRANCH   4  22
HETATM   22  C9  UNL     1       3.907  88.427 102.493  1.00  0.00     0.062 C 
BRANCH  22  23
HETATM   23  C10 UNL     1       5.205  89.091 102.553  1.00  0.00    -0.026 C 
BRANCH  23  24
HETATM   24  C11 UNL     1       6.337  88.480 102.332  1.00  0.00    -0.026 C 
BRANCH  24  25
HETATM   25  C12 UNL     1       7.444  88.452 103.288  1.00  0.00     0.012 C 
HETATM   26  C13 UNL     1       7.045  89.129 104.602  1.00  0.00     0.040 C 
HETATM   27  C14 UNL     1       6.934  87.755 105.217  1.00  0.00     0.119 C 
HETATM   28  C15 UNL     1       7.737  87.211 104.050  1.00  0.00     0.040 C 
BRANCH  27  29
HETATM   29  O1  UNL     1       5.659  87.268 105.372  1.00  0.00    -0.396 OA
ATOM     30  H1  UNL     1       5.451  86.484 104.878  1.00  0.00     0.210 HD
ENDBRANCH  27  29
ENDBRANCH  24  25
ENDBRANCH  23  24
ENDBRANCH  22  23
ENDBRANCH   4  22
TORSDOF 10
ENDMDL
MODEL 2
REMARK VINA RESULT: -8.272749669      1.809      3.321
REMARK  10 active torsions:
REMARK  status: ('A' for Active; 'I' for Inactive)
REMARK    1  A    between atoms: C2_2  and  N1_3 
REMARK    2  A    between atoms: N1_3  and  C4_5 
REMARK    3  A    between atoms: N1_3  and  C18_22 
REMARK    4  A    between atoms: C4_5  and  C5_6 
REMARK    5  A    between atoms: C8_9  and  C9_10 
REMARK    6  A    between atoms: C9_10  and  C10_11 
REMARK    7  A    between atoms: C10_11  and  C11_12 
REMARK    8  A    between atoms: C11_12  and  C12_13 
REMARK    9  A    between atoms: C14_15  and  O1_16 
REMARK   10  A    between atoms: C18_22  and  C19_23 
ROOT
HETATM    1  C5  UNL     1       0.192  90.244 101.590  1.00  0.00    -0.052 C 
HETATM    2  C6  UNL     1       1.315  90.766 101.144  1.00  0.00     0.005 C 
HETATM    3  C7  UNL     1       2.559  90.067 101.226  1.00  0.00     0.005 C 
HETATM    4  C8  UNL     1       2.658  88.859 101.740  1.00  0.00    -0.058 C 
HETATM    5  C16 UNL     1       1.430  88.120 102.095  1.00  0.00     0.115 C 
HETATM    6 CL1  UNL     1       1.148  87.024 100.663  1.00  0.00    -0.120 Cl
HETATM    7  C17 UNL     1       0.208  88.930 102.234  1.00  0.00     0.060 C 
ENDROOT
BRANCH   1   8
HETATM    8  C4  UNL     1      -1.044  91.008 101.465  1.00  0.00     0.271 C 
BRANCH   8   9
HETATM    9  N1  UNL     1      -1.632  91.133 100.154  1.00  0.00    -0.062 N 
HETATM   10  C3  UNL     1      -3.014  91.562 100.194  1.00  0.00     0.273 C 
BRANCH   9  11
HETATM   11  C2  UNL     1      -0.914  92.205  99.490  1.00  0.00     0.233 C 
HETATM   12  C1  UNL     1      -1.269  93.585  99.885  1.00  0.00     0.035 C 
ENDBRANCH   9  11
BRANCH   9  13
HETATM   13  C18 UNL     1      -1.484  89.855  99.489  1.00  0.00     0.297 C 
BRANCH  13  14
HETATM   14  C19 UNL     1      -1.467  89.913  98.021  1.00  0.00     0.075 A 
HETATM   15  N2  UNL     1      -2.403  90.196  97.100  1.00  0.00    -0.352 N 
HETATM   16  C20 UNL     1      -1.910  90.108  95.862  1.00  0.00     0.182 A 
ATOM     17  H2  UNL     1      -3.367  90.446  97.319  1.00  0.00     0.166 HD
HETATM   18  N3  UNL     1      -0.628  89.762  95.979  1.00  0.00    -0.341 N 
HETATM   19  C21 UNL     1      -0.344  89.640  97.266  1.00  0.00     0.128 A 
ATOM     20  H3  UNL     1       0.023  89.616  95.207  1.00  0.00     0.167 HD
HETATM   21 CL2  UNL     1       1.224  89.200  97.899  1.00  0.00    -0.062 Cl
ENDBRANCH  13  14
ENDBRANCH   9  13
ENDBRANCH   8   9
ENDBRANCH   1   8
BRANCH   4  22
HETATM   22  C9  UNL     1       3.999  88.178 101.810  1.00  0.00     0.062 C 
BRANCH  22  23
HETATM   23  C10 UNL     1       5.108  89.126 101.813  1.00  0.00    -0.026 C 
BRANCH  23  24
HETATM   24  C11 UNL     1       5.759  89.469 102.891  1.00  0.00    -0.026 C 
BRANCH  24  25
HETATM   25  C12 UNL     1       7.033  88.871 103.294  1.00  0.00     0.012 C 
HETATM   26  C13 UNL     1       7.256  89.032 104.800  1.00  0.00     0.040 C 
HETATM   27  C14 UNL     1       6.916  87.569 104.955  1.00  0.00     0.119 C 
HETATM   28  C15 UNL     1       7.142  87.399 103.464  1.00  0.00     0.040 C 
BRANCH  27  29
HETATM   29  O1  UNL     1       5.656  87.293 105.426  1.00  0.00    -0.396 OA
ATOM     30  H1  UNL     1       5.531  86.425 105.793  1.00  0.00     0.210 HD
ENDBRANCH  27  29
ENDBRANCH  24  25
ENDBRANCH  23  24
ENDBRANCH  22  23
ENDBRANCH   4  22
TORSDOF 10
ENDMDL
MODEL 3
REMARK VINA RESULT: -8.262781925      1.640      2.321
REMARK  10 active torsions:
REMARK  status: ('A' for Active; 'I' for Inactive)
REMARK    1  A    between atoms: C2_2  and  N1_3 
REMARK    2  A    between atoms: N1_3  and  C4_5 
REMARK    3  A    between atoms: N1_3  and  C18_22 
REMARK    4  A    between atoms: C4_5  and  C5_6 
REMARK    5  A    between atoms: C8_9  and  C9_10 
REMARK    6  A    between atoms: C9_10  and  C10_11 
REMARK    7  A    between atoms: C10_11  and  C11_12 
REMARK    8  A    between atoms: C11_12  and  C12_13 
REMARK    9  A    between atoms: C14_15  and  O1_16 
REMARK   10  A    between atoms: C18_22  and  C19_23 
ROOT
HETATM    1  C5  UNL     1       2.345  89.547 100.769  1.00  0.00    -0.052 C 
HETATM    2  C6  UNL     1       2.650  90.790 101.074  1.00  0.00     0.005 C 
HETATM    3  C7  UNL     1       3.987  91.187 101.385  1.00  0.00     0.005 C 
HETATM    4  C8  UNL     1       4.995  90.341 101.375  1.00  0.00    -0.058 C 
HETATM    5  C16 UNL     1       4.786  88.971 100.867  1.00  0.00     0.115 C 
HETATM    6 CL1  UNL     1       5.386  89.044  99.145  1.00  0.00    -0.120 Cl
HETATM    7  C17 UNL     1       3.386  88.519 100.791  1.00  0.00     0.060 C 
ENDROOT
BRANCH   1   8
HETATM    8  C4  UNL     1       0.961  89.213 100.452  1.00  0.00     0.271 C 
BRANCH   8   9
HETATM    9  N1  UNL     1       0.531  89.341  99.081  1.00  0.00    -0.062 N 
HETATM   10  C3  UNL     1       1.626  89.262  98.137  1.00  0.00     0.273 C 
BRANCH   9  11
HETATM   11  C2  UNL     1      -0.299  88.182  98.807  1.00  0.00     0.233 C 
HETATM   12  C1  UNL     1       0.113  86.909  99.435  1.00  0.00     0.035 C 
ENDBRANCH   9  11
BRANCH   9  13
HETATM   13  C18 UNL     1      -0.189  90.593  98.968  1.00  0.00     0.297 C 
BRANCH  13  14
HETATM   14  C19 UNL     1      -1.653  90.478  99.010  1.00  0.00     0.075 A 
HETATM   15  N2  UNL     1      -2.588  90.273  98.069  1.00  0.00    -0.352 N 
HETATM   16  C20 UNL     1      -3.815  90.254  98.596  1.00  0.00     0.182 A 
ATOM     17  H2  UNL     1      -2.386  90.149  97.076  1.00  0.00     0.166 HD
HETATM   18  N3  UNL     1      -3.676  90.449  99.907  1.00  0.00    -0.341 N 
HETATM   19  C21 UNL     1      -2.387  90.586 100.175  1.00  0.00     0.128 A 
ATOM     20  H3  UNL     1      -4.434  90.488 100.588  1.00  0.00     0.167 HD
HETATM   21 CL2  UNL     1      -1.727  90.861 101.769  1.00  0.00    -0.062 Cl
ENDBRANCH  13  14
ENDBRANCH   9  13
ENDBRANCH   8   9
ENDBRANCH   1   8
BRANCH   4  22
HETATM   22  C9  UNL     1       6.381  90.816 101.724  1.00  0.00     0.062 C 
BRANCH  22  23
HETATM   23  C10 UNL     1       6.757  90.483 103.093  1.00  0.00    -0.026 C 
BRANCH  23  24
HETATM   24  C11 UNL     1       7.474  89.437 103.408  1.00  0.00    -0.026 C 
BRANCH  24  25
HETATM   25  C12 UNL     1       6.943  88.074 103.452  1.00  0.00     0.012 C 
HETATM   26  C13 UNL     1       7.858  87.161 104.272  1.00  0.00     0.040 C 
HETATM   27  C14 UNL     1       6.840  87.224 105.384  1.00  0.00     0.119 C 
HETATM   28  C15 UNL     1       5.830  87.740 104.377  1.00  0.00     0.040 C 
BRANCH  27  29
HETATM   29  O1  UNL     1       7.148  88.055 106.434  1.00  0.00    -0.396 OA
ATOM     30  H1  UNL     1       8.045  88.015 106.745  1.00  0.00     0.210 HD
ENDBRANCH  27  29
ENDBRANCH  24  25
ENDBRANCH  23  24
ENDBRANCH  22  23
ENDBRANCH   4  22
TORSDOF 10
ENDMDL
MODEL 4
REMARK VINA RESULT: -8.103672571      2.023      3.467
REMARK  10 active torsions:
REMARK  status: ('A' for Active; 'I' for Inactive)
REMARK    1  A    between atoms: C2_2  and  N1_3 
REMARK    2  A    between atoms: N1_3  and  C4_5 
REMARK    3  A    between atoms: N1_3  and  C18_22 
REMARK    4  A    between atoms: C4_5  and  C5_6 
REMARK    5  A    between atoms: C8_9  and  C9_10 
REMARK    6  A    between atoms: C9_10  and  C10_11 
REMARK    7  A    between atoms: C10_11  and  C11_12 
REMARK    8  A    between atoms: C11_12  and  C12_13 
REMARK    9  A    between atoms: C14_15  and  O1_16 
REMARK   10  A    between atoms: C18_22  and  C19_23 
ROOT
HETATM    1  C5  UNL     1       2.124  90.508 100.775  1.00  0.00    -0.052 C 
HETATM    2  C6  UNL     1       3.080  91.366 101.058  1.00  0.00     0.005 C 
HETATM    3  C7  UNL     1       4.461  91.050 100.870  1.00  0.00     0.005 C 
HETATM    4  C8  UNL     1       4.862  89.891 100.394  1.00  0.00    -0.058 C 
HETATM    5  C16 UNL     1       3.862  88.936  99.875  1.00  0.00     0.115 C 
HETATM    6 CL1  UNL     1       3.892  89.206  98.071  1.00  0.00    -0.120 Cl
HETATM    7  C17 UNL     1       2.470  89.168 100.297  1.00  0.00     0.060 C 
ENDROOT
BRANCH   1   8
HETATM    8  C4  UNL     1       0.734  90.899 100.982  1.00  0.00     0.271 C 
BRANCH   8   9
HETATM    9  N1  UNL     1      -0.114  90.009 101.738  1.00  0.00    -0.062 N 
HETATM   10  C3  UNL     1       0.617  89.228 102.713  1.00  0.00     0.273 C 
BRANCH   9  11
HETATM   11  C2  UNL     1      -1.003  90.857 102.510  1.00  0.00     0.233 C 
HETATM   12  C1  UNL     1      -0.956  90.704 103.980  1.00  0.00     0.035 C 
ENDBRANCH   9  11
BRANCH   9  13
HETATM   13  C18 UNL     1      -0.815  89.168 100.789  1.00  0.00     0.297 C 
BRANCH  13  14
HETATM   14  C19 UNL     1      -1.843  89.849  99.991  1.00  0.00     0.075 A 
HETATM   15  N2  UNL     1      -3.069  90.318 100.276  1.00  0.00    -0.352 N 
HETATM   16  C20 UNL     1      -3.645  90.861  99.201  1.00  0.00     0.182 A 
ATOM     17  H2  UNL     1      -3.504  90.265 101.197  1.00  0.00     0.166 HD
HETATM   18  N3  UNL     1      -2.778  90.745  98.196  1.00  0.00    -0.341 N 
HETATM   19  C21 UNL     1      -1.691  90.141  98.650  1.00  0.00     0.128 A 
ATOM     20  H3  UNL     1      -2.926  91.066  97.240  1.00  0.00     0.167 HD
HETATM   21 CL2  UNL     1      -0.282  89.773  97.685  1.00  0.00    -0.062 Cl
ENDBRANCH  13  14
ENDBRANCH   9  13
ENDBRANCH   8   9
ENDBRANCH   1   8
BRANCH   4  22
HETATM   22  C9  UNL     1       6.332  89.612 100.229  1.00  0.00     0.062 C 
BRANCH  22  23
HETATM   23  C10 UNL     1       6.892  88.882 101.361  1.00  0.00    -0.026 C 
BRANCH  23  24
HETATM   24  C11 UNL     1       7.381  89.465 102.422  1.00  0.00    -0.026 C 
BRANCH  24  25
HETATM   25  C12 UNL     1       6.660  89.580 103.690  1.00  0.00     0.012 C 
HETATM   26  C13 UNL     1       5.411  88.694 103.686  1.00  0.00     0.040 C 
HETATM   27  C14 UNL     1       6.149  87.737 104.590  1.00  0.00     0.119 C 
HETATM   28  C15 UNL     1       7.141  88.845 104.888  1.00  0.00     0.040 C 
BRANCH  27  29
HETATM   29  O1  UNL     1       6.645  86.606 103.989  1.00  0.00    -0.396 OA
ATOM     30  H1  UNL     1       7.168  86.037 104.542  1.00  0.00     0.210 HD
ENDBRANCH  27  29
ENDBRANCH  24  25
ENDBRANCH  23  24
ENDBRANCH  22  23
ENDBRANCH   4  22
TORSDOF 10
ENDMDL
MODEL 5
REMARK VINA RESULT: -7.992202036      1.953      2.762
REMARK  10 active torsions:
REMARK  status: ('A' for Active; 'I' for Inactive)
REMARK    1  A    between atoms: C2_2  and  N1_3 
REMARK    2  A    between atoms: N1_3  and  C4_5 
REMARK    3  A    between atoms: N1_3  and  C18_22 
REMARK    4  A    between atoms: C4_5  and  C5_6 
REMARK    5  A    between atoms: C8_9  and  C9_10 
REMARK    6  A    between atoms: C9_10  and  C10_11 
REMARK    7  A    between atoms: C10_11  and  C11_12 
REMARK    8  A    between atoms: C11_12  and  C12_13 
REMARK    9  A    between atoms: C14_15  and  O1_16 
REMARK   10  A    between atoms: C18_22  and  C19_23 
ROOT
HETATM    1  C5  UNL     1       2.791  89.908 100.006  1.00  0.00    -0.052 C 
HETATM    2  C6  UNL     1       3.107  90.727 100.986  1.00  0.00     0.005 C 
HETATM    3  C7  UNL     1       4.440  90.821 101.493  1.00  0.00     0.005 C 
HETATM    4  C8  UNL     1       5.433  90.107 101.008  1.00  0.00    -0.058 C 
HETATM    5  C16 UNL     1       5.217  89.300  99.790  1.00  0.00     0.115 C 
HETATM    6 CL1  UNL     1       5.877  90.346  98.448  1.00  0.00    -0.120 Cl
HETATM    7  C17 UNL     1       3.813  89.026  99.439  1.00  0.00     0.060 C 
ENDROOT
BRANCH   1   8
HETATM    8  C4  UNL     1       1.413  89.869  99.529  1.00  0.00     0.271 C 
BRANCH   8   9
HETATM    9  N1  UNL     1       0.533  88.871 100.087  1.00  0.00    -0.062 N 
HETATM   10  C3  UNL     1      -0.231  88.167  99.079  1.00  0.00     0.273 C 
BRANCH   9  11
HETATM   11  C2  UNL     1       1.390  87.869 100.692  1.00  0.00     0.233 C 
HETATM   12  C1  UNL     1       0.976  86.459 100.533  1.00  0.00     0.035 C 
ENDBRANCH   9  11
BRANCH   9  13
HETATM   13  C18 UNL     1      -0.324  89.537 101.046  1.00  0.00     0.297 C 
BRANCH  13  14
HETATM   14  C19 UNL     1      -1.389  90.366 100.463  1.00  0.00     0.075 A 
HETATM   15  N2  UNL     1      -2.536  90.078  99.828  1.00  0.00    -0.352 N 
HETATM   16  C20 UNL     1      -3.184  91.187  99.465  1.00  0.00     0.182 A 
ATOM     17  H2  UNL     1      -2.870  89.131  99.646  1.00  0.00     0.166 HD
HETATM   18  N3  UNL     1      -2.445  92.219  99.872  1.00  0.00    -0.341 N 
HETATM   19  C21 UNL     1      -1.364  91.746 100.473  1.00  0.00     0.128 A 
ATOM     20  H3  UNL     1      -2.672  93.204  99.742  1.00  0.00     0.167 HD
HETATM   21 CL2  UNL     1      -0.102  92.734 101.170  1.00  0.00    -0.062 Cl
ENDBRANCH  13  14
ENDBRANCH   9  13
ENDBRANCH   8   9
ENDBRANCH   1   8
BRANCH   4  22
HETATM   22  C9  UNL     1       6.814  90.241 101.593  1.00  0.00     0.062 C 
BRANCH  22  23
HETATM   23  C10 UNL     1       6.789  90.558 103.016  1.00  0.00    -0.026 C 
BRANCH  23  24
HETATM   24  C11 UNL     1       6.964  89.667 103.955  1.00  0.00    -0.026 C 
BRANCH  24  25
HETATM   25  C12 UNL     1       6.592  88.258 103.815  1.00  0.00     0.012 C 
HETATM   26  C13 UNL     1       7.707  87.348 104.339  1.00  0.00     0.040 C 
HETATM   27  C14 UNL     1       6.856  87.094 105.559  1.00  0.00     0.119 C 
HETATM   28  C15 UNL     1       5.664  87.634 104.793  1.00  0.00     0.040 C 
BRANCH  27  29
HETATM   29  O1  UNL     1       7.220  87.773 106.697  1.00  0.00    -0.396 OA
ATOM     30  H1  UNL     1       6.542  88.302 107.099  1.00  0.00     0.210 HD
ENDBRANCH  27  29
ENDBRANCH  24  25
ENDBRANCH  23  24
ENDBRANCH  22  23
ENDBRANCH   4  22
TORSDOF 10
ENDMDL
