MODEL 1
REMARK VINA RESULT: -10.020440984      0.000      0.000
REMARK  8 active torsions:
REMARK  status: ('A' for Active; 'I' for Inactive)
REMARK    1  A    between atoms: C3_3  and  C4_4 
REMARK    2  A    between atoms: N2_10  and  C5_11 
REMARK    3  A    between atoms: N3_14  and  C8_15 
REMARK    4  A    between atoms: C8_15  and  C9_16 
REMARK    5  A    between atoms: C9_16  and  N4_17 
REMARK    6  A    between atoms: C10_18  and  O1_19 
REMARK    7  A    between atoms: C13_23  and  O2_24 
REMARK    8  A    between atoms: N5_34  and  O3_35 
ROOT
HETATM    1  C5  UNL     1      -2.847 -15.771  14.551  1.00  0.00     0.137 C 
HETATM    2  C6  UNL     1      -3.611 -16.953  15.049  1.00  0.00     0.060 C 
HETATM    3  C7  UNL     1      -2.739 -17.630  16.114  1.00  0.00     0.275 C 
HETATM    4  N3  UNL     1      -2.361 -16.603  17.056  1.00  0.00     0.094 N 
HETATM    5  C18 UNL     1      -1.279 -15.836  16.430  1.00  0.00     0.224 C 
HETATM    6  C19 UNL     1      -1.261 -14.484  17.070  1.00  0.00     0.043 C 
HETATM    7  C20 UNL     1      -1.382 -15.814  14.940  1.00  0.00     0.041 C 
HETATM    8  C21 UNL     1      -0.745 -14.551  14.356  1.00  0.00     0.014 C 
ENDROOT
BRANCH   4   9
HETATM    9  C8  UNL     1      -1.819 -17.115  18.296  1.00  0.00     0.293 C 
BRANCH   9  10
HETATM   10  C9  UNL     1      -2.863 -17.145  19.354  1.00  0.00     0.163 C 
BRANCH  10  11
HETATM   11  N4  UNL     1      -2.539 -18.068  20.407  1.00  0.00    -0.306 N 
HETATM   12  C10 UNL     1      -3.202 -18.173  21.570  1.00  0.00     0.151 A 
HETATM   13  C11 UNL     1      -2.643 -19.144  22.358  1.00  0.00     0.007 A 
HETATM   14  C12 UNL     1      -1.576 -19.658  21.627  1.00  0.00     0.007 A 
HETATM   15  C17 UNL     1      -2.927 -19.695  23.710  1.00  0.00     0.070 C 
HETATM   16  C13 UNL     1      -1.548 -18.972  20.440  1.00  0.00     0.151 A 
HETATM   17  C14 UNL     1      -0.750 -20.755  22.221  1.00  0.00     0.070 C 
HETATM   18  C15 UNL     1      -1.599 -21.626  23.071  1.00  0.00    -0.026 C 
HETATM   19  C16 UNL     1      -2.608 -21.142  23.764  1.00  0.00    -0.026 C 
BRANCH  12  20
HETATM   20  O1  UNL     1      -4.316 -17.421  21.974  1.00  0.00    -0.345 OA
ATOM     21  H1  UNL     1      -4.794 -17.504  22.792  1.00  0.00     0.219 HD
ENDBRANCH  12  20
BRANCH  16  22
HETATM   22  O2  UNL     1      -0.591 -19.224  19.436  1.00  0.00    -0.345 OA
ATOM     23  H2  UNL     1       0.355 -19.212  19.528  1.00  0.00     0.219 HD
ENDBRANCH  16  22
ENDBRANCH  10  11
ENDBRANCH   9  10
ENDBRANCH   4   9
BRANCH   1  24
HETATM   24  N2  UNL     1      -2.995 -15.546  13.125  1.00  0.00    -0.202 N 
HETATM   25  N1  UNL     1      -3.825 -14.660  12.559  1.00  0.00    -0.276 N 
HETATM   26  C3  UNL     1      -3.709 -14.711  11.240  1.00  0.00     0.160 A 
ATOM     27  H1  UNL     1      -4.453 -14.037  13.068  1.00  0.00     0.189 HD
HETATM   28  C2  UNL     1      -2.768 -15.668  10.959  1.00  0.00     0.089 A 
HETATM   29  C1  UNL     1      -2.354 -16.027   9.585  1.00  0.00     0.075 C 
HETATM   30  N5  UNL     1      -2.352 -16.160  12.146  1.00  0.00    -0.149 N 
BRANCH  26  31
HETATM   31  C4  UNL     1      -4.476 -13.867  10.264  1.00  0.00     0.436 C 
HETATM   32  F1  UNL     1      -3.666 -13.099   9.483  1.00  0.00    -0.165 F 
HETATM   33  F2  UNL     1      -5.334 -14.659   9.543  1.00  0.00    -0.165 F 
HETATM   34  F3  UNL     1      -5.274 -13.020  11.047  1.00  0.00    -0.165 F 
ENDBRANCH  26  31
BRANCH  30  35
HETATM   35  O3  UNL     1      -1.401 -17.147  12.247  1.00  0.00    -0.267 OA
ATOM     36  H3  UNL     1      -1.000 -17.388  13.073  1.00  0.00     0.247 HD
ENDBRANCH  30  35
ENDBRANCH   1  24
TORSDOF 8
ENDMDL
MODEL 2
REMARK VINA RESULT: -10.016255299      0.290      1.607
REMARK  8 active torsions:
REMARK  status: ('A' for Active; 'I' for Inactive)
REMARK    1  A    between atoms: C3_3  and  C4_4 
REMARK    2  A    between atoms: N2_10  and  C5_11 
REMARK    3  A    between atoms: N3_14  and  C8_15 
REMARK    4  A    between atoms: C8_15  and  C9_16 
REMARK    5  A    between atoms: C9_16  and  N4_17 
REMARK    6  A    between atoms: C10_18  and  O1_19 
REMARK    7  A    between atoms: C13_23  and  O2_24 
REMARK    8  A    between atoms: N5_34  and  O3_35 
ROOT
HETATM    1  C5  UNL     1      -2.778 -15.842  14.581  1.00  0.00     0.137 C 
HETATM    2  C6  UNL     1      -3.513 -17.038  15.088  1.00  0.00     0.060 C 
HETATM    3  C7  UNL     1      -2.614 -17.698  16.143  1.00  0.00     0.275 C 
HETATM    4  N3  UNL     1      -2.244 -16.664  17.080  1.00  0.00     0.094 N 
HETATM    5  C18 UNL     1      -1.185 -15.877  16.440  1.00  0.00     0.224 C 
HETATM    6  C19 UNL     1      -1.185 -14.524  17.080  1.00  0.00     0.043 C 
HETATM    7  C20 UNL     1      -1.307 -15.857  14.951  1.00  0.00     0.041 C 
HETATM    8  C21 UNL     1      -0.702 -14.582  14.359  1.00  0.00     0.014 C 
ENDROOT
BRANCH   4   9
HETATM    9  C8  UNL     1      -1.677 -17.164  18.313  1.00  0.00     0.293 C 
BRANCH   9  10
HETATM   10  C9  UNL     1      -2.617 -16.960  19.446  1.00  0.00     0.163 C 
BRANCH  10  11
HETATM   11  N4  UNL     1      -2.488 -17.984  20.447  1.00  0.00    -0.306 N 
HETATM   12  C10 UNL     1      -1.568 -18.961  20.433  1.00  0.00     0.151 A 
HETATM   13  C11 UNL     1      -1.713 -19.776  21.526  1.00  0.00     0.007 A 
HETATM   14  C12 UNL     1      -2.788 -19.259  22.244  1.00  0.00     0.007 A 
HETATM   15  C17 UNL     1      -1.015 -20.986  22.037  1.00  0.00     0.070 C 
HETATM   16  C13 UNL     1      -3.232 -18.163  21.548  1.00  0.00     0.151 A 
HETATM   17  C14 UNL     1      -3.205 -19.932  23.512  1.00  0.00     0.070 C 
HETATM   18  C15 UNL     1      -2.019 -20.506  24.197  1.00  0.00    -0.026 C 
HETATM   19  C16 UNL     1      -1.002 -20.996  23.519  1.00  0.00    -0.026 C 
BRANCH  12  20
HETATM   20  O1  UNL     1      -0.573 -19.169  19.464  1.00  0.00    -0.345 OA
ATOM     21  H1  UNL     1      -0.306 -20.001  19.090  1.00  0.00     0.219 HD
ENDBRANCH  12  20
BRANCH  16  22
HETATM   22  O2  UNL     1      -4.320 -17.377  21.978  1.00  0.00    -0.345 OA
ATOM     23  H2  UNL     1      -5.203 -17.674  22.168  1.00  0.00     0.219 HD
ENDBRANCH  16  22
ENDBRANCH  10  11
ENDBRANCH   9  10
ENDBRANCH   4   9
BRANCH   1  24
HETATM   24  N2  UNL     1      -2.948 -15.620  13.157  1.00  0.00    -0.202 N 
HETATM   25  N1  UNL     1      -3.807 -14.756  12.601  1.00  0.00    -0.276 N 
HETATM   26  C3  UNL     1      -3.705 -14.803  11.281  1.00  0.00     0.160 A 
ATOM     27  H1  UNL     1      -4.445 -14.150  13.118  1.00  0.00     0.189 HD
HETATM   28  C2  UNL     1      -2.744 -15.736  10.988  1.00  0.00     0.089 A 
HETATM   29  C1  UNL     1      -2.336 -16.083   9.609  1.00  0.00     0.075 C 
HETATM   30  N5  UNL     1      -2.301 -16.217  12.170  1.00  0.00    -0.149 N 
BRANCH  26  31
HETATM   31  C4  UNL     1      -4.505 -13.980  10.314  1.00  0.00     0.436 C 
HETATM   32  F1  UNL     1      -3.725 -13.184   9.530  1.00  0.00    -0.165 F 
HETATM   33  F2  UNL     1      -5.345 -14.794   9.597  1.00  0.00    -0.165 F 
HETATM   34  F3  UNL     1      -5.322 -13.160  11.107  1.00  0.00    -0.165 F 
ENDBRANCH  26  31
BRANCH  30  35
HETATM   35  O3  UNL     1      -1.324 -17.179  12.259  1.00  0.00    -0.267 OA
ATOM     36  H3  UNL     1      -1.428 -17.969  12.777  1.00  0.00     0.247 HD
ENDBRANCH  30  35
ENDBRANCH   1  24
TORSDOF 8
ENDMDL
MODEL 3
REMARK VINA RESULT: -9.752196497      7.310      8.691
REMARK  8 active torsions:
REMARK  status: ('A' for Active; 'I' for Inactive)
REMARK    1  A    between atoms: C3_3  and  C4_4 
REMARK    2  A    between atoms: N2_10  and  C5_11 
REMARK    3  A    between atoms: N3_14  and  C8_15 
REMARK    4  A    between atoms: C8_15  and  C9_16 
REMARK    5  A    between atoms: C9_16  and  N4_17 
REMARK    6  A    between atoms: C10_18  and  O1_19 
REMARK    7  A    between atoms: C13_23  and  O2_24 
REMARK    8  A    between atoms: N5_34  and  O3_35 
ROOT
HETATM    1  C5  UNL     1       2.611 -23.198  15.618  1.00  0.00     0.137 C 
HETATM    2  C6  UNL     1       2.835 -21.743  15.860  1.00  0.00     0.060 C 
HETATM    3  C7  UNL     1       1.540 -21.189  16.468  1.00  0.00     0.275 C 
HETATM    4  N3  UNL     1       1.213 -22.035  17.591  1.00  0.00     0.094 N 
HETATM    5  C18 UNL     1       0.617 -23.256  17.038  1.00  0.00     0.224 C 
HETATM    6  C19 UNL     1       0.798 -24.340  18.052  1.00  0.00     0.043 C 
HETATM    7  C20 UNL     1       1.146 -23.585  15.680  1.00  0.00     0.041 C 
HETATM    8  C21 UNL     1       1.086 -25.089  15.407  1.00  0.00     0.014 C 
ENDROOT
BRANCH   4   9
HETATM    9  C8  UNL     1       0.216 -21.475  18.478  1.00  0.00     0.293 C 
BRANCH   9  10
HETATM   10  C9  UNL     1       0.636 -20.133  18.960  1.00  0.00     0.163 C 
BRANCH  10  11
HETATM   11  N4  UNL     1      -0.483 -19.248  19.140  1.00  0.00    -0.306 N 
HETATM   12  C10 UNL     1      -0.991 -18.447  18.191  1.00  0.00     0.151 A 
HETATM   13  C11 UNL     1      -2.050 -17.730  18.681  1.00  0.00     0.007 A 
HETATM   14  C12 UNL     1      -2.192 -18.122  20.009  1.00  0.00     0.007 A 
HETATM   15  C17 UNL     1      -2.982 -16.713  18.123  1.00  0.00     0.070 C 
HETATM   16  C13 UNL     1      -1.213 -19.052  20.248  1.00  0.00     0.151 A 
HETATM   17  C14 UNL     1      -3.281 -17.513  20.833  1.00  0.00     0.070 C 
HETATM   18  C15 UNL     1      -4.461 -17.220  19.981  1.00  0.00    -0.026 C 
HETATM   19  C16 UNL     1      -4.329 -16.849  18.725  1.00  0.00    -0.026 C 
BRANCH  12  20
HETATM   20  O1  UNL     1      -0.541 -18.320  16.866  1.00  0.00    -0.345 OA
ATOM     21  H1  UNL     1      -0.319 -19.025  16.269  1.00  0.00     0.219 HD
ENDBRANCH  12  20
BRANCH  16  22
HETATM   22  O2  UNL     1      -1.046 -19.678  21.500  1.00  0.00    -0.345 OA
ATOM     23  H2  UNL     1      -0.913 -19.254  22.340  1.00  0.00     0.219 HD
ENDBRANCH  16  22
ENDBRANCH  10  11
ENDBRANCH   9  10
ENDBRANCH   4   9
BRANCH   1  24
HETATM   24  N2  UNL     1       3.219 -23.680  14.391  1.00  0.00    -0.202 N 
HETATM   25  N1  UNL     1       2.913 -23.265  13.155  1.00  0.00    -0.276 N 
HETATM   26  C3  UNL     1       3.654 -23.908  12.266  1.00  0.00     0.160 A 
ATOM     27  H1  UNL     1       2.213 -22.557  12.932  1.00  0.00     0.189 HD
HETATM   28  C2  UNL     1       4.462 -24.768  12.966  1.00  0.00     0.089 A 
HETATM   29  C1  UNL     1       5.442 -25.671  12.325  1.00  0.00     0.075 C 
HETATM   30  N5  UNL     1       4.165 -24.598  14.272  1.00  0.00    -0.149 N 
BRANCH  26  31
HETATM   31  C4  UNL     1       3.598 -23.714  10.779  1.00  0.00     0.436 C 
HETATM   32  F1  UNL     1       4.757 -23.210  10.270  1.00  0.00    -0.165 F 
HETATM   33  F2  UNL     1       3.200 -24.880  10.174  1.00  0.00    -0.165 F 
HETATM   34  F3  UNL     1       2.573 -22.780  10.562  1.00  0.00    -0.165 F 
ENDBRANCH  26  31
BRANCH  30  35
HETATM   35  O3  UNL     1       4.789 -25.303  15.272  1.00  0.00    -0.267 OA
ATOM     36  H3  UNL     1       4.852 -24.981  16.164  1.00  0.00     0.247 HD
ENDBRANCH  30  35
ENDBRANCH   1  24
TORSDOF 8
ENDMDL
MODEL 4
REMARK VINA RESULT: -9.723963381      4.507     10.386
REMARK  8 active torsions:
REMARK  status: ('A' for Active; 'I' for Inactive)
REMARK    1  A    between atoms: C3_3  and  C4_4 
REMARK    2  A    between atoms: N2_10  and  C5_11 
REMARK    3  A    between atoms: N3_14  and  C8_15 
REMARK    4  A    between atoms: C8_15  and  C9_16 
REMARK    5  A    between atoms: C9_16  and  N4_17 
REMARK    6  A    between atoms: C10_18  and  O1_19 
REMARK    7  A    between atoms: C13_23  and  O2_24 
REMARK    8  A    between atoms: N5_34  and  O3_35 
ROOT
HETATM    1  C5  UNL     1      -2.182 -17.342  15.971  1.00  0.00     0.137 C 
HETATM    2  C6  UNL     1      -3.514 -17.862  15.545  1.00  0.00     0.060 C 
HETATM    3  C7  UNL     1      -4.295 -16.672  14.973  1.00  0.00     0.275 C 
HETATM    4  N3  UNL     1      -3.444 -16.053  13.984  1.00  0.00     0.094 N 
HETATM    5  C18 UNL     1      -2.457 -15.256  14.719  1.00  0.00     0.224 C 
HETATM    6  C19 UNL     1      -1.267 -15.087  13.827  1.00  0.00     0.043 C 
HETATM    7  C20 UNL     1      -2.145 -15.828  16.063  1.00  0.00     0.041 C 
HETATM    8  C21 UNL     1      -0.730 -15.458  16.513  1.00  0.00     0.014 C 
ENDROOT
BRANCH   4   9
HETATM    9  C8  UNL     1      -4.135 -15.126  13.114  1.00  0.00     0.293 C 
BRANCH   9  10
HETATM   10  C9  UNL     1      -3.868 -15.445  11.687  1.00  0.00     0.163 C 
BRANCH  10  11
HETATM   11  N4  UNL     1      -3.559 -14.270  10.918  1.00  0.00    -0.306 N 
HETATM   12  C10 UNL     1      -4.458 -13.365  10.501  1.00  0.00     0.151 A 
HETATM   13  C11 UNL     1      -3.845 -12.367   9.791  1.00  0.00     0.007 A 
HETATM   14  C12 UNL     1      -2.490 -12.688   9.778  1.00  0.00     0.007 A 
HETATM   15  C17 UNL     1      -4.303 -11.132   9.098  1.00  0.00     0.070 C 
HETATM   16  C13 UNL     1      -2.360 -13.860  10.480  1.00  0.00     0.151 A 
HETATM   17  C14 UNL     1      -1.535 -11.779   9.074  1.00  0.00     0.070 C 
HETATM   18  C15 UNL     1      -1.997 -10.372   9.183  1.00  0.00    -0.026 C 
HETATM   19  C16 UNL     1      -3.278 -10.067   9.195  1.00  0.00    -0.026 C 
BRANCH  12  20
HETATM   20  O1  UNL     1      -5.844 -13.386  10.730  1.00  0.00    -0.345 OA
ATOM     21  H1  UNL     1      -6.477 -12.732  10.458  1.00  0.00     0.219 HD
ENDBRANCH  12  20
BRANCH  16  22
HETATM   22  O2  UNL     1      -1.117 -14.495  10.677  1.00  0.00    -0.345 OA
ATOM     23  H2  UNL     1      -0.638 -15.026  10.051  1.00  0.00     0.219 HD
ENDBRANCH  16  22
ENDBRANCH  10  11
ENDBRANCH   9  10
ENDBRANCH   4   9
BRANCH   1  24
HETATM   24  N2  UNL     1      -1.691 -17.943  17.197  1.00  0.00    -0.202 N 
HETATM   25  N1  UNL     1      -0.726 -18.869  17.277  1.00  0.00    -0.276 N 
HETATM   26  C3  UNL     1      -0.522 -19.201  18.543  1.00  0.00     0.160 A 
ATOM     27  H1  UNL     1      -0.222 -19.261  16.481  1.00  0.00     0.189 HD
HETATM   28  C2  UNL     1      -1.394 -18.456  19.296  1.00  0.00     0.089 A 
HETATM   29  C1  UNL     1      -1.477 -18.540  20.771  1.00  0.00     0.075 C 
HETATM   30  N5  UNL     1      -2.097 -17.694  18.431  1.00  0.00    -0.149 N 
BRANCH  26  31
HETATM   31  C4  UNL     1       0.480 -20.206  19.032  1.00  0.00     0.436 C 
HETATM   32  F1  UNL     1       1.493 -19.636  19.742  1.00  0.00    -0.165 F 
HETATM   33  F2  UNL     1      -0.164 -21.208  19.713  1.00  0.00    -0.165 F 
HETATM   34  F3  UNL     1       1.020 -20.789  17.876  1.00  0.00    -0.165 F 
ENDBRANCH  26  31
BRANCH  30  35
HETATM   35  O3  UNL     1      -3.069 -16.814  18.839  1.00  0.00    -0.267 OA
ATOM     36  H3  UNL     1      -3.984 -16.916  18.603  1.00  0.00     0.247 HD
ENDBRANCH  30  35
ENDBRANCH   1  24
TORSDOF 8
ENDMDL
MODEL 5
REMARK VINA RESULT: -9.642213556      4.264     10.314
REMARK  8 active torsions:
REMARK  status: ('A' for Active; 'I' for Inactive)
REMARK    1  A    between atoms: C3_3  and  C4_4 
REMARK    2  A    between atoms: N2_10  and  C5_11 
REMARK    3  A    between atoms: N3_14  and  C8_15 
REMARK    4  A    between atoms: C8_15  and  C9_16 
REMARK    5  A    between atoms: C9_16  and  N4_17 
REMARK    6  A    between atoms: C10_18  and  O1_19 
REMARK    7  A    between atoms: C13_23  and  O2_24 
REMARK    8  A    between atoms: N5_34  and  O3_35 
ROOT
HETATM    1  C5  UNL     1      -2.534 -17.166  16.427  1.00  0.00     0.137 C 
HETATM    2  C6  UNL     1      -3.753 -17.784  15.827  1.00  0.00     0.060 C 
HETATM    3  C7  UNL     1      -4.454 -16.687  15.015  1.00  0.00     0.275 C 
HETATM    4  N3  UNL     1      -3.459 -16.122  14.135  1.00  0.00     0.094 N 
HETATM    5  C18 UNL     1      -2.642 -15.217  14.949  1.00  0.00     0.224 C 
HETATM    6  C19 UNL     1      -1.318 -15.075  14.268  1.00  0.00     0.043 C 
HETATM    7  C20 UNL     1      -2.559 -15.650  16.377  1.00  0.00     0.041 C 
HETATM    8  C21 UNL     1      -1.259 -15.177  17.029  1.00  0.00     0.014 C 
ENDROOT
BRANCH   4   9
HETATM    9  C8  UNL     1      -4.009 -15.311  13.071  1.00  0.00     0.293 C 
BRANCH   9  10
HETATM   10  C9  UNL     1      -3.322 -15.592  11.784  1.00  0.00     0.163 C 
BRANCH  10  11
HETATM   11  N4  UNL     1      -3.145 -14.404  10.993  1.00  0.00    -0.306 N 
HETATM   12  C10 UNL     1      -4.142 -13.648  10.508  1.00  0.00     0.151 A 
HETATM   13  C11 UNL     1      -3.643 -12.591   9.795  1.00  0.00     0.007 A 
HETATM   14  C12 UNL     1      -2.257 -12.715   9.853  1.00  0.00     0.007 A 
HETATM   15  C17 UNL     1      -4.237 -11.452   9.044  1.00  0.00     0.070 C 
HETATM   16  C13 UNL     1      -1.996 -13.838  10.595  1.00  0.00     0.151 A 
HETATM   17  C14 UNL     1      -1.407 -11.696   9.163  1.00  0.00     0.070 C 
HETATM   18  C15 UNL     1      -2.069 -10.368   9.207  1.00  0.00    -0.026 C 
HETATM   19  C16 UNL     1      -3.379 -10.248   9.153  1.00  0.00    -0.026 C 
BRANCH  12  20
HETATM   20  O1  UNL     1      -5.520 -13.862  10.676  1.00  0.00    -0.345 OA
ATOM     21  H1  UNL     1      -5.963 -14.700  10.745  1.00  0.00     0.219 HD
ENDBRANCH  12  20
BRANCH  16  22
HETATM   22  O2  UNL     1      -0.687 -14.284  10.868  1.00  0.00    -0.345 OA
ATOM     23  H2  UNL     1      -0.345 -15.163  10.753  1.00  0.00     0.219 HD
ENDBRANCH  16  22
ENDBRANCH  10  11
ENDBRANCH   9  10
ENDBRANCH   4   9
BRANCH   1  24
HETATM   24  N2  UNL     1      -2.253 -17.631  17.773  1.00  0.00    -0.202 N 
HETATM   25  N1  UNL     1      -2.965 -17.328  18.866  1.00  0.00    -0.276 N 
HETATM   26  C3  UNL     1      -2.437 -17.918  19.928  1.00  0.00     0.160 A 
ATOM     27  H1  UNL     1      -3.793 -16.732  18.879  1.00  0.00     0.189 HD
HETATM   28  C2  UNL     1      -1.344 -18.622  19.491  1.00  0.00     0.089 A 
HETATM   29  C1  UNL     1      -0.477 -19.422  20.384  1.00  0.00     0.075 C 
HETATM   30  N5  UNL     1      -1.264 -18.421  18.158  1.00  0.00    -0.149 N 
BRANCH  26  31
HETATM   31  C4  UNL     1      -2.956 -17.815  21.332  1.00  0.00     0.436 C 
HETATM   32  F1  UNL     1      -2.403 -18.739  22.166  1.00  0.00    -0.165 F 
HETATM   33  F2  UNL     1      -2.821 -16.526  21.783  1.00  0.00    -0.165 F 
HETATM   34  F3  UNL     1      -4.334 -18.066  21.241  1.00  0.00    -0.165 F 
ENDBRANCH  26  31
BRANCH  30  35
HETATM   35  O3  UNL     1      -0.279 -18.982  17.382  1.00  0.00    -0.267 OA
ATOM     36  H3  UNL     1       0.594 -18.613  17.316  1.00  0.00     0.247 HD
ENDBRANCH  30  35
ENDBRANCH   1  24
TORSDOF 8
ENDMDL
