MODEL 1
REMARK VINA RESULT: -9.148916030      0.000      0.000
REMARK  7 active torsions:
REMARK  status: ('A' for Active; 'I' for Inactive)
REMARK    1  A    between atoms: C2_2  and  C3_3 
REMARK    2  A    between atoms: C5_5  and  C6_6 
REMARK    3  A    between atoms: C6_6  and  O1_7 
REMARK    4  A    between atoms: C6_6  and  N1_9 
REMARK    5  A    between atoms: C8_16  and  C9_17 
REMARK    6  A    between atoms: N4_26  and  C13_27 
REMARK    7  A    between atoms: C13_27  and  C14_28 
ROOT
HETATM    1  C3  UNL     1      -2.368 -16.308  11.500  1.00  0.00     0.023 C 
HETATM    2  C4  UNL     1      -1.531 -16.262  12.743  1.00  0.00     0.048 C 
HETATM    3  C5  UNL     1      -2.328 -15.452  13.687  1.00  0.00     0.197 C 
HETATM    4  O2  UNL     1      -3.304 -14.751  12.943  1.00  0.00    -0.366 OA
HETATM    5  C10 UNL     1      -3.494 -15.367  11.758  1.00  0.00     0.069 C 
HETATM    6  C11 UNL     1      -3.693 -14.312  10.688  1.00  0.00     0.069 C 
HETATM    7  C12 UNL     1      -4.964 -14.531   9.869  1.00  0.00     0.276 C 
HETATM    8  N4  UNL     1      -6.070 -14.394  10.800  1.00  0.00     0.094 N 
HETATM    9  C16 UNL     1      -5.986 -15.340  11.910  1.00  0.00     0.276 C 
HETATM   10  C17 UNL     1      -4.768 -16.202  11.769  1.00  0.00     0.069 C 
ENDROOT
BRANCH   3  11
HETATM   11  C6  UNL     1      -2.900 -16.140  14.826  1.00  0.00     0.147 C 
BRANCH  11  12
HETATM   12  O1  UNL     1      -4.210 -16.220  14.800  1.00  0.00    -0.347 OA
ATOM     13  H1  UNL     1      -4.541 -17.088  14.604  1.00  0.00     0.219 HD
ENDBRANCH  11  12
BRANCH  11  14
HETATM   14  N1  UNL     1      -2.289 -16.704  15.916  1.00  0.00    -0.318 N 
HETATM   15  C7  UNL     1      -2.801 -16.722  17.110  1.00  0.00     0.167 A 
HETATM   16  N2  UNL     1      -3.947 -16.242  17.605  1.00  0.00    -0.279 N 
HETATM   17  S1  UNL     1      -2.160 -17.542  18.507  1.00  0.00    -0.029 SA
HETATM   18  N3  UNL     1      -4.232 -16.482  18.822  1.00  0.00    -0.288 N 
ATOM     19  H2  UNL     1      -4.579 -15.696  17.020  1.00  0.00     0.189 HD
HETATM   20  C8  UNL     1      -3.434 -17.183  19.589  1.00  0.00     0.177 A 
ATOM     21  H3  UNL     1      -5.103 -16.119  19.210  1.00  0.00     0.187 HD
ATOM     22  H1  UNL     1      -1.376 -17.137  15.780  1.00  0.00     0.169 HD
BRANCH  20  23
HETATM   23  C9  UNL     1      -3.582 -17.558  21.039  1.00  0.00     0.440 C 
HETATM   24  F1  UNL     1      -4.863 -18.062  21.228  1.00  0.00    -0.164 F 
HETATM   25  F2  UNL     1      -2.632 -18.468  21.427  1.00  0.00    -0.164 F 
HETATM   26  F3  UNL     1      -3.481 -16.430  21.811  1.00  0.00    -0.164 F 
ENDBRANCH  20  23
ENDBRANCH  11  14
ENDBRANCH   3  11
BRANCH   1  27
HETATM   27  C2  UNL     1      -1.545 -15.966  10.306  1.00  0.00     0.003 C 
HETATM   28  C1  UNL     1      -0.435 -16.976  10.155  1.00  0.00     0.005 C 
ENDBRANCH   1  27
BRANCH   8  29
HETATM   29  C13 UNL     1      -7.357 -14.473  10.129  1.00  0.00     0.332 C 
BRANCH  29  30
HETATM   30  C14 UNL     1      -8.095 -13.254  10.516  1.00  0.00     0.072 A 
HETATM   31  C15 UNL     1      -9.395 -13.170  11.009  1.00  0.00     0.137 A 
HETATM   32  N5  UNL     1      -9.688 -11.889  11.264  1.00  0.00    -0.296 N 
HETATM   33  N6  UNL     1      -8.627 -11.198  10.949  1.00  0.00    -0.243 N 
ATOM     34  H5  UNL     1     -10.567 -11.525  11.633  1.00  0.00     0.187 HD
HETATM   35  N7  UNL     1      -7.666 -11.985  10.502  1.00  0.00    -0.287 N 
ATOM     36  H6  UNL     1      -8.550 -10.184  11.038  1.00  0.00     0.208 HD
ATOM     37  H7  UNL     1      -6.744 -11.675  10.195  1.00  0.00     0.188 HD
ENDBRANCH  29  30
ENDBRANCH   8  29
TORSDOF 7
ENDMDL
MODEL 2
REMARK VINA RESULT: -8.878982225      1.946      2.698
REMARK  7 active torsions:
REMARK  status: ('A' for Active; 'I' for Inactive)
REMARK    1  A    between atoms: C2_2  and  C3_3 
REMARK    2  A    between atoms: C5_5  and  C6_6 
REMARK    3  A    between atoms: C6_6  and  O1_7 
REMARK    4  A    between atoms: C6_6  and  N1_9 
REMARK    5  A    between atoms: C8_16  and  C9_17 
REMARK    6  A    between atoms: N4_26  and  C13_27 
REMARK    7  A    between atoms: C13_27  and  C14_28 
ROOT
HETATM    1  C3  UNL     1      -2.394 -13.367  10.016  1.00  0.00     0.023 C 
HETATM    2  C4  UNL     1      -1.322 -13.862  10.939  1.00  0.00     0.048 C 
HETATM    3  C5  UNL     1      -2.058 -14.342  12.126  1.00  0.00     0.197 C 
HETATM    4  O2  UNL     1      -3.361 -13.797  12.080  1.00  0.00    -0.366 OA
HETATM    5  C10 UNL     1      -3.650 -13.426  10.815  1.00  0.00     0.069 C 
HETATM    6  C11 UNL     1      -4.436 -12.132  10.854  1.00  0.00     0.069 C 
HETATM    7  C12 UNL     1      -5.742 -12.208  10.065  1.00  0.00     0.276 C 
HETATM    8  N4  UNL     1      -6.556 -13.209  10.731  1.00  0.00     0.094 N 
HETATM    9  C16 UNL     1      -5.898 -14.512  10.792  1.00  0.00     0.276 C 
HETATM   10  C17 UNL     1      -4.553 -14.448  10.135  1.00  0.00     0.069 C 
ENDROOT
BRANCH   3  11
HETATM   11  C6  UNL     1      -2.074 -15.772  12.358  1.00  0.00     0.147 C 
BRANCH  11  12
HETATM   12  O1  UNL     1      -1.205 -16.441  11.637  1.00  0.00    -0.347 OA
ATOM     13  H1  UNL     1      -0.362 -16.560  12.058  1.00  0.00     0.219 HD
ENDBRANCH  11  12
BRANCH  11  14
HETATM   14  N1  UNL     1      -2.854 -16.521  13.200  1.00  0.00    -0.318 N 
HETATM   15  C7  UNL     1      -2.806 -16.450  14.496  1.00  0.00     0.167 A 
HETATM   16  N2  UNL     1      -2.058 -15.717  15.329  1.00  0.00    -0.279 N 
HETATM   17  S1  UNL     1      -3.859 -17.254  15.626  1.00  0.00    -0.029 SA
HETATM   18  N3  UNL     1      -2.286 -15.794  16.579  1.00  0.00    -0.288 N 
ATOM     19  H2  UNL     1      -1.321 -15.110  14.971  1.00  0.00     0.189 HD
HETATM   20  C8  UNL     1      -3.229 -16.567  17.058  1.00  0.00     0.177 A 
ATOM     21  H3  UNL     1      -1.720 -15.240  17.223  1.00  0.00     0.187 HD
ATOM     22  H1  UNL     1      -3.515 -17.176  12.782  1.00  0.00     0.169 HD
BRANCH  20  23
HETATM   23  C9  UNL     1      -3.640 -16.806  18.486  1.00  0.00     0.440 C 
HETATM   24  F1  UNL     1      -4.958 -17.246  18.490  1.00  0.00    -0.164 F 
HETATM   25  F2  UNL     1      -2.817 -17.710  19.108  1.00  0.00    -0.164 F 
HETATM   26  F3  UNL     1      -3.617 -15.617  19.168  1.00  0.00    -0.164 F 
ENDBRANCH  20  23
ENDBRANCH  11  14
ENDBRANCH   3  11
BRANCH   1  27
HETATM   27  C2  UNL     1      -2.056 -12.008   9.507  1.00  0.00     0.003 C 
HETATM   28  C1  UNL     1      -2.574 -11.857   8.098  1.00  0.00     0.005 C 
ENDBRANCH   1  27
BRANCH   8  29
HETATM   29  C13 UNL     1      -7.882 -13.309  10.143  1.00  0.00     0.332 C 
BRANCH  29  30
HETATM   30  C14 UNL     1      -8.692 -12.253  10.782  1.00  0.00     0.072 A 
HETATM   31  C15 UNL     1      -9.486 -12.365  11.921  1.00  0.00     0.137 A 
HETATM   32  N5  UNL     1     -10.037 -11.176  12.194  1.00  0.00    -0.296 N 
HETATM   33  N6  UNL     1      -9.613 -10.353  11.274  1.00  0.00    -0.243 N 
ATOM     34  H5  UNL     1     -10.665 -10.956  12.968  1.00  0.00     0.187 HD
HETATM   35  N7  UNL     1      -8.813 -10.968  10.423  1.00  0.00    -0.287 N 
ATOM     36  H6  UNL     1      -9.867  -9.367  11.220  1.00  0.00     0.208 HD
ATOM     37  H7  UNL     1      -8.359 -10.533   9.619  1.00  0.00     0.188 HD
ENDBRANCH  29  30
ENDBRANCH   8  29
TORSDOF 7
ENDMDL
MODEL 3
REMARK VINA RESULT: -8.821584381      1.027      1.255
REMARK  7 active torsions:
REMARK  status: ('A' for Active; 'I' for Inactive)
REMARK    1  A    between atoms: C2_2  and  C3_3 
REMARK    2  A    between atoms: C5_5  and  C6_6 
REMARK    3  A    between atoms: C6_6  and  O1_7 
REMARK    4  A    between atoms: C6_6  and  N1_9 
REMARK    5  A    between atoms: C8_16  and  C9_17 
REMARK    6  A    between atoms: N4_26  and  C13_27 
REMARK    7  A    between atoms: C13_27  and  C14_28 
ROOT
HETATM    1  C3  UNL     1      -1.975 -16.184  12.030  1.00  0.00     0.023 C 
HETATM    2  C4  UNL     1      -1.370 -16.321  13.394  1.00  0.00     0.048 C 
HETATM    3  C5  UNL     1      -2.402 -15.785  14.304  1.00  0.00     0.197 C 
HETATM    4  O2  UNL     1      -3.314 -15.030  13.532  1.00  0.00    -0.366 OA
HETATM    5  C10 UNL     1      -3.230 -15.408  12.240  1.00  0.00     0.069 C 
HETATM    6  C11 UNL     1      -3.368 -14.179  11.363  1.00  0.00     0.069 C 
HETATM    7  C12 UNL     1      -4.450 -14.331  10.296  1.00  0.00     0.276 C 
HETATM    8  N4  UNL     1      -5.704 -14.474  11.012  1.00  0.00     0.094 N 
HETATM    9  C16 UNL     1      -5.698 -15.614  11.925  1.00  0.00     0.276 C 
HETATM   10  C17 UNL     1      -4.383 -16.328  11.859  1.00  0.00     0.069 C 
ENDROOT
BRANCH   3  11
HETATM   11  C6  UNL     1      -3.074 -16.731  15.171  1.00  0.00     0.147 C 
BRANCH  11  12
HETATM   12  O1  UNL     1      -2.922 -17.985  14.814  1.00  0.00    -0.347 OA
ATOM     13  H1  UNL     1      -2.241 -18.124  14.167  1.00  0.00     0.219 HD
ENDBRANCH  11  12
BRANCH  11  14
HETATM   14  N1  UNL     1      -3.840 -16.518  16.286  1.00  0.00    -0.318 N 
HETATM   15  C7  UNL     1      -3.525 -16.928  17.478  1.00  0.00     0.167 A 
HETATM   16  N2  UNL     1      -2.479 -17.622  17.942  1.00  0.00    -0.279 N 
HETATM   17  S1  UNL     1      -4.365 -16.573  18.961  1.00  0.00    -0.029 SA
HETATM   18  N3  UNL     1      -2.386 -17.817  19.197  1.00  0.00    -0.288 N 
ATOM     19  H2  UNL     1      -1.771 -17.987  17.305  1.00  0.00     0.189 HD
HETATM   20  C8  UNL     1      -3.285 -17.355  20.031  1.00  0.00     0.177 A 
ATOM     21  H3  UNL     1      -1.594 -18.345  19.561  1.00  0.00     0.187 HD
ATOM     22  H1  UNL     1      -4.714 -16.003  16.174  1.00  0.00     0.169 HD
BRANCH  20  23
HETATM   23  C9  UNL     1      -3.363 -17.489  21.528  1.00  0.00     0.440 C 
HETATM   24  F1  UNL     1      -2.415 -18.423  21.930  1.00  0.00    -0.164 F 
HETATM   25  F2  UNL     1      -3.168 -16.286  22.157  1.00  0.00    -0.164 F 
HETATM   26  F3  UNL     1      -4.589 -17.995  21.873  1.00  0.00    -0.164 F 
ENDBRANCH  20  23
ENDBRANCH  11  14
ENDBRANCH   3  11
BRANCH   1  27
HETATM   27  C2  UNL     1      -1.009 -15.543  11.093  1.00  0.00     0.003 C 
HETATM   28  C1  UNL     1      -0.396 -16.598  10.206  1.00  0.00     0.005 C 
ENDBRANCH   1  27
BRANCH   8  29
HETATM   29  C13 UNL     1      -6.842 -14.521  10.110  1.00  0.00     0.332 C 
BRANCH  29  30
HETATM   30  C14 UNL     1      -7.608 -13.282  10.353  1.00  0.00     0.072 A 
HETATM   31  C15 UNL     1      -8.973 -13.164  10.605  1.00  0.00     0.137 A 
HETATM   32  N5  UNL     1      -9.277 -11.875  10.800  1.00  0.00    -0.296 N 
HETATM   33  N6  UNL     1      -8.160 -11.211  10.678  1.00  0.00    -0.243 N 
ATOM     34  H5  UNL     1     -10.199 -11.488  11.004  1.00  0.00     0.187 HD
HETATM   35  N7  UNL     1      -7.154 -12.023  10.412  1.00  0.00    -0.287 N 
ATOM     36  H6  UNL     1      -8.076 -10.199  10.775  1.00  0.00     0.208 HD
ATOM     37  H7  UNL     1      -6.184 -11.737  10.274  1.00  0.00     0.188 HD
ENDBRANCH  29  30
ENDBRANCH   8  29
TORSDOF 7
ENDMDL
MODEL 4
REMARK VINA RESULT: -8.218675630      5.324      9.988
REMARK  7 active torsions:
REMARK  status: ('A' for Active; 'I' for Inactive)
REMARK    1  A    between atoms: C2_2  and  C3_3 
REMARK    2  A    between atoms: C5_5  and  C6_6 
REMARK    3  A    between atoms: C6_6  and  O1_7 
REMARK    4  A    between atoms: C6_6  and  N1_9 
REMARK    5  A    between atoms: C8_16  and  C9_17 
REMARK    6  A    between atoms: N4_26  and  C13_27 
REMARK    7  A    between atoms: C13_27  and  C14_28 
ROOT
HETATM    1  C3  UNL     1      -3.077 -17.027  18.093  1.00  0.00     0.023 C 
HETATM    2  C4  UNL     1      -2.964 -15.767  17.290  1.00  0.00     0.048 C 
HETATM    3  C5  UNL     1      -1.525 -15.669  16.969  1.00  0.00     0.197 C 
HETATM    4  O2  UNL     1      -0.825 -16.529  17.844  1.00  0.00    -0.366 OA
HETATM    5  C10 UNL     1      -1.671 -17.459  18.334  1.00  0.00     0.069 C 
HETATM    6  C11 UNL     1      -1.328 -17.711  19.789  1.00  0.00     0.069 C 
HETATM    7  C12 UNL     1      -1.114 -19.191  20.099  1.00  0.00     0.276 C 
HETATM    8  N4  UNL     1       0.042 -19.602  19.322  1.00  0.00     0.094 N 
HETATM    9  C16 UNL     1      -0.143 -19.383  17.889  1.00  0.00     0.276 C 
HETATM   10  C17 UNL     1      -1.495 -18.795  17.622  1.00  0.00     0.069 C 
ENDROOT
BRANCH   3  11
HETATM   11  C6  UNL     1      -1.142 -15.867  15.586  1.00  0.00     0.147 C 
BRANCH  11  12
HETATM   12  O1  UNL     1      -0.633 -17.050  15.336  1.00  0.00    -0.347 OA
ATOM     13  H1  UNL     1       0.288 -17.034  15.104  1.00  0.00     0.219 HD
ENDBRANCH  11  12
BRANCH  11  14
HETATM   14  N1  UNL     1      -1.222 -15.014  14.517  1.00  0.00    -0.318 N 
HETATM   15  C7  UNL     1      -2.117 -15.102  13.579  1.00  0.00     0.167 A 
HETATM   16  N2  UNL     1      -3.122 -15.960  13.373  1.00  0.00    -0.279 N 
HETATM   17  S1  UNL     1      -2.376 -13.978  12.274  1.00  0.00    -0.029 SA
HETATM   18  N3  UNL     1      -3.908 -15.754  12.393  1.00  0.00    -0.288 N 
ATOM     19  H2  UNL     1      -3.256 -16.763  13.988  1.00  0.00     0.189 HD
HETATM   20  C8  UNL     1      -3.753 -14.728  11.594  1.00  0.00     0.177 A 
ATOM     21  H3  UNL     1      -4.677 -16.404  12.227  1.00  0.00     0.187 HD
ATOM     22  H1  UNL     1      -0.536 -14.262  14.453  1.00  0.00     0.169 HD
BRANCH  20  23
HETATM   23  C9  UNL     1      -4.555 -14.323  10.386  1.00  0.00     0.440 C 
HETATM   24  F1  UNL     1      -3.810 -13.403   9.659  1.00  0.00    -0.164 F 
HETATM   25  F2  UNL     1      -4.894 -15.404   9.614  1.00  0.00    -0.164 F 
HETATM   26  F3  UNL     1      -5.692 -13.675  10.796  1.00  0.00    -0.164 F 
ENDBRANCH  20  23
ENDBRANCH  11  14
ENDBRANCH   3  11
BRANCH   1  27
HETATM   27  C2  UNL     1      -3.864 -16.784  19.334  1.00  0.00     0.003 C 
HETATM   28  C1  UNL     1      -5.330 -16.996  19.049  1.00  0.00     0.005 C 
ENDBRANCH   1  27
BRANCH   8  29
HETATM   29  C13 UNL     1       0.426 -20.974  19.605  1.00  0.00     0.332 C 
BRANCH  29  30
HETATM   30  C14 UNL     1       0.393 -21.684  18.310  1.00  0.00     0.072 A 
HETATM   31  C15 UNL     1       1.401 -21.749  17.353  1.00  0.00     0.137 A 
HETATM   32  N5  UNL     1       0.993 -22.512  16.332  1.00  0.00    -0.296 N 
HETATM   33  N6  UNL     1      -0.214 -22.910  16.629  1.00  0.00    -0.243 N 
ATOM     34  H5  UNL     1       1.520 -22.739  15.488  1.00  0.00     0.187 HD
HETATM   35  N7  UNL     1      -0.594 -22.432  17.799  1.00  0.00    -0.287 N 
ATOM     36  H6  UNL     1      -0.787 -23.511  16.036  1.00  0.00     0.208 HD
ATOM     37  H7  UNL     1      -1.496 -22.605  18.243  1.00  0.00     0.188 HD
ENDBRANCH  29  30
ENDBRANCH   8  29
TORSDOF 7
ENDMDL
MODEL 5
REMARK VINA RESULT: -8.084581924      7.283     11.772
REMARK  7 active torsions:
REMARK  status: ('A' for Active; 'I' for Inactive)
REMARK    1  A    between atoms: C2_2  and  C3_3 
REMARK    2  A    between atoms: C5_5  and  C6_6 
REMARK    3  A    between atoms: C6_6  and  O1_7 
REMARK    4  A    between atoms: C6_6  and  N1_9 
REMARK    5  A    between atoms: C8_16  and  C9_17 
REMARK    6  A    between atoms: N4_26  and  C13_27 
REMARK    7  A    between atoms: C13_27  and  C14_28 
ROOT
HETATM    1  C3  UNL     1      -2.458 -20.960  24.626  1.00  0.00     0.023 C 
HETATM    2  C4  UNL     1      -3.119 -19.621  24.751  1.00  0.00     0.048 C 
HETATM    3  C5  UNL     1      -2.854 -18.963  23.456  1.00  0.00     0.197 C 
HETATM    4  O2  UNL     1      -1.800 -19.660  22.822  1.00  0.00    -0.366 OA
HETATM    5  C10 UNL     1      -1.702 -20.900  23.343  1.00  0.00     0.069 C 
HETATM    6  C11 UNL     1      -0.236 -21.268  23.456  1.00  0.00     0.069 C 
HETATM    7  C12 UNL     1       0.092 -22.605  22.795  1.00  0.00     0.276 C 
HETATM    8  N4  UNL     1      -0.188 -22.434  21.380  1.00  0.00     0.094 N 
HETATM    9  C16 UNL     1      -1.573 -22.046  21.128  1.00  0.00     0.276 C 
HETATM   10  C17 UNL     1      -2.327 -21.938  22.419  1.00  0.00     0.069 C 
ENDROOT
BRANCH   3  11
HETATM   11  C6  UNL     1      -3.984 -18.764  22.572  1.00  0.00     0.147 C 
BRANCH  11  12
HETATM   12  O1  UNL     1      -4.985 -19.584  22.790  1.00  0.00    -0.347 OA
ATOM     13  H1  UNL     1      -5.750 -19.170  23.171  1.00  0.00     0.219 HD
ENDBRANCH  11  12
BRANCH  11  14
HETATM   14  N1  UNL     1      -4.160 -17.865  21.552  1.00  0.00    -0.318 N 
HETATM   15  C7  UNL     1      -3.335 -17.719  20.559  1.00  0.00     0.167 A 
HETATM   16  N2  UNL     1      -2.179 -18.318  20.255  1.00  0.00    -0.279 N 
HETATM   17  S1  UNL     1      -3.560 -16.711  19.157  1.00  0.00    -0.029 SA
HETATM   18  N3  UNL     1      -1.614 -18.026  19.152  1.00  0.00    -0.288 N 
ATOM     19  H2  UNL     1      -1.758 -18.993  20.893  1.00  0.00     0.189 HD
HETATM   20  C8  UNL     1      -2.139 -17.162  18.319  1.00  0.00     0.177 A 
ATOM     21  H3  UNL     1      -0.731 -18.476  18.911  1.00  0.00     0.187 HD
ATOM     22  H1  UNL     1      -4.992 -17.275  21.575  1.00  0.00     0.169 HD
BRANCH  20  23
HETATM   23  C9  UNL     1      -1.627 -16.676  16.990  1.00  0.00     0.440 C 
HETATM   24  F1  UNL     1      -2.703 -16.592  16.115  1.00  0.00    -0.164 F 
HETATM   25  F2  UNL     1      -0.987 -15.468  17.103  1.00  0.00    -0.164 F 
HETATM   26  F3  UNL     1      -0.765 -17.607  16.471  1.00  0.00    -0.164 F 
ENDBRANCH  20  23
ENDBRANCH  11  14
ENDBRANCH   3  11
BRANCH   1  27
HETATM   27  C2  UNL     1      -1.613 -21.237  25.822  1.00  0.00     0.003 C 
HETATM   28  C1  UNL     1      -2.359 -20.832  27.069  1.00  0.00     0.005 C 
ENDBRANCH   1  27
BRANCH   8  29
HETATM   29  C13 UNL     1       0.185 -23.608  20.608  1.00  0.00     0.332 C 
BRANCH  29  30
HETATM   30  C14 UNL     1       0.270 -23.161  19.203  1.00  0.00     0.072 A 
HETATM   31  C15 UNL     1       0.923 -22.035  18.709  1.00  0.00     0.137 A 
HETATM   32  N5  UNL     1       0.790 -21.996  17.377  1.00  0.00    -0.296 N 
HETATM   33  N6  UNL     1       0.089 -23.045  17.046  1.00  0.00    -0.243 N 
ATOM     34  H5  UNL     1       1.164 -21.286  16.746  1.00  0.00     0.187 HD
HETATM   35  N7  UNL     1      -0.233 -23.754  18.112  1.00  0.00    -0.287 N 
ATOM     36  H6  UNL     1      -0.175 -23.285  16.090  1.00  0.00     0.208 HD
ATOM     37  H7  UNL     1      -0.778 -24.616  18.105  1.00  0.00     0.188 HD
ENDBRANCH  29  30
ENDBRANCH   8  29
TORSDOF 7
ENDMDL
