MODEL 1
REMARK VINA RESULT: -7.764220171      0.000      0.000
REMARK  4 active torsions:
REMARK  status: ('A' for Active; 'I' for Inactive)
REMARK    1  A    between atoms: C2_2  and  N1_3 
REMARK    2  A    between atoms: C5_6  and  N2_7 
REMARK       I    between atoms: N2_7  and  C6_9 
REMARK       I    between atoms: C6_9  and  N3_11 
REMARK    3  A    between atoms: N3_11  and  C7_13 
REMARK       I    between atoms: N4_15  and  C9_16 
REMARK    4  A    between atoms: C11_19  and  C12_20 
ROOT
HETATM    1  N2  UNL     1       3.125 -21.162  11.532  1.00  0.00    -0.327 N 
ATOM      2  H2  UNL     1       4.133 -21.256  11.410  1.00  0.00     0.165 HD
HETATM    3  C6  UNL     1       2.519 -21.344  12.832  1.00  0.00     0.322 C 
HETATM    4  O1  UNL     1       1.260 -21.225  12.955  1.00  0.00    -0.247 OA
HETATM    5  N3  UNL     1       3.285 -21.649  13.957  1.00  0.00    -0.294 N 
ATOM      6  H3  UNL     1       4.294 -21.726  13.834  1.00  0.00     0.172 HD
ENDROOT
BRANCH   1   7
HETATM    7  C5  UNL     1       2.285 -20.848  10.429  1.00  0.00     0.211 C 
HETATM    8  C3  UNL     1       2.627 -21.633   9.164  1.00  0.00     0.254 C 
HETATM    9  N1  UNL     1       3.996 -21.571   8.882  1.00  0.00     0.128 N 
HETATM   10  C4  UNL     1       1.983 -22.973   9.260  1.00  0.00     0.045 C 
HETATM   11  C17 UNL     1       4.640 -20.318   8.972  1.00  0.00     0.391 C 
HETATM   12  N6  UNL     1       3.835 -19.214   9.455  1.00  0.00    -0.311 N 
HETATM   13  S1  UNL     1       5.084 -19.617   7.327  1.00  0.00    -0.107 SA
HETATM   14  C13 UNL     1       2.566 -19.423  10.058  1.00  0.00     0.247 C 
HETATM   15  C14 UNL     1       4.540 -17.983   9.214  1.00  0.00     0.143 C 
HETATM   16  O3  UNL     1       1.700 -18.565  10.297  1.00  0.00    -0.271 OA
HETATM   17  C15 UNL     1       4.587 -17.890   7.701  1.00  0.00     0.065 C 
HETATM   18  C16 UNL     1       5.631 -16.919   7.227  1.00  0.00     0.023 C 
BRANCH   9  19
HETATM   19  C2  UNL     1       4.369 -22.162   7.620  1.00  0.00     0.272 C 
HETATM   20  C1  UNL     1       4.901 -23.548   7.666  1.00  0.00     0.037 C 
ENDBRANCH   9  19
ENDBRANCH   1   7
BRANCH   5  21
HETATM   21  C7  UNL     1       2.769 -21.859  15.249  1.00  0.00     0.127 A 
HETATM   22  C8  UNL     1       2.995 -22.847  16.156  1.00  0.00     0.150 A 
HETATM   23  N4  UNL     1       2.280 -22.664  17.305  1.00  0.00    -0.271 N 
HETATM   24  C9  UNL     1       2.332 -23.530  18.422  1.00  0.00     0.225 C 
HETATM   25  C11 UNL     1       1.593 -21.533  17.097  1.00  0.00     0.201 A 
HETATM   26  C10 UNL     1       3.200 -24.742  18.427  1.00  0.00     0.118 C 
HETATM   27  O2  UNL     1       1.660 -23.325  19.449  1.00  0.00    -0.273 OA
HETATM   28  N5  UNL     1       1.866 -21.035  15.884  1.00  0.00    -0.323 N 
ATOM     29  H5  UNL     1       1.468 -20.181  15.492  1.00  0.00     0.169 HD
BRANCH  25  30
HETATM   30  C12 UNL     1       0.651 -20.882  18.040  1.00  0.00     0.449 C 
HETATM   31  F1  UNL     1      -0.385 -21.727  18.381  1.00  0.00    -0.163 F 
HETATM   32  F2  UNL     1       0.104 -19.741  17.449  1.00  0.00    -0.163 F 
HETATM   33  F3  UNL     1       1.296 -20.467  19.185  1.00  0.00    -0.163 F 
ENDBRANCH  25  30
ENDBRANCH   5  21
TORSDOF 4
ENDMDL
MODEL 2
REMARK VINA RESULT: -7.348058506      6.988      9.268
REMARK  4 active torsions:
REMARK  status: ('A' for Active; 'I' for Inactive)
REMARK    1  A    between atoms: C2_2  and  N1_3 
REMARK    2  A    between atoms: C5_6  and  N2_7 
REMARK       I    between atoms: N2_7  and  C6_9 
REMARK       I    between atoms: C6_9  and  N3_11 
REMARK    3  A    between atoms: N3_11  and  C7_13 
REMARK       I    between atoms: N4_15  and  C9_16 
REMARK    4  A    between atoms: C11_19  and  C12_20 
ROOT
HETATM    1  N2  UNL     1       1.513 -22.827  19.602  1.00  0.00    -0.327 N 
ATOM      2  H2  UNL     1       2.468 -22.495  19.737  1.00  0.00     0.165 HD
HETATM    3  C6  UNL     1       0.407 -21.897  19.562  1.00  0.00     0.322 C 
HETATM    4  O1  UNL     1      -0.773 -22.337  19.397  1.00  0.00    -0.247 OA
HETATM    5  N3  UNL     1       0.605 -20.523  19.703  1.00  0.00    -0.294 N 
ATOM      6  H3  UNL     1       1.563 -20.194  19.822  1.00  0.00     0.172 HD
ENDROOT
BRANCH   1   7
HETATM    7  C5  UNL     1       1.240 -24.214  19.447  1.00  0.00     0.211 C 
HETATM    8  C3  UNL     1       2.245 -25.113  20.165  1.00  0.00     0.254 C 
HETATM    9  N1  UNL     1       3.561 -24.747  19.863  1.00  0.00     0.128 N 
HETATM   10  C4  UNL     1       1.846 -25.205  21.598  1.00  0.00     0.045 C 
HETATM   11  C17 UNL     1       3.887 -24.483  18.515  1.00  0.00     0.391 C 
HETATM   12  N6  UNL     1       2.789 -24.515  17.569  1.00  0.00    -0.311 N 
HETATM   13  S1  UNL     1       4.925 -25.801  17.754  1.00  0.00    -0.107 SA
HETATM   14  C13 UNL     1       1.435 -24.538  17.997  1.00  0.00     0.247 C 
HETATM   15  C14 UNL     1       3.325 -24.515  16.234  1.00  0.00     0.143 C 
HETATM   16  O3  UNL     1       0.435 -24.792  17.306  1.00  0.00    -0.271 OA
HETATM   17  C15 UNL     1       4.051 -25.844  16.140  1.00  0.00     0.065 C 
HETATM   18  C16 UNL     1       5.031 -25.874  15.002  1.00  0.00     0.023 C 
BRANCH   9  19
HETATM   19  C2  UNL     1       4.561 -25.647  20.384  1.00  0.00     0.272 C 
HETATM   20  C1  UNL     1       5.471 -25.099  21.422  1.00  0.00     0.037 C 
ENDBRANCH   9  19
ENDBRANCH   1   7
BRANCH   5  21
HETATM   21  C7  UNL     1      -0.419 -19.558  19.695  1.00  0.00     0.127 A 
HETATM   22  C8  UNL     1      -0.819 -18.682  18.734  1.00  0.00     0.150 A 
HETATM   23  N4  UNL     1      -1.871 -17.914  19.144  1.00  0.00    -0.271 N 
HETATM   24  C9  UNL     1      -2.498 -16.929  18.344  1.00  0.00     0.225 C 
HETATM   25  C11 UNL     1      -2.123 -18.327  20.393  1.00  0.00     0.201 A 
HETATM   26  C10 UNL     1      -2.043 -16.655  16.952  1.00  0.00     0.118 C 
HETATM   27  O2  UNL     1      -3.453 -16.250  18.760  1.00  0.00    -0.273 OA
HETATM   28  N5  UNL     1      -1.275 -19.303  20.744  1.00  0.00    -0.323 N 
ATOM     29  H5  UNL     1      -1.265 -19.782  21.645  1.00  0.00     0.169 HD
BRANCH  25  30
HETATM   30  C12 UNL     1      -3.176 -17.812  21.302  1.00  0.00     0.449 C 
HETATM   31  F1  UNL     1      -2.987 -16.475  21.585  1.00  0.00    -0.163 F 
HETATM   32  F2  UNL     1      -3.148 -18.519  22.506  1.00  0.00    -0.163 F 
HETATM   33  F3  UNL     1      -4.432 -17.990  20.764  1.00  0.00    -0.163 F 
ENDBRANCH  25  30
ENDBRANCH   5  21
TORSDOF 4
ENDMDL
MODEL 3
REMARK VINA RESULT: -7.204585536      1.297      1.455
REMARK  4 active torsions:
REMARK  status: ('A' for Active; 'I' for Inactive)
REMARK    1  A    between atoms: C2_2  and  N1_3 
REMARK    2  A    between atoms: C5_6  and  N2_7 
REMARK       I    between atoms: N2_7  and  C6_9 
REMARK       I    between atoms: C6_9  and  N3_11 
REMARK    3  A    between atoms: N3_11  and  C7_13 
REMARK       I    between atoms: N4_15  and  C9_16 
REMARK    4  A    between atoms: C11_19  and  C12_20 
ROOT
HETATM    1  N2  UNL     1       2.861 -22.443  12.016  1.00  0.00    -0.327 N 
ATOM      2  H2  UNL     1       3.858 -22.521  11.817  1.00  0.00     0.165 HD
HETATM    3  C6  UNL     1       2.358 -22.634  13.357  1.00  0.00     0.322 C 
HETATM    4  O1  UNL     1       1.111 -22.535  13.576  1.00  0.00    -0.247 OA
HETATM    5  N3  UNL     1       3.213 -22.926  14.421  1.00  0.00    -0.294 N 
ATOM      6  H3  UNL     1       4.211 -22.986  14.221  1.00  0.00     0.172 HD
ENDROOT
BRANCH   1   7
HETATM    7  C5  UNL     1       1.934 -22.144  10.979  1.00  0.00     0.211 C 
HETATM    8  C3  UNL     1       2.276 -22.812   9.649  1.00  0.00     0.254 C 
HETATM    9  N1  UNL     1       3.616 -22.602   9.304  1.00  0.00     0.128 N 
HETATM   10  C4  UNL     1       1.766 -24.212   9.687  1.00  0.00     0.045 C 
HETATM   11  C17 UNL     1       4.145 -21.301   9.445  1.00  0.00     0.391 C 
HETATM   12  N6  UNL     1       3.269 -20.312  10.041  1.00  0.00    -0.311 N 
HETATM   13  S1  UNL     1       4.428 -20.459   7.831  1.00  0.00    -0.107 SA
HETATM   14  C13 UNL     1       2.061 -20.678  10.691  1.00  0.00     0.247 C 
HETATM   15  C14 UNL     1       3.842 -19.006   9.848  1.00  0.00     0.143 C 
HETATM   16  O3  UNL     1       1.134 -19.924  11.031  1.00  0.00    -0.271 OA
HETATM   17  C15 UNL     1       3.796 -18.815   8.344  1.00  0.00     0.065 C 
HETATM   18  C16 UNL     1       4.717 -17.721   7.884  1.00  0.00     0.023 C 
BRANCH   9  19
HETATM   19  C2  UNL     1       3.970 -23.075   7.987  1.00  0.00     0.272 C 
HETATM   20  C1  UNL     1       4.887 -24.242   7.925  1.00  0.00     0.037 C 
ENDBRANCH   9  19
ENDBRANCH   1   7
BRANCH   5  21
HETATM   21  C7  UNL     1       2.799 -23.143  15.748  1.00  0.00     0.127 A 
HETATM   22  C8  UNL     1       3.369 -23.849  16.762  1.00  0.00     0.150 A 
HETATM   23  N4  UNL     1       2.626 -23.797  17.906  1.00  0.00    -0.271 N 
HETATM   24  C9  UNL     1       2.986 -24.429  19.120  1.00  0.00     0.225 C 
HETATM   25  C11 UNL     1       1.568 -23.040  17.586  1.00  0.00     0.201 A 
HETATM   26  C10 UNL     1       4.245 -25.218  19.240  1.00  0.00     0.118 C 
HETATM   27  O2  UNL     1       2.276 -24.357  20.138  1.00  0.00    -0.273 OA
HETATM   28  N5  UNL     1       1.647 -22.639  16.311  1.00  0.00    -0.323 N 
ATOM     29  H5  UNL     1       0.963 -22.053  15.832  1.00  0.00     0.169 HD
BRANCH  25  30
HETATM   30  C12 UNL     1       0.441 -22.669  18.477  1.00  0.00     0.449 C 
HETATM   31  F1  UNL     1      -0.219 -23.787  18.947  1.00  0.00    -0.163 F 
HETATM   32  F2  UNL     1      -0.478 -21.886  17.775  1.00  0.00    -0.163 F 
HETATM   33  F3  UNL     1       0.875 -21.914  19.545  1.00  0.00    -0.163 F 
ENDBRANCH  25  30
ENDBRANCH   5  21
TORSDOF 4
ENDMDL
MODEL 4
REMARK VINA RESULT: -7.172769429      3.834      5.692
REMARK  4 active torsions:
REMARK  status: ('A' for Active; 'I' for Inactive)
REMARK    1  A    between atoms: C2_2  and  N1_3 
REMARK    2  A    between atoms: C5_6  and  N2_7 
REMARK       I    between atoms: N2_7  and  C6_9 
REMARK       I    between atoms: C6_9  and  N3_11 
REMARK    3  A    between atoms: N3_11  and  C7_13 
REMARK       I    between atoms: N4_15  and  C9_16 
REMARK    4  A    between atoms: C11_19  and  C12_20 
ROOT
HETATM    1  N2  UNL     1       1.195 -22.687  15.443  1.00  0.00    -0.327 N 
ATOM      2  H2  UNL     1       0.367 -22.513  14.875  1.00  0.00     0.165 HD
HETATM    3  C6  UNL     1       1.099 -22.768  16.883  1.00  0.00     0.322 C 
HETATM    4  O1  UNL     1       2.147 -22.982  17.568  1.00  0.00    -0.247 OA
HETATM    5  N3  UNL     1      -0.122 -22.613  17.541  1.00  0.00    -0.294 N 
ATOM      6  H3  UNL     1      -0.950 -22.455  16.968  1.00  0.00     0.172 HD
ENDROOT
BRANCH   1   7
HETATM    7  C5  UNL     1       2.471 -22.858  14.837  1.00  0.00     0.211 C 
HETATM    8  C3  UNL     1       2.764 -21.833  13.744  1.00  0.00     0.254 C 
HETATM    9  N1  UNL     1       1.703 -21.738  12.837  1.00  0.00     0.128 N 
HETATM   10  C4  UNL     1       3.253 -20.585  14.396  1.00  0.00     0.045 C 
HETATM   11  C17 UNL     1       1.123 -22.934  12.362  1.00  0.00     0.391 C 
HETATM   12  N6  UNL     1       1.619 -24.165  12.944  1.00  0.00    -0.311 N 
HETATM   13  S1  UNL     1       1.544 -23.290  10.604  1.00  0.00    -0.107 SA
HETATM   14  C13 UNL     1       2.434 -24.167  14.107  1.00  0.00     0.247 C 
HETATM   15  C14 UNL     1       1.144 -25.275  12.160  1.00  0.00     0.143 C 
HETATM   16  O3  UNL     1       3.095 -25.117  14.557  1.00  0.00    -0.271 OA
HETATM   17  C15 UNL     1       1.835 -25.088  10.823  1.00  0.00     0.065 C 
HETATM   18  C16 UNL     1       1.171 -25.874   9.728  1.00  0.00     0.023 C 
BRANCH   9  19
HETATM   19  C2  UNL     1       1.973 -20.902  11.693  1.00  0.00     0.272 C 
HETATM   20  C1  UNL     1       0.805 -20.222  11.077  1.00  0.00     0.037 C 
ENDBRANCH   9  19
ENDBRANCH   1   7
BRANCH   5  21
HETATM   21  C7  UNL     1      -0.294 -22.658  18.937  1.00  0.00     0.127 A 
HETATM   22  C8  UNL     1      -0.103 -23.664  19.833  1.00  0.00     0.150 A 
HETATM   23  N4  UNL     1      -0.389 -23.276  21.110  1.00  0.00    -0.271 N 
HETATM   24  C9  UNL     1      -0.268 -24.115  22.244  1.00  0.00     0.225 C 
HETATM   25  C11 UNL     1      -0.770 -21.997  20.996  1.00  0.00     0.201 A 
HETATM   26  C10 UNL     1       0.201 -25.525  22.120  1.00  0.00     0.118 C 
HETATM   27  O2  UNL     1      -0.543 -23.720  23.390  1.00  0.00    -0.273 OA
HETATM   28  N5  UNL     1      -0.721 -21.606  19.717  1.00  0.00    -0.323 N 
ATOM     29  H5  UNL     1      -0.962 -20.676  19.374  1.00  0.00     0.169 HD
BRANCH  25  30
HETATM   30  C12 UNL     1      -1.195 -21.098  22.097  1.00  0.00     0.449 C 
HETATM   31  F1  UNL     1      -2.369 -21.532  22.678  1.00  0.00    -0.163 F 
HETATM   32  F2  UNL     1      -1.407 -19.810  21.599  1.00  0.00    -0.163 F 
HETATM   33  F3  UNL     1      -0.219 -20.995  23.064  1.00  0.00    -0.163 F 
ENDBRANCH  25  30
ENDBRANCH   5  21
TORSDOF 4
ENDMDL
MODEL 5
REMARK VINA RESULT: -7.122450593      6.740      9.010
REMARK  4 active torsions:
REMARK  status: ('A' for Active; 'I' for Inactive)
REMARK    1  A    between atoms: C2_2  and  N1_3 
REMARK    2  A    between atoms: C5_6  and  N2_7 
REMARK       I    between atoms: N2_7  and  C6_9 
REMARK       I    between atoms: C6_9  and  N3_11 
REMARK    3  A    between atoms: N3_11  and  C7_13 
REMARK       I    between atoms: N4_15  and  C9_16 
REMARK    4  A    between atoms: C11_19  and  C12_20 
ROOT
HETATM    1  N2  UNL     1       1.525 -22.765  19.393  1.00  0.00    -0.327 N 
ATOM      2  H2  UNL     1       2.477 -22.440  19.560  1.00  0.00     0.165 HD
HETATM    3  C6  UNL     1       0.432 -21.825  19.286  1.00  0.00     0.322 C 
HETATM    4  O1  UNL     1      -0.745 -22.257  19.083  1.00  0.00    -0.247 OA
HETATM    5  N3  UNL     1       0.640 -20.450  19.404  1.00  0.00    -0.294 N 
ATOM      6  H3  UNL     1       1.595 -20.128  19.554  1.00  0.00     0.172 HD
ENDROOT
BRANCH   1   7
HETATM    7  C5  UNL     1       1.243 -24.152  19.259  1.00  0.00     0.211 C 
HETATM    8  C3  UNL     1       2.262 -25.048  19.961  1.00  0.00     0.254 C 
HETATM    9  N1  UNL     1       3.572 -24.691  19.623  1.00  0.00     0.128 N 
HETATM   10  C4  UNL     1       1.898 -25.124  21.405  1.00  0.00     0.045 C 
HETATM   11  C17 UNL     1       3.866 -24.441  18.265  1.00  0.00     0.391 C 
HETATM   12  N6  UNL     1       2.745 -24.478  17.347  1.00  0.00    -0.311 N 
HETATM   13  S1  UNL     1       4.879 -25.771  17.492  1.00  0.00    -0.107 SA
HETATM   14  C13 UNL     1       1.402 -24.491  17.807  1.00  0.00     0.247 C 
HETATM   15  C14 UNL     1       3.248 -24.494  15.999  1.00  0.00     0.143 C 
HETATM   16  O3  UNL     1       0.384 -24.749  17.144  1.00  0.00    -0.271 OA
HETATM   17  C15 UNL     1       3.966 -25.827  15.901  1.00  0.00     0.065 C 
HETATM   18  C16 UNL     1       4.918 -25.873  14.740  1.00  0.00     0.023 C 
BRANCH   9  19
HETATM   19  C2  UNL     1       4.581 -25.589  20.129  1.00  0.00     0.272 C 
HETATM   20  C1  UNL     1       5.567 -25.013  21.079  1.00  0.00     0.037 C 
ENDBRANCH   9  19
ENDBRANCH   1   7
BRANCH   5  21
HETATM   21  C7  UNL     1      -0.373 -19.475  19.331  1.00  0.00     0.127 A 
HETATM   22  C8  UNL     1      -1.245 -19.016  20.267  1.00  0.00     0.150 A 
HETATM   23  N4  UNL     1      -2.071 -18.048  19.770  1.00  0.00    -0.271 N 
HETATM   24  C9  UNL     1      -3.067 -17.385  20.526  1.00  0.00     0.225 C 
HETATM   25  C11 UNL     1      -1.697 -17.912  18.491  1.00  0.00     0.201 A 
HETATM   26  C10 UNL     1      -3.290 -17.703  21.965  1.00  0.00     0.118 C 
HETATM   27  O2  UNL     1      -3.799 -16.511  20.030  1.00  0.00    -0.273 OA
HETATM   28  N5  UNL     1      -0.690 -18.747  18.205  1.00  0.00    -0.323 N 
ATOM     29  H5  UNL     1      -0.231 -18.830  17.298  1.00  0.00     0.169 HD
BRANCH  25  30
HETATM   30  C12 UNL     1      -2.281 -16.985  17.492  1.00  0.00     0.449 C 
HETATM   31  F1  UNL     1      -3.643 -17.171  17.366  1.00  0.00    -0.163 F 
HETATM   32  F2  UNL     1      -1.696 -17.207  16.243  1.00  0.00    -0.163 F 
HETATM   33  F3  UNL     1      -2.030 -15.670  17.821  1.00  0.00    -0.163 F 
ENDBRANCH  25  30
ENDBRANCH   5  21
TORSDOF 4
ENDMDL
