MODEL 1
REMARK VINA RESULT: -7.488647170      0.000      0.000
REMARK  6 active torsions:
REMARK  status: ('A' for Active; 'I' for Inactive)
REMARK    1  A    between atoms: C4_9  and  C5_10 
REMARK    2  A    between atoms: C9_14  and  N3_15 
REMARK    3  A    between atoms: N4_18  and  C12_19 
REMARK    4  A    between atoms: C12_19  and  C14_21 
REMARK    5  A    between atoms: C14_21  and  N5_24 
REMARK    6  A    between atoms: C19_31  and  C20_32 
ROOT
HETATM    1  N3  UNL     1       1.450 -22.886  17.555  1.00  0.00    -0.363 N 
HETATM    2  C10 UNL     1       0.596 -23.366  16.505  1.00  0.00     0.143 C 
HETATM    3  C11 UNL     1       1.351 -24.029  15.393  1.00  0.00     0.138 C 
HETATM    4  N4  UNL     1       2.624 -23.530  15.048  1.00  0.00    -0.391 N 
HETATM    5  C19 UNL     1       3.164 -22.508  15.791  1.00  0.00     0.206 C 
HETATM    6  C21 UNL     1       2.831 -22.684  17.285  1.00  0.00     0.158 C 
ENDROOT
BRANCH   1   7
HETATM    7  C9  UNL     1       0.834 -22.528  18.798  1.00  0.00     0.115 A 
HETATM    8  C4  UNL     1       0.739 -23.370  19.841  1.00  0.00     0.037 A 
HETATM    9  C3  UNL     1       0.135 -22.812  21.008  1.00  0.00     0.111 A 
HETATM   10  N1  UNL     1      -0.304 -21.564  21.066  1.00  0.00    -0.332 N 
HETATM   11  N2  UNL     1       0.045 -23.544  22.079  1.00  0.00    -0.385 N 
HETATM   12  C2  UNL     1      -0.171 -20.792  19.974  1.00  0.00     0.080 A 
ATOM     13  H1  UNL     1      -0.732 -21.198  21.917  1.00  0.00     0.168 HD
HETATM   14  C1  UNL     1      -0.667 -19.388  20.031  1.00  0.00     0.089 C 
HETATM   15  N8  UNL     1       0.376 -21.233  18.864  1.00  0.00    -0.332 N 
ATOM     16  H8  UNL     1       0.460 -20.618  18.054  1.00  0.00     0.168 HD
ATOM     17  H22 UNL     1      -0.386 -23.145  22.913  1.00  0.00     0.157 HD
ATOM     18  H21 UNL     1       0.383 -24.505  22.035  1.00  0.00     0.157 HD
BRANCH   8  19
HETATM   19  C5  UNL     1       1.129 -24.768  19.991  1.00  0.00    -0.017 C 
HETATM   20  C6  UNL     1       2.157 -24.912  21.146  1.00  0.00     0.019 C 
HETATM   21  C7  UNL     1       1.512 -25.629  18.864  1.00  0.00     0.019 C 
HETATM   22  C8  UNL     1      -0.143 -25.485  20.545  1.00  0.00     0.019 C 
ENDBRANCH   8  19
ENDBRANCH   1   7
BRANCH   5  23
HETATM   23  C20 UNL     1       2.988 -21.075  15.455  1.00  0.00     0.408 C 
HETATM   24  F1  UNL     1       3.833 -20.293  16.278  1.00  0.00    -0.169 F 
HETATM   25  F2  UNL     1       3.436 -20.715  14.186  1.00  0.00    -0.169 F 
HETATM   26  F3  UNL     1       1.767 -20.517  15.598  1.00  0.00    -0.169 F 
ENDBRANCH   5  23
BRANCH   4  27
HETATM   27  C12 UNL     1       3.092 -23.928  13.783  1.00  0.00     0.105 C 
HETATM   28  C13 UNL     1       3.789 -25.262  13.706  1.00  0.00     0.034 C 
BRANCH  27  29
HETATM   29  C14 UNL     1       2.210 -23.888  12.590  1.00  0.00     0.067 C 
HETATM   30  C15 UNL     1       1.365 -25.025  12.211  1.00  0.00     0.042 C 
HETATM   31  C16 UNL     1       1.245 -22.690  12.761  1.00  0.00     0.042 C 
BRANCH  29  32
HETATM   32  N5  UNL     1       2.968 -23.561  11.365  1.00  0.00    -0.276 N 
HETATM   33  C17 UNL     1       3.758 -22.505  11.123  1.00  0.00     0.202 A 
HETATM   34  N6  UNL     1       4.273 -22.555   9.898  1.00  0.00    -0.346 N 
HETATM   35  C18 UNL     1       3.796 -23.679   9.342  1.00  0.00     0.198 A 
ATOM     36  H6  UNL     1       4.903 -21.877   9.468  1.00  0.00     0.167 HD
HETATM   37  N7  UNL     1       3.002 -24.278  10.255  1.00  0.00    -0.292 N 
ATOM     38  H7  UNL     1       2.502 -25.155  10.109  1.00  0.00     0.188 HD
ENDBRANCH  29  32
ENDBRANCH  27  29
ENDBRANCH   4  27
TORSDOF 6
ENDMDL
MODEL 2
REMARK VINA RESULT: -7.469853259      3.214      9.434
REMARK  6 active torsions:
REMARK  status: ('A' for Active; 'I' for Inactive)
REMARK    1  A    between atoms: C4_9  and  C5_10 
REMARK    2  A    between atoms: C9_14  and  N3_15 
REMARK    3  A    between atoms: N4_18  and  C12_19 
REMARK    4  A    between atoms: C12_19  and  C14_21 
REMARK    5  A    between atoms: C14_21  and  N5_24 
REMARK    6  A    between atoms: C19_31  and  C20_32 
ROOT
HETATM    1  N3  UNL     1       3.097 -21.331  10.350  1.00  0.00    -0.363 N 
HETATM    2  C10 UNL     1       1.715 -21.186  10.713  1.00  0.00     0.143 C 
HETATM    3  C11 UNL     1       1.460 -21.440  12.167  1.00  0.00     0.138 C 
HETATM    4  N4  UNL     1       2.228 -22.422  12.828  1.00  0.00    -0.391 N 
HETATM    5  C19 UNL     1       3.235 -23.056  12.140  1.00  0.00     0.206 C 
HETATM    6  C21 UNL     1       3.961 -22.070  11.204  1.00  0.00     0.158 C 
ENDROOT
BRANCH   1   7
HETATM    7  C9  UNL     1       3.507 -20.811   9.080  1.00  0.00     0.115 A 
HETATM    8  C4  UNL     1       3.960 -19.557   8.910  1.00  0.00     0.037 A 
HETATM    9  C3  UNL     1       4.365 -19.243   7.578  1.00  0.00     0.111 A 
HETATM   10  N1  UNL     1       4.300 -20.111   6.580  1.00  0.00    -0.332 N 
HETATM   11  N2  UNL     1       4.859 -18.064   7.335  1.00  0.00    -0.385 N 
HETATM   12  C2  UNL     1       3.832 -21.344   6.840  1.00  0.00     0.080 A 
ATOM     13  H1  UNL     1       4.597 -19.851   5.640  1.00  0.00     0.168 HD
HETATM   14  C1  UNL     1       3.752 -22.324   5.721  1.00  0.00     0.089 C 
HETATM   15  N8  UNL     1       3.441 -21.709   8.040  1.00  0.00    -0.332 N 
ATOM     16  H8  UNL     1       3.091 -22.653   8.200  1.00  0.00     0.168 HD
ATOM     17  H22 UNL     1       5.149 -17.840   6.383  1.00  0.00     0.157 HD
ATOM     18  H21 UNL     1       4.909 -17.396   8.103  1.00  0.00     0.157 HD
BRANCH   8  19
HETATM   19  C5  UNL     1       4.095 -18.446   9.846  1.00  0.00    -0.017 C 
HETATM   20  C6  UNL     1       5.004 -17.344   9.234  1.00  0.00     0.019 C 
HETATM   21  C7  UNL     1       4.401 -18.618  11.272  1.00  0.00     0.019 C 
HETATM   22  C8  UNL     1       2.686 -17.774   9.883  1.00  0.00     0.019 C 
ENDBRANCH   8  19
ENDBRANCH   1   7
BRANCH   5  23
HETATM   23  C20 UNL     1       3.040 -24.323  11.397  1.00  0.00     0.408 C 
HETATM   24  F1  UNL     1       3.865 -24.324  10.246  1.00  0.00    -0.169 F 
HETATM   25  F2  UNL     1       3.498 -25.462  12.058  1.00  0.00    -0.169 F 
HETATM   26  F3  UNL     1       1.810 -24.625  10.932  1.00  0.00    -0.169 F 
ENDBRANCH   5  23
BRANCH   4  27
HETATM   27  C12 UNL     1       1.689 -22.873  14.046  1.00  0.00     0.105 C 
HETATM   28  C13 UNL     1       1.382 -24.345  14.149  1.00  0.00     0.034 C 
BRANCH  27  29
HETATM   29  C14 UNL     1       2.322 -22.523  15.342  1.00  0.00     0.067 C 
HETATM   30  C15 UNL     1       3.317 -23.392  15.980  1.00  0.00     0.042 C 
HETATM   31  C16 UNL     1       3.017 -21.151  15.168  1.00  0.00     0.042 C 
BRANCH  29  32
HETATM   32  N5  UNL     1       1.311 -22.279  16.391  1.00  0.00    -0.276 N 
HETATM   33  C17 UNL     1       0.397 -23.124  16.889  1.00  0.00     0.202 A 
HETATM   34  N6  UNL     1      -0.341 -22.541  17.828  1.00  0.00    -0.346 N 
HETATM   35  C18 UNL     1       0.117 -21.284  17.932  1.00  0.00     0.198 A 
ATOM     36  H6  UNL     1      -1.102 -22.963  18.362  1.00  0.00     0.167 HD
HETATM   37  N7  UNL     1       1.126 -21.145  17.046  1.00  0.00    -0.292 N 
ATOM     38  H7  UNL     1       1.665 -20.292  16.902  1.00  0.00     0.188 HD
ENDBRANCH  29  32
ENDBRANCH  27  29
ENDBRANCH   4  27
TORSDOF 6
ENDMDL
MODEL 3
REMARK VINA RESULT: -7.371383358      2.743      9.158
REMARK  6 active torsions:
REMARK  status: ('A' for Active; 'I' for Inactive)
REMARK    1  A    between atoms: C4_9  and  C5_10 
REMARK    2  A    between atoms: C9_14  and  N3_15 
REMARK    3  A    between atoms: N4_18  and  C12_19 
REMARK    4  A    between atoms: C12_19  and  C14_21 
REMARK    5  A    between atoms: C14_21  and  N5_24 
REMARK    6  A    between atoms: C19_31  and  C20_32 
ROOT
HETATM    1  N3  UNL     1       2.775 -21.909  10.991  1.00  0.00    -0.363 N 
HETATM    2  C10 UNL     1       1.527 -21.430  11.514  1.00  0.00     0.143 C 
HETATM    3  C11 UNL     1       1.453 -21.495  13.009  1.00  0.00     0.138 C 
HETATM    4  N4  UNL     1       2.093 -22.563  13.672  1.00  0.00    -0.391 N 
HETATM    5  C19 UNL     1       2.827 -23.462  12.936  1.00  0.00     0.206 C 
HETATM    6  C21 UNL     1       3.589 -22.747  11.803  1.00  0.00     0.158 C 
ENDROOT
BRANCH   1   7
HETATM    7  C9  UNL     1       3.083 -21.604   9.626  1.00  0.00     0.115 A 
HETATM    8  C4  UNL     1       3.733 -20.490   9.249  1.00  0.00     0.037 A 
HETATM    9  C3  UNL     1       3.988 -20.390   7.848  1.00  0.00     0.111 A 
HETATM   10  N1  UNL     1       3.613 -21.316   6.979  1.00  0.00    -0.332 N 
HETATM   11  N2  UNL     1       4.653 -19.364   7.404  1.00  0.00    -0.385 N 
HETATM   12  C2  UNL     1       2.965 -22.398   7.443  1.00  0.00     0.080 A 
ATOM     13  H1  UNL     1       3.811 -21.211   5.984  1.00  0.00     0.168 HD
HETATM   14  C1  UNL     1       2.537 -23.441   6.470  1.00  0.00     0.089 C 
HETATM   15  N8  UNL     1       2.695 -22.563   8.718  1.00  0.00    -0.332 N 
ATOM     16  H8  UNL     1       2.201 -23.397   9.034  1.00  0.00     0.168 HD
ATOM     17  H22 UNL     1       4.836 -19.293   6.403  1.00  0.00     0.157 HD
ATOM     18  H21 UNL     1       4.942 -18.651   8.073  1.00  0.00     0.157 HD
BRANCH   8  19
HETATM   19  C5  UNL     1       4.213 -19.347  10.019  1.00  0.00    -0.017 C 
HETATM   20  C6  UNL     1       5.442 -18.710   9.315  1.00  0.00     0.019 C 
HETATM   21  C7  UNL     1       4.424 -19.378  11.472  1.00  0.00     0.019 C 
HETATM   22  C8  UNL     1       3.102 -18.260   9.864  1.00  0.00     0.019 C 
ENDBRANCH   8  19
ENDBRANCH   1   7
BRANCH   5  23
HETATM   23  C20 UNL     1       2.261 -24.713  12.379  1.00  0.00     0.408 C 
HETATM   24  F1  UNL     1       2.848 -24.973  11.118  1.00  0.00    -0.169 F 
HETATM   25  F2  UNL     1       2.602 -25.869  13.079  1.00  0.00    -0.169 F 
HETATM   26  F3  UNL     1       0.932 -24.785  12.155  1.00  0.00    -0.169 F 
ENDBRANCH   5  23
BRANCH   4  27
HETATM   27  C12 UNL     1       1.668 -22.777  14.995  1.00  0.00     0.105 C 
HETATM   28  C13 UNL     1       1.224 -24.174  15.348  1.00  0.00     0.034 C 
BRANCH  27  29
HETATM   29  C14 UNL     1       2.492 -22.335  16.148  1.00  0.00     0.067 C 
HETATM   30  C15 UNL     1       3.486 -23.214  16.774  1.00  0.00     0.042 C 
HETATM   31  C16 UNL     1       3.270 -21.071  15.709  1.00  0.00     0.042 C 
BRANCH  29  32
HETATM   32  N5  UNL     1       1.651 -21.864  17.267  1.00  0.00    -0.276 N 
HETATM   33  C17 UNL     1       1.618 -22.302  18.534  1.00  0.00     0.202 A 
HETATM   34  N6  UNL     1       0.727 -21.628  19.256  1.00  0.00    -0.346 N 
HETATM   35  C18 UNL     1       0.176 -20.734  18.423  1.00  0.00     0.198 A 
ATOM     36  H6  UNL     1       0.507 -21.765  20.243  1.00  0.00     0.167 HD
HETATM   37  N7  UNL     1       0.754 -20.894  17.214  1.00  0.00    -0.292 N 
ATOM     38  H7  UNL     1       0.532 -20.348  16.382  1.00  0.00     0.188 HD
ENDBRANCH  29  32
ENDBRANCH  27  29
ENDBRANCH   4  27
TORSDOF 6
ENDMDL
MODEL 4
REMARK VINA RESULT: -7.015657317      0.889      1.299
REMARK  6 active torsions:
REMARK  status: ('A' for Active; 'I' for Inactive)
REMARK    1  A    between atoms: C4_9  and  C5_10 
REMARK    2  A    between atoms: C9_14  and  N3_15 
REMARK    3  A    between atoms: N4_18  and  C12_19 
REMARK    4  A    between atoms: C12_19  and  C14_21 
REMARK    5  A    between atoms: C14_21  and  N5_24 
REMARK    6  A    between atoms: C19_31  and  C20_32 
ROOT
HETATM    1  N3  UNL     1       1.607 -22.965  17.404  1.00  0.00    -0.363 N 
HETATM    2  C10 UNL     1       0.813 -23.592  16.384  1.00  0.00     0.143 C 
HETATM    3  C11 UNL     1       1.637 -24.274  15.335  1.00  0.00     0.138 C 
HETATM    4  N4  UNL     1       2.872 -23.701  14.967  1.00  0.00    -0.391 N 
HETATM    5  C19 UNL     1       3.316 -22.585  15.635  1.00  0.00     0.206 C 
HETATM    6  C21 UNL     1       2.972 -22.673  17.134  1.00  0.00     0.158 C 
ENDROOT
BRANCH   1   7
HETATM    7  C9  UNL     1       0.943 -22.565  18.608  1.00  0.00     0.115 A 
HETATM    8  C4  UNL     1       0.801 -23.372  19.673  1.00  0.00     0.037 A 
HETATM    9  C3  UNL     1       0.153 -22.774  20.796  1.00  0.00     0.111 A 
HETATM   10  N1  UNL     1      -0.282 -21.523  20.795  1.00  0.00    -0.332 N 
HETATM   11  N2  UNL     1       0.016 -23.470  21.886  1.00  0.00    -0.385 N 
HETATM   12  C2  UNL     1      -0.101 -20.787  19.685  1.00  0.00     0.080 A 
ATOM     13  H1  UNL     1      -0.743 -21.128  21.615  1.00  0.00     0.168 HD
HETATM   14  C1  UNL     1      -0.592 -19.381  19.676  1.00  0.00     0.089 C 
HETATM   15  N8  UNL     1       0.488 -21.266  18.613  1.00  0.00    -0.332 N 
ATOM     16  H8  UNL     1       0.609 -20.679  17.788  1.00  0.00     0.168 HD
ATOM     17  H22 UNL     1      -0.447 -23.043  22.688  1.00  0.00     0.157 HD
ATOM     18  H21 UNL     1       0.351 -24.433  21.886  1.00  0.00     0.157 HD
BRANCH   8  19
HETATM   19  C5  UNL     1       1.178 -24.765  19.884  1.00  0.00    -0.017 C 
HETATM   20  C6  UNL     1       2.222 -24.867  21.030  1.00  0.00     0.019 C 
HETATM   21  C7  UNL     1       1.534 -25.684  18.794  1.00  0.00     0.019 C 
HETATM   22  C8  UNL     1      -0.093 -25.441  20.490  1.00  0.00     0.019 C 
ENDBRANCH   8  19
ENDBRANCH   1   7
BRANCH   5  23
HETATM   23  C20 UNL     1       3.031 -21.201  15.187  1.00  0.00     0.408 C 
HETATM   24  F1  UNL     1       3.693 -20.287  16.040  1.00  0.00    -0.169 F 
HETATM   25  F2  UNL     1       3.580 -20.864  13.951  1.00  0.00    -0.169 F 
HETATM   26  F3  UNL     1       1.751 -20.774  15.162  1.00  0.00    -0.169 F 
ENDBRANCH   5  23
BRANCH   4  27
HETATM   27  C12 UNL     1       3.392 -24.155  13.742  1.00  0.00     0.105 C 
HETATM   28  C13 UNL     1       4.169 -25.446  13.771  1.00  0.00     0.034 C 
BRANCH  27  29
HETATM   29  C14 UNL     1       2.538 -24.250  12.532  1.00  0.00     0.067 C 
HETATM   30  C15 UNL     1       2.960 -24.994  11.340  1.00  0.00     0.042 C 
HETATM   31  C16 UNL     1       1.189 -24.878  12.960  1.00  0.00     0.042 C 
BRANCH  29  32
HETATM   32  N5  UNL     1       2.163 -22.914  12.026  1.00  0.00    -0.276 N 
HETATM   33  C17 UNL     1       1.036 -22.221  12.241  1.00  0.00     0.202 A 
HETATM   34  N6  UNL     1       1.062 -21.048  11.615  1.00  0.00    -0.346 N 
HETATM   35  C18 UNL     1       2.243 -20.993  10.981  1.00  0.00     0.198 A 
ATOM     36  H6  UNL     1       0.332 -20.335  11.616  1.00  0.00     0.167 HD
HETATM   37  N7  UNL     1       2.900 -22.142  11.245  1.00  0.00    -0.292 N 
ATOM     38  H7  UNL     1       3.827 -22.380  10.895  1.00  0.00     0.188 HD
ENDBRANCH  29  32
ENDBRANCH  27  29
ENDBRANCH   4  27
TORSDOF 6
ENDMDL
MODEL 5
REMARK VINA RESULT: -6.964722714      1.842      2.452
REMARK  6 active torsions:
REMARK  status: ('A' for Active; 'I' for Inactive)
REMARK    1  A    between atoms: C4_9  and  C5_10 
REMARK    2  A    between atoms: C9_14  and  N3_15 
REMARK    3  A    between atoms: N4_18  and  C12_19 
REMARK    4  A    between atoms: C12_19  and  C14_21 
REMARK    5  A    between atoms: C14_21  and  N5_24 
REMARK    6  A    between atoms: C19_31  and  C20_32 
ROOT
HETATM    1  N3  UNL     1       1.912 -23.207  15.395  1.00  0.00    -0.363 N 
HETATM    2  C10 UNL     1       0.872 -23.795  14.599  1.00  0.00     0.143 C 
HETATM    3  C11 UNL     1       1.389 -24.471  13.365  1.00  0.00     0.138 C 
HETATM    4  N4  UNL     1       2.506 -23.915  12.707  1.00  0.00    -0.391 N 
HETATM    5  C19 UNL     1       3.130 -22.823  13.259  1.00  0.00     0.206 C 
HETATM    6  C21 UNL     1       3.172 -22.936  14.796  1.00  0.00     0.158 C 
ENDROOT
BRANCH   1   7
HETATM    7  C9  UNL     1       1.582 -22.819  16.734  1.00  0.00     0.115 A 
HETATM    8  C4  UNL     1       1.898 -23.556  17.813  1.00  0.00     0.037 A 
HETATM    9  C3  UNL     1       1.527 -22.977  19.063  1.00  0.00     0.111 A 
HETATM   10  N1  UNL     1       0.913 -21.807  19.163  1.00  0.00    -0.332 N 
HETATM   11  N2  UNL     1       1.837 -23.602  20.161  1.00  0.00    -0.385 N 
HETATM   12  C2  UNL     1       0.633 -21.139  18.031  1.00  0.00     0.080 A 
ATOM     13  H1  UNL     1       0.661 -21.424  20.074  1.00  0.00     0.168 HD
HETATM   14  C1  UNL     1      -0.061 -19.824  18.136  1.00  0.00     0.089 C 
HETATM   15  N8  UNL     1       0.945 -21.605  16.843  1.00  0.00    -0.332 N 
ATOM     16  H8  UNL     1       0.715 -21.069  16.006  1.00  0.00     0.168 HD
ATOM     17  H22 UNL     1       1.572 -23.188  21.054  1.00  0.00     0.157 HD
ATOM     18  H21 UNL     1       2.309 -24.503  20.084  1.00  0.00     0.157 HD
BRANCH   8  19
HETATM   19  C5  UNL     1       2.543 -24.859  17.935  1.00  0.00    -0.017 C 
HETATM   20  C6  UNL     1       3.979 -24.691  18.503  1.00  0.00     0.019 C 
HETATM   21  C7  UNL     1       2.537 -25.871  16.870  1.00  0.00     0.019 C 
HETATM   22  C8  UNL     1       1.778 -25.582  19.088  1.00  0.00     0.019 C 
ENDBRANCH   8  19
ENDBRANCH   1   7
BRANCH   5  23
HETATM   23  C20 UNL     1       2.776 -21.425  12.919  1.00  0.00     0.408 C 
HETATM   24  F1  UNL     1       3.369 -20.549  13.861  1.00  0.00    -0.169 F 
HETATM   25  F2  UNL     1       3.330 -20.956  11.729  1.00  0.00    -0.169 F 
HETATM   26  F3  UNL     1       1.475 -21.068  12.898  1.00  0.00    -0.169 F 
ENDBRANCH   5  23
BRANCH   4  27
HETATM   27  C12 UNL     1       2.690 -24.353  11.383  1.00  0.00     0.105 C 
HETATM   28  C13 UNL     1       3.407 -25.666  11.196  1.00  0.00     0.034 C 
BRANCH  27  29
HETATM   29  C14 UNL     1       1.559 -24.395  10.424  1.00  0.00     0.067 C 
HETATM   30  C15 UNL     1       0.758 -25.607  10.220  1.00  0.00     0.042 C 
HETATM   31  C16 UNL     1       0.553 -23.295  10.838  1.00  0.00     0.042 C 
BRANCH  29  32
HETATM   32  N5  UNL     1       1.984 -23.995   9.066  1.00  0.00    -0.276 N 
HETATM   33  C17 UNL     1       2.221 -22.765   8.589  1.00  0.00     0.202 A 
HETATM   34  N6  UNL     1       2.588 -22.804   7.312  1.00  0.00    -0.346 N 
HETATM   35  C18 UNL     1       2.584 -24.099   6.964  1.00  0.00     0.198 A 
ATOM     36  H6  UNL     1       2.825 -22.009   6.716  1.00  0.00     0.167 HD
HETATM   37  N7  UNL     1       2.212 -24.810   8.050  1.00  0.00    -0.292 N 
ATOM     38  H7  UNL     1       2.121 -25.825   8.082  1.00  0.00     0.188 HD
ENDBRANCH  29  32
ENDBRANCH  27  29
ENDBRANCH   4  27
TORSDOF 6
ENDMDL
