MODEL 1
REMARK VINA RESULT: -10.702871335      0.000      0.000
REMARK  5 active torsions:
REMARK  status: ('A' for Active; 'I' for Inactive)
REMARK    1  A    between atoms: C2_2  and  N2_6 
REMARK    2  A    between atoms: N3_9  and  C7_10 
REMARK    3  A    between atoms: N4_13  and  C10_14 
REMARK    4  A    between atoms: C10_14  and  C11_15 
REMARK    5  A    between atoms: C16_28  and  C17_29 
ROOT
HETATM    1  C1  UNL     1      -2.433 -13.547  10.396  1.00  0.00     0.054 C 
HETATM    2  C2  UNL     1      -3.115 -14.856  10.693  1.00  0.00     0.110 C 
HETATM    3  C3  UNL     1      -4.462 -14.752   9.896  1.00  0.00     0.054 C 
HETATM    4  C4  UNL     1      -2.394 -15.976  10.139  1.00  0.00     0.090 C 
HETATM    5  N1  UNL     1      -1.826 -16.901   9.694  1.00  0.00    -0.195 NA
ENDROOT
BRANCH   2   6
HETATM    6  N2  UNL     1      -3.403 -14.993  12.065  1.00  0.00    -0.389 N 
HETATM    7  C5  UNL     1      -4.435 -15.850  12.497  1.00  0.00     0.149 C 
HETATM    8  C6  UNL     1      -4.318 -15.986  14.026  1.00  0.00     0.292 C 
HETATM    9  N3  UNL     1      -3.039 -16.543  14.331  1.00  0.00     0.101 N 
HETATM   10  C19 UNL     1      -1.905 -15.943  13.622  1.00  0.00     0.292 C 
HETATM   11  C20 UNL     1      -2.382 -14.659  12.992  1.00  0.00     0.149 C 
BRANCH   9  12
HETATM   12  C7  UNL     1      -2.685 -16.434  15.717  1.00  0.00     0.262 C 
HETATM   13  C8  UNL     1      -3.866 -15.905  16.548  1.00  0.00     0.061 C 
HETATM   14  C9  UNL     1      -3.200 -16.122  17.927  1.00  0.00     0.125 C 
HETATM   15  N4  UNL     1      -2.449 -17.297  17.783  1.00  0.00    -0.386 N 
HETATM   16  C18 UNL     1      -2.373 -17.709  16.450  1.00  0.00     0.094 C 
BRANCH  15  17
HETATM   17  C10 UNL     1      -1.269 -17.416  18.561  1.00  0.00     0.169 C 
BRANCH  17  18
HETATM   18  C11 UNL     1      -1.627 -18.200  19.800  1.00  0.00     0.018 A 
HETATM   19  S1  UNL     1      -2.771 -17.785  20.967  1.00  0.00    -0.073 SA
HETATM   20  C12 UNL     1      -2.547 -19.035  22.062  1.00  0.00     0.090 A 
HETATM   21  N5  UNL     1      -3.184 -19.360  23.220  1.00  0.00    -0.346 N 
HETATM   22  C15 UNL     1      -1.543 -19.797  21.495  1.00  0.00     0.058 A 
HETATM   23  C13 UNL     1      -2.886 -20.478  23.923  1.00  0.00     0.182 A 
ATOM     24  H5  UNL     1      -3.912 -18.738  23.571  1.00  0.00     0.167 HD
HETATM   25  N6  UNL     1      -1.920 -21.224  23.374  1.00  0.00    -0.338 N 
HETATM   26  C14 UNL     1      -1.266 -20.962  22.257  1.00  0.00     0.113 A 
ATOM     27  H6  UNL     1      -1.663 -22.080  23.867  1.00  0.00     0.168 HD
HETATM   28  N7  UNL     1      -0.423 -21.857  21.849  1.00  0.00    -0.385 N 
ATOM     29  H72 UNL     1      -0.224 -22.694  22.397  1.00  0.00     0.157 HD
ATOM     30  H71 UNL     1       0.083 -21.654  20.986  1.00  0.00     0.157 HD
HETATM   31  C16 UNL     1      -1.040 -19.374  20.305  1.00  0.00     0.079 A 
BRANCH  31  32
HETATM   32  C17 UNL     1      -0.001 -20.005  19.414  1.00  0.00     0.419 C 
HETATM   33  F1  UNL     1      -0.435 -21.311  19.091  1.00  0.00    -0.166 F 
HETATM   34  F2  UNL     1      -0.067 -19.404  18.132  1.00  0.00    -0.166 F 
HETATM   35  F3  UNL     1       1.290 -19.910  19.709  1.00  0.00    -0.166 F 
ENDBRANCH  31  32
ENDBRANCH  17  18
ENDBRANCH  15  17
ENDBRANCH   9  12
ENDBRANCH   2   6
TORSDOF 5
ENDMDL
MODEL 2
REMARK VINA RESULT: -10.530558873      2.058      2.580
REMARK  5 active torsions:
REMARK  status: ('A' for Active; 'I' for Inactive)
REMARK    1  A    between atoms: C2_2  and  N2_6 
REMARK    2  A    between atoms: N3_9  and  C7_10 
REMARK    3  A    between atoms: N4_13  and  C10_14 
REMARK    4  A    between atoms: C10_14  and  C11_15 
REMARK    5  A    between atoms: C16_28  and  C17_29 
ROOT
HETATM    1  C1  UNL     1      -0.525 -14.248  11.467  1.00  0.00     0.054 C 
HETATM    2  C2  UNL     1      -1.937 -14.750  11.324  1.00  0.00     0.110 C 
HETATM    3  C3  UNL     1      -2.658 -13.588  10.555  1.00  0.00     0.054 C 
HETATM    4  C4  UNL     1      -2.011 -15.914  10.474  1.00  0.00     0.090 C 
HETATM    5  N1  UNL     1      -2.096 -16.858   9.784  1.00  0.00    -0.195 NA
ENDROOT
BRANCH   2   6
HETATM    6  N2  UNL     1      -2.557 -14.925  12.577  1.00  0.00    -0.389 N 
HETATM    7  C5  UNL     1      -3.682 -15.764  12.708  1.00  0.00     0.149 C 
HETATM    8  C6  UNL     1      -3.947 -15.956  14.211  1.00  0.00     0.292 C 
HETATM    9  N3  UNL     1      -2.795 -16.563  14.797  1.00  0.00     0.101 N 
HETATM   10  C19 UNL     1      -1.509 -15.974  14.413  1.00  0.00     0.292 C 
HETATM   11  C20 UNL     1      -1.789 -14.655  13.738  1.00  0.00     0.149 C 
BRANCH   9  12
HETATM   12  C7  UNL     1      -2.790 -16.512  16.231  1.00  0.00     0.262 C 
HETATM   13  C8  UNL     1      -4.211 -16.690  16.794  1.00  0.00     0.061 C 
HETATM   14  C9  UNL     1      -3.783 -16.789  18.277  1.00  0.00     0.125 C 
HETATM   15  N4  UNL     1      -2.560 -17.474  18.254  1.00  0.00    -0.386 N 
HETATM   16  C18 UNL     1      -2.061 -17.609  16.956  1.00  0.00     0.094 C 
BRANCH  15  17
HETATM   17  C10 UNL     1      -1.623 -17.169  19.275  1.00  0.00     0.169 C 
BRANCH  17  18
HETATM   18  C11 UNL     1      -1.477 -18.404  20.130  1.00  0.00     0.018 A 
HETATM   19  S1  UNL     1      -0.374 -19.662  19.916  1.00  0.00    -0.073 SA
HETATM   20  C12 UNL     1      -0.860 -20.697  21.143  1.00  0.00     0.090 A 
HETATM   21  N5  UNL     1      -0.365 -21.885  21.584  1.00  0.00    -0.346 N 
HETATM   22  C15 UNL     1      -1.920 -20.035  21.735  1.00  0.00     0.058 A 
HETATM   23  C13 UNL     1      -0.875 -22.528  22.661  1.00  0.00     0.182 A 
ATOM     24  H5  UNL     1       0.418 -22.307  21.085  1.00  0.00     0.167 HD
HETATM   25  N6  UNL     1      -1.896 -21.889  23.243  1.00  0.00    -0.338 N 
HETATM   26  C14 UNL     1      -2.419 -20.737  22.862  1.00  0.00     0.113 A 
ATOM     27  H6  UNL     1      -2.311 -22.334  24.062  1.00  0.00     0.168 HD
HETATM   28  N7  UNL     1      -3.352 -20.242  23.613  1.00  0.00    -0.385 N 
ATOM     29  H72 UNL     1      -3.711 -20.747  24.423  1.00  0.00     0.157 HD
ATOM     30  H71 UNL     1      -3.756 -19.353  23.318  1.00  0.00     0.157 HD
HETATM   31  C16 UNL     1      -2.264 -18.827  21.216  1.00  0.00     0.079 A 
BRANCH  31  32
HETATM   32  C17 UNL     1      -3.315 -17.846  21.666  1.00  0.00     0.419 C 
HETATM   33  F1  UNL     1      -4.551 -18.235  21.100  1.00  0.00    -0.166 F 
HETATM   34  F2  UNL     1      -3.596 -18.068  23.038  1.00  0.00    -0.166 F 
HETATM   35  F3  UNL     1      -3.080 -16.539  21.631  1.00  0.00    -0.166 F 
ENDBRANCH  31  32
ENDBRANCH  17  18
ENDBRANCH  15  17
ENDBRANCH   9  12
ENDBRANCH   2   6
TORSDOF 5
ENDMDL
MODEL 3
REMARK VINA RESULT: -10.143800655      0.814      1.448
REMARK  5 active torsions:
REMARK  status: ('A' for Active; 'I' for Inactive)
REMARK    1  A    between atoms: C2_2  and  N2_6 
REMARK    2  A    between atoms: N3_9  and  C7_10 
REMARK    3  A    between atoms: N4_13  and  C10_14 
REMARK    4  A    between atoms: C10_14  and  C11_15 
REMARK    5  A    between atoms: C16_28  and  C17_29 
ROOT
HETATM    1  C1  UNL     1      -3.230 -15.939  10.010  1.00  0.00     0.054 C 
HETATM    2  C2  UNL     1      -2.737 -14.794  10.854  1.00  0.00     0.110 C 
HETATM    3  C3  UNL     1      -1.176 -14.939  10.784  1.00  0.00     0.054 C 
HETATM    4  C4  UNL     1      -3.058 -13.516  10.267  1.00  0.00     0.090 C 
HETATM    5  N1  UNL     1      -3.306 -12.466   9.807  1.00  0.00    -0.195 NA
ENDROOT
BRANCH   2   6
HETATM    6  N2  UNL     1      -3.150 -14.920  12.195  1.00  0.00    -0.389 N 
HETATM    7  C5  UNL     1      -4.271 -15.706  12.527  1.00  0.00     0.149 C 
HETATM    8  C6  UNL     1      -4.294 -15.860  14.058  1.00  0.00     0.292 C 
HETATM    9  N3  UNL     1      -3.088 -16.507  14.463  1.00  0.00     0.101 N 
HETATM   10  C19 UNL     1      -1.858 -15.983  13.860  1.00  0.00     0.292 C 
HETATM   11  C20 UNL     1      -2.191 -14.664  13.209  1.00  0.00     0.149 C 
BRANCH   9  12
HETATM   12  C7  UNL     1      -2.846 -16.432  15.875  1.00  0.00     0.262 C 
HETATM   13  C8  UNL     1      -4.164 -16.278  16.653  1.00  0.00     0.061 C 
HETATM   14  C9  UNL     1      -3.541 -16.442  18.059  1.00  0.00     0.125 C 
HETATM   15  N4  UNL     1      -2.515 -17.383  17.890  1.00  0.00    -0.386 N 
HETATM   16  C18 UNL     1      -2.268 -17.651  16.540  1.00  0.00     0.094 C 
BRANCH  15  17
HETATM   17  C10 UNL     1      -1.385 -17.277  18.741  1.00  0.00     0.169 C 
BRANCH  17  18
HETATM   18  C11 UNL     1      -1.599 -18.233  19.889  1.00  0.00     0.018 A 
HETATM   19  S1  UNL     1      -2.607 -18.008  21.223  1.00  0.00    -0.073 SA
HETATM   20  C12 UNL     1      -2.257 -19.394  22.099  1.00  0.00     0.090 A 
HETATM   21  N5  UNL     1      -2.758 -19.889  23.262  1.00  0.00    -0.346 N 
HETATM   22  C15 UNL     1      -1.320 -20.049  21.322  1.00  0.00     0.058 A 
HETATM   23  C13 UNL     1      -2.379 -21.088  23.763  1.00  0.00     0.182 A 
ATOM     24  H5  UNL     1      -3.445 -19.336  23.776  1.00  0.00     0.167 HD
HETATM   25  N6  UNL     1      -1.479 -21.732  23.012  1.00  0.00    -0.338 N 
HETATM   26  C14 UNL     1      -0.955 -21.303  21.877  1.00  0.00     0.113 A 
ATOM     27  H6  UNL     1      -1.165 -22.643  23.348  1.00  0.00     0.168 HD
HETATM   28  N7  UNL     1      -0.160 -22.116  21.256  1.00  0.00    -0.385 N 
ATOM     29  H72 UNL     1       0.102 -23.017  21.656  1.00  0.00     0.157 HD
ATOM     30  H71 UNL     1       0.245 -21.785  20.380  1.00  0.00     0.157 HD
HETATM   31  C16 UNL     1      -0.956 -19.455  20.155  1.00  0.00     0.079 A 
BRANCH  31  32
HETATM   32  C17 UNL     1      -0.021 -19.935  19.076  1.00  0.00     0.419 C 
HETATM   33  F1  UNL     1       1.265 -20.085  19.643  1.00  0.00    -0.166 F 
HETATM   34  F2  UNL     1      -0.315 -21.290  18.780  1.00  0.00    -0.166 F 
HETATM   35  F3  UNL     1      -0.031 -19.372  17.873  1.00  0.00    -0.166 F 
ENDBRANCH  31  32
ENDBRANCH  17  18
ENDBRANCH  15  17
ENDBRANCH   9  12
ENDBRANCH   2   6
TORSDOF 5
ENDMDL
MODEL 4
REMARK VINA RESULT: -10.105695789      2.112      2.779
REMARK  5 active torsions:
REMARK  status: ('A' for Active; 'I' for Inactive)
REMARK    1  A    between atoms: C2_2  and  N2_6 
REMARK    2  A    between atoms: N3_9  and  C7_10 
REMARK    3  A    between atoms: N4_13  and  C10_14 
REMARK    4  A    between atoms: C10_14  and  C11_15 
REMARK    5  A    between atoms: C16_28  and  C17_29 
ROOT
HETATM    1  C1  UNL     1      -2.334 -16.064  10.459  1.00  0.00     0.054 C 
HETATM    2  C2  UNL     1      -2.275 -14.798  11.272  1.00  0.00     0.110 C 
HETATM    3  C3  UNL     1      -0.735 -14.533  11.418  1.00  0.00     0.054 C 
HETATM    4  C4  UNL     1      -2.820 -13.671  10.554  1.00  0.00     0.090 C 
HETATM    5  N1  UNL     1      -3.255 -12.741   9.988  1.00  0.00    -0.195 NA
ENDROOT
BRANCH   2   6
HETATM    6  N2  UNL     1      -2.834 -14.976  12.552  1.00  0.00    -0.389 N 
HETATM    7  C5  UNL     1      -3.937 -15.833  12.739  1.00  0.00     0.149 C 
HETATM    8  C6  UNL     1      -4.130 -16.020  14.254  1.00  0.00     0.292 C 
HETATM    9  N3  UNL     1      -2.943 -16.603  14.790  1.00  0.00     0.101 N 
HETATM   10  C19 UNL     1      -1.685 -15.994  14.345  1.00  0.00     0.292 C 
HETATM   11  C20 UNL     1      -2.019 -14.684  13.676  1.00  0.00     0.149 C 
BRANCH   9  12
HETATM   12  C7  UNL     1      -2.874 -16.543  16.222  1.00  0.00     0.262 C 
HETATM   13  C8  UNL     1      -4.271 -16.688  16.848  1.00  0.00     0.061 C 
HETATM   14  C9  UNL     1      -3.781 -16.786  18.312  1.00  0.00     0.125 C 
HETATM   15  N4  UNL     1      -2.574 -17.495  18.241  1.00  0.00    -0.386 N 
HETATM   16  C18 UNL     1      -2.135 -17.649  16.923  1.00  0.00     0.094 C 
BRANCH  15  17
HETATM   17  C10 UNL     1      -1.587 -17.203  19.217  1.00  0.00     0.169 C 
BRANCH  17  18
HETATM   18  C11 UNL     1      -1.447 -18.425  20.092  1.00  0.00     0.018 A 
HETATM   19  S1  UNL     1      -0.357 -19.696  19.891  1.00  0.00    -0.073 SA
HETATM   20  C12 UNL     1      -0.845 -20.706  21.137  1.00  0.00     0.090 A 
HETATM   21  N5  UNL     1      -0.358 -21.892  21.594  1.00  0.00    -0.346 N 
HETATM   22  C15 UNL     1      -1.896 -20.027  21.724  1.00  0.00     0.058 A 
HETATM   23  C13 UNL     1      -0.868 -22.513  22.684  1.00  0.00     0.182 A 
ATOM     24  H5  UNL     1       0.419 -22.329  21.098  1.00  0.00     0.167 HD
HETATM   25  N6  UNL     1      -1.880 -21.856  23.261  1.00  0.00    -0.338 N 
HETATM   26  C14 UNL     1      -2.396 -20.706  22.865  1.00  0.00     0.113 A 
ATOM     27  H6  UNL     1      -2.295 -22.284  24.089  1.00  0.00     0.168 HD
HETATM   28  N7  UNL     1      -3.320 -20.191  23.612  1.00  0.00    -0.385 N 
ATOM     29  H72 UNL     1      -3.679 -20.680  24.432  1.00  0.00     0.157 HD
ATOM     30  H71 UNL     1      -3.718 -19.303  23.306  1.00  0.00     0.157 HD
HETATM   31  C16 UNL     1      -2.233 -18.824  21.188  1.00  0.00     0.079 A 
BRANCH  31  32
HETATM   32  C17 UNL     1      -3.273 -17.826  21.627  1.00  0.00     0.419 C 
HETATM   33  F1  UNL     1      -4.510 -18.202  21.057  1.00  0.00    -0.166 F 
HETATM   34  F2  UNL     1      -3.564 -18.037  22.998  1.00  0.00    -0.166 F 
HETATM   35  F3  UNL     1      -3.020 -16.523  21.586  1.00  0.00    -0.166 F 
ENDBRANCH  31  32
ENDBRANCH  17  18
ENDBRANCH  15  17
ENDBRANCH   9  12
ENDBRANCH   2   6
TORSDOF 5
ENDMDL
MODEL 5
REMARK VINA RESULT: -9.931166649      2.372      3.396
REMARK  5 active torsions:
REMARK  status: ('A' for Active; 'I' for Inactive)
REMARK    1  A    between atoms: C2_2  and  N2_6 
REMARK    2  A    between atoms: N3_9  and  C7_10 
REMARK    3  A    between atoms: N4_13  and  C10_14 
REMARK    4  A    between atoms: C10_14  and  C11_15 
REMARK    5  A    between atoms: C16_28  and  C17_29 
ROOT
HETATM    1  C1  UNL     1      -1.543 -16.521  11.617  1.00  0.00     0.054 C 
HETATM    2  C2  UNL     1      -2.375 -15.714  12.578  1.00  0.00     0.110 C 
HETATM    3  C3  UNL     1      -2.005 -14.232  12.221  1.00  0.00     0.054 C 
HETATM    4  C4  UNL     1      -3.787 -15.859  12.319  1.00  0.00     0.090 C 
HETATM    5  N1  UNL     1      -4.940 -15.959  12.125  1.00  0.00    -0.195 NA
ENDROOT
BRANCH   2   6
HETATM    6  N2  UNL     1      -2.017 -15.967  13.916  1.00  0.00    -0.389 N 
HETATM    7  C5  UNL     1      -1.151 -15.093  14.603  1.00  0.00     0.149 C 
HETATM    8  C6  UNL     1      -1.177 -15.486  16.091  1.00  0.00     0.292 C 
HETATM    9  N3  UNL     1      -2.515 -15.348  16.569  1.00  0.00     0.101 N 
HETATM   10  C19 UNL     1      -3.554 -15.918  15.707  1.00  0.00     0.292 C 
HETATM   11  C20 UNL     1      -2.875 -16.795  14.685  1.00  0.00     0.149 C 
BRANCH   9  12
HETATM   12  C7  UNL     1      -2.733 -15.972  17.842  1.00  0.00     0.262 C 
HETATM   13  C8  UNL     1      -4.130 -16.613  17.910  1.00  0.00     0.061 C 
HETATM   14  C9  UNL     1      -3.913 -17.324  19.267  1.00  0.00     0.125 C 
HETATM   15  N4  UNL     1      -2.568 -17.717  19.257  1.00  0.00    -0.386 N 
HETATM   16  C18 UNL     1      -1.865 -17.150  18.189  1.00  0.00     0.094 C 
BRANCH  15  17
HETATM   17  C10 UNL     1      -1.897 -17.781  20.505  1.00  0.00     0.169 C 
BRANCH  17  18
HETATM   18  C11 UNL     1      -1.310 -19.166  20.628  1.00  0.00     0.018 A 
HETATM   19  S1  UNL     1      -0.240 -19.912  19.559  1.00  0.00    -0.073 SA
HETATM   20  C12 UNL     1      -0.118 -21.426  20.268  1.00  0.00     0.090 A 
HETATM   21  N5  UNL     1       0.630 -22.520  19.960  1.00  0.00    -0.346 N 
HETATM   22  C15 UNL     1      -0.944 -21.343  21.373  1.00  0.00     0.058 A 
HETATM   23  C13 UNL     1       0.631 -23.636  20.726  1.00  0.00     0.182 A 
ATOM     24  H5  UNL     1       1.210 -22.499  19.121  1.00  0.00     0.167 HD
HETATM   25  N6  UNL     1      -0.159 -23.559  21.803  1.00  0.00    -0.338 N 
HETATM   26  C14 UNL     1      -0.907 -22.528  22.152  1.00  0.00     0.113 A 
ATOM     27  H6  UNL     1      -0.188 -24.376  22.413  1.00  0.00     0.168 HD
HETATM   28  N7  UNL     1      -1.539 -22.620  23.280  1.00  0.00    -0.385 N 
ATOM     29  H72 UNL     1      -1.512 -23.472  23.840  1.00  0.00     0.157 HD
ATOM     30  H71 UNL     1      -2.117 -21.824  23.551  1.00  0.00     0.157 HD
HETATM   31  C16 UNL     1      -1.585 -20.162  21.581  1.00  0.00     0.079 A 
BRANCH  31  32
HETATM   32  C17 UNL     1      -2.490 -19.738  22.708  1.00  0.00     0.419 C 
HETATM   33  F1  UNL     1      -1.720 -19.686  23.893  1.00  0.00    -0.166 F 
HETATM   34  F2  UNL     1      -2.798 -18.363  22.560  1.00  0.00    -0.166 F 
HETATM   35  F3  UNL     1      -3.690 -20.286  22.855  1.00  0.00    -0.166 F 
ENDBRANCH  31  32
ENDBRANCH  17  18
ENDBRANCH  15  17
ENDBRANCH   9  12
ENDBRANCH   2   6
TORSDOF 5
ENDMDL
