MODEL 1
REMARK VINA RESULT: -7.474750873      0.000      0.000
REMARK  5 active torsions:
REMARK  status: ('A' for Active; 'I' for Inactive)
REMARK    1  A    between atoms: C2_2  and  O1_3 
REMARK    2  A    between atoms: C2_2  and  C3_5 
REMARK    3  A    between atoms: N1_6  and  C4_8 
REMARK    4  A    between atoms: C7_13  and  C8_14 
REMARK    5  A    between atoms: C8_14  and  O2_15 
ROOT
HETATM    1  C4  UNL     1      13.664  24.780  -9.843  1.00  0.00     0.035 A 
HETATM    2  C5  UNL     1      13.266  26.072 -10.118  1.00  0.00     0.046 A 
HETATM    3  C6  UNL     1      12.225  26.360 -10.959  1.00  0.00     0.090 A 
HETATM    4  N2  UNL     1      11.536  25.369 -11.566  1.00  0.00    -0.367 N 
ATOM      5  H2  UNL     1      10.765  25.601 -12.191  1.00  0.00     0.165 HD
HETATM    6  C7  UNL     1      11.858  24.073 -11.356  1.00  0.00     0.046 A 
HETATM    7  C18 UNL     1      12.894  23.797 -10.515  1.00  0.00     0.057 A 
ENDROOT
BRANCH   6   8
HETATM    8  C8  UNL     1      11.096  22.966 -12.013  1.00  0.00     0.100 C 
HETATM    9  C9  UNL     1      11.293  21.660 -11.320  1.00  0.00     0.044 C 
HETATM   10  C10 UNL     1      12.491  20.877 -11.735  1.00  0.00     0.003 C 
HETATM   11  C11 UNL     1      12.136  19.432 -11.826  1.00  0.00     0.000 C 
HETATM   12  C12 UNL     1      12.080  18.922 -13.273  1.00  0.00     0.000 C 
HETATM   13  C13 UNL     1      10.676  18.759 -13.734  1.00  0.00     0.000 C 
HETATM   14  C14 UNL     1      10.128  19.700 -14.702  1.00  0.00     0.000 C 
HETATM   15  C15 UNL     1      10.801  20.985 -14.982  1.00  0.00     0.000 C 
HETATM   16  C16 UNL     1      10.221  22.132 -14.151  1.00  0.00     0.003 C 
HETATM   17  C17 UNL     1      11.330  22.947 -13.490  1.00  0.00     0.044 C 
BRANCH   8  18
HETATM   18  O2  UNL     1       9.722  23.297 -11.859  1.00  0.00    -0.384 OA
ATOM     19  H2  UNL     1       9.676  23.856 -11.092  1.00  0.00     0.211 HD
ENDBRANCH   8  18
ENDBRANCH   6   8
BRANCH   1  20
HETATM   20  N1  UNL     1      14.570  24.421  -9.096  1.00  0.00    -0.367 N 
HETATM   21  C3  UNL     1      15.861  24.495  -8.745  1.00  0.00     0.092 C 
ATOM     22  H1  UNL     1      14.144  23.765  -8.441  1.00  0.00     0.165 HD
BRANCH  21  23
HETATM   23  C2  UNL     1      16.763  25.572  -9.328  1.00  0.00     0.152 C 
HETATM   24  C1  UNL     1      18.220  25.236  -8.913  1.00  0.00     0.045 C 
BRANCH  23  25
HETATM   25  O1  UNL     1      16.536  26.826  -8.781  1.00  0.00    -0.391 OA
ATOM     26  H1  UNL     1      15.672  26.756  -8.391  1.00  0.00     0.210 HD
ENDBRANCH  23  25
ENDBRANCH  21  23
ENDBRANCH   1  20
TORSDOF 5
ENDMDL
MODEL 2
REMARK VINA RESULT: -7.310383090      1.966      3.342
REMARK  5 active torsions:
REMARK  status: ('A' for Active; 'I' for Inactive)
REMARK    1  A    between atoms: C2_2  and  O1_3 
REMARK    2  A    between atoms: C2_2  and  C3_5 
REMARK    3  A    between atoms: N1_6  and  C4_8 
REMARK    4  A    between atoms: C7_13  and  C8_14 
REMARK    5  A    between atoms: C8_14  and  O2_15 
ROOT
HETATM    1  C4  UNL     1      11.338  23.842  -9.670  1.00  0.00     0.035 A 
HETATM    2  C5  UNL     1      10.443  23.228  -8.819  1.00  0.00     0.046 A 
HETATM    3  C6  UNL     1       9.929  21.982  -9.063  1.00  0.00     0.090 A 
HETATM    4  N2  UNL     1      10.285  21.296 -10.170  1.00  0.00    -0.367 N 
ATOM      5  H2  UNL     1       9.891  20.370 -10.337  1.00  0.00     0.165 HD
HETATM    6  C7  UNL     1      11.156  21.821 -11.060  1.00  0.00     0.046 A 
HETATM    7  C18 UNL     1      11.663  23.060 -10.807  1.00  0.00     0.057 A 
ENDROOT
BRANCH   6   8
HETATM    8  C8  UNL     1      11.567  21.066 -12.285  1.00  0.00     0.100 C 
HETATM    9  C9  UNL     1      11.360  21.862 -13.529  1.00  0.00     0.044 C 
HETATM   10  C10 UNL     1       9.997  21.789 -14.128  1.00  0.00     0.003 C 
HETATM   11  C11 UNL     1      10.108  21.701 -15.612  1.00  0.00     0.000 C 
HETATM   12  C12 UNL     1       9.735  20.315 -16.155  1.00  0.00     0.000 C 
HETATM   13  C13 UNL     1      10.944  19.542 -16.542  1.00  0.00     0.000 C 
HETATM   14  C14 UNL     1      11.369  18.418 -15.718  1.00  0.00     0.000 C 
HETATM   15  C15 UNL     1      10.840  18.233 -14.351  1.00  0.00     0.000 C 
HETATM   16  C16 UNL     1      11.764  18.834 -13.288  1.00  0.00     0.003 C 
HETATM   17  C17 UNL     1      10.979  19.691 -12.299  1.00  0.00     0.044 C 
BRANCH   8  18
HETATM   18  O2  UNL     1      12.970  20.869 -12.165  1.00  0.00    -0.384 OA
ATOM     19  H2  UNL     1      13.087  20.303 -11.410  1.00  0.00     0.211 HD
ENDBRANCH   8  18
ENDBRANCH   6   8
BRANCH   1  20
HETATM   20  N1  UNL     1      11.864  24.943  -9.532  1.00  0.00    -0.367 N 
HETATM   21  C3  UNL     1      12.982  25.677  -9.458  1.00  0.00     0.092 C 
ATOM     22  H1  UNL     1      11.094  25.604  -9.425  1.00  0.00     0.165 HD
BRANCH  21  23
HETATM   23  C2  UNL     1      14.328  25.078  -9.834  1.00  0.00     0.152 C 
HETATM   24  C1  UNL     1      14.700  24.042  -8.739  1.00  0.00     0.045 C 
BRANCH  23  25
HETATM   25  O1  UNL     1      15.364  25.999  -9.793  1.00  0.00    -0.391 OA
ATOM     26  H1  UNL     1      15.591  26.134 -10.705  1.00  0.00     0.210 HD
ENDBRANCH  23  25
ENDBRANCH  21  23
ENDBRANCH   1  20
TORSDOF 5
ENDMDL
MODEL 3
REMARK VINA RESULT: -7.283560661      3.128      4.422
REMARK  5 active torsions:
REMARK  status: ('A' for Active; 'I' for Inactive)
REMARK    1  A    between atoms: C2_2  and  O1_3 
REMARK    2  A    between atoms: C2_2  and  C3_5 
REMARK    3  A    between atoms: N1_6  and  C4_8 
REMARK    4  A    between atoms: C7_13  and  C8_14 
REMARK    5  A    between atoms: C8_14  and  O2_15 
ROOT
HETATM    1  C4  UNL     1      12.521  27.157 -13.778  1.00  0.00     0.035 A 
HETATM    2  C5  UNL     1      12.092  27.693 -12.582  1.00  0.00     0.046 A 
HETATM    3  C6  UNL     1      11.881  26.929 -11.465  1.00  0.00     0.090 A 
HETATM    4  N2  UNL     1      12.085  25.594 -11.496  1.00  0.00    -0.367 N 
ATOM      5  H2  UNL     1      11.921  25.041 -10.655  1.00  0.00     0.165 HD
HETATM    6  C7  UNL     1      12.505  24.983 -12.626  1.00  0.00     0.046 A 
HETATM    7  C18 UNL     1      12.714  25.753 -13.731  1.00  0.00     0.057 A 
ENDROOT
BRANCH   6   8
HETATM    8  C8  UNL     1      12.746  23.508 -12.669  1.00  0.00     0.100 C 
HETATM    9  C9  UNL     1      12.392  22.920 -13.993  1.00  0.00     0.044 C 
HETATM   10  C10 UNL     1      10.963  22.537 -14.173  1.00  0.00     0.003 C 
HETATM   11  C11 UNL     1      10.882  21.238 -14.900  1.00  0.00     0.000 C 
HETATM   12  C12 UNL     1      10.425  20.081 -14.000  1.00  0.00     0.000 C 
HETATM   13  C13 UNL     1      11.566  19.204 -13.626  1.00  0.00     0.000 C 
HETATM   14  C14 UNL     1      12.079  19.239 -12.263  1.00  0.00     0.000 C 
HETATM   15  C15 UNL     1      11.726  20.341 -11.344  1.00  0.00     0.000 C 
HETATM   16  C16 UNL     1      12.786  21.446 -11.336  1.00  0.00     0.003 C 
HETATM   17  C17 UNL     1      12.145  22.823 -11.484  1.00  0.00     0.044 C 
BRANCH   8  18
HETATM   18  O2  UNL     1      14.151  23.341 -12.521  1.00  0.00    -0.384 OA
ATOM     19  H2  UNL     1      14.549  23.941 -13.141  1.00  0.00     0.211 HD
ENDBRANCH   8  18
ENDBRANCH   6   8
BRANCH   1  20
HETATM   20  N1  UNL     1      12.752  27.757 -14.825  1.00  0.00    -0.367 N 
HETATM   21  C3  UNL     1      13.593  28.500 -15.557  1.00  0.00     0.092 C 
ATOM     22  H1  UNL     1      11.921  27.631 -15.403  1.00  0.00     0.165 HD
BRANCH  21  23
HETATM   23  C2  UNL     1      15.042  28.677 -15.132  1.00  0.00     0.152 C 
HETATM   24  C1  UNL     1      15.884  28.882 -16.420  1.00  0.00     0.045 C 
BRANCH  23  25
HETATM   25  O1  UNL     1      15.581  27.538 -14.553  1.00  0.00    -0.391 OA
ATOM     26  H1  UNL     1      15.349  26.840 -15.154  1.00  0.00     0.210 HD
ENDBRANCH  23  25
ENDBRANCH  21  23
ENDBRANCH   1  20
TORSDOF 5
ENDMDL
MODEL 4
REMARK VINA RESULT: -7.210214602      4.649      6.519
REMARK  5 active torsions:
REMARK  status: ('A' for Active; 'I' for Inactive)
REMARK    1  A    between atoms: C2_2  and  O1_3 
REMARK    2  A    between atoms: C2_2  and  C3_5 
REMARK    3  A    between atoms: N1_6  and  C4_8 
REMARK    4  A    between atoms: C7_13  and  C8_14 
REMARK    5  A    between atoms: C8_14  and  O2_15 
ROOT
HETATM    1  C4  UNL     1      12.012  26.938 -10.816  1.00  0.00     0.035 A 
HETATM    2  C5  UNL     1      11.502  28.171 -10.463  1.00  0.00     0.046 A 
HETATM    3  C6  UNL     1      11.320  29.180 -11.371  1.00  0.00     0.090 A 
HETATM    4  N2  UNL     1      11.643  29.003 -12.670  1.00  0.00    -0.367 N 
ATOM      5  H2  UNL     1      11.503  29.767 -13.332  1.00  0.00     0.165 HD
HETATM    6  C7  UNL     1      12.150  27.828 -13.105  1.00  0.00     0.046 A 
HETATM    7  C18 UNL     1      12.326  26.830 -12.194  1.00  0.00     0.057 A 
ENDROOT
BRANCH   6   8
HETATM    8  C8  UNL     1      12.502  27.617 -14.543  1.00  0.00     0.100 C 
HETATM    9  C9  UNL     1      13.973  27.476 -14.746  1.00  0.00     0.044 C 
HETATM   10  C10 UNL     1      14.731  28.749 -14.907  1.00  0.00     0.003 C 
HETATM   11  C11 UNL     1      15.761  28.586 -15.973  1.00  0.00     0.000 C 
HETATM   12  C12 UNL     1      15.420  29.361 -17.253  1.00  0.00     0.000 C 
HETATM   13  C13 UNL     1      14.925  28.451 -18.319  1.00  0.00     0.000 C 
HETATM   14  C14 UNL     1      13.513  28.469 -18.676  1.00  0.00     0.000 C 
HETATM   15  C15 UNL     1      12.513  29.110 -17.797  1.00  0.00     0.000 C 
HETATM   16  C16 UNL     1      11.843  28.105 -16.858  1.00  0.00     0.003 C 
HETATM   17  C17 UNL     1      11.828  28.622 -15.421  1.00  0.00     0.044 C 
BRANCH   8  18
HETATM   18  O2  UNL     1      11.927  26.366 -14.901  1.00  0.00    -0.384 OA
ATOM     19  H2  UNL     1      10.993  26.462 -14.763  1.00  0.00     0.211 HD
ENDBRANCH   8  18
ENDBRANCH   6   8
BRANCH   1  20
HETATM   20  N1  UNL     1      12.198  25.970 -10.083  1.00  0.00    -0.367 N 
HETATM   21  C3  UNL     1      13.032  25.031  -9.615  1.00  0.00     0.092 C 
ATOM     22  H1  UNL     1      11.308  25.806  -9.613  1.00  0.00     0.165 HD
BRANCH  21  23
HETATM   23  C2  UNL     1      14.526  25.116  -9.889  1.00  0.00     0.152 C 
HETATM   24  C1  UNL     1      15.233  24.128  -8.922  1.00  0.00     0.045 C 
BRANCH  23  25
HETATM   25  O1  UNL     1      15.068  26.351  -9.568  1.00  0.00    -0.391 OA
ATOM     26  H1  UNL     1      14.346  26.958  -9.679  1.00  0.00     0.210 HD
ENDBRANCH  23  25
ENDBRANCH  21  23
ENDBRANCH   1  20
TORSDOF 5
ENDMDL
MODEL 5
REMARK VINA RESULT: -7.158024356      2.845      6.714
REMARK  5 active torsions:
REMARK  status: ('A' for Active; 'I' for Inactive)
REMARK    1  A    between atoms: C2_2  and  O1_3 
REMARK    2  A    between atoms: C2_2  and  C3_5 
REMARK    3  A    between atoms: N1_6  and  C4_8 
REMARK    4  A    between atoms: C7_13  and  C8_14 
REMARK    5  A    between atoms: C8_14  and  O2_15 
ROOT
HETATM    1  C4  UNL     1      12.214  21.730 -11.075  1.00  0.00     0.035 A 
HETATM    2  C5  UNL     1      11.145  21.908 -10.222  1.00  0.00     0.046 A 
HETATM    3  C6  UNL     1      10.647  23.146  -9.912  1.00  0.00     0.090 A 
HETATM    4  N2  UNL     1      11.198  24.261 -10.439  1.00  0.00    -0.367 N 
ATOM      5  H2  UNL     1      10.815  25.175 -10.197  1.00  0.00     0.165 HD
HETATM    6  C7  UNL     1      12.250  24.180 -11.285  1.00  0.00     0.046 A 
HETATM    7  C18 UNL     1      12.737  22.944 -11.587  1.00  0.00     0.057 A 
ENDROOT
BRANCH   6   8
HETATM    8  C8  UNL     1      12.862  25.407 -11.884  1.00  0.00     0.100 C 
HETATM    9  C9  UNL     1      12.108  26.643 -11.524  1.00  0.00     0.044 C 
HETATM   10  C10 UNL     1      10.951  26.977 -12.402  1.00  0.00     0.003 C 
HETATM   11  C11 UNL     1      10.918  28.448 -12.646  1.00  0.00     0.000 C 
HETATM   12  C12 UNL     1      11.310  28.822 -14.082  1.00  0.00     0.000 C 
HETATM   13  C13 UNL     1      12.690  29.370 -14.141  1.00  0.00     0.000 C 
HETATM   14  C14 UNL     1      13.756  28.565 -14.723  1.00  0.00     0.000 C 
HETATM   15  C15 UNL     1      13.579  27.115 -14.948  1.00  0.00     0.000 C 
HETATM   16  C16 UNL     1      14.136  26.281 -13.792  1.00  0.00     0.003 C 
HETATM   17  C17 UNL     1      13.130  25.224 -13.343  1.00  0.00     0.044 C 
BRANCH   8  18
HETATM   18  O2  UNL     1      14.145  25.532 -11.282  1.00  0.00    -0.384 OA
ATOM     19  H2  UNL     1      14.750  25.689 -11.997  1.00  0.00     0.211 HD
ENDBRANCH   8  18
ENDBRANCH   6   8
BRANCH   1  20
HETATM   20  N1  UNL     1      12.721  20.667 -11.424  1.00  0.00    -0.367 N 
HETATM   21  C3  UNL     1      12.586  19.477 -12.026  1.00  0.00     0.092 C 
ATOM     22  H1  UNL     1      13.691  20.709 -11.112  1.00  0.00     0.165 HD
BRANCH  21  23
HETATM   23  C2  UNL     1      11.347  19.161 -12.848  1.00  0.00     0.152 C 
HETATM   24  C1  UNL     1      11.145  20.326 -13.854  1.00  0.00     0.045 C 
BRANCH  23  25
HETATM   25  O1  UNL     1      10.182  19.157 -12.097  1.00  0.00    -0.391 OA
ATOM     26  H1  UNL     1      10.173  18.300 -11.686  1.00  0.00     0.210 HD
ENDBRANCH  23  25
ENDBRANCH  21  23
ENDBRANCH   1  20
TORSDOF 5
ENDMDL
