MODEL 1
REMARK VINA RESULT: -7.195216152      0.000      0.000
REMARK  5 active torsions:
REMARK  status: ('A' for Active; 'I' for Inactive)
REMARK    1  A    between atoms: C2_2  and  C3_3 
REMARK    2  A    between atoms: C2_2  and  C8_8 
REMARK    3  A    between atoms: C2_2  and  C11_22 
REMARK    4  A    between atoms: C3_3  and  C4_4 
REMARK    5  A    between atoms: C9_11  and  N2_12 
REMARK       I    between atoms: N2_12  and  C10_14 
ROOT
HETATM    1  C8  UNL     1      13.317  24.321 -10.439  1.00  0.00     0.171 A 
HETATM    2  N1  UNL     1      14.669  24.361 -10.338  1.00  0.00    -0.169 N 
ATOM      3  H1  UNL     1      15.314  24.434 -11.124  1.00  0.00     0.186 HD
HETATM    4  C9  UNL     1      15.030  24.289  -9.046  1.00  0.00     0.706 A 
HETATM    5  N5  UNL     1      13.883  24.204  -8.360  1.00  0.00    -0.089 N 
ATOM      6  H5  UNL     1      13.803  24.136  -7.346  1.00  0.00     0.213 HD
HETATM    7  O1  UNL     1      12.892  24.224  -9.196  1.00  0.00    -0.208 OA
ENDROOT
BRANCH   1   8
HETATM    8  C2  UNL     1      12.490  24.375 -11.686  1.00  0.00     0.031 C 
HETATM    9  C1  UNL     1      13.555  24.557 -12.785  1.00  0.00     0.025 C 
BRANCH   8  10
HETATM   10  C3  UNL     1      11.648  25.575 -11.556  1.00  0.00     0.022 C 
BRANCH  10  11
HETATM   11  C4  UNL     1      12.241  26.917 -11.559  1.00  0.00    -0.013 C 
HETATM   12  C5  UNL     1      11.238  27.885 -12.228  1.00  0.00     0.005 C 
HETATM   13  C6  UNL     1      10.778  28.227 -10.802  1.00  0.00     0.001 C 
HETATM   14  C7  UNL     1      12.152  27.797 -10.369  1.00  0.00     0.005 C 
ENDBRANCH  10  11
ENDBRANCH   8  10
BRANCH   8  15
HETATM   15  C11 UNL     1      11.887  23.057 -11.858  1.00  0.00     0.036 C 
HETATM   16  C12 UNL     1      12.835  21.886 -11.967  1.00  0.00     0.009 C 
HETATM   17  C13 UNL     1      12.123  20.670 -11.353  1.00  0.00     0.001 C 
HETATM   18  C14 UNL     1      10.727  20.540 -11.909  1.00  0.00     0.003 C 
HETATM   19  C15 UNL     1      10.555  21.411 -13.108  1.00  0.00     0.037 C 
HETATM   20  C16 UNL     1      10.775  22.883 -12.820  1.00  0.00     0.175 C 
HETATM   21  F1  UNL     1      10.879  23.494 -14.028  1.00  0.00    -0.249 F 
ENDBRANCH   8  15
ENDBRANCH   1   8
BRANCH   4  22
HETATM   22  N2  UNL     1      16.217  24.306  -8.564  1.00  0.00    -0.162 N 
HETATM   23  C10 UNL     1      17.142  25.346  -8.767  1.00  0.00     0.200 C 
HETATM   24  N3  UNL     1      16.944  26.591  -8.502  1.00  0.00    -0.373 N 
HETATM   25  N4  UNL     1      18.420  24.998  -9.321  1.00  0.00    -0.063 NA
ATOM     26  H32 UNL     1      16.036  26.839  -8.109  1.00  0.00     0.158 HD
ATOM     27  H31 UNL     1      17.614  27.346  -8.650  1.00  0.00     0.158 HD
ATOM     28  H2  UNL     1      16.512  23.511  -7.997  1.00  0.00     0.187 HD
ENDBRANCH   4  22
TORSDOF 5
ENDMDL
MODEL 2
REMARK VINA RESULT: -7.161521727      1.440      4.298
REMARK  5 active torsions:
REMARK  status: ('A' for Active; 'I' for Inactive)
REMARK    1  A    between atoms: C2_2  and  C3_3 
REMARK    2  A    between atoms: C2_2  and  C8_8 
REMARK    3  A    between atoms: C2_2  and  C11_22 
REMARK    4  A    between atoms: C3_3  and  C4_4 
REMARK    5  A    between atoms: C9_11  and  N2_12 
REMARK       I    between atoms: N2_12  and  C10_14 
ROOT
HETATM    1  C8  UNL     1      13.244  23.938 -10.309  1.00  0.00     0.171 A 
HETATM    2  N1  UNL     1      14.598  23.907 -10.237  1.00  0.00    -0.169 N 
ATOM      3  H1  UNL     1      15.223  23.717 -11.021  1.00  0.00     0.186 HD
HETATM    4  C9  UNL     1      14.993  24.163  -8.979  1.00  0.00     0.706 A 
HETATM    5  N5  UNL     1      13.865  24.352  -8.284  1.00  0.00    -0.089 N 
ATOM      6  H5  UNL     1      13.811  24.568  -7.289  1.00  0.00     0.213 HD
HETATM    7  O1  UNL     1      12.853  24.215  -9.082  1.00  0.00    -0.208 OA
ENDROOT
BRANCH   1   8
HETATM    8  C2  UNL     1      12.385  23.711 -11.514  1.00  0.00     0.031 C 
HETATM    9  C1  UNL     1      10.964  23.722 -10.917  1.00  0.00     0.025 C 
BRANCH   8  10
HETATM   10  C3  UNL     1      12.743  22.375 -12.014  1.00  0.00     0.022 C 
BRANCH  10  11
HETATM   11  C4  UNL     1      12.222  21.163 -11.371  1.00  0.00    -0.013 C 
HETATM   12  C5  UNL     1      11.034  20.643 -12.213  1.00  0.00     0.005 C 
HETATM   13  C6  UNL     1      12.053  19.702 -12.876  1.00  0.00     0.001 C 
HETATM   14  C7  UNL     1      12.848  19.840 -11.607  1.00  0.00     0.005 C 
ENDBRANCH  10  11
ENDBRANCH   8  10
BRANCH   8  15
HETATM   15  C11 UNL     1      12.524  24.888 -12.367  1.00  0.00     0.036 C 
HETATM   16  C12 UNL     1      11.315  25.281 -13.182  1.00  0.00     0.009 C 
HETATM   17  C13 UNL     1      11.345  26.810 -13.325  1.00  0.00     0.001 C 
HETATM   18  C14 UNL     1      12.711  27.273 -13.767  1.00  0.00     0.003 C 
HETATM   19  C15 UNL     1      13.527  26.119 -14.244  1.00  0.00     0.037 C 
HETATM   20  C16 UNL     1      13.746  25.057 -13.184  1.00  0.00     0.175 C 
HETATM   21  F1  UNL     1      14.232  23.968 -13.833  1.00  0.00    -0.249 F 
ENDBRANCH   8  15
ENDBRANCH   1   8
BRANCH   4  22
HETATM   22  N2  UNL     1      16.193  24.224  -8.534  1.00  0.00    -0.162 N 
HETATM   23  C10 UNL     1      17.088  25.276  -8.803  1.00  0.00     0.200 C 
HETATM   24  N3  UNL     1      16.869  26.526  -8.580  1.00  0.00    -0.373 N 
HETATM   25  N4  UNL     1      18.357  24.935  -9.381  1.00  0.00    -0.063 NA
ATOM     26  H32 UNL     1      15.967  26.768  -8.170  1.00  0.00     0.158 HD
ATOM     27  H31 UNL     1      17.517  27.289  -8.776  1.00  0.00     0.158 HD
ATOM     28  H2  UNL     1      16.522  23.459  -7.945  1.00  0.00     0.187 HD
ENDBRANCH   4  22
TORSDOF 5
ENDMDL
MODEL 3
REMARK VINA RESULT: -7.073241880      1.356      1.661
REMARK  5 active torsions:
REMARK  status: ('A' for Active; 'I' for Inactive)
REMARK    1  A    between atoms: C2_2  and  C3_3 
REMARK    2  A    between atoms: C2_2  and  C8_8 
REMARK    3  A    between atoms: C2_2  and  C11_22 
REMARK    4  A    between atoms: C3_3  and  C4_4 
REMARK    5  A    between atoms: C9_11  and  N2_12 
REMARK       I    between atoms: N2_12  and  C10_14 
ROOT
HETATM    1  C8  UNL     1      13.308  24.255 -10.985  1.00  0.00     0.171 A 
HETATM    2  N1  UNL     1      14.558  23.908 -10.588  1.00  0.00    -0.169 N 
ATOM      3  H1  UNL     1      15.182  23.282 -11.096  1.00  0.00     0.186 HD
HETATM    4  C9  UNL     1      14.849  24.513  -9.425  1.00  0.00     0.706 A 
HETATM    5  N5  UNL     1      13.763  25.232  -9.116  1.00  0.00    -0.089 N 
ATOM      6  H5  UNL     1      13.655  25.816  -8.287  1.00  0.00     0.213 HD
HETATM    7  O1  UNL     1      12.873  25.067 -10.043  1.00  0.00    -0.208 OA
ENDROOT
BRANCH   1   8
HETATM    8  C2  UNL     1      12.584  23.815 -12.219  1.00  0.00     0.031 C 
HETATM    9  C1  UNL     1      13.694  23.854 -13.289  1.00  0.00     0.025 C 
BRANCH   8  10
HETATM   10  C3  UNL     1      11.563  24.843 -12.473  1.00  0.00     0.022 C 
BRANCH  10  11
HETATM   11  C4  UNL     1      11.821  25.950 -13.401  1.00  0.00    -0.013 C 
HETATM   12  C5  UNL     1      10.461  26.564 -13.808  1.00  0.00     0.005 C 
HETATM   13  C6  UNL     1      10.715  27.598 -12.701  1.00  0.00     0.001 C 
HETATM   14  C7  UNL     1      12.176  27.302 -12.905  1.00  0.00     0.005 C 
ENDBRANCH  10  11
ENDBRANCH   8  10
BRANCH   8  15
HETATM   15  C11 UNL     1      12.203  22.420 -12.018  1.00  0.00     0.036 C 
HETATM   16  C12 UNL     1      11.437  21.758 -13.140  1.00  0.00     0.009 C 
HETATM   17  C13 UNL     1      11.826  20.271 -13.135  1.00  0.00     0.001 C 
HETATM   18  C14 UNL     1      11.725  19.704 -11.741  1.00  0.00     0.003 C 
HETATM   19  C15 UNL     1      10.981  20.637 -10.846  1.00  0.00     0.037 C 
HETATM   20  C16 UNL     1      11.636  21.998 -10.718  1.00  0.00     0.175 C 
HETATM   21  F1  UNL     1      10.715  22.808 -10.134  1.00  0.00    -0.249 F 
ENDBRANCH   8  15
ENDBRANCH   1   8
BRANCH   4  22
HETATM   22  N2  UNL     1      15.936  24.430  -8.751  1.00  0.00    -0.162 N 
HETATM   23  C10 UNL     1      16.980  25.370  -8.810  1.00  0.00     0.200 C 
HETATM   24  N3  UNL     1      16.866  26.636  -8.598  1.00  0.00    -0.373 N 
HETATM   25  N4  UNL     1      18.291  24.886  -9.138  1.00  0.00    -0.063 NA
ATOM     26  H32 UNL     1      15.934  26.981  -8.365  1.00  0.00     0.158 HD
ATOM     27  H31 UNL     1      17.623  27.318  -8.641  1.00  0.00     0.158 HD
ATOM     28  H2  UNL     1      16.052  23.628  -8.132  1.00  0.00     0.187 HD
ENDBRANCH   4  22
TORSDOF 5
ENDMDL
MODEL 4
REMARK VINA RESULT: -7.020575076      4.509      6.730
REMARK  5 active torsions:
REMARK  status: ('A' for Active; 'I' for Inactive)
REMARK    1  A    between atoms: C2_2  and  C3_3 
REMARK    2  A    between atoms: C2_2  and  C8_8 
REMARK    3  A    between atoms: C2_2  and  C11_22 
REMARK    4  A    between atoms: C3_3  and  C4_4 
REMARK    5  A    between atoms: C9_11  and  N2_12 
REMARK       I    between atoms: N2_12  and  C10_14 
ROOT
HETATM    1  C8  UNL     1       9.832  20.546 -11.456  1.00  0.00     0.171 A 
HETATM    2  N1  UNL     1       9.375  21.153 -10.333  1.00  0.00    -0.169 N 
ATOM      3  H1  UNL     1       9.864  21.888  -9.822  1.00  0.00     0.186 HD
HETATM    4  C9  UNL     1       8.181  20.641  -9.993  1.00  0.00     0.706 A 
HETATM    5  N5  UNL     1       7.914  19.714 -10.921  1.00  0.00    -0.089 N 
ATOM      6  H5  UNL     1       7.076  19.134 -10.956  1.00  0.00     0.213 HD
HETATM    7  O1  UNL     1       8.894  19.675 -11.768  1.00  0.00    -0.208 OA
ENDROOT
BRANCH   1   8
HETATM    8  C2  UNL     1      11.115  20.808 -12.181  1.00  0.00     0.031 C 
HETATM    9  C1  UNL     1      12.047  19.717 -11.615  1.00  0.00     0.025 C 
BRANCH   8  10
HETATM   10  C3  UNL     1      11.548  22.149 -11.758  1.00  0.00     0.022 C 
BRANCH  10  11
HETATM   11  C4  UNL     1      12.797  22.340 -11.013  1.00  0.00    -0.013 C 
HETATM   12  C5  UNL     1      13.771  23.146 -11.904  1.00  0.00     0.005 C 
HETATM   13  C6  UNL     1      13.274  24.385 -11.142  1.00  0.00     0.001 C 
HETATM   14  C7  UNL     1      12.942  23.436 -10.025  1.00  0.00     0.005 C 
ENDBRANCH  10  11
ENDBRANCH   8  10
BRANCH   8  15
HETATM   15  C11 UNL     1      10.879  20.511 -13.590  1.00  0.00     0.036 C 
HETATM   16  C12 UNL     1      11.578  19.296 -14.154  1.00  0.00     0.009 C 
HETATM   17  C13 UNL     1      10.664  18.716 -15.245  1.00  0.00     0.001 C 
HETATM   18  C14 UNL     1      10.209  19.804 -16.185  1.00  0.00     0.003 C 
HETATM   19  C15 UNL     1      11.017  21.042 -15.988  1.00  0.00     0.037 C 
HETATM   20  C16 UNL     1      10.918  21.608 -14.584  1.00  0.00     0.175 C 
HETATM   21  F1  UNL     1      11.911  22.527 -14.476  1.00  0.00    -0.249 F 
ENDBRANCH   8  15
ENDBRANCH   1   8
BRANCH   4  22
HETATM   22  N2  UNL     1       7.444  20.970  -8.997  1.00  0.00    -0.162 N 
HETATM   23  C10 UNL     1       6.042  21.078  -9.048  1.00  0.00     0.200 C 
HETATM   24  N3  UNL     1       5.230  20.155  -9.432  1.00  0.00    -0.373 N 
HETATM   25  N4  UNL     1       5.458  22.325  -8.642  1.00  0.00    -0.063 NA
ATOM     26  H32 UNL     1       5.644  19.269  -9.721  1.00  0.00     0.158 HD
ATOM     27  H31 UNL     1       4.213  20.233  -9.470  1.00  0.00     0.158 HD
ATOM     28  H2  UNL     1       7.904  21.167  -8.109  1.00  0.00     0.187 HD
ENDBRANCH   4  22
TORSDOF 5
ENDMDL
MODEL 5
REMARK VINA RESULT: -6.941336038      1.360      1.561
REMARK  5 active torsions:
REMARK  status: ('A' for Active; 'I' for Inactive)
REMARK    1  A    between atoms: C2_2  and  C3_3 
REMARK    2  A    between atoms: C2_2  and  C8_8 
REMARK    3  A    between atoms: C2_2  and  C11_22 
REMARK    4  A    between atoms: C3_3  and  C4_4 
REMARK    5  A    between atoms: C9_11  and  N2_12 
REMARK       I    between atoms: N2_12  and  C10_14 
ROOT
HETATM    1  C8  UNL     1      13.329  24.175 -10.783  1.00  0.00     0.171 A 
HETATM    2  N1  UNL     1      14.659  24.119 -10.525  1.00  0.00    -0.169 N 
ATOM      3  H1  UNL     1      15.384  23.945 -11.220  1.00  0.00     0.186 HD
HETATM    4  C9  UNL     1      14.878  24.325  -9.216  1.00  0.00     0.706 A 
HETATM    5  N5  UNL     1      13.666  24.509  -8.678  1.00  0.00    -0.089 N 
ATOM      6  H5  UNL     1      13.476  24.692  -7.693  1.00  0.00     0.213 HD
HETATM    7  O1  UNL     1      12.773  24.417  -9.613  1.00  0.00    -0.208 OA
ENDROOT
BRANCH   1   8
HETATM    8  C2  UNL     1      12.644  24.004 -12.103  1.00  0.00     0.031 C 
HETATM    9  C1  UNL     1      13.740  23.348 -12.966  1.00  0.00     0.025 C 
BRANCH   8  10
HETATM   10  C3  UNL     1      12.338  25.363 -12.575  1.00  0.00     0.022 C 
BRANCH  10  11
HETATM   11  C4  UNL     1      12.655  25.777 -13.946  1.00  0.00    -0.013 C 
HETATM   12  C5  UNL     1      11.621  26.841 -14.381  1.00  0.00     0.005 C 
HETATM   13  C6  UNL     1      12.671  27.881 -13.958  1.00  0.00     0.001 C 
HETATM   14  C7  UNL     1      13.689  26.805 -14.218  1.00  0.00     0.005 C 
ENDBRANCH  10  11
ENDBRANCH   8  10
BRANCH   8  15
HETATM   15  C11 UNL     1      11.578  23.025 -11.909  1.00  0.00     0.036 C 
HETATM   16  C12 UNL     1      12.003  21.627 -11.527  1.00  0.00     0.009 C 
HETATM   17  C13 UNL     1      10.892  21.044 -10.639  1.00  0.00     0.001 C 
HETATM   18  C14 UNL     1       9.542  21.254 -11.277  1.00  0.00     0.003 C 
HETATM   19  C15 UNL     1       9.692  21.663 -12.704  1.00  0.00     0.037 C 
HETATM   20  C16 UNL     1      10.465  22.955 -12.882  1.00  0.00     0.175 C 
HETATM   21  F1  UNL     1      10.770  23.035 -14.202  1.00  0.00    -0.249 F 
ENDBRANCH   8  15
ENDBRANCH   1   8
BRANCH   4  22
HETATM   22  N2  UNL     1      16.005  24.351  -8.607  1.00  0.00    -0.162 N 
HETATM   23  C10 UNL     1      16.984  25.344  -8.789  1.00  0.00     0.200 C 
HETATM   24  N3  UNL     1      16.805  26.612  -8.653  1.00  0.00    -0.373 N 
HETATM   25  N4  UNL     1      18.302  24.914  -9.165  1.00  0.00    -0.063 NA
ATOM     26  H32 UNL     1      15.869  26.918  -8.387  1.00  0.00     0.158 HD
ATOM     27  H31 UNL     1      17.515  27.332  -8.786  1.00  0.00     0.158 HD
ATOM     28  H2  UNL     1      16.205  23.601  -7.945  1.00  0.00     0.187 HD
ENDBRANCH   4  22
TORSDOF 5
ENDMDL
