MODEL 1
REMARK VINA RESULT: -7.341792971      0.000      0.000
REMARK  3 active torsions:
REMARK  status: ('A' for Active; 'I' for Inactive)
REMARK    1  A    between atoms: C5_8  and  N2_9 
REMARK    2  A    between atoms: N2_9  and  C6_11 
REMARK    3  A    between atoms: C15_22  and  C16_23 
ROOT
HETATM    1  N2  UNL     1      10.592  24.744 -11.694  1.00  0.00    -0.372 N 
ATOM      2  H2  UNL     1      10.322  23.919 -12.229  1.00  0.00     0.161 HD
ENDROOT
BRANCH   1   3
HETATM    3  C5  UNL     1      11.334  24.584 -10.507  1.00  0.00     0.215 C 
HETATM    4  N1  UNL     1      10.709  23.807  -9.456  1.00  0.00    -0.333 N 
HETATM    5  C4  UNL     1      10.376  22.416  -9.375  1.00  0.00     0.243 C 
ATOM      6  H1  UNL     1      10.461  24.346  -8.627  1.00  0.00     0.165 HD
HETATM    7  C3  UNL     1      10.881  21.358 -10.258  1.00  0.00     0.080 C 
HETATM    8  O1  UNL     1       9.588  22.044  -8.482  1.00  0.00    -0.269 OA
HETATM    9  C2  UNL     1      11.985  21.460 -11.014  1.00  0.00    -0.056 C 
HETATM   10  C1  UNL     1      12.368  20.319 -11.849  1.00  0.00     0.048 C 
HETATM   11  C17 UNL     1      12.894  22.613 -11.114  1.00  0.00     0.014 C 
HETATM   12  C15 UNL     1      12.598  23.877 -10.901  1.00  0.00    -0.024 C 
BRANCH  12  13
HETATM   13  C16 UNL     1      13.792  24.778 -11.100  1.00  0.00     0.152 C 
HETATM   14 CL1  UNL     1      14.816  24.838  -9.686  1.00  0.00    -0.126 Cl
ENDBRANCH  12  13
ENDBRANCH   1   3
BRANCH   1  15
HETATM   15  C6  UNL     1      10.213  26.021 -12.160  1.00  0.00    -0.011 C 
HETATM   16  C7  UNL     1      11.349  26.886 -12.630  1.00  0.00     0.082 C 
HETATM   17  C8  UNL     1      11.324  28.271 -12.055  1.00  0.00     0.024 C 
HETATM   18  C9  UNL     1      11.924  28.355 -10.675  1.00  0.00     0.038 C 
HETATM   19  C10 UNL     1      12.265  29.115 -12.939  1.00  0.00     0.038 C 
HETATM   20  N3  UNL     1      10.038  28.864 -12.173  1.00  0.00    -0.405 N 
HETATM   21  C11 UNL     1       8.945  28.133 -11.664  1.00  0.00     0.024 C 
ATOM     22  H3  UNL     1       9.911  29.779 -12.607  1.00  0.00     0.154 HD
HETATM   23  C12 UNL     1       8.470  28.847 -10.391  1.00  0.00     0.038 C 
HETATM   24  C13 UNL     1       7.786  28.254 -12.645  1.00  0.00     0.038 C 
HETATM   25  C14 UNL     1       9.197  26.701 -11.308  1.00  0.00     0.082 C 
ENDBRANCH   1  15
TORSDOF 3
ENDMDL
MODEL 2
REMARK VINA RESULT: -7.100030477      1.428      2.002
REMARK  3 active torsions:
REMARK  status: ('A' for Active; 'I' for Inactive)
REMARK    1  A    between atoms: C5_8  and  N2_9 
REMARK    2  A    between atoms: N2_9  and  C6_11 
REMARK    3  A    between atoms: C15_22  and  C16_23 
ROOT
HETATM    1  N2  UNL     1      10.618  23.697 -11.770  1.00  0.00    -0.372 N 
ATOM      2  H2  UNL     1      10.185  23.023 -12.401  1.00  0.00     0.161 HD
ENDROOT
BRANCH   1   3
HETATM    3  C5  UNL     1      11.318  23.230 -10.640  1.00  0.00     0.215 C 
HETATM    4  N1  UNL     1      10.584  22.368  -9.737  1.00  0.00    -0.333 N 
HETATM    5  C4  UNL     1      10.069  21.042  -9.900  1.00  0.00     0.243 C 
ATOM      6  H1  UNL     1      10.401  22.780  -8.822  1.00  0.00     0.165 HD
HETATM    7  C3  UNL     1      10.439  20.100 -10.964  1.00  0.00     0.080 C 
HETATM    8  O1  UNL     1       9.229  20.625  -9.078  1.00  0.00    -0.269 OA
HETATM    9  C2  UNL     1      11.555  20.188 -11.703  1.00  0.00    -0.056 C 
HETATM   10  C1  UNL     1      11.794  19.174 -12.733  1.00  0.00     0.048 C 
HETATM   11  C17 UNL     1      12.611  21.210 -11.607  1.00  0.00     0.014 C 
HETATM   12  C15 UNL     1      12.482  22.444 -11.169  1.00  0.00    -0.024 C 
BRANCH  12  13
HETATM   13  C16 UNL     1      13.787  23.199 -11.219  1.00  0.00     0.152 C 
HETATM   14 CL1  UNL     1      14.000  24.242  -9.834  1.00  0.00    -0.126 Cl
ENDBRANCH  12  13
ENDBRANCH   1   3
BRANCH   1  15
HETATM   15  C6  UNL     1      10.502  25.074 -12.049  1.00  0.00    -0.011 C 
HETATM   16  C7  UNL     1      10.907  25.476 -13.440  1.00  0.00     0.082 C 
HETATM   17  C8  UNL     1      11.848  26.644 -13.475  1.00  0.00     0.024 C 
HETATM   18  C9  UNL     1      13.287  26.258 -13.243  1.00  0.00     0.038 C 
HETATM   19  C10 UNL     1      11.817  27.170 -14.925  1.00  0.00     0.038 C 
HETATM   20  N3  UNL     1      11.388  27.712 -12.659  1.00  0.00    -0.405 N 
HETATM   21  C11 UNL     1      11.080  27.409 -11.317  1.00  0.00     0.024 C 
ATOM     22  H3  UNL     1      11.285  28.658 -13.028  1.00  0.00     0.154 HD
HETATM   23  C12 UNL     1      12.172  28.039 -10.443  1.00  0.00     0.038 C 
HETATM   24  C13 UNL     1       9.797  28.139 -10.941  1.00  0.00     0.038 C 
HETATM   25  C14 UNL     1      10.996  25.958 -10.955  1.00  0.00     0.082 C 
ENDBRANCH   1  15
TORSDOF 3
ENDMDL
MODEL 3
REMARK VINA RESULT: -7.094432197      3.019      4.889
REMARK  3 active torsions:
REMARK  status: ('A' for Active; 'I' for Inactive)
REMARK    1  A    between atoms: C5_8  and  N2_9 
REMARK    2  A    between atoms: N2_9  and  C6_11 
REMARK    3  A    between atoms: C15_22  and  C16_23 
ROOT
HETATM    1  N2  UNL     1      11.303  21.834 -11.913  1.00  0.00    -0.372 N 
ATOM      2  H2  UNL     1      11.303  21.934 -12.928  1.00  0.00     0.161 HD
ENDROOT
BRANCH   1   3
HETATM    3  C5  UNL     1      11.097  20.561 -11.347  1.00  0.00     0.215 C 
HETATM    4  N1  UNL     1       9.750  20.032 -11.422  1.00  0.00    -0.333 N 
HETATM    5  C4  UNL     1       8.959  19.607 -12.538  1.00  0.00     0.243 C 
ATOM      6  H1  UNL     1       9.282  19.948 -10.520  1.00  0.00     0.165 HD
HETATM    7  C3  UNL     1       9.460  19.321 -13.888  1.00  0.00     0.080 C 
HETATM    8  O1  UNL     1       7.731  19.459 -12.375  1.00  0.00    -0.269 OA
HETATM    9  C2  UNL     1      10.741  19.056 -14.184  1.00  0.00    -0.056 C 
HETATM   10  C1  UNL     1      11.096  18.789 -15.580  1.00  0.00     0.048 C 
HETATM   11  C17 UNL     1      11.878  18.995 -13.251  1.00  0.00     0.014 C 
HETATM   12  C15 UNL     1      11.993  19.622 -12.100  1.00  0.00    -0.024 C 
BRANCH  12  13
HETATM   13  C16 UNL     1      13.305  19.315 -11.420  1.00  0.00     0.152 C 
HETATM   14 CL1  UNL     1      13.660  17.604 -11.415  1.00  0.00    -0.126 Cl
ENDBRANCH  12  13
ENDBRANCH   1   3
BRANCH   1  15
HETATM   15  C6  UNL     1      11.511  22.973 -11.108  1.00  0.00    -0.011 C 
HETATM   16  C7  UNL     1      11.064  24.272 -11.721  1.00  0.00     0.082 C 
HETATM   17  C8  UNL     1      12.098  25.356 -11.646  1.00  0.00     0.024 C 
HETATM   18  C9  UNL     1      13.129  25.273 -12.743  1.00  0.00     0.038 C 
HETATM   19  C10 UNL     1      11.349  26.677 -11.916  1.00  0.00     0.038 C 
HETATM   20  N3  UNL     1      12.642  25.472 -10.338  1.00  0.00    -0.405 N 
HETATM   21  C11 UNL     1      13.160  24.299  -9.751  1.00  0.00     0.024 C 
ATOM     22  H3  UNL     1      12.657  26.366  -9.845  1.00  0.00     0.154 HD
HETATM   23  C12 UNL     1      14.688  24.438  -9.722  1.00  0.00     0.038 C 
HETATM   24  C13 UNL     1      12.735  24.265  -8.288  1.00  0.00     0.038 C 
HETATM   25  C14 UNL     1      12.839  23.005 -10.432  1.00  0.00     0.082 C 
ENDBRANCH   1  15
TORSDOF 3
ENDMDL
MODEL 4
REMARK VINA RESULT: -7.081335166      0.856      2.312
REMARK  3 active torsions:
REMARK  status: ('A' for Active; 'I' for Inactive)
REMARK    1  A    between atoms: C5_8  and  N2_9 
REMARK    2  A    between atoms: N2_9  and  C6_11 
REMARK    3  A    between atoms: C15_22  and  C16_23 
ROOT
HETATM    1  N2  UNL     1      11.091  25.147 -11.138  1.00  0.00    -0.372 N 
ATOM      2  H2  UNL     1      10.644  24.464 -11.749  1.00  0.00     0.161 HD
ENDROOT
BRANCH   1   3
HETATM    3  C5  UNL     1      11.761  24.701  -9.982  1.00  0.00     0.215 C 
HETATM    4  N1  UNL     1      11.006  23.845  -9.089  1.00  0.00    -0.333 N 
HETATM    5  C4  UNL     1      10.508  22.512  -9.250  1.00  0.00     0.243 C 
ATOM      6  H1  UNL     1      10.792  24.267  -8.186  1.00  0.00     0.165 HD
HETATM    7  C3  UNL     1      10.918  21.560 -10.290  1.00  0.00     0.080 C 
HETATM    8  O1  UNL     1       9.646  22.099  -8.449  1.00  0.00    -0.269 OA
HETATM    9  C2  UNL     1      12.055  21.648 -10.996  1.00  0.00    -0.056 C 
HETATM   10  C1  UNL     1      12.333  20.622 -12.004  1.00  0.00     0.048 C 
HETATM   11  C17 UNL     1      13.099  22.680 -10.882  1.00  0.00     0.014 C 
HETATM   12  C15 UNL     1      12.946  23.918 -10.464  1.00  0.00    -0.024 C 
BRANCH  12  13
HETATM   13  C16 UNL     1      14.247  24.684 -10.485  1.00  0.00     0.152 C 
HETATM   14 CL1  UNL     1      15.231  24.350  -9.081  1.00  0.00    -0.126 Cl
ENDBRANCH  12  13
ENDBRANCH   1   3
BRANCH   1  15
HETATM   15  C6  UNL     1      11.026  26.516 -11.471  1.00  0.00    -0.011 C 
HETATM   16  C7  UNL     1       9.816  27.238 -10.949  1.00  0.00     0.082 C 
HETATM   17  C8  UNL     1       9.110  28.054 -11.991  1.00  0.00     0.024 C 
HETATM   18  C9  UNL     1       8.170  27.243 -12.846  1.00  0.00     0.038 C 
HETATM   19  C10 UNL     1       8.192  29.025 -11.220  1.00  0.00     0.038 C 
HETATM   20  N3  UNL     1      10.016  28.867 -12.723  1.00  0.00    -0.405 N 
HETATM   21  C11 UNL     1      11.123  28.224 -13.313  1.00  0.00     0.024 C 
ATOM     22  H3  UNL     1       9.872  29.873 -12.818  1.00  0.00     0.154 HD
HETATM   23  C12 UNL     1      10.888  28.208 -14.830  1.00  0.00     0.038 C 
HETATM   24  C13 UNL     1      12.353  29.099 -13.110  1.00  0.00     0.038 C 
HETATM   25  C14 UNL     1      11.393  26.814 -12.885  1.00  0.00     0.082 C 
ENDBRANCH   1  15
TORSDOF 3
ENDMDL
MODEL 5
REMARK VINA RESULT: -6.978961373      2.909      6.416
REMARK  3 active torsions:
REMARK  status: ('A' for Active; 'I' for Inactive)
REMARK    1  A    between atoms: C5_8  and  N2_9 
REMARK    2  A    between atoms: N2_9  and  C6_11 
REMARK    3  A    between atoms: C15_22  and  C16_23 
ROOT
HETATM    1  N2  UNL     1      11.829  23.773 -12.206  1.00  0.00    -0.372 N 
ATOM      2  H2  UNL     1      11.113  24.231 -12.770  1.00  0.00     0.161 HD
ENDROOT
BRANCH   1   3
HETATM    3  C5  UNL     1      13.128  24.318 -12.169  1.00  0.00     0.215 C 
HETATM    4  N1  UNL     1      13.492  25.192 -13.265  1.00  0.00    -0.333 N 
HETATM    5  C4  UNL     1      13.016  26.489 -13.643  1.00  0.00     0.243 C 
ATOM      6  H1  UNL     1      14.216  24.817 -13.878  1.00  0.00     0.165 HD
HETATM    7  C3  UNL     1      12.225  27.394 -12.798  1.00  0.00     0.080 C 
HETATM    8  O1  UNL     1      13.282  26.912 -14.785  1.00  0.00    -0.269 OA
HETATM    9  C2  UNL     1      12.148  27.314 -11.461  1.00  0.00    -0.056 C 
HETATM   10  C1  UNL     1      11.317  28.288 -10.749  1.00  0.00     0.048 C 
HETATM   11  C17 UNL     1      12.818  26.339 -10.586  1.00  0.00     0.014 C 
HETATM   12  C15 UNL     1      13.205  25.122 -10.905  1.00  0.00    -0.024 C 
BRANCH  12  13
HETATM   13  C16 UNL     1      13.858  24.415  -9.742  1.00  0.00     0.152 C 
HETATM   14 CL1  UNL     1      12.770  24.232  -8.387  1.00  0.00    -0.126 Cl
ENDBRANCH  12  13
ENDBRANCH   1   3
BRANCH   1  15
HETATM   15  C6  UNL     1      11.496  22.611 -11.480  1.00  0.00    -0.011 C 
HETATM   16  C7  UNL     1      12.453  21.464 -11.648  1.00  0.00     0.082 C 
HETATM   17  C8  UNL     1      11.776  20.162 -11.962  1.00  0.00     0.024 C 
HETATM   18  C9  UNL     1      11.439  20.003 -13.423  1.00  0.00     0.038 C 
HETATM   19  C10 UNL     1      12.821  19.062 -11.683  1.00  0.00     0.038 C 
HETATM   20  N3  UNL     1      10.693  19.907 -11.078  1.00  0.00    -0.405 N 
HETATM   21  C11 UNL     1       9.716  20.916 -10.953  1.00  0.00     0.024 C 
ATOM     22  H3  UNL     1      10.625  19.032 -10.557  1.00  0.00     0.154 HD
HETATM   23  C12 UNL     1       8.446  20.414 -11.654  1.00  0.00     0.038 C 
HETATM   24  C13 UNL     1       9.337  21.040  -9.482  1.00  0.00     0.038 C 
HETATM   25  C14 UNL     1      10.049  22.255 -11.534  1.00  0.00     0.082 C 
ENDBRANCH   1  15
TORSDOF 3
ENDMDL
