MODEL 1
REMARK VINA RESULT: -5.579806582      0.000      0.000
REMARK  7 active torsions:
REMARK  status: ('A' for Active; 'I' for Inactive)
REMARK    1  A    between atoms: C2_2  and  O1_3 
REMARK    2  A    between atoms: O1_3  and  C3_4 
REMARK    3  A    between atoms: C5_10  and  C6_11 
REMARK    4  A    between atoms: N3_12  and  N4_14 
REMARK    5  A    between atoms: N4_14  and  C7_16 
REMARK    6  A    between atoms: C7_16  and  N5_18 
REMARK    7  A    between atoms: N5_18  and  C8_20 
ROOT
HETATM    1  C6  UNL     1      50.098 -78.481 -35.194  1.00  0.00     0.141 C 
HETATM    2  N3  UNL     1      49.055 -78.111 -35.808  1.00  0.00    -0.307 N 
ATOM      3  H3  UNL     1      49.205 -77.550 -36.647  1.00  0.00     0.186 HD
ENDROOT
BRANCH   2   4
HETATM    4  N4  UNL     1      47.753 -78.371 -35.486  1.00  0.00    -0.277 N 
ATOM      5  H4  UNL     1      47.494 -78.534 -34.513  1.00  0.00     0.189 HD
BRANCH   4   6
HETATM    6  C7  UNL     1      46.766 -78.417 -36.489  1.00  0.00     0.186 C 
HETATM    7  S1  UNL     1      45.216 -78.743 -36.135  1.00  0.00    -0.040 SA
BRANCH   6   8
HETATM    8  N5  UNL     1      47.134 -78.186 -37.835  1.00  0.00    -0.361 N 
ATOM      9  H5  UNL     1      47.815 -77.449 -38.022  1.00  0.00     0.162 HD
BRANCH   8  10
HETATM   10  C8  UNL     1      46.610 -78.924 -38.968  1.00  0.00     0.083 C 
HETATM   11  C9  UNL     1      47.648 -80.011 -39.302  1.00  0.00     0.025 C 
HETATM   12  C10 UNL     1      47.044 -80.933 -40.308  1.00  0.00     0.002 C 
HETATM   13  C11 UNL     1      46.849 -80.151 -41.595  1.00  0.00     0.000 C 
HETATM   14  C12 UNL     1      46.087 -78.887 -41.381  1.00  0.00     0.002 C 
HETATM   15  C13 UNL     1      46.570 -78.058 -40.216  1.00  0.00     0.025 C 
ENDBRANCH   8  10
ENDBRANCH   6   8
ENDBRANCH   4   6
ENDBRANCH   2   4
BRANCH   1  16
HETATM   16  C5  UNL     1      50.156 -79.279 -33.989  1.00  0.00     0.099 A 
HETATM   17  C3  UNL     1      49.556 -80.537 -33.858  1.00  0.00     0.115 A 
HETATM   18  C4  UNL     1      49.819 -80.983 -32.596  1.00  0.00     0.146 A 
HETATM   19  N1  UNL     1      50.543 -80.056 -31.973  1.00  0.00    -0.309 N 
HETATM   20  N2  UNL     1      50.744 -79.033 -32.814  1.00  0.00    -0.297 N 
ATOM     21  H1  UNL     1      50.887 -80.114 -31.013  1.00  0.00     0.186 HD
ATOM     22  H2  UNL     1      51.270 -78.189 -32.591  1.00  0.00     0.187 HD
BRANCH  17  23
HETATM   23  O1  UNL     1      48.838 -81.168 -34.855  1.00  0.00    -0.348 OA
BRANCH  23  24
HETATM   24  C2  UNL     1      47.895 -82.162 -34.555  1.00  0.00     0.171 C 
HETATM   25  C1  UNL     1      46.767 -82.117 -35.576  1.00  0.00     0.034 C 
ENDBRANCH  23  24
ENDBRANCH  17  23
ENDBRANCH   1  16
TORSDOF 7
ENDMDL
MODEL 2
REMARK VINA RESULT: -5.216508666      2.775      4.074
REMARK  7 active torsions:
REMARK  status: ('A' for Active; 'I' for Inactive)
REMARK    1  A    between atoms: C2_2  and  O1_3 
REMARK    2  A    between atoms: O1_3  and  C3_4 
REMARK    3  A    between atoms: C5_10  and  C6_11 
REMARK    4  A    between atoms: N3_12  and  N4_14 
REMARK    5  A    between atoms: N4_14  and  C7_16 
REMARK    6  A    between atoms: C7_16  and  N5_18 
REMARK    7  A    between atoms: N5_18  and  C8_20 
ROOT
HETATM    1  C6  UNL     1      45.907 -81.681 -36.355  1.00  0.00     0.141 C 
HETATM    2  N3  UNL     1      46.494 -82.615 -36.975  1.00  0.00    -0.307 N 
ATOM      3  H3  UNL     1      46.073 -83.540 -36.892  1.00  0.00     0.186 HD
ENDROOT
BRANCH   2   4
HETATM    4  N4  UNL     1      47.621 -82.536 -37.743  1.00  0.00    -0.277 N 
ATOM      5  H4  UNL     1      48.539 -82.564 -37.300  1.00  0.00     0.189 HD
BRANCH   4   6
HETATM    6  C7  UNL     1      47.523 -82.416 -39.142  1.00  0.00     0.186 C 
HETATM    7  S1  UNL     1      47.053 -83.665 -40.067  1.00  0.00    -0.040 SA
BRANCH   6   8
HETATM    8  N5  UNL     1      47.852 -81.186 -39.758  1.00  0.00    -0.361 N 
ATOM      9  H5  UNL     1      48.834 -81.012 -39.975  1.00  0.00     0.162 HD
BRANCH   8  10
HETATM   10  C8  UNL     1      46.892 -80.156 -40.102  1.00  0.00     0.083 C 
HETATM   11  C9  UNL     1      46.850 -80.090 -41.640  1.00  0.00     0.025 C 
HETATM   12  C10 UNL     1      45.712 -79.210 -42.034  1.00  0.00     0.002 C 
HETATM   13  C11 UNL     1      46.037 -77.798 -41.577  1.00  0.00     0.000 C 
HETATM   14  C12 UNL     1      46.391 -77.738 -40.130  1.00  0.00     0.002 C 
HETATM   15  C13 UNL     1      47.388 -78.781 -39.688  1.00  0.00     0.025 C 
ENDBRANCH   8  10
ENDBRANCH   6   8
ENDBRANCH   4   6
ENDBRANCH   2   4
BRANCH   1  16
HETATM   16  C5  UNL     1      46.299 -80.289 -36.314  1.00  0.00     0.099 A 
HETATM   17  C3  UNL     1      47.587 -79.851 -35.982  1.00  0.00     0.115 A 
HETATM   18  C4  UNL     1      47.582 -78.488 -36.049  1.00  0.00     0.146 A 
HETATM   19  N1  UNL     1      46.360 -78.096 -36.404  1.00  0.00    -0.309 N 
HETATM   20  N2  UNL     1      45.592 -79.182 -36.563  1.00  0.00    -0.297 N 
ATOM     21  H1  UNL     1      46.059 -77.129 -36.533  1.00  0.00     0.186 HD
ATOM     22  H2  UNL     1      44.610 -79.167 -36.835  1.00  0.00     0.187 HD
BRANCH  17  23
HETATM   23  O1  UNL     1      48.636 -80.687 -35.653  1.00  0.00    -0.348 OA
BRANCH  23  24
HETATM   24  C2  UNL     1      48.976 -80.934 -34.314  1.00  0.00     0.171 C 
HETATM   25  C1  UNL     1      48.687 -82.390 -33.978  1.00  0.00     0.034 C 
ENDBRANCH  23  24
ENDBRANCH  17  23
ENDBRANCH   1  16
TORSDOF 7
ENDMDL
MODEL 3
REMARK VINA RESULT: -5.205450423      2.570      3.611
REMARK  7 active torsions:
REMARK  status: ('A' for Active; 'I' for Inactive)
REMARK    1  A    between atoms: C2_2  and  O1_3 
REMARK    2  A    between atoms: O1_3  and  C3_4 
REMARK    3  A    between atoms: C5_10  and  C6_11 
REMARK    4  A    between atoms: N3_12  and  N4_14 
REMARK    5  A    between atoms: N4_14  and  C7_16 
REMARK    6  A    between atoms: C7_16  and  N5_18 
REMARK    7  A    between atoms: N5_18  and  C8_20 
ROOT
HETATM    1  C6  UNL     1      46.704 -78.608 -36.469  1.00  0.00     0.141 C 
HETATM    2  N3  UNL     1      46.403 -79.836 -36.479  1.00  0.00    -0.307 N 
ATOM      3  H3  UNL     1      45.422 -80.058 -36.306  1.00  0.00     0.186 HD
ENDROOT
BRANCH   2   4
HETATM    4  N4  UNL     1      47.229 -80.904 -36.694  1.00  0.00    -0.277 N 
ATOM      5  H4  UNL     1      47.826 -81.241 -35.939  1.00  0.00     0.189 HD
BRANCH   4   6
HETATM    6  C7  UNL     1      47.261 -81.539 -37.949  1.00  0.00     0.186 C 
HETATM    7  S1  UNL     1      46.886 -83.110 -38.111  1.00  0.00    -0.040 SA
BRANCH   6   8
HETATM    8  N5  UNL     1      47.640 -80.798 -39.092  1.00  0.00    -0.361 N 
ATOM      9  H5  UNL     1      48.589 -80.425 -39.123  1.00  0.00     0.162 HD
BRANCH   8  10
HETATM   10  C8  UNL     1      46.773 -80.533 -40.224  1.00  0.00     0.083 C 
HETATM   11  C9  UNL     1      47.546 -80.969 -41.482  1.00  0.00     0.025 C 
HETATM   12  C10 UNL     1      46.606 -80.928 -42.640  1.00  0.00     0.002 C 
HETATM   13  C11 UNL     1      46.229 -79.477 -42.880  1.00  0.00     0.000 C 
HETATM   14  C12 UNL     1      45.718 -78.812 -41.647  1.00  0.00     0.002 C 
HETATM   15  C13 UNL     1      46.565 -79.040 -40.419  1.00  0.00     0.025 C 
ENDBRANCH   8  10
ENDBRANCH   6   8
ENDBRANCH   4   6
ENDBRANCH   2   4
BRANCH   1  16
HETATM   16  C5  UNL     1      48.016 -78.036 -36.686  1.00  0.00     0.099 A 
HETATM   17  C3  UNL     1      49.112 -78.257 -35.844  1.00  0.00     0.115 A 
HETATM   18  C4  UNL     1      50.167 -77.564 -36.362  1.00  0.00     0.146 A 
HETATM   19  N1  UNL     1      49.754 -76.945 -37.465  1.00  0.00    -0.309 N 
HETATM   20  N2  UNL     1      48.460 -77.233 -37.658  1.00  0.00    -0.297 N 
ATOM     21  H1  UNL     1      50.328 -76.351 -38.065  1.00  0.00     0.186 HD
ATOM     22  H2  UNL     1      47.895 -76.888 -38.433  1.00  0.00     0.187 HD
BRANCH  17  23
HETATM   23  O1  UNL     1      49.079 -79.041 -34.708  1.00  0.00    -0.348 OA
BRANCH  23  24
HETATM   24  C2  UNL     1      50.125 -79.014 -33.774  1.00  0.00     0.171 C 
HETATM   25  C1  UNL     1      49.890 -80.081 -32.715  1.00  0.00     0.034 C 
ENDBRANCH  23  24
ENDBRANCH  17  23
ENDBRANCH   1  16
TORSDOF 7
ENDMDL
MODEL 4
REMARK VINA RESULT: -5.196300439      2.925      4.088
REMARK  7 active torsions:
REMARK  status: ('A' for Active; 'I' for Inactive)
REMARK    1  A    between atoms: C2_2  and  O1_3 
REMARK    2  A    between atoms: O1_3  and  C3_4 
REMARK    3  A    between atoms: C5_10  and  C6_11 
REMARK    4  A    between atoms: N3_12  and  N4_14 
REMARK    5  A    between atoms: N4_14  and  C7_16 
REMARK    6  A    between atoms: C7_16  and  N5_18 
REMARK    7  A    between atoms: N5_18  and  C8_20 
ROOT
HETATM    1  C6  UNL     1      45.542 -81.236 -36.087  1.00  0.00     0.141 C 
HETATM    2  N3  UNL     1      46.235 -80.190 -36.241  1.00  0.00    -0.307 N 
ATOM      3  H3  UNL     1      45.715 -79.331 -36.426  1.00  0.00     0.186 HD
ENDROOT
BRANCH   2   4
HETATM    4  N4  UNL     1      47.595 -80.066 -36.189  1.00  0.00    -0.277 N 
ATOM      5  H4  UNL     1      48.099 -80.362 -35.353  1.00  0.00     0.189 HD
BRANCH   4   6
HETATM    6  C7  UNL     1      48.304 -79.534 -37.282  1.00  0.00     0.186 C 
HETATM    7  S1  UNL     1      49.200 -78.188 -37.134  1.00  0.00    -0.040 SA
BRANCH   6   8
HETATM    8  N5  UNL     1      48.227 -80.176 -38.539  1.00  0.00    -0.361 N 
ATOM      9  H5  UNL     1      48.502 -81.157 -38.589  1.00  0.00     0.162 HD
BRANCH   8  10
HETATM   10  C8  UNL     1      47.782 -79.538 -39.762  1.00  0.00     0.083 C 
HETATM   11  C9  UNL     1      46.642 -78.580 -39.369  1.00  0.00     0.025 C 
HETATM   12  C10 UNL     1      46.316 -77.738 -40.558  1.00  0.00     0.002 C 
HETATM   13  C11 UNL     1      45.730 -78.647 -41.624  1.00  0.00     0.000 C 
HETATM   14  C12 UNL     1      46.609 -79.815 -41.918  1.00  0.00     0.002 C 
HETATM   15  C13 UNL     1      47.117 -80.537 -40.695  1.00  0.00     0.025 C 
ENDBRANCH   8  10
ENDBRANCH   6   8
ENDBRANCH   4   6
ENDBRANCH   2   4
BRANCH   1  16
HETATM   16  C5  UNL     1      46.035 -82.569 -35.814  1.00  0.00     0.099 A 
HETATM   17  C3  UNL     1      46.874 -83.281 -36.679  1.00  0.00     0.115 A 
HETATM   18  C4  UNL     1      47.129 -84.488 -36.095  1.00  0.00     0.146 A 
HETATM   19  N1  UNL     1      46.485 -84.528 -34.931  1.00  0.00    -0.309 N 
HETATM   20  N2  UNL     1      45.829 -83.371 -34.765  1.00  0.00    -0.297 N 
ATOM     21  H1  UNL     1      46.489 -85.309 -34.274  1.00  0.00     0.186 HD
ATOM     22  H2  UNL     1      45.255 -83.137 -33.956  1.00  0.00     0.187 HD
BRANCH  17  23
HETATM   23  O1  UNL     1      47.332 -82.805 -37.892  1.00  0.00    -0.348 OA
BRANCH  23  24
HETATM   24  C2  UNL     1      47.935 -83.658 -38.828  1.00  0.00     0.171 C 
HETATM   25  C1  UNL     1      46.886 -84.157 -39.811  1.00  0.00     0.034 C 
ENDBRANCH  23  24
ENDBRANCH  17  23
ENDBRANCH   1  16
TORSDOF 7
ENDMDL
MODEL 5
REMARK VINA RESULT: -5.144896496      2.452      3.609
REMARK  7 active torsions:
REMARK  status: ('A' for Active; 'I' for Inactive)
REMARK    1  A    between atoms: C2_2  and  O1_3 
REMARK    2  A    between atoms: O1_3  and  C3_4 
REMARK    3  A    between atoms: C5_10  and  C6_11 
REMARK    4  A    between atoms: N3_12  and  N4_14 
REMARK    5  A    between atoms: N4_14  and  C7_16 
REMARK    6  A    between atoms: C7_16  and  N5_18 
REMARK    7  A    between atoms: N5_18  and  C8_20 
ROOT
HETATM    1  C6  UNL     1      45.436 -80.502 -35.743  1.00  0.00     0.141 C 
HETATM    2  N3  UNL     1      45.923 -79.656 -36.547  1.00  0.00    -0.307 N 
ATOM      3  H3  UNL     1      45.355 -78.828 -36.724  1.00  0.00     0.186 HD
ENDROOT
BRANCH   2   4
HETATM    4  N4  UNL     1      47.119 -79.715 -37.207  1.00  0.00    -0.277 N 
ATOM      5  H4  UNL     1      47.715 -80.536 -37.104  1.00  0.00     0.189 HD
BRANCH   4   6
HETATM    6  C7  UNL     1      47.533 -78.649 -38.027  1.00  0.00     0.186 C 
HETATM    7  S1  UNL     1      48.862 -77.783 -37.681  1.00  0.00    -0.040 SA
BRANCH   6   8
HETATM    8  N5  UNL     1      46.770 -78.316 -39.170  1.00  0.00    -0.361 N 
ATOM      9  H5  UNL     1      45.989 -77.670 -39.048  1.00  0.00     0.162 HD
BRANCH   8  10
HETATM   10  C8  UNL     1      47.019 -78.829 -40.503  1.00  0.00     0.083 C 
HETATM   11  C9  UNL     1      45.702 -78.679 -41.285  1.00  0.00     0.025 C 
HETATM   12  C10 UNL     1      45.980 -78.979 -42.720  1.00  0.00     0.002 C 
HETATM   13  C11 UNL     1      46.347 -80.449 -42.824  1.00  0.00     0.000 C 
HETATM   14  C12 UNL     1      47.447 -80.826 -41.891  1.00  0.00     0.002 C 
HETATM   15  C13 UNL     1      47.264 -80.328 -40.478  1.00  0.00     0.025 C 
ENDBRANCH   8  10
ENDBRANCH   6   8
ENDBRANCH   4   6
ENDBRANCH   2   4
BRANCH   1  16
HETATM   16  C5  UNL     1      46.039 -81.750 -35.327  1.00  0.00     0.099 A 
HETATM   17  C3  UNL     1      47.380 -81.878 -34.946  1.00  0.00     0.115 A 
HETATM   18  C4  UNL     1      47.587 -83.186 -34.621  1.00  0.00     0.146 A 
HETATM   19  N1  UNL     1      46.440 -83.841 -34.791  1.00  0.00    -0.309 N 
HETATM   20  N2  UNL     1      45.512 -82.973 -35.214  1.00  0.00    -0.297 N 
ATOM     21  H1  UNL     1      46.293 -84.837 -34.626  1.00  0.00     0.186 HD
ATOM     22  H2  UNL     1      44.542 -83.211 -35.421  1.00  0.00     0.187 HD
BRANCH  17  23
HETATM   23  O1  UNL     1      48.288 -80.837 -34.920  1.00  0.00    -0.348 OA
BRANCH  23  24
HETATM   24  C2  UNL     1      49.276 -80.757 -33.927  1.00  0.00     0.171 C 
HETATM   25  C1  UNL     1      49.639 -79.299 -33.686  1.00  0.00     0.034 C 
ENDBRANCH  23  24
ENDBRANCH  17  23
ENDBRANCH   1  16
TORSDOF 7
ENDMDL
