MODEL 1
REMARK VINA RESULT: -5.176272540      0.000      0.000
REMARK  9 active torsions:
REMARK  status: ('A' for Active; 'I' for Inactive)
REMARK    1  A    between atoms: C2_2  and  C3_3 
REMARK    2  A    between atoms: C3_3  and  C4_4 
REMARK    3  A    between atoms: C4_4  and  N1_6 
REMARK    4  A    between atoms: N1_6  and  S1_8 
REMARK    5  A    between atoms: S1_8  and  N2_10 
REMARK    6  A    between atoms: S1_8  and  N4_17 
REMARK    7  A    between atoms: N2_10  and  C6_12 
REMARK       I    between atoms: N4_17  and  C8_19 
REMARK    8  A    between atoms: C8_19  and  O3_21 
REMARK    9  A    between atoms: O3_21  and  C9_22 
ROOT
HETATM    1  S1  UNL     1      46.772 -78.817 -36.678  1.00  0.00     0.204 S 
HETATM    2  O1  UNL     1      45.424 -78.438 -36.064  1.00  0.00    -0.205 OA
ENDROOT
BRANCH   1   3
HETATM    3  N1  UNL     1      46.900 -78.106 -38.163  1.00  0.00    -0.315 N 
ATOM      4  H1  UNL     1      47.172 -77.123 -38.198  1.00  0.00     0.172 HD
BRANCH   3   5
HETATM    5  C4  UNL     1      46.662 -78.758 -39.371  1.00  0.00     0.089 C 
HETATM    6  C5  UNL     1      47.759 -79.672 -39.847  1.00  0.00     0.033 C 
BRANCH   5   7
HETATM    7  C3  UNL     1      46.319 -77.777 -40.464  1.00  0.00     0.025 C 
BRANCH   7   8
HETATM    8  C2  UNL     1      45.783 -78.418 -41.706  1.00  0.00    -0.002 C 
HETATM    9  C1  UNL     1      45.512 -77.309 -42.723  1.00  0.00     0.005 C 
ENDBRANCH   7   8
ENDBRANCH   5   7
ENDBRANCH   3   5
ENDBRANCH   1   3
BRANCH   1  10
HETATM   10  N2  UNL     1      46.619 -80.398 -36.885  1.00  0.00    -0.274 N 
ATOM     11  H2  UNL     1      46.584 -80.825 -37.811  1.00  0.00     0.180 HD
BRANCH  10  12
HETATM   12  C6  UNL     1      46.535 -81.164 -35.697  1.00  0.00     0.080 C 
HETATM   13  C7  UNL     1      47.825 -81.744 -35.195  1.00  0.00     0.089 C 
HETATM   14  N3  UNL     1      45.430 -81.365 -35.071  1.00  0.00    -0.389 N 
ATOM     15  H32 UNL     1      44.553 -80.971 -35.413  1.00  0.00     0.157 HD
ATOM     16  H31 UNL     1      45.369 -81.917 -34.216  1.00  0.00     0.157 HD
ENDBRANCH  10  12
ENDBRANCH   1  10
BRANCH   1  17
HETATM   17  N4  UNL     1      47.951 -78.488 -35.499  1.00  0.00    -0.230 N 
HETATM   18  C8  UNL     1      49.322 -78.326 -35.838  1.00  0.00     0.375 C 
HETATM   19  O2  UNL     1      49.700 -78.433 -37.062  1.00  0.00    -0.237 OA
ATOM     20  H4  UNL     1      47.668 -78.404 -34.523  1.00  0.00     0.184 HD
BRANCH  18  21
HETATM   21  O3  UNL     1      50.332 -78.053 -34.953  1.00  0.00    -0.293 OA
BRANCH  21  22
HETATM   22  C9  UNL     1      50.924 -79.059 -34.116  1.00  0.00     0.061 C 
HETATM   23  C10 UNL     1      52.146 -78.368 -33.498  1.00  0.00     0.046 C 
HETATM   24  C11 UNL     1      49.984 -79.476 -32.999  1.00  0.00     0.046 C 
HETATM   25  C12 UNL     1      51.391 -80.239 -34.894  1.00  0.00     0.046 C 
ENDBRANCH  21  22
ENDBRANCH  18  21
ENDBRANCH   1  17
TORSDOF 9
ENDMDL
MODEL 2
REMARK VINA RESULT: -5.134433726      1.778      2.200
REMARK  9 active torsions:
REMARK  status: ('A' for Active; 'I' for Inactive)
REMARK    1  A    between atoms: C2_2  and  C3_3 
REMARK    2  A    between atoms: C3_3  and  C4_4 
REMARK    3  A    between atoms: C4_4  and  N1_6 
REMARK    4  A    between atoms: N1_6  and  S1_8 
REMARK    5  A    between atoms: S1_8  and  N2_10 
REMARK    6  A    between atoms: S1_8  and  N4_17 
REMARK    7  A    between atoms: N2_10  and  C6_12 
REMARK       I    between atoms: N4_17  and  C8_19 
REMARK    8  A    between atoms: C8_19  and  O3_21 
REMARK    9  A    between atoms: O3_21  and  C9_22 
ROOT
HETATM    1  S1  UNL     1      46.950 -78.939 -37.053  1.00  0.00     0.204 S 
HETATM    2  O1  UNL     1      46.074 -78.262 -35.999  1.00  0.00    -0.205 OA
ENDROOT
BRANCH   1   3
HETATM    3  N1  UNL     1      45.981 -79.506 -38.265  1.00  0.00    -0.315 N 
ATOM      4  H1  UNL     1      44.997 -79.667 -38.053  1.00  0.00     0.172 HD
BRANCH   3   5
HETATM    5  C4  UNL     1      46.420 -79.781 -39.560  1.00  0.00     0.089 C 
HETATM    6  C5  UNL     1      47.773 -80.431 -39.666  1.00  0.00     0.033 C 
BRANCH   5   7
HETATM    7  C3  UNL     1      46.392 -78.544 -40.421  1.00  0.00     0.025 C 
BRANCH   7   8
HETATM    8  C2  UNL     1      45.778 -78.759 -41.769  1.00  0.00    -0.002 C 
HETATM    9  C1  UNL     1      45.521 -77.385 -42.389  1.00  0.00     0.005 C 
ENDBRANCH   7   8
ENDBRANCH   5   7
ENDBRANCH   3   5
ENDBRANCH   1   3
BRANCH   1  10
HETATM   10  N2  UNL     1      47.543 -80.191 -36.250  1.00  0.00    -0.274 N 
ATOM     11  H2  UNL     1      48.507 -80.217 -35.917  1.00  0.00     0.180 HD
BRANCH  10  12
HETATM   12  C6  UNL     1      46.640 -81.260 -36.033  1.00  0.00     0.080 C 
HETATM   13  C7  UNL     1      46.947 -82.538 -36.756  1.00  0.00     0.089 C 
HETATM   14  N3  UNL     1      45.611 -81.162 -35.268  1.00  0.00    -0.389 N 
ATOM     15  H32 UNL     1      45.402 -80.293 -34.776  1.00  0.00     0.157 HD
ATOM     16  H31 UNL     1      44.961 -81.932 -35.112  1.00  0.00     0.157 HD
ENDBRANCH  10  12
ENDBRANCH   1  10
BRANCH   1  17
HETATM   17  N4  UNL     1      48.189 -77.840 -37.432  1.00  0.00    -0.230 N 
HETATM   18  C8  UNL     1      49.279 -77.609 -36.549  1.00  0.00     0.375 C 
HETATM   19  O2  UNL     1      49.342 -78.234 -35.428  1.00  0.00    -0.237 OA
ATOM     20  H4  UNL     1      48.151 -77.333 -38.316  1.00  0.00     0.184 HD
BRANCH  18  21
HETATM   21  O3  UNL     1      50.319 -76.748 -36.781  1.00  0.00    -0.293 OA
BRANCH  21  22
HETATM   22  C9  UNL     1      51.628 -77.198 -37.164  1.00  0.00     0.061 C 
HETATM   23  C10 UNL     1      52.127 -76.125 -38.141  1.00  0.00     0.046 C 
HETATM   24  C11 UNL     1      52.569 -77.247 -35.974  1.00  0.00     0.046 C 
HETATM   25  C12 UNL     1      51.591 -78.505 -37.876  1.00  0.00     0.046 C 
ENDBRANCH  21  22
ENDBRANCH  18  21
ENDBRANCH   1  17
TORSDOF 9
ENDMDL
MODEL 3
REMARK VINA RESULT: -4.966093661      1.909      2.532
REMARK  9 active torsions:
REMARK  status: ('A' for Active; 'I' for Inactive)
REMARK    1  A    between atoms: C2_2  and  C3_3 
REMARK    2  A    between atoms: C3_3  and  C4_4 
REMARK    3  A    between atoms: C4_4  and  N1_6 
REMARK    4  A    between atoms: N1_6  and  S1_8 
REMARK    5  A    between atoms: S1_8  and  N2_10 
REMARK    6  A    between atoms: S1_8  and  N4_17 
REMARK    7  A    between atoms: N2_10  and  C6_12 
REMARK       I    between atoms: N4_17  and  C8_19 
REMARK    8  A    between atoms: C8_19  and  O3_21 
REMARK    9  A    between atoms: O3_21  and  C9_22 
ROOT
HETATM    1  S1  UNL     1      47.206 -78.482 -36.850  1.00  0.00     0.204 S 
HETATM    2  O1  UNL     1      46.305 -78.084 -35.680  1.00  0.00    -0.205 OA
ENDROOT
BRANCH   1   3
HETATM    3  N1  UNL     1      46.281 -78.624 -38.211  1.00  0.00    -0.315 N 
ATOM      4  H1  UNL     1      45.268 -78.643 -38.098  1.00  0.00     0.172 HD
BRANCH   3   5
HETATM    5  C4  UNL     1      46.794 -78.721 -39.504  1.00  0.00     0.089 C 
HETATM    6  C5  UNL     1      46.356 -77.646 -40.461  1.00  0.00     0.033 C 
BRANCH   5   7
HETATM    7  C3  UNL     1      46.506 -80.074 -40.106  1.00  0.00     0.025 C 
BRANCH   7   8
HETATM    8  C2  UNL     1      47.720 -80.770 -40.637  1.00  0.00    -0.002 C 
HETATM    9  C1  UNL     1      47.494 -81.029 -42.127  1.00  0.00     0.005 C 
ENDBRANCH   7   8
ENDBRANCH   5   7
ENDBRANCH   3   5
ENDBRANCH   1   3
BRANCH   1  10
HETATM   10  N2  UNL     1      47.700 -79.943 -36.417  1.00  0.00    -0.274 N 
ATOM     11  H2  UNL     1      48.675 -80.143 -36.194  1.00  0.00     0.180 HD
BRANCH  10  12
HETATM   12  C6  UNL     1      46.694 -80.937 -36.367  1.00  0.00     0.080 C 
HETATM   13  C7  UNL     1      46.933 -82.159 -37.204  1.00  0.00     0.089 C 
HETATM   14  N3  UNL     1      45.630 -80.819 -35.655  1.00  0.00    -0.389 N 
ATOM     15  H32 UNL     1      45.467 -79.988 -35.086  1.00  0.00     0.157 HD
ATOM     16  H31 UNL     1      44.904 -81.535 -35.618  1.00  0.00     0.157 HD
ENDBRANCH  10  12
ENDBRANCH   1  10
BRANCH   1  17
HETATM   17  N4  UNL     1      48.511 -77.393 -36.848  1.00  0.00    -0.230 N 
HETATM   18  C8  UNL     1      49.753 -77.715 -37.460  1.00  0.00     0.375 C 
HETATM   19  O2  UNL     1      49.914 -78.855 -38.030  1.00  0.00    -0.237 OA
ATOM     20  H4  UNL     1      48.400 -76.486 -36.396  1.00  0.00     0.184 HD
BRANCH  18  21
HETATM   21  O3  UNL     1      50.849 -76.894 -37.509  1.00  0.00    -0.293 OA
BRANCH  21  22
HETATM   22  C9  UNL     1      51.781 -76.776 -36.422  1.00  0.00     0.061 C 
HETATM   23  C10 UNL     1      53.126 -77.196 -37.027  1.00  0.00     0.046 C 
HETATM   24  C11 UNL     1      51.891 -75.341 -35.938  1.00  0.00     0.046 C 
HETATM   25  C12 UNL     1      51.458 -77.699 -35.299  1.00  0.00     0.046 C 
ENDBRANCH  21  22
ENDBRANCH  18  21
ENDBRANCH   1  17
TORSDOF 9
ENDMDL
MODEL 4
REMARK VINA RESULT: -4.949599168      7.607     10.735
REMARK  9 active torsions:
REMARK  status: ('A' for Active; 'I' for Inactive)
REMARK    1  A    between atoms: C2_2  and  C3_3 
REMARK    2  A    between atoms: C3_3  and  C4_4 
REMARK    3  A    between atoms: C4_4  and  N1_6 
REMARK    4  A    between atoms: N1_6  and  S1_8 
REMARK    5  A    between atoms: S1_8  and  N2_10 
REMARK    6  A    between atoms: S1_8  and  N4_17 
REMARK    7  A    between atoms: N2_10  and  C6_12 
REMARK       I    between atoms: N4_17  and  C8_19 
REMARK    8  A    between atoms: C8_19  and  O3_21 
REMARK    9  A    between atoms: O3_21  and  C9_22 
ROOT
HETATM    1  S1  UNL     1      47.264 -80.713 -46.073  1.00  0.00     0.204 S 
HETATM    2  O1  UNL     1      48.429 -81.689 -46.239  1.00  0.00    -0.205 OA
ENDROOT
BRANCH   1   3
HETATM    3  N1  UNL     1      46.382 -81.158 -44.748  1.00  0.00    -0.315 N 
ATOM      4  H1  UNL     1      45.472 -81.592 -44.906  1.00  0.00     0.172 HD
BRANCH   3   5
HETATM    5  C4  UNL     1      46.798 -80.980 -43.430  1.00  0.00     0.089 C 
HETATM    6  C5  UNL     1      46.697 -82.192 -42.544  1.00  0.00     0.033 C 
BRANCH   5   7
HETATM    7  C3  UNL     1      46.078 -79.824 -42.781  1.00  0.00     0.025 C 
BRANCH   7   8
HETATM    8  C2  UNL     1      46.464 -79.597 -41.352  1.00  0.00    -0.002 C 
HETATM    9  C1  UNL     1      46.226 -78.120 -41.035  1.00  0.00     0.005 C 
ENDBRANCH   7   8
ENDBRANCH   5   7
ENDBRANCH   3   5
ENDBRANCH   1   3
BRANCH   1  10
HETATM   10  N2  UNL     1      46.389 -81.001 -47.384  1.00  0.00    -0.274 N 
ATOM     11  H2  UNL     1      45.371 -81.064 -47.356  1.00  0.00     0.180 HD
BRANCH  10  12
HETATM   12  C6  UNL     1      47.123 -81.163 -48.583  1.00  0.00     0.080 C 
HETATM   13  C7  UNL     1      47.163 -79.973 -49.496  1.00  0.00     0.089 C 
HETATM   14  N3  UNL     1      47.725 -82.256 -48.892  1.00  0.00    -0.389 N 
ATOM     15  H32 UNL     1      47.698 -83.066 -48.272  1.00  0.00     0.157 HD
ATOM     16  H31 UNL     1      48.254 -82.374 -49.757  1.00  0.00     0.157 HD
ENDBRANCH  10  12
ENDBRANCH   1  10
BRANCH   1  17
HETATM   17  N4  UNL     1      47.927 -79.151 -46.137  1.00  0.00    -0.230 N 
HETATM   18  C8  UNL     1      47.110 -77.989 -46.078  1.00  0.00     0.375 C 
HETATM   19  O2  UNL     1      45.834 -78.104 -45.979  1.00  0.00    -0.237 OA
ATOM     20  H4  UNL     1      48.938 -79.043 -46.220  1.00  0.00     0.184 HD
BRANCH  18  21
HETATM   21  O3  UNL     1      47.564 -76.697 -46.117  1.00  0.00    -0.293 OA
BRANCH  21  22
HETATM   22  C9  UNL     1      48.001 -76.062 -47.329  1.00  0.00     0.061 C 
HETATM   23  C10 UNL     1      47.729 -74.571 -47.097  1.00  0.00     0.046 C 
HETATM   24  C11 UNL     1      49.490 -76.258 -47.552  1.00  0.00     0.046 C 
HETATM   25  C12 UNL     1      47.217 -76.507 -48.514  1.00  0.00     0.046 C 
ENDBRANCH  21  22
ENDBRANCH  18  21
ENDBRANCH   1  17
TORSDOF 9
ENDMDL
MODEL 5
REMARK VINA RESULT: -4.897611310      1.957      2.656
REMARK  9 active torsions:
REMARK  status: ('A' for Active; 'I' for Inactive)
REMARK    1  A    between atoms: C2_2  and  C3_3 
REMARK    2  A    between atoms: C3_3  and  C4_4 
REMARK    3  A    between atoms: C4_4  and  N1_6 
REMARK    4  A    between atoms: N1_6  and  S1_8 
REMARK    5  A    between atoms: S1_8  and  N2_10 
REMARK    6  A    between atoms: S1_8  and  N4_17 
REMARK    7  A    between atoms: N2_10  and  C6_12 
REMARK       I    between atoms: N4_17  and  C8_19 
REMARK    8  A    between atoms: C8_19  and  O3_21 
REMARK    9  A    between atoms: O3_21  and  C9_22 
ROOT
HETATM    1  S1  UNL     1      47.307 -78.510 -37.035  1.00  0.00     0.204 S 
HETATM    2  O1  UNL     1      46.481 -78.040 -35.838  1.00  0.00    -0.205 OA
ENDROOT
BRANCH   1   3
HETATM    3  N1  UNL     1      46.330 -78.575 -38.365  1.00  0.00    -0.315 N 
ATOM      4  H1  UNL     1      45.321 -78.554 -38.216  1.00  0.00     0.172 HD
BRANCH   3   5
HETATM    5  C4  UNL     1      46.792 -78.659 -39.678  1.00  0.00     0.089 C 
HETATM    6  C5  UNL     1      46.313 -77.577 -40.608  1.00  0.00     0.033 C 
BRANCH   5   7
HETATM    7  C3  UNL     1      46.486 -80.007 -40.280  1.00  0.00     0.025 C 
BRANCH   7   8
HETATM    8  C2  UNL     1      47.703 -80.765 -40.713  1.00  0.00    -0.002 C 
HETATM    9  C1  UNL     1      47.563 -81.054 -42.208  1.00  0.00     0.005 C 
ENDBRANCH   7   8
ENDBRANCH   5   7
ENDBRANCH   3   5
ENDBRANCH   1   3
BRANCH   1  10
HETATM   10  N2  UNL     1      47.693 -80.007 -36.615  1.00  0.00    -0.274 N 
ATOM     11  H2  UNL     1      48.656 -80.290 -36.432  1.00  0.00     0.180 HD
BRANCH  10  12
HETATM   12  C6  UNL     1      46.609 -80.912 -36.517  1.00  0.00     0.080 C 
HETATM   13  C7  UNL     1      46.706 -82.151 -37.358  1.00  0.00     0.089 C 
HETATM   14  N3  UNL     1      45.590 -80.703 -35.761  1.00  0.00    -0.389 N 
ATOM     15  H32 UNL     1      45.523 -79.861 -35.189  1.00  0.00     0.157 HD
ATOM     16  H31 UNL     1      44.808 -81.354 -35.690  1.00  0.00     0.157 HD
ENDBRANCH  10  12
ENDBRANCH   1  10
BRANCH   1  17
HETATM   17  N4  UNL     1      48.697 -77.533 -37.078  1.00  0.00    -0.230 N 
HETATM   18  C8  UNL     1      49.750 -77.689 -36.136  1.00  0.00     0.375 C 
HETATM   19  O2  UNL     1      49.664 -78.584 -35.218  1.00  0.00    -0.237 OA
ATOM     20  H4  UNL     1      48.777 -76.816 -37.799  1.00  0.00     0.184 HD
BRANCH  18  21
HETATM   21  O3  UNL     1      50.903 -76.950 -36.106  1.00  0.00    -0.293 OA
BRANCH  21  22
HETATM   22  C9  UNL     1      51.979 -77.150 -37.036  1.00  0.00     0.061 C 
HETATM   23  C10 UNL     1      53.245 -77.079 -36.174  1.00  0.00     0.046 C 
HETATM   24  C11 UNL     1      51.906 -78.523 -37.682  1.00  0.00     0.046 C 
HETATM   25  C12 UNL     1      52.045 -76.075 -38.064  1.00  0.00     0.046 C 
ENDBRANCH  21  22
ENDBRANCH  18  21
ENDBRANCH   1  17
TORSDOF 9
ENDMDL
