MODEL 1
REMARK VINA RESULT: -9.569244288      0.000      0.000
REMARK  18 active torsions:
REMARK  status: ('A' for Active; 'I' for Inactive)
REMARK    1  A    between atoms: O1_2  and  C2_3 
REMARK    2  A    between atoms: C3_4  and  O2_5 
REMARK    3  A    between atoms: C6_9  and  C7_10 
REMARK    4  A    between atoms: C8_11  and  C9_12 
REMARK    5  A    between atoms: C9_12  and  C10_14 
REMARK    6  A    between atoms: C10_14  and  O4_15 
REMARK    7  A    between atoms: C10_14  and  C11_17 
REMARK    8  A    between atoms: C11_17  and  C12_19 
REMARK    9  A    between atoms: C12_19  and  O6_20 
REMARK   10  A    between atoms: C17_26  and  O7_27 
REMARK   11  A    between atoms: C19_31  and  O9_32 
REMARK   12  A    between atoms: O9_32  and  C20_33 
REMARK   13  A    between atoms: C22_37  and  O12_38 
REMARK   14  A    between atoms: O12_38  and  C23_39 
REMARK   15  A    between atoms: C23_39  and  C24_41 
REMARK   16  A    between atoms: C24_41  and  N1_43 
REMARK   17  A    between atoms: C26_47  and  C27_48 
REMARK   18  A    between atoms: C29_54  and  O18_55 
ROOT
HETATM    1  C12 UNL     1      17.015 -56.867 -56.892  1.00  0.00     0.208 A 
HETATM    2  C13 UNL     1      16.996 -58.238 -56.374  1.00  0.00     0.042 A 
HETATM    3  C14 UNL     1      17.202 -58.574 -55.123  1.00  0.00     0.011 A 
HETATM    4  C15 UNL     1      17.212 -59.829 -54.505  1.00  0.00     0.009 A 
HETATM    5  C16 UNL     1      16.976 -61.129 -55.184  1.00  0.00     0.054 C 
HETATM    6  C17 UNL     1      17.481 -59.628 -53.167  1.00  0.00     0.190 A 
HETATM    7  O8  UNL     1      17.622 -58.354 -52.982  1.00  0.00    -0.284 OA
HETATM    8  C18 UNL     1      17.467 -57.689 -54.114  1.00  0.00     0.126 A 
HETATM    9  C19 UNL     1      17.522 -56.374 -54.412  1.00  0.00     0.159 A 
HETATM   10  C28 UNL     1      17.305 -55.923 -55.764  1.00  0.00     0.231 A 
HETATM   11  O17 UNL     1      17.363 -54.672 -56.005  1.00  0.00    -0.286 OA
ENDROOT
BRANCH   1  12
HETATM   12  C11 UNL     1      15.670 -56.596 -57.469  1.00  0.00     0.209 C 
HETATM   13  O5  UNL     1      14.727 -56.960 -56.783  1.00  0.00    -0.290 OA
BRANCH  12  14
HETATM   14  C10 UNL     1      15.470 -55.934 -58.774  1.00  0.00     0.265 C 
BRANCH  14  15
HETATM   15  C9  UNL     1      15.679 -56.950 -59.894  1.00  0.00     0.185 C 
HETATM   16  O3  UNL     1      16.833 -56.973 -60.322  1.00  0.00    -0.290 OA
BRANCH  15  17
HETATM   17  C8  UNL     1      14.608 -57.765 -60.359  1.00  0.00     0.054 C 
HETATM   18  C7  UNL     1      14.032 -58.859 -60.123  1.00  0.00     0.018 C 
BRANCH  18  19
HETATM   19  C6  UNL     1      14.103 -59.968 -59.220  1.00  0.00     0.000 A 
HETATM   20  C5  UNL     1      15.212 -60.736 -59.049  1.00  0.00     0.017 A 
HETATM   21  C4  UNL     1      15.245 -61.845 -58.181  1.00  0.00     0.040 A 
HETATM   22  C3  UNL     1      14.133 -62.169 -57.480  1.00  0.00     0.101 A 
HETATM   23  C2  UNL     1      12.994 -61.417 -57.624  1.00  0.00     0.135 A 
HETATM   24  C29 UNL     1      12.973 -60.344 -58.469  1.00  0.00     0.112 A 
BRANCH  22  25
HETATM   25  O2  UNL     1      14.130 -63.243 -56.624  1.00  0.00    -0.358 OA
ATOM     26  H2  UNL     1      14.933 -63.491 -56.183  1.00  0.00     0.217 HD
ENDBRANCH  22  25
BRANCH  23  27
HETATM   27  O1  UNL     1      11.872 -61.774 -56.892  1.00  0.00    -0.351 OA
HETATM   28  C1  UNL     1      10.910 -62.591 -57.549  1.00  0.00     0.210 C 
ENDBRANCH  23  27
BRANCH  24  29
HETATM   29  O18 UNL     1      11.817 -59.571 -58.624  1.00  0.00    -0.357 OA
ATOM     30  H18 UNL     1      11.085 -59.884 -59.142  1.00  0.00     0.217 HD
ENDBRANCH  24  29
ENDBRANCH  18  19
ENDBRANCH  15  17
ENDBRANCH  14  15
BRANCH  14  31
HETATM   31  O4  UNL     1      16.371 -54.897 -58.967  1.00  0.00    -0.380 OA
ATOM     32  H4  UNL     1      16.354 -54.663 -59.887  1.00  0.00     0.211 HD
ENDBRANCH  14  31
ENDBRANCH  12  14
ENDBRANCH   1  12
BRANCH   1  33
HETATM   33  O6  UNL     1      18.043 -56.700 -57.800  1.00  0.00    -0.371 OA
ATOM     34  H6  UNL     1      18.160 -55.797 -58.074  1.00  0.00     0.212 HD
ENDBRANCH   1  33
BRANCH   9  35
HETATM   35  O9  UNL     1      17.788 -55.524 -53.383  1.00  0.00    -0.289 OA
BRANCH  35  36
HETATM   36  C20 UNL     1      18.846 -54.660 -53.164  1.00  0.00     0.428 C 
HETATM   37  O10 UNL     1      18.342 -53.367 -52.891  1.00  0.00    -0.263 OA
HETATM   38  C21 UNL     1      17.855 -53.106 -51.623  1.00  0.00     0.295 C 
HETATM   39  O11 UNL     1      16.848 -52.413 -51.361  1.00  0.00    -0.262 OA
HETATM   40  C22 UNL     1      18.598 -53.708 -50.492  1.00  0.00     0.271 C 
HETATM   41  C26 UNL     1      19.256 -55.009 -50.880  1.00  0.00     0.267 C 
HETATM   42  O16 UNL     1      19.676 -55.098 -52.167  1.00  0.00    -0.319 OA
BRANCH  40  43
HETATM   43  O12 UNL     1      19.616 -52.761 -50.133  1.00  0.00    -0.301 OA
BRANCH  43  44
HETATM   44  C23 UNL     1      20.425 -53.059 -49.072  1.00  0.00     0.290 C 
HETATM   45  O13 UNL     1      21.656 -53.161 -49.238  1.00  0.00    -0.263 OA
BRANCH  44  46
HETATM   46  C24 UNL     1      19.859 -53.266 -47.710  1.00  0.00     0.278 C 
HETATM   47  C25 UNL     1      20.867 -53.978 -46.833  1.00  0.00     0.050 C 
BRANCH  46  48
HETATM   48  N1  UNL     1      19.541 -52.013 -47.069  1.00  0.00    -0.066 N 
ATOM     49  H13 UNL     1      20.198 -51.801 -46.318  1.00  0.00     0.275 HD
ATOM     50  H12 UNL     1      19.740 -51.221 -47.681  1.00  0.00     0.275 HD
ATOM     51  H11 UNL     1      18.577 -51.994 -46.737  1.00  0.00     0.275 HD
ENDBRANCH  46  48
ENDBRANCH  44  46
ENDBRANCH  43  44
ENDBRANCH  40  43
BRANCH  41  52
HETATM   52  C27 UNL     1      18.481 -56.172 -50.381  1.00  0.00     0.206 C 
HETATM   53  O14 UNL     1      17.279 -56.020 -50.056  1.00  0.00    -0.646 OA
HETATM   54  O15 UNL     1      19.037 -57.433 -50.255  1.00  0.00    -0.646 OA
ENDBRANCH  41  52
ENDBRANCH  35  36
ENDBRANCH   9  35
BRANCH   6  55
HETATM   55  O7  UNL     1      17.566 -60.669 -52.241  1.00  0.00    -0.340 OA
ATOM     56  H7  UNL     1      18.381 -61.106 -52.025  1.00  0.00     0.220 HD
ENDBRANCH   6  55
TORSDOF 18
ENDMDL
MODEL 2
REMARK VINA RESULT: -9.218175007      1.668      3.591
REMARK  18 active torsions:
REMARK  status: ('A' for Active; 'I' for Inactive)
REMARK    1  A    between atoms: O1_2  and  C2_3 
REMARK    2  A    between atoms: C3_4  and  O2_5 
REMARK    3  A    between atoms: C6_9  and  C7_10 
REMARK    4  A    between atoms: C8_11  and  C9_12 
REMARK    5  A    between atoms: C9_12  and  C10_14 
REMARK    6  A    between atoms: C10_14  and  O4_15 
REMARK    7  A    between atoms: C10_14  and  C11_17 
REMARK    8  A    between atoms: C11_17  and  C12_19 
REMARK    9  A    between atoms: C12_19  and  O6_20 
REMARK   10  A    between atoms: C17_26  and  O7_27 
REMARK   11  A    between atoms: C19_31  and  O9_32 
REMARK   12  A    between atoms: O9_32  and  C20_33 
REMARK   13  A    between atoms: C22_37  and  O12_38 
REMARK   14  A    between atoms: O12_38  and  C23_39 
REMARK   15  A    between atoms: C23_39  and  C24_41 
REMARK   16  A    between atoms: C24_41  and  N1_43 
REMARK   17  A    between atoms: C26_47  and  C27_48 
REMARK   18  A    between atoms: C29_54  and  O18_55 
ROOT
HETATM    1  C12 UNL     1      16.735 -57.979 -55.493  1.00  0.00     0.208 A 
HETATM    2  C13 UNL     1      15.894 -56.964 -56.133  1.00  0.00     0.042 A 
HETATM    3  C14 UNL     1      15.804 -55.712 -55.754  1.00  0.00     0.011 A 
HETATM    4  C15 UNL     1      15.049 -54.653 -56.271  1.00  0.00     0.009 A 
HETATM    5  C16 UNL     1      14.130 -54.735 -57.437  1.00  0.00     0.054 C 
HETATM    6  C17 UNL     1      15.317 -53.540 -55.502  1.00  0.00     0.190 A 
HETATM    7  O8  UNL     1      16.167 -53.890 -54.590  1.00  0.00    -0.284 OA
HETATM    8  C18 UNL     1      16.484 -55.168 -54.698  1.00  0.00     0.126 A 
HETATM    9  C19 UNL     1      17.311 -55.965 -53.990  1.00  0.00     0.159 A 
HETATM   10  C28 UNL     1      17.467 -57.353 -54.344  1.00  0.00     0.231 A 
HETATM   11  O17 UNL     1      18.259 -58.073 -53.652  1.00  0.00    -0.286 OA
ENDROOT
BRANCH   1  12
HETATM   12  C11 UNL     1      17.693 -58.469 -56.521  1.00  0.00     0.209 C 
HETATM   13  O5  UNL     1      18.080 -57.626 -57.316  1.00  0.00    -0.290 OA
BRANCH  12  14
HETATM   14  C10 UNL     1      18.158 -59.869 -56.590  1.00  0.00     0.265 C 
BRANCH  14  15
HETATM   15  C9  UNL     1      17.034 -60.749 -57.130  1.00  0.00     0.185 C 
HETATM   16  O3  UNL     1      16.680 -61.627 -56.342  1.00  0.00    -0.290 OA
BRANCH  15  17
HETATM   17  C8  UNL     1      16.485 -60.532 -58.426  1.00  0.00     0.054 C 
HETATM   18  C7  UNL     1      15.422 -60.170 -58.994  1.00  0.00     0.018 C 
BRANCH  18  19
HETATM   19  C6  UNL     1      14.092 -59.744 -58.674  1.00  0.00     0.000 A 
HETATM   20  C5  UNL     1      13.762 -58.465 -58.352  1.00  0.00     0.017 A 
HETATM   21  C4  UNL     1      12.453 -58.080 -58.005  1.00  0.00     0.040 A 
HETATM   22  C3  UNL     1      11.472 -59.013 -57.989  1.00  0.00     0.101 A 
HETATM   23  C2  UNL     1      11.764 -60.315 -58.309  1.00  0.00     0.135 A 
HETATM   24  C29 UNL     1      13.039 -60.678 -58.644  1.00  0.00     0.112 A 
BRANCH  22  25
HETATM   25  O2  UNL     1      10.184 -58.672 -57.656  1.00  0.00    -0.358 OA
ATOM     26  H2  UNL     1       9.828 -57.844 -57.954  1.00  0.00     0.217 HD
ENDBRANCH  22  25
BRANCH  23  27
HETATM   27  O1  UNL     1      10.738 -61.246 -58.284  1.00  0.00    -0.351 OA
HETATM   28  C1  UNL     1      10.689 -62.117 -57.159  1.00  0.00     0.210 C 
ENDBRANCH  23  27
BRANCH  24  29
HETATM   29  O18 UNL     1      13.348 -62.002 -58.971  1.00  0.00    -0.357 OA
ATOM     30  H18 UNL     1      14.201 -62.234 -59.318  1.00  0.00     0.217 HD
ENDBRANCH  24  29
ENDBRANCH  18  19
ENDBRANCH  15  17
ENDBRANCH  14  15
BRANCH  14  31
HETATM   31  O4  UNL     1      18.514 -60.354 -55.340  1.00  0.00    -0.380 OA
ATOM     32  H4  UNL     1      18.002 -59.886 -54.690  1.00  0.00     0.211 HD
ENDBRANCH  14  31
ENDBRANCH  12  14
ENDBRANCH   1  12
BRANCH   1  33
HETATM   33  O6  UNL     1      15.959 -58.984 -54.946  1.00  0.00    -0.371 OA
ATOM     34  H6  UNL     1      15.028 -58.864 -55.094  1.00  0.00     0.212 HD
ENDBRANCH   1  33
BRANCH   9  35
HETATM   35  O9  UNL     1      17.970 -55.390 -52.947  1.00  0.00    -0.289 OA
BRANCH  35  36
HETATM   36  C20 UNL     1      19.291 -55.005 -52.804  1.00  0.00     0.428 C 
HETATM   37  O10 UNL     1      19.340 -53.646 -52.414  1.00  0.00    -0.263 OA
HETATM   38  C21 UNL     1      19.095 -53.335 -51.089  1.00  0.00     0.295 C 
HETATM   39  O11 UNL     1      18.452 -52.342 -50.683  1.00  0.00    -0.262 OA
HETATM   40  C22 UNL     1      19.646 -54.266 -50.077  1.00  0.00     0.271 C 
HETATM   41  C26 UNL     1      19.727 -55.679 -50.599  1.00  0.00     0.267 C 
HETATM   42  O16 UNL     1      19.973 -55.806 -51.927  1.00  0.00    -0.319 OA
BRANCH  40  43
HETATM   43  O12 UNL     1      20.973 -53.800 -49.786  1.00  0.00    -0.301 OA
BRANCH  43  44
HETATM   44  C23 UNL     1      21.182 -53.158 -48.597  1.00  0.00     0.290 C 
HETATM   45  O13 UNL     1      22.105 -52.327 -48.493  1.00  0.00    -0.263 OA
BRANCH  44  46
HETATM   46  C24 UNL     1      20.320 -53.435 -47.414  1.00  0.00     0.278 C 
HETATM   47  C25 UNL     1      21.161 -53.971 -46.275  1.00  0.00     0.050 C 
BRANCH  46  48
HETATM   48  N1  UNL     1      19.666 -52.239 -46.941  1.00  0.00    -0.066 N 
ATOM     49  H13 UNL     1      20.190 -51.402 -47.197  1.00  0.00     0.275 HD
ATOM     50  H12 UNL     1      18.808 -52.054 -47.459  1.00  0.00     0.275 HD
ATOM     51  H11 UNL     1      19.494 -52.277 -45.936  1.00  0.00     0.275 HD
ENDBRANCH  46  48
ENDBRANCH  44  46
ENDBRANCH  43  44
ENDBRANCH  40  43
BRANCH  41  52
HETATM   52  C27 UNL     1      18.614 -56.509 -50.075  1.00  0.00     0.206 C 
HETATM   53  O14 UNL     1      18.705 -57.760 -50.112  1.00  0.00    -0.646 OA
HETATM   54  O15 UNL     1      17.465 -55.954 -49.540  1.00  0.00    -0.646 OA
ENDBRANCH  41  52
ENDBRANCH  35  36
ENDBRANCH   9  35
BRANCH   6  55
HETATM   55  O7  UNL     1      14.734 -52.293 -55.734  1.00  0.00    -0.340 OA
ATOM     56  H7  UNL     1      14.468 -51.706 -55.036  1.00  0.00     0.220 HD
ENDBRANCH   6  55
TORSDOF 18
ENDMDL
MODEL 3
REMARK VINA RESULT: -9.171078793      2.163      3.916
REMARK  18 active torsions:
REMARK  status: ('A' for Active; 'I' for Inactive)
REMARK    1  A    between atoms: O1_2  and  C2_3 
REMARK    2  A    between atoms: C3_4  and  O2_5 
REMARK    3  A    between atoms: C6_9  and  C7_10 
REMARK    4  A    between atoms: C8_11  and  C9_12 
REMARK    5  A    between atoms: C9_12  and  C10_14 
REMARK    6  A    between atoms: C10_14  and  O4_15 
REMARK    7  A    between atoms: C10_14  and  C11_17 
REMARK    8  A    between atoms: C11_17  and  C12_19 
REMARK    9  A    between atoms: C12_19  and  O6_20 
REMARK   10  A    between atoms: C17_26  and  O7_27 
REMARK   11  A    between atoms: C19_31  and  O9_32 
REMARK   12  A    between atoms: O9_32  and  C20_33 
REMARK   13  A    between atoms: C22_37  and  O12_38 
REMARK   14  A    between atoms: O12_38  and  C23_39 
REMARK   15  A    between atoms: C23_39  and  C24_41 
REMARK   16  A    between atoms: C24_41  and  N1_43 
REMARK   17  A    between atoms: C26_47  and  C27_48 
REMARK   18  A    between atoms: C29_54  and  O18_55 
ROOT
HETATM    1  C12 UNL     1      16.038 -55.203 -56.144  1.00  0.00     0.208 A 
HETATM    2  C13 UNL     1      15.460 -53.874 -55.923  1.00  0.00     0.042 A 
HETATM    3  C14 UNL     1      15.715 -53.103 -54.893  1.00  0.00     0.011 A 
HETATM    4  C15 UNL     1      15.237 -51.830 -54.566  1.00  0.00     0.009 A 
HETATM    5  C16 UNL     1      14.274 -51.034 -55.371  1.00  0.00     0.054 C 
HETATM    6  C17 UNL     1      15.821 -51.464 -53.371  1.00  0.00     0.190 A 
HETATM    7  O8  UNL     1      16.594 -52.434 -52.999  1.00  0.00    -0.284 OA
HETATM    8  C18 UNL     1      16.563 -53.428 -53.870  1.00  0.00     0.126 A 
HETATM    9  C19 UNL     1      17.188 -54.624 -53.910  1.00  0.00     0.159 A 
HETATM   10  C28 UNL     1      16.961 -55.528 -55.009  1.00  0.00     0.231 A 
HETATM   11  O17 UNL     1      17.572 -56.647 -55.012  1.00  0.00    -0.286 OA
ENDROOT
BRANCH   1  12
HETATM   12  C11 UNL     1      16.786 -55.149 -57.429  1.00  0.00     0.209 C 
HETATM   13  O5  UNL     1      17.871 -54.589 -57.377  1.00  0.00    -0.290 OA
BRANCH  12  14
HETATM   14  C10 UNL     1      16.272 -55.727 -58.688  1.00  0.00     0.265 C 
BRANCH  14  15
HETATM   15  C9  UNL     1      17.156 -56.899 -59.104  1.00  0.00     0.185 C 
HETATM   16  O3  UNL     1      17.085 -57.161 -60.305  1.00  0.00    -0.290 OA
BRANCH  15  17
HETATM   17  C8  UNL     1      17.964 -57.587 -58.155  1.00  0.00     0.054 C 
HETATM   18  C7  UNL     1      18.056 -58.693 -57.561  1.00  0.00     0.018 C 
BRANCH  18  19
HETATM   19  C6  UNL     1      17.390 -59.959 -57.482  1.00  0.00     0.000 A 
HETATM   20  C5  UNL     1      17.334 -60.851 -58.506  1.00  0.00     0.017 A 
HETATM   21  C4  UNL     1      16.640 -62.073 -58.415  1.00  0.00     0.040 A 
HETATM   22  C3  UNL     1      16.000 -62.386 -57.264  1.00  0.00     0.101 A 
HETATM   23  C2  UNL     1      16.034 -61.512 -56.206  1.00  0.00     0.135 A 
HETATM   24  C29 UNL     1      16.709 -60.328 -56.306  1.00  0.00     0.112 A 
BRANCH  22  25
HETATM   25  O2  UNL     1      15.315 -63.570 -57.140  1.00  0.00    -0.358 OA
ATOM     26  H2  UNL     1      15.745 -64.384 -57.370  1.00  0.00     0.217 HD
ENDBRANCH  22  25
BRANCH  23  27
HETATM   27  O1  UNL     1      15.369 -61.861 -55.041  1.00  0.00    -0.351 OA
HETATM   28  C1  UNL     1      16.108 -62.603 -54.078  1.00  0.00     0.210 C 
ENDBRANCH  23  27
BRANCH  24  29
HETATM   29  O18 UNL     1      16.750 -59.430 -55.234  1.00  0.00    -0.357 OA
ATOM     30  H18 UNL     1      16.093 -58.750 -55.141  1.00  0.00     0.217 HD
ENDBRANCH  24  29
ENDBRANCH  18  19
ENDBRANCH  15  17
ENDBRANCH  14  15
BRANCH  14  31
HETATM   31  O4  UNL     1      16.282 -54.799 -59.719  1.00  0.00    -0.380 OA
ATOM     32  H4  UNL     1      17.141 -54.393 -59.738  1.00  0.00     0.211 HD
ENDBRANCH  14  31
ENDBRANCH  12  14
ENDBRANCH   1  12
BRANCH   1  33
HETATM   33  O6  UNL     1      15.055 -56.175 -56.124  1.00  0.00    -0.371 OA
ATOM     34  H6  UNL     1      15.323 -56.989 -56.535  1.00  0.00     0.212 HD
ENDBRANCH   1  33
BRANCH   9  35
HETATM   35  O9  UNL     1      18.023 -54.913 -52.875  1.00  0.00    -0.289 OA
BRANCH  35  36
HETATM   36  C20 UNL     1      19.371 -54.663 -52.693  1.00  0.00     0.428 C 
HETATM   37  O10 UNL     1      19.536 -53.373 -52.138  1.00  0.00    -0.263 OA
HETATM   38  C21 UNL     1      19.313 -53.209 -50.783  1.00  0.00     0.295 C 
HETATM   39  O11 UNL     1      18.757 -52.223 -50.253  1.00  0.00    -0.262 OA
HETATM   40  C22 UNL     1      19.778 -54.303 -49.898  1.00  0.00     0.271 C 
HETATM   41  C26 UNL     1      19.739 -55.642 -50.593  1.00  0.00     0.267 C 
HETATM   42  O16 UNL     1      19.979 -55.623 -51.927  1.00  0.00    -0.319 OA
BRANCH  40  43
HETATM   43  O12 UNL     1      21.139 -53.993 -49.561  1.00  0.00    -0.301 OA
BRANCH  43  44
HETATM   44  C23 UNL     1      21.370 -53.277 -48.420  1.00  0.00     0.290 C 
HETATM   45  O13 UNL     1      22.335 -52.490 -48.363  1.00  0.00    -0.263 OA
BRANCH  44  46
HETATM   46  C24 UNL     1      20.483 -53.420 -47.231  1.00  0.00     0.278 C 
HETATM   47  C25 UNL     1      21.314 -53.682 -45.993  1.00  0.00     0.050 C 
BRANCH  46  48
HETATM   48  N1  UNL     1      19.719 -52.220 -46.990  1.00  0.00    -0.066 N 
ATOM     49  H13 UNL     1      19.353 -51.831 -47.860  1.00  0.00     0.275 HD
ATOM     50  H12 UNL     1      18.835 -52.428 -46.526  1.00  0.00     0.275 HD
ATOM     51  H11 UNL     1      20.259 -51.527 -46.471  1.00  0.00     0.275 HD
ENDBRANCH  46  48
ENDBRANCH  44  46
ENDBRANCH  43  44
ENDBRANCH  40  43
BRANCH  41  52
HETATM   52  C27 UNL     1      18.556 -56.431 -50.168  1.00  0.00     0.206 C 
HETATM   53  O14 UNL     1      18.607 -57.685 -50.198  1.00  0.00    -0.646 OA
HETATM   54  O15 UNL     1      17.384 -55.836 -49.736  1.00  0.00    -0.646 OA
ENDBRANCH  41  52
ENDBRANCH  35  36
ENDBRANCH   9  35
BRANCH   6  55
HETATM   55  O7  UNL     1      15.571 -50.243 -52.741  1.00  0.00    -0.340 OA
ATOM     56  H7  UNL     1      16.149 -49.493 -52.814  1.00  0.00     0.220 HD
ENDBRANCH   6  55
TORSDOF 18
ENDMDL
MODEL 4
REMARK VINA RESULT: -9.142459452      1.407      2.959
REMARK  18 active torsions:
REMARK  status: ('A' for Active; 'I' for Inactive)
REMARK    1  A    between atoms: O1_2  and  C2_3 
REMARK    2  A    between atoms: C3_4  and  O2_5 
REMARK    3  A    between atoms: C6_9  and  C7_10 
REMARK    4  A    between atoms: C8_11  and  C9_12 
REMARK    5  A    between atoms: C9_12  and  C10_14 
REMARK    6  A    between atoms: C10_14  and  O4_15 
REMARK    7  A    between atoms: C10_14  and  C11_17 
REMARK    8  A    between atoms: C11_17  and  C12_19 
REMARK    9  A    between atoms: C12_19  and  O6_20 
REMARK   10  A    between atoms: C17_26  and  O7_27 
REMARK   11  A    between atoms: C19_31  and  O9_32 
REMARK   12  A    between atoms: O9_32  and  C20_33 
REMARK   13  A    between atoms: C22_37  and  O12_38 
REMARK   14  A    between atoms: O12_38  and  C23_39 
REMARK   15  A    between atoms: C23_39  and  C24_41 
REMARK   16  A    between atoms: C24_41  and  N1_43 
REMARK   17  A    between atoms: C26_47  and  C27_48 
REMARK   18  A    between atoms: C29_54  and  O18_55 
ROOT
HETATM    1  C12 UNL     1      16.515 -58.284 -55.869  1.00  0.00     0.208 A 
HETATM    2  C13 UNL     1      15.702 -57.216 -56.458  1.00  0.00     0.042 A 
HETATM    3  C14 UNL     1      15.632 -55.987 -56.006  1.00  0.00     0.011 A 
HETATM    4  C15 UNL     1      14.904 -54.885 -56.468  1.00  0.00     0.009 A 
HETATM    5  C16 UNL     1      13.998 -54.880 -57.646  1.00  0.00     0.054 C 
HETATM    6  C17 UNL     1      15.185 -53.825 -55.632  1.00  0.00     0.190 A 
HETATM    7  O8  UNL     1      16.017 -54.244 -54.733  1.00  0.00    -0.284 OA
HETATM    8  C18 UNL     1      16.310 -55.520 -54.914  1.00  0.00     0.126 A 
HETATM    9  C19 UNL     1      17.113 -56.374 -54.244  1.00  0.00     0.159 A 
HETATM   10  C28 UNL     1      17.246 -57.742 -54.678  1.00  0.00     0.231 A 
HETATM   11  O17 UNL     1      18.015 -58.517 -54.020  1.00  0.00    -0.286 OA
ENDROOT
BRANCH   1  12
HETATM   12  C11 UNL     1      17.476 -58.732 -56.914  1.00  0.00     0.209 C 
HETATM   13  O5  UNL     1      17.851 -59.891 -56.813  1.00  0.00    -0.290 OA
BRANCH  12  14
HETATM   14  C10 UNL     1      17.952 -57.856 -58.003  1.00  0.00     0.265 C 
BRANCH  14  15
HETATM   15  C9  UNL     1      17.050 -58.028 -59.222  1.00  0.00     0.185 C 
HETATM   16  O3  UNL     1      16.504 -56.982 -59.576  1.00  0.00    -0.290 OA
BRANCH  15  17
HETATM   17  C8  UNL     1      16.892 -59.296 -59.850  1.00  0.00     0.054 C 
HETATM   18  C7  UNL     1      16.203 -60.347 -59.781  1.00  0.00     0.018 C 
BRANCH  18  19
HETATM   19  C6  UNL     1      15.134 -60.914 -59.016  1.00  0.00     0.000 A 
HETATM   20  C5  UNL     1      15.274 -61.996 -58.205  1.00  0.00     0.017 A 
HETATM   21  C4  UNL     1      14.197 -62.557 -57.491  1.00  0.00     0.040 A 
HETATM   22  C3  UNL     1      12.967 -62.005 -57.607  1.00  0.00     0.101 A 
HETATM   23  C2  UNL     1      12.785 -60.910 -58.416  1.00  0.00     0.135 A 
HETATM   24  C29 UNL     1      13.837 -60.375 -59.104  1.00  0.00     0.112 A 
BRANCH  22  25
HETATM   25  O2  UNL     1      11.895 -62.525 -56.925  1.00  0.00    -0.358 OA
ATOM     26  H2  UNL     1      11.738 -63.461 -56.947  1.00  0.00     0.217 HD
ENDBRANCH  22  25
BRANCH  23  27
HETATM   27  O1  UNL     1      11.513 -60.367 -58.513  1.00  0.00    -0.351 OA
HETATM   28  C1  UNL     1      11.197 -59.310 -57.615  1.00  0.00     0.210 C 
ENDBRANCH  23  27
BRANCH  24  29
HETATM   29  O18 UNL     1      13.662 -59.260 -59.932  1.00  0.00    -0.357 OA
ATOM     30  H18 UNL     1      14.371 -58.941 -60.478  1.00  0.00     0.217 HD
ENDBRANCH  24  29
ENDBRANCH  18  19
ENDBRANCH  15  17
ENDBRANCH  14  15
BRANCH  14  31
HETATM   31  O4  UNL     1      19.248 -58.170 -58.384  1.00  0.00    -0.380 OA
ATOM     32  H4  UNL     1      19.792 -58.159 -57.605  1.00  0.00     0.211 HD
ENDBRANCH  14  31
ENDBRANCH  12  14
ENDBRANCH   1  12
BRANCH   1  33
HETATM   33  O6  UNL     1      15.713 -59.304 -55.390  1.00  0.00    -0.371 OA
ATOM     34  H6  UNL     1      15.459 -59.187 -54.482  1.00  0.00     0.212 HD
ENDBRANCH   1  33
BRANCH   9  35
HETATM   35  O9  UNL     1      17.771 -55.874 -53.163  1.00  0.00    -0.289 OA
BRANCH  35  36
HETATM   36  C20 UNL     1      18.885 -55.061 -53.068  1.00  0.00     0.428 C 
HETATM   37  O10 UNL     1      18.470 -53.719 -52.906  1.00  0.00    -0.263 OA
HETATM   38  C21 UNL     1      18.052 -53.308 -51.653  1.00  0.00     0.295 C 
HETATM   39  O11 UNL     1      17.100 -52.531 -51.424  1.00  0.00    -0.262 OA
HETATM   40  C22 UNL     1      18.807 -53.843 -50.496  1.00  0.00     0.271 C 
HETATM   41  C26 UNL     1      19.371 -55.213 -50.778  1.00  0.00     0.267 C 
HETATM   42  O16 UNL     1      19.731 -55.452 -52.064  1.00  0.00    -0.319 OA
BRANCH  40  43
HETATM   43  O12 UNL     1      19.892 -52.930 -50.270  1.00  0.00    -0.301 OA
BRANCH  43  44
HETATM   44  C23 UNL     1      20.567 -53.017 -49.084  1.00  0.00     0.290 C 
HETATM   45  O13 UNL     1      21.810 -52.918 -49.067  1.00  0.00    -0.263 OA
BRANCH  44  46
HETATM   46  C24 UNL     1      19.841 -53.230 -47.801  1.00  0.00     0.278 C 
HETATM   47  C25 UNL     1      20.599 -54.212 -46.933  1.00  0.00     0.050 C 
BRANCH  46  48
HETATM   48  N1  UNL     1      19.714 -52.003 -47.052  1.00  0.00    -0.066 N 
ATOM     49  H13 UNL     1      20.061 -51.205 -47.584  1.00  0.00     0.275 HD
ATOM     50  H12 UNL     1      18.738 -51.721 -46.962  1.00  0.00     0.275 HD
ATOM     51  H11 UNL     1      20.169 -52.069 -46.141  1.00  0.00     0.275 HD
ENDBRANCH  46  48
ENDBRANCH  44  46
ENDBRANCH  43  44
ENDBRANCH  40  43
BRANCH  41  52
HETATM   52  C27 UNL     1      18.551 -56.273 -50.138  1.00  0.00     0.206 C 
HETATM   53  O14 UNL     1      17.515 -55.955 -49.507  1.00  0.00    -0.646 OA
HETATM   54  O15 UNL     1      18.888 -57.612 -50.208  1.00  0.00    -0.646 OA
ENDBRANCH  41  52
ENDBRANCH  35  36
ENDBRANCH   9  35
BRANCH   6  55
HETATM   55  O7  UNL     1      14.629 -52.554 -55.797  1.00  0.00    -0.340 OA
ATOM     56  H7  UNL     1      14.089 -52.135 -55.138  1.00  0.00     0.220 HD
ENDBRANCH   6  55
TORSDOF 18
ENDMDL
MODEL 5
REMARK VINA RESULT: -9.132589677      1.928      4.032
REMARK  18 active torsions:
REMARK  status: ('A' for Active; 'I' for Inactive)
REMARK    1  A    between atoms: O1_2  and  C2_3 
REMARK    2  A    between atoms: C3_4  and  O2_5 
REMARK    3  A    between atoms: C6_9  and  C7_10 
REMARK    4  A    between atoms: C8_11  and  C9_12 
REMARK    5  A    between atoms: C9_12  and  C10_14 
REMARK    6  A    between atoms: C10_14  and  O4_15 
REMARK    7  A    between atoms: C10_14  and  C11_17 
REMARK    8  A    between atoms: C11_17  and  C12_19 
REMARK    9  A    between atoms: C12_19  and  O6_20 
REMARK   10  A    between atoms: C17_26  and  O7_27 
REMARK   11  A    between atoms: C19_31  and  O9_32 
REMARK   12  A    between atoms: O9_32  and  C20_33 
REMARK   13  A    between atoms: C22_37  and  O12_38 
REMARK   14  A    between atoms: O12_38  and  C23_39 
REMARK   15  A    between atoms: C23_39  and  C24_41 
REMARK   16  A    between atoms: C24_41  and  N1_43 
REMARK   17  A    between atoms: C26_47  and  C27_48 
REMARK   18  A    between atoms: C29_54  and  O18_55 
ROOT
HETATM    1  C12 UNL     1      16.600 -58.250 -55.446  1.00  0.00     0.208 A 
HETATM    2  C13 UNL     1      15.846 -57.183 -56.112  1.00  0.00     0.042 A 
HETATM    3  C14 UNL     1      15.843 -55.923 -55.748  1.00  0.00     0.011 A 
HETATM    4  C15 UNL     1      15.176 -54.818 -56.289  1.00  0.00     0.009 A 
HETATM    5  C16 UNL     1      14.272 -54.847 -57.468  1.00  0.00     0.054 C 
HETATM    6  C17 UNL     1      15.514 -53.719 -55.528  1.00  0.00     0.190 A 
HETATM    7  O8  UNL     1      16.321 -54.119 -54.598  1.00  0.00    -0.284 OA
HETATM    8  C18 UNL     1      16.545 -55.419 -54.687  1.00  0.00     0.126 A 
HETATM    9  C19 UNL     1      17.300 -56.265 -53.956  1.00  0.00     0.159 A 
HETATM   10  C28 UNL     1      17.358 -57.666 -54.293  1.00  0.00     0.231 A 
HETATM   11  O17 UNL     1      18.084 -58.433 -53.580  1.00  0.00    -0.286 OA
ENDROOT
BRANCH   1  12
HETATM   12  C11 UNL     1      17.535 -58.822 -56.453  1.00  0.00     0.209 C 
HETATM   13  O5  UNL     1      18.041 -58.010 -57.213  1.00  0.00    -0.290 OA
BRANCH  12  14
HETATM   14  C10 UNL     1      17.843 -60.263 -56.541  1.00  0.00     0.265 C 
BRANCH  14  15
HETATM   15  C9  UNL     1      16.756 -60.964 -57.352  1.00  0.00     0.185 C 
HETATM   16  O3  UNL     1      15.891 -61.493 -56.654  1.00  0.00    -0.290 OA
BRANCH  15  17
HETATM   17  C8  UNL     1      16.789 -60.975 -58.776  1.00  0.00     0.054 C 
HETATM   18  C7  UNL     1      16.456 -60.280 -59.771  1.00  0.00     0.018 C 
BRANCH  18  19
HETATM   19  C6  UNL     1      15.831 -59.029 -60.081  1.00  0.00     0.000 A 
HETATM   20  C5  UNL     1      16.516 -57.881 -60.329  1.00  0.00     0.017 A 
HETATM   21  C4  UNL     1      15.876 -56.655 -60.595  1.00  0.00     0.040 A 
HETATM   22  C3  UNL     1      14.523 -56.604 -60.609  1.00  0.00     0.101 A 
HETATM   23  C2  UNL     1      13.796 -57.742 -60.364  1.00  0.00     0.135 A 
HETATM   24  C29 UNL     1      14.427 -58.926 -60.106  1.00  0.00     0.112 A 
BRANCH  22  25
HETATM   25  O2  UNL     1      13.867 -55.425 -60.865  1.00  0.00    -0.358 OA
ATOM     26  H2  UNL     1      13.922 -55.039 -61.731  1.00  0.00     0.217 HD
ENDBRANCH  22  25
BRANCH  23  27
HETATM   27  O1  UNL     1      12.413 -57.657 -60.385  1.00  0.00    -0.351 OA
HETATM   28  C1  UNL     1      11.765 -57.427 -59.139  1.00  0.00     0.210 C 
ENDBRANCH  23  27
BRANCH  24  29
HETATM   29  O18 UNL     1      13.696 -60.092 -59.854  1.00  0.00    -0.357 OA
ATOM     30  H18 UNL     1      14.133 -60.902 -59.620  1.00  0.00     0.217 HD
ENDBRANCH  24  29
ENDBRANCH  18  19
ENDBRANCH  15  17
ENDBRANCH  14  15
BRANCH  14  31
HETATM   31  O4  UNL     1      17.888 -60.856 -55.288  1.00  0.00    -0.380 OA
ATOM     32  H4  UNL     1      17.480 -60.261 -54.669  1.00  0.00     0.211 HD
ENDBRANCH  14  31
ENDBRANCH  12  14
ENDBRANCH   1  12
BRANCH   1  33
HETATM   33  O6  UNL     1      15.743 -59.188 -54.901  1.00  0.00    -0.371 OA
ATOM     34  H6  UNL     1      14.828 -58.937 -54.952  1.00  0.00     0.212 HD
ENDBRANCH   1  33
BRANCH   9  35
HETATM   35  O9  UNL     1      17.983 -55.728 -52.910  1.00  0.00    -0.289 OA
BRANCH  35  36
HETATM   36  C20 UNL     1      19.290 -55.288 -52.803  1.00  0.00     0.428 C 
HETATM   37  O10 UNL     1      19.295 -53.893 -52.570  1.00  0.00    -0.263 OA
HETATM   38  C21 UNL     1      19.029 -53.441 -51.290  1.00  0.00     0.295 C 
HETATM   39  O11 UNL     1      18.352 -52.429 -51.004  1.00  0.00    -0.262 OA
HETATM   40  C22 UNL     1      19.598 -54.234 -50.176  1.00  0.00     0.271 C 
HETATM   41  C26 UNL     1      19.726 -55.694 -50.534  1.00  0.00     0.267 C 
HETATM   42  O16 UNL     1      19.988 -55.963 -51.837  1.00  0.00    -0.319 OA
BRANCH  40  43
HETATM   43  O12 UNL     1      20.908 -53.698 -49.932  1.00  0.00    -0.301 OA
BRANCH  43  44
HETATM   44  C23 UNL     1      21.153 -53.135 -48.711  1.00  0.00     0.290 C 
HETATM   45  O13 UNL     1      22.138 -52.385 -48.558  1.00  0.00    -0.263 OA
BRANCH  44  46
HETATM   46  C24 UNL     1      20.261 -53.402 -47.548  1.00  0.00     0.278 C 
HETATM   47  C25 UNL     1      21.033 -54.104 -46.452  1.00  0.00     0.050 C 
BRANCH  46  48
HETATM   48  N1  UNL     1      19.734 -52.180 -46.990  1.00  0.00    -0.066 N 
ATOM     49  H13 UNL     1      20.333 -51.384 -47.208  1.00  0.00     0.275 HD
ATOM     50  H12 UNL     1      18.889 -51.882 -47.478  1.00  0.00     0.275 HD
ATOM     51  H11 UNL     1      19.575 -52.263 -45.986  1.00  0.00     0.275 HD
ENDBRANCH  46  48
ENDBRANCH  44  46
ENDBRANCH  43  44
ENDBRANCH  40  43
BRANCH  41  52
HETATM   52  C27 UNL     1      18.633 -56.493 -49.925  1.00  0.00     0.206 C 
HETATM   53  O14 UNL     1      18.699 -57.746 -49.944  1.00  0.00    -0.646 OA
HETATM   54  O15 UNL     1      17.530 -55.907 -49.331  1.00  0.00    -0.646 OA
ENDBRANCH  41  52
ENDBRANCH  35  36
ENDBRANCH   9  35
BRANCH   6  55
HETATM   55  O7  UNL     1      15.028 -52.435 -55.784  1.00  0.00    -0.340 OA
ATOM     56  H7  UNL     1      15.053 -51.734 -55.144  1.00  0.00     0.220 HD
ENDBRANCH   6  55
TORSDOF 18
ENDMDL
