MODEL 1
REMARK VINA RESULT: -8.538368728      0.000      0.000
REMARK  18 active torsions:
REMARK  status: ('A' for Active; 'I' for Inactive)
REMARK    1  A    between atoms: O1_2  and  N1_3 
REMARK    2  A    between atoms: N1_3  and  C2_5 
REMARK    3  A    between atoms: C2_5  and  C3_7 
REMARK       I    between atoms: C3_7  and  N3_9 
REMARK    4  A    between atoms: N3_9  and  C4_11 
REMARK    5  A    between atoms: C4_11  and  N4_12 
REMARK    6  A    between atoms: C4_11  and  C12_31 
REMARK    7  A    between atoms: N4_12  and  N5_14 
REMARK       I    between atoms: N8_27  and  C11_28 
REMARK    8  A    between atoms: C12_31  and  N9_32 
REMARK    9  A    between atoms: C12_31  and  O11_51 
REMARK   10  A    between atoms: N9_32  and  N10_33 
REMARK   11  A    between atoms: N10_33  and  C13_34 
REMARK       I    between atoms: N10_33  and  C18_41 
REMARK   12  A    between atoms: C13_34  and  C14_35 
REMARK   13  A    between atoms: C14_35  and  C17_38 
REMARK   14  A    between atoms: C17_38  and  O7_39 
REMARK   15  A    between atoms: C18_41  and  C19_43 
REMARK   16  A    between atoms: C19_43  and  N11_44 
REMARK   17  A    between atoms: C19_43  and  C20_48 
REMARK   18  A    between atoms: O11_51  and  C21_52 
ROOT
HETATM    1  C4  UNL     1      16.807 -59.158 -56.538  1.00  0.00     0.294 C 
ENDROOT
BRANCH   1   2
HETATM    2  N3  UNL     1      16.508 -60.556 -56.607  1.00  0.00    -0.324 N 
HETATM    3  C3  UNL     1      15.535 -61.316 -55.963  1.00  0.00     0.286 C 
HETATM    4  O2  UNL     1      14.711 -60.732 -55.180  1.00  0.00    -0.265 OA
ATOM      5  H3  UNL     1      17.112 -61.087 -57.235  1.00  0.00     0.165 HD
BRANCH   3   6
HETATM    6  C2  UNL     1      15.374 -62.772 -56.108  1.00  0.00     0.204 C 
HETATM    7  N2  UNL     1      15.620 -63.317 -57.440  1.00  0.00    -0.075 NA
BRANCH   6   8
HETATM    8  N1  UNL     1      15.052 -63.611 -55.246  1.00  0.00    -0.249 N 
ATOM      9  H1  UNL     1      14.538 -64.389 -55.658  1.00  0.00     0.196 HD
BRANCH   8  10
HETATM   10  O1  UNL     1      15.198 -63.765 -53.943  1.00  0.00    -0.284 OA
HETATM   11  C1  UNL     1      16.443 -64.142 -53.325  1.00  0.00     0.237 C 
ENDBRANCH   8  10
ENDBRANCH   6   8
ENDBRANCH   3   6
ENDBRANCH   1   2
BRANCH   1  12
HETATM   12  N4  UNL     1      16.263 -58.412 -55.451  1.00  0.00    -0.294 N 
ATOM     13  H4  UNL     1      15.275 -58.571 -55.256  1.00  0.00     0.183 HD
BRANCH  12  14
HETATM   14  N5  UNL     1      16.906 -57.493 -54.620  1.00  0.00    -0.226 N 
HETATM   15  C5  UNL     1      16.846 -56.158 -54.586  1.00  0.00     0.103 A 
HETATM   16  C6  UNL     1      16.073 -55.203 -55.447  1.00  0.00     0.091 C 
HETATM   17  N6  UNL     1      17.664 -55.743 -53.584  1.00  0.00    -0.327 N 
HETATM   18  C7  UNL     1      18.233 -56.788 -52.993  1.00  0.00     0.163 A 
ATOM     19  H6  UNL     1      17.820 -54.769 -53.323  1.00  0.00     0.169 HD
HETATM   20  C8  UNL     1      17.774 -57.919 -53.625  1.00  0.00     0.182 A 
HETATM   21  N8  UNL     1      19.144 -57.172 -51.958  1.00  0.00    -0.240 N 
HETATM   22  N7  UNL     1      18.364 -59.056 -52.998  1.00  0.00    -0.239 N 
HETATM   23  C9  UNL     1      18.271 -60.454 -52.821  1.00  0.00     0.382 C 
HETATM   24  C10 UNL     1      19.522 -58.507 -52.259  1.00  0.00     0.303 C 
HETATM   25  O3  UNL     1      18.091 -61.239 -53.814  1.00  0.00    -0.237 OA
HETATM   26  O4  UNL     1      18.398 -60.841 -51.492  1.00  0.00    -0.223 OA
HETATM   27  S1  UNL     1      19.431 -59.601 -50.778  1.00  0.00     0.049 SA
HETATM   28  C11 UNL     1      19.553 -56.376 -50.889  1.00  0.00     0.294 C 
HETATM   29  O5  UNL     1      19.118 -55.207 -50.770  1.00  0.00    -0.629 OA
HETATM   30  O6  UNL     1      20.445 -56.872 -49.949  1.00  0.00    -0.629 OA
ENDBRANCH  12  14
ENDBRANCH   1  12
BRANCH   1  31
HETATM   31  C12 UNL     1      16.325 -58.512 -57.866  1.00  0.00     0.268 C 
BRANCH  31  32
HETATM   32  N9  UNL     1      15.235 -58.082 -57.912  1.00  0.00    -0.295 NA
BRANCH  32  33
HETATM   33  N10 UNL     1      14.024 -57.596 -58.008  1.00  0.00    -0.189 N 
HETATM   34  C18 UNL     1      12.885 -58.425 -57.962  1.00  0.00     0.290 C 
HETATM   35  O8  UNL     1      11.748 -57.925 -58.051  1.00  0.00    -0.268 OA
BRANCH  33  36
HETATM   36  C13 UNL     1      13.820 -56.162 -58.217  1.00  0.00     0.177 C 
BRANCH  36  37
HETATM   37  C14 UNL     1      14.036 -55.679 -59.595  1.00  0.00    -0.007 C 
HETATM   38  C15 UNL     1      13.156 -54.524 -60.021  1.00  0.00     0.019 C 
HETATM   39  C16 UNL     1      13.980 -56.741 -60.652  1.00  0.00     0.019 C 
BRANCH  37  40
HETATM   40  C17 UNL     1      15.471 -55.126 -59.633  1.00  0.00     0.174 C 
BRANCH  40  41
HETATM   41  O7  UNL     1      16.332 -55.998 -60.278  1.00  0.00    -0.400 OA
ATOM     42  H7  UNL     1      16.450 -55.760 -61.189  1.00  0.00     0.209 HD
ENDBRANCH  40  41
ENDBRANCH  37  40
ENDBRANCH  36  37
ENDBRANCH  33  36
BRANCH  34  43
HETATM   43  C19 UNL     1      12.986 -59.890 -57.820  1.00  0.00     0.376 C 
BRANCH  43  44
HETATM   44  N11 UNL     1      13.161 -60.520 -59.138  1.00  0.00    -0.056 N 
ATOM     45 3H11 UNL     1      12.471 -60.188 -59.813  1.00  0.00     0.275 HD
ATOM     46 2H11 UNL     1      14.003 -60.189 -59.609  1.00  0.00     0.275 HD
ATOM     47 1H11 UNL     1      13.148 -61.535 -59.050  1.00  0.00     0.275 HD
ENDBRANCH  43  44
BRANCH  43  48
HETATM   48  C20 UNL     1      11.731 -60.510 -57.284  1.00  0.00     0.214 C 
HETATM   49  O9  UNL     1      11.587 -60.675 -56.020  1.00  0.00    -0.646 OA
HETATM   50  O10 UNL     1      10.682 -60.932 -58.055  1.00  0.00    -0.646 OA
ENDBRANCH  43  48
ENDBRANCH  34  43
ENDBRANCH  32  33
ENDBRANCH  31  32
BRANCH  31  51
HETATM   51  O11 UNL     1      17.253 -58.507 -58.903  1.00  0.00    -0.248 OA
BRANCH  51  52
HETATM   52  C21 UNL     1      17.110 -59.185 -60.094  1.00  0.00     0.262 C 
HETATM   53  C22 UNL     1      16.485 -60.555 -60.142  1.00  0.00     0.126 C 
HETATM   54  O12 UNL     1      17.507 -58.644 -61.150  1.00  0.00    -0.265 OA
ENDBRANCH  51  52
ENDBRANCH  31  51
ENDBRANCH   1  31
TORSDOF 18
ENDMDL
MODEL 2
REMARK VINA RESULT: -8.408286924      1.044      1.509
REMARK  18 active torsions:
REMARK  status: ('A' for Active; 'I' for Inactive)
REMARK    1  A    between atoms: O1_2  and  N1_3 
REMARK    2  A    between atoms: N1_3  and  C2_5 
REMARK    3  A    between atoms: C2_5  and  C3_7 
REMARK       I    between atoms: C3_7  and  N3_9 
REMARK    4  A    between atoms: N3_9  and  C4_11 
REMARK    5  A    between atoms: C4_11  and  N4_12 
REMARK    6  A    between atoms: C4_11  and  C12_31 
REMARK    7  A    between atoms: N4_12  and  N5_14 
REMARK       I    between atoms: N8_27  and  C11_28 
REMARK    8  A    between atoms: C12_31  and  N9_32 
REMARK    9  A    between atoms: C12_31  and  O11_51 
REMARK   10  A    between atoms: N9_32  and  N10_33 
REMARK   11  A    between atoms: N10_33  and  C13_34 
REMARK       I    between atoms: N10_33  and  C18_41 
REMARK   12  A    between atoms: C13_34  and  C14_35 
REMARK   13  A    between atoms: C14_35  and  C17_38 
REMARK   14  A    between atoms: C17_38  and  O7_39 
REMARK   15  A    between atoms: C18_41  and  C19_43 
REMARK   16  A    between atoms: C19_43  and  N11_44 
REMARK   17  A    between atoms: C19_43  and  C20_48 
REMARK   18  A    between atoms: O11_51  and  C21_52 
ROOT
HETATM    1  C4  UNL     1      17.041 -59.061 -56.139  1.00  0.00     0.294 C 
ENDROOT
BRANCH   1   2
HETATM    2  N3  UNL     1      16.758 -60.462 -56.052  1.00  0.00    -0.324 N 
HETATM    3  C3  UNL     1      15.692 -61.145 -55.474  1.00  0.00     0.286 C 
HETATM    4  O2  UNL     1      14.749 -60.476 -54.930  1.00  0.00    -0.265 OA
ATOM      5  H3  UNL     1      17.457 -61.062 -56.490  1.00  0.00     0.165 HD
BRANCH   3   6
HETATM    6  C2  UNL     1      15.556 -62.611 -55.432  1.00  0.00     0.204 C 
HETATM    7  N2  UNL     1      15.626 -63.225 -54.111  1.00  0.00    -0.075 NA
BRANCH   6   8
HETATM    8  N1  UNL     1      15.391 -63.406 -56.376  1.00  0.00    -0.249 N 
ATOM      9  H1  UNL     1      15.115 -64.329 -56.041  1.00  0.00     0.196 HD
BRANCH   8  10
HETATM   10  O1  UNL     1      15.477 -63.378 -57.693  1.00  0.00    -0.284 OA
HETATM   11  C1  UNL     1      16.650 -62.932 -58.400  1.00  0.00     0.237 C 
ENDBRANCH   8  10
ENDBRANCH   6   8
ENDBRANCH   3   6
ENDBRANCH   1   2
BRANCH   1  12
HETATM   12  N4  UNL     1      16.467 -58.203 -55.155  1.00  0.00    -0.294 N 
ATOM     13  H4  UNL     1      15.463 -58.303 -55.011  1.00  0.00     0.183 HD
BRANCH  12  14
HETATM   14  N5  UNL     1      17.101 -57.243 -54.363  1.00  0.00    -0.226 N 
HETATM   15  C5  UNL     1      17.032 -55.909 -54.389  1.00  0.00     0.103 A 
HETATM   16  C6  UNL     1      16.256 -54.999 -55.295  1.00  0.00     0.091 C 
HETATM   17  N6  UNL     1      17.843 -55.444 -53.403  1.00  0.00    -0.327 N 
HETATM   18  C7  UNL     1      18.416 -56.458 -52.763  1.00  0.00     0.163 A 
ATOM     19  H6  UNL     1      17.991 -54.458 -53.186  1.00  0.00     0.169 HD
HETATM   20  C8  UNL     1      17.967 -57.618 -53.347  1.00  0.00     0.182 A 
HETATM   21  N8  UNL     1      19.326 -56.789 -51.709  1.00  0.00    -0.240 N 
HETATM   22  N7  UNL     1      18.563 -58.722 -52.667  1.00  0.00    -0.239 N 
HETATM   23  C9  UNL     1      18.478 -60.112 -52.428  1.00  0.00     0.382 C 
HETATM   24  C10 UNL     1      19.714 -58.134 -51.949  1.00  0.00     0.303 C 
HETATM   25  O3  UNL     1      18.307 -60.942 -53.385  1.00  0.00    -0.237 OA
HETATM   26  O4  UNL     1      18.601 -60.438 -51.083  1.00  0.00    -0.223 OA
HETATM   27  S1  UNL     1      19.623 -59.160 -50.421  1.00  0.00     0.049 SA
HETATM   28  C11 UNL     1      19.724 -55.943 -50.675  1.00  0.00     0.294 C 
HETATM   29  O5  UNL     1      19.282 -54.773 -50.611  1.00  0.00    -0.629 OA
HETATM   30  O6  UNL     1      20.616 -56.390 -49.711  1.00  0.00    -0.629 OA
ENDBRANCH  12  14
ENDBRANCH   1  12
BRANCH   1  31
HETATM   31  C12 UNL     1      16.580 -58.577 -57.541  1.00  0.00     0.268 C 
BRANCH  31  32
HETATM   32  N9  UNL     1      15.469 -58.228 -57.670  1.00  0.00    -0.295 NA
BRANCH  32  33
HETATM   33  N10 UNL     1      14.236 -57.830 -57.860  1.00  0.00    -0.189 N 
HETATM   34  C18 UNL     1      13.162 -58.740 -57.909  1.00  0.00     0.290 C 
HETATM   35  O8  UNL     1      12.001 -58.324 -58.086  1.00  0.00    -0.268 OA
BRANCH  33  36
HETATM   36  C13 UNL     1      13.945 -56.412 -58.076  1.00  0.00     0.177 C 
BRANCH  36  37
HETATM   37  C14 UNL     1      14.333 -55.872 -59.394  1.00  0.00    -0.007 C 
HETATM   38  C15 UNL     1      14.232 -56.847 -60.547  1.00  0.00     0.019 C 
HETATM   39  C16 UNL     1      15.680 -55.217 -59.437  1.00  0.00     0.019 C 
BRANCH  37  40
HETATM   40  C17 UNL     1      13.318 -54.763 -59.715  1.00  0.00     0.174 C 
BRANCH  40  41
HETATM   41  O7  UNL     1      13.827 -53.861 -60.635  1.00  0.00    -0.400 OA
ATOM     42  H7  UNL     1      13.309 -53.066 -60.665  1.00  0.00     0.209 HD
ENDBRANCH  40  41
ENDBRANCH  37  40
ENDBRANCH  36  37
ENDBRANCH  33  36
BRANCH  34  43
HETATM   43  C19 UNL     1      13.360 -60.196 -57.769  1.00  0.00     0.376 C 
BRANCH  43  44
HETATM   44  N11 UNL     1      13.765 -60.783 -59.056  1.00  0.00    -0.056 N 
ATOM     45 3H11 UNL     1      14.092 -60.073 -59.712  1.00  0.00     0.275 HD
ATOM     46 2H11 UNL     1      14.627 -61.321 -58.973  1.00  0.00     0.275 HD
ATOM     47 1H11 UNL     1      13.005 -61.340 -59.445  1.00  0.00     0.275 HD
ENDBRANCH  43  44
BRANCH  43  48
HETATM   48  C20 UNL     1      12.095 -60.923 -57.419  1.00  0.00     0.214 C 
HETATM   49  O9  UNL     1      11.724 -61.008 -56.194  1.00  0.00    -0.646 OA
HETATM   50  O10 UNL     1      11.270 -61.527 -58.327  1.00  0.00    -0.646 OA
ENDBRANCH  43  48
ENDBRANCH  34  43
ENDBRANCH  32  33
ENDBRANCH  31  32
BRANCH  31  51
HETATM   51  O11 UNL     1      17.553 -58.609 -58.536  1.00  0.00    -0.248 OA
BRANCH  51  52
HETATM   52  C21 UNL     1      17.316 -58.897 -59.863  1.00  0.00     0.262 C 
HETATM   53  C22 UNL     1      17.859 -58.019 -60.961  1.00  0.00     0.126 C 
HETATM   54  O12 UNL     1      16.639 -59.909 -60.151  1.00  0.00    -0.265 OA
ENDBRANCH  51  52
ENDBRANCH  31  51
ENDBRANCH   1  31
TORSDOF 18
ENDMDL
MODEL 3
REMARK VINA RESULT: -7.988659514      1.997      4.073
REMARK  18 active torsions:
REMARK  status: ('A' for Active; 'I' for Inactive)
REMARK    1  A    between atoms: O1_2  and  N1_3 
REMARK    2  A    between atoms: N1_3  and  C2_5 
REMARK    3  A    between atoms: C2_5  and  C3_7 
REMARK       I    between atoms: C3_7  and  N3_9 
REMARK    4  A    between atoms: N3_9  and  C4_11 
REMARK    5  A    between atoms: C4_11  and  N4_12 
REMARK    6  A    between atoms: C4_11  and  C12_31 
REMARK    7  A    between atoms: N4_12  and  N5_14 
REMARK       I    between atoms: N8_27  and  C11_28 
REMARK    8  A    between atoms: C12_31  and  N9_32 
REMARK    9  A    between atoms: C12_31  and  O11_51 
REMARK   10  A    between atoms: N9_32  and  N10_33 
REMARK   11  A    between atoms: N10_33  and  C13_34 
REMARK       I    between atoms: N10_33  and  C18_41 
REMARK   12  A    between atoms: C13_34  and  C14_35 
REMARK   13  A    between atoms: C14_35  and  C17_38 
REMARK   14  A    between atoms: C17_38  and  O7_39 
REMARK   15  A    between atoms: C18_41  and  C19_43 
REMARK   16  A    between atoms: C19_43  and  N11_44 
REMARK   17  A    between atoms: C19_43  and  C20_48 
REMARK   18  A    between atoms: O11_51  and  C21_52 
ROOT
HETATM    1  C4  UNL     1      16.549 -59.510 -55.925  1.00  0.00     0.294 C 
ENDROOT
BRANCH   1   2
HETATM    2  N3  UNL     1      15.561 -60.542 -56.003  1.00  0.00    -0.324 N 
HETATM    3  C3  UNL     1      15.611 -61.815 -56.564  1.00  0.00     0.286 C 
HETATM    4  O2  UNL     1      16.702 -62.215 -57.097  1.00  0.00    -0.265 OA
ATOM      5  H3  UNL     1      14.666 -60.304 -55.574  1.00  0.00     0.165 HD
BRANCH   3   6
HETATM    6  C2  UNL     1      14.485 -62.763 -56.600  1.00  0.00     0.204 C 
HETATM    7  N2  UNL     1      14.671 -64.012 -55.869  1.00  0.00    -0.075 NA
BRANCH   6   8
HETATM    8  N1  UNL     1      13.386 -62.647 -57.174  1.00  0.00    -0.249 N 
ATOM      9  H1  UNL     1      13.383 -63.129 -58.074  1.00  0.00     0.196 HD
BRANCH   8  10
HETATM   10  O1  UNL     1      12.223 -62.069 -56.934  1.00  0.00    -0.284 OA
HETATM   11  C1  UNL     1      10.987 -62.500 -57.534  1.00  0.00     0.237 C 
ENDBRANCH   8  10
ENDBRANCH   6   8
ENDBRANCH   3   6
ENDBRANCH   1   2
BRANCH   1  12
HETATM   12  N4  UNL     1      16.594 -58.718 -54.740  1.00  0.00    -0.294 N 
ATOM     13  H4  UNL     1      15.961 -57.918 -54.718  1.00  0.00     0.183 HD
BRANCH  12  14
HETATM   14  N5  UNL     1      17.390 -58.893 -53.607  1.00  0.00    -0.226 N 
HETATM   15  C5  UNL     1      17.811 -60.007 -53.001  1.00  0.00     0.103 A 
HETATM   16  C6  UNL     1      17.551 -61.446 -53.337  1.00  0.00     0.091 C 
HETATM   17  N6  UNL     1      18.564 -59.628 -51.936  1.00  0.00    -0.327 N 
HETATM   18  C7  UNL     1      18.622 -58.303 -51.863  1.00  0.00     0.163 A 
ATOM     19  H6  UNL     1      19.019 -60.269 -51.286  1.00  0.00     0.169 HD
HETATM   20  C8  UNL     1      17.887 -57.801 -52.910  1.00  0.00     0.182 A 
HETATM   21  N8  UNL     1      19.153 -57.212 -51.103  1.00  0.00    -0.240 N 
HETATM   22  N7  UNL     1      17.944 -56.376 -52.858  1.00  0.00    -0.239 N 
HETATM   23  C9  UNL     1      17.746 -55.186 -53.592  1.00  0.00     0.382 C 
HETATM   24  C10 UNL     1      18.386 -56.077 -51.478  1.00  0.00     0.303 C 
HETATM   25  O3  UNL     1      16.690 -55.002 -54.288  1.00  0.00    -0.237 OA
HETATM   26  O4  UNL     1      18.798 -54.287 -53.459  1.00  0.00    -0.223 OA
HETATM   27  S1  UNL     1      19.450 -54.620 -51.853  1.00  0.00     0.049 SA
HETATM   28  C11 UNL     1      20.206 -57.285 -50.192  1.00  0.00     0.294 C 
HETATM   29  O5  UNL     1      20.779 -58.376 -49.976  1.00  0.00    -0.629 OA
HETATM   30  O6  UNL     1      20.625 -56.147 -49.519  1.00  0.00    -0.629 OA
ENDBRANCH  12  14
ENDBRANCH   1  12
BRANCH   1  31
HETATM   31  C12 UNL     1      16.334 -58.565 -57.139  1.00  0.00     0.268 C 
BRANCH  31  32
HETATM   32  N9  UNL     1      15.351 -57.927 -57.180  1.00  0.00    -0.295 NA
BRANCH  32  33
HETATM   33  N10 UNL     1      14.260 -57.210 -57.271  1.00  0.00    -0.189 N 
HETATM   34  C18 UNL     1      14.264 -55.821 -57.039  1.00  0.00     0.290 C 
HETATM   35  O8  UNL     1      13.207 -55.169 -57.140  1.00  0.00    -0.268 OA
BRANCH  33  36
HETATM   36  C13 UNL     1      12.979 -57.851 -57.574  1.00  0.00     0.177 C 
BRANCH  36  37
HETATM   37  C14 UNL     1      12.697 -58.071 -59.007  1.00  0.00    -0.007 C 
HETATM   38  C15 UNL     1      13.756 -57.562 -59.960  1.00  0.00     0.019 C 
HETATM   39  C16 UNL     1      11.359 -57.581 -59.470  1.00  0.00     0.019 C 
BRANCH  37  40
HETATM   40  C17 UNL     1      12.676 -59.596 -59.207  1.00  0.00     0.174 C 
BRANCH  40  41
HETATM   41  O7  UNL     1      13.879 -60.172 -58.834  1.00  0.00    -0.400 OA
ATOM     42  H7  UNL     1      14.019 -61.001 -59.276  1.00  0.00     0.209 HD
ENDBRANCH  40  41
ENDBRANCH  37  40
ENDBRANCH  36  37
ENDBRANCH  33  36
BRANCH  34  43
HETATM   43  C19 UNL     1      15.491 -55.091 -56.663  1.00  0.00     0.376 C 
BRANCH  43  44
HETATM   44  N11 UNL     1      15.171 -53.696 -56.323  1.00  0.00    -0.056 N 
ATOM     45 3H11 UNL     1      14.495 -53.291 -56.971  1.00  0.00     0.275 HD
ATOM     46 2H11 UNL     1      14.619 -53.630 -55.468  1.00  0.00     0.275 HD
ATOM     47 1H11 UNL     1      16.025 -53.141 -56.268  1.00  0.00     0.275 HD
ENDBRANCH  43  44
BRANCH  43  48
HETATM   48  C20 UNL     1      16.468 -54.975 -57.795  1.00  0.00     0.214 C 
HETATM   49  O9  UNL     1      17.725 -54.904 -57.551  1.00  0.00    -0.646 OA
HETATM   50  O10 UNL     1      16.123 -54.937 -59.118  1.00  0.00    -0.646 OA
ENDBRANCH  43  48
ENDBRANCH  34  43
ENDBRANCH  32  33
ENDBRANCH  31  32
BRANCH  31  51
HETATM   51  O11 UNL     1      17.352 -58.566 -58.088  1.00  0.00    -0.248 OA
BRANCH  51  52
HETATM   52  C21 UNL     1      17.190 -58.888 -59.419  1.00  0.00     0.262 C 
HETATM   53  C22 UNL     1      17.605 -57.933 -60.508  1.00  0.00     0.126 C 
HETATM   54  O12 UNL     1      16.691 -59.996 -59.718  1.00  0.00    -0.265 OA
ENDBRANCH  51  52
ENDBRANCH  31  51
ENDBRANCH   1  31
TORSDOF 18
ENDMDL
MODEL 4
REMARK VINA RESULT: -7.979704972      1.196      1.581
REMARK  18 active torsions:
REMARK  status: ('A' for Active; 'I' for Inactive)
REMARK    1  A    between atoms: O1_2  and  N1_3 
REMARK    2  A    between atoms: N1_3  and  C2_5 
REMARK    3  A    between atoms: C2_5  and  C3_7 
REMARK       I    between atoms: C3_7  and  N3_9 
REMARK    4  A    between atoms: N3_9  and  C4_11 
REMARK    5  A    between atoms: C4_11  and  N4_12 
REMARK    6  A    between atoms: C4_11  and  C12_31 
REMARK    7  A    between atoms: N4_12  and  N5_14 
REMARK       I    between atoms: N8_27  and  C11_28 
REMARK    8  A    between atoms: C12_31  and  N9_32 
REMARK    9  A    between atoms: C12_31  and  O11_51 
REMARK   10  A    between atoms: N9_32  and  N10_33 
REMARK   11  A    between atoms: N10_33  and  C13_34 
REMARK       I    between atoms: N10_33  and  C18_41 
REMARK   12  A    between atoms: C13_34  and  C14_35 
REMARK   13  A    between atoms: C14_35  and  C17_38 
REMARK   14  A    between atoms: C17_38  and  O7_39 
REMARK   15  A    between atoms: C18_41  and  C19_43 
REMARK   16  A    between atoms: C19_43  and  N11_44 
REMARK   17  A    between atoms: C19_43  and  C20_48 
REMARK   18  A    between atoms: O11_51  and  C21_52 
ROOT
HETATM    1  C4  UNL     1      17.112 -58.713 -55.935  1.00  0.00     0.294 C 
ENDROOT
BRANCH   1   2
HETATM    2  N3  UNL     1      16.971 -60.095 -55.589  1.00  0.00    -0.324 N 
HETATM    3  C3  UNL     1      15.889 -60.803 -55.073  1.00  0.00     0.286 C 
HETATM    4  O2  UNL     1      14.786 -60.188 -54.871  1.00  0.00    -0.265 OA
ATOM      5  H3  UNL     1      17.807 -60.657 -55.748  1.00  0.00     0.165 HD
BRANCH   3   6
HETATM    6  C2  UNL     1      15.908 -62.234 -54.728  1.00  0.00     0.204 C 
HETATM    7  N2  UNL     1      16.618 -62.591 -53.504  1.00  0.00    -0.075 NA
BRANCH   6   8
HETATM    8  N1  UNL     1      15.400 -63.191 -55.342  1.00  0.00    -0.249 N 
ATOM      9  H1  UNL     1      15.571 -64.074 -54.861  1.00  0.00     0.196 HD
BRANCH   8  10
HETATM   10  O1  UNL     1      14.700 -63.371 -56.447  1.00  0.00    -0.284 OA
HETATM   11  C1  UNL     1      15.274 -63.311 -57.766  1.00  0.00     0.237 C 
ENDBRANCH   8  10
ENDBRANCH   6   8
ENDBRANCH   3   6
ENDBRANCH   1   2
BRANCH   1  12
HETATM   12  N4  UNL     1      16.449 -57.750 -55.119  1.00  0.00    -0.294 N 
ATOM     13  H4  UNL     1      15.446 -57.890 -54.995  1.00  0.00     0.183 HD
BRANCH  12  14
HETATM   14  N5  UNL     1      16.991 -56.642 -54.466  1.00  0.00    -0.226 N 
HETATM   15  C5  UNL     1      16.794 -55.333 -54.660  1.00  0.00     0.103 A 
HETATM   16  C6  UNL     1      15.928 -54.625 -55.659  1.00  0.00     0.091 C 
HETATM   17  N6  UNL     1      17.563 -54.672 -53.756  1.00  0.00    -0.327 N 
HETATM   18  C7  UNL     1      18.236 -55.536 -53.004  1.00  0.00     0.163 A 
ATOM     19  H6  UNL     1      17.617 -53.657 -53.668  1.00  0.00     0.169 HD
HETATM   20  C8  UNL     1      17.897 -56.800 -53.427  1.00  0.00     0.182 A 
HETATM   21  N8  UNL     1      19.180 -55.642 -51.934  1.00  0.00    -0.240 N 
HETATM   22  N7  UNL     1      18.600 -57.746 -52.625  1.00  0.00    -0.239 N 
HETATM   23  C9  UNL     1      18.652 -59.095 -52.210  1.00  0.00     0.382 C 
HETATM   24  C10 UNL     1      19.694 -56.964 -52.009  1.00  0.00     0.303 C 
HETATM   25  O3  UNL     1      18.556 -60.053 -53.052  1.00  0.00    -0.237 OA
HETATM   26  O4  UNL     1      18.815 -59.234 -50.837  1.00  0.00    -0.223 OA
HETATM   27  S1  UNL     1      19.713 -57.791 -50.362  1.00  0.00     0.049 SA
HETATM   28  C11 UNL     1      19.501 -54.637 -51.023  1.00  0.00     0.294 C 
HETATM   29  O5  UNL     1      18.948 -53.516 -51.099  1.00  0.00    -0.629 OA
HETATM   30  O6  UNL     1      20.438 -54.871 -50.027  1.00  0.00    -0.629 OA
ENDBRANCH  12  14
ENDBRANCH   1  12
BRANCH   1  31
HETATM   31  C12 UNL     1      16.613 -58.544 -57.396  1.00  0.00     0.268 C 
BRANCH  31  32
HETATM   32  N9  UNL     1      15.513 -58.177 -57.569  1.00  0.00    -0.295 NA
BRANCH  32  33
HETATM   33  N10 UNL     1      14.286 -57.787 -57.803  1.00  0.00    -0.189 N 
HETATM   34  C18 UNL     1      13.228 -58.708 -57.934  1.00  0.00     0.290 C 
HETATM   35  O8  UNL     1      12.071 -58.300 -58.151  1.00  0.00    -0.268 OA
BRANCH  33  36
HETATM   36  C13 UNL     1      13.986 -56.366 -57.986  1.00  0.00     0.177 C 
BRANCH  36  37
HETATM   37  C14 UNL     1      14.272 -55.819 -59.327  1.00  0.00    -0.007 C 
HETATM   38  C15 UNL     1      13.416 -54.643 -59.742  1.00  0.00     0.019 C 
HETATM   39  C16 UNL     1      14.269 -56.829 -60.435  1.00  0.00     0.019 C 
BRANCH  37  40
HETATM   40  C17 UNL     1      15.707 -55.270 -59.265  1.00  0.00     0.174 C 
BRANCH  40  41
HETATM   41  O7  UNL     1      16.033 -54.574 -60.417  1.00  0.00    -0.400 OA
ATOM     42  H7  UNL     1      16.900 -54.190 -60.358  1.00  0.00     0.209 HD
ENDBRANCH  40  41
ENDBRANCH  37  40
ENDBRANCH  36  37
ENDBRANCH  33  36
BRANCH  34  43
HETATM   43  C19 UNL     1      13.438 -60.165 -57.832  1.00  0.00     0.376 C 
BRANCH  43  44
HETATM   44  N11 UNL     1      13.692 -60.739 -59.163  1.00  0.00    -0.056 N 
ATOM     45 3H11 UNL     1      12.898 -61.284 -59.501  1.00  0.00     0.275 HD
ATOM     46 2H11 UNL     1      13.703 -60.023 -59.890  1.00  0.00     0.275 HD
ATOM     47 1H11 UNL     1      14.553 -61.285 -59.155  1.00  0.00     0.275 HD
ENDBRANCH  43  44
BRANCH  43  48
HETATM   48  C20 UNL     1      12.221 -60.896 -57.348  1.00  0.00     0.214 C 
HETATM   49  O9  UNL     1      11.523 -61.592 -58.169  1.00  0.00    -0.646 OA
HETATM   50  O10 UNL     1      11.772 -60.886 -56.056  1.00  0.00    -0.646 OA
ENDBRANCH  43  48
ENDBRANCH  34  43
ENDBRANCH  32  33
ENDBRANCH  31  32
BRANCH  31  51
HETATM   51  O11 UNL     1      17.540 -58.857 -58.386  1.00  0.00    -0.248 OA
BRANCH  51  52
HETATM   52  C21 UNL     1      17.240 -59.045 -59.718  1.00  0.00     0.262 C 
HETATM   53  C22 UNL     1      17.727 -58.084 -60.771  1.00  0.00     0.126 C 
HETATM   54  O12 UNL     1      16.552 -60.036 -60.049  1.00  0.00    -0.265 OA
ENDBRANCH  51  52
ENDBRANCH  31  51
ENDBRANCH   1  31
TORSDOF 18
ENDMDL
MODEL 5
REMARK VINA RESULT: -7.978072759      1.808      4.757
REMARK  18 active torsions:
REMARK  status: ('A' for Active; 'I' for Inactive)
REMARK    1  A    between atoms: O1_2  and  N1_3 
REMARK    2  A    between atoms: N1_3  and  C2_5 
REMARK    3  A    between atoms: C2_5  and  C3_7 
REMARK       I    between atoms: C3_7  and  N3_9 
REMARK    4  A    between atoms: N3_9  and  C4_11 
REMARK    5  A    between atoms: C4_11  and  N4_12 
REMARK    6  A    between atoms: C4_11  and  C12_31 
REMARK    7  A    between atoms: N4_12  and  N5_14 
REMARK       I    between atoms: N8_27  and  C11_28 
REMARK    8  A    between atoms: C12_31  and  N9_32 
REMARK    9  A    between atoms: C12_31  and  O11_51 
REMARK   10  A    between atoms: N9_32  and  N10_33 
REMARK   11  A    between atoms: N10_33  and  C13_34 
REMARK       I    between atoms: N10_33  and  C18_41 
REMARK   12  A    between atoms: C13_34  and  C14_35 
REMARK   13  A    between atoms: C14_35  and  C17_38 
REMARK   14  A    between atoms: C17_38  and  O7_39 
REMARK   15  A    between atoms: C18_41  and  C19_43 
REMARK   16  A    between atoms: C19_43  and  N11_44 
REMARK   17  A    between atoms: C19_43  and  C20_48 
REMARK   18  A    between atoms: O11_51  and  C21_52 
ROOT
HETATM    1  C4  UNL     1      15.237 -57.748 -56.818  1.00  0.00     0.294 C 
ENDROOT
BRANCH   1   2
HETATM    2  N3  UNL     1      14.236 -56.872 -57.347  1.00  0.00    -0.324 N 
HETATM    3  C3  UNL     1      14.345 -55.722 -58.125  1.00  0.00     0.286 C 
HETATM    4  O2  UNL     1      15.505 -55.333 -58.494  1.00  0.00    -0.265 OA
ATOM      5  H3  UNL     1      13.278 -57.135 -57.114  1.00  0.00     0.165 HD
BRANCH   3   6
HETATM    6  C2  UNL     1      13.210 -54.895 -58.565  1.00  0.00     0.204 C 
HETATM    7  N2  UNL     1      12.616 -55.250 -59.850  1.00  0.00    -0.075 NA
BRANCH   6   8
HETATM    8  N1  UNL     1      12.683 -53.925 -57.990  1.00  0.00    -0.249 N 
ATOM      9  H1  UNL     1      12.464 -53.176 -58.648  1.00  0.00     0.196 HD
BRANCH   8  10
HETATM   10  O1  UNL     1      12.329 -53.603 -56.759  1.00  0.00    -0.284 OA
HETATM   11  C1  UNL     1      11.201 -52.761 -56.455  1.00  0.00     0.237 C 
ENDBRANCH   8  10
ENDBRANCH   6   8
ENDBRANCH   3   6
ENDBRANCH   1   2
BRANCH   1  12
HETATM   12  N4  UNL     1      16.500 -57.186 -56.470  1.00  0.00    -0.294 N 
ATOM     13  H4  UNL     1      17.181 -57.126 -57.227  1.00  0.00     0.183 HD
BRANCH  12  14
HETATM   14  N5  UNL     1      16.926 -56.706 -55.231  1.00  0.00    -0.226 N 
HETATM   15  C5  UNL     1      16.846 -55.484 -54.695  1.00  0.00     0.103 A 
HETATM   16  C6  UNL     1      16.279 -54.216 -55.262  1.00  0.00     0.091 C 
HETATM   17  N6  UNL     1      17.409 -55.547 -53.460  1.00  0.00    -0.327 N 
HETATM   18  C7  UNL     1      17.839 -56.780 -53.214  1.00  0.00     0.163 A 
ATOM     19  H6  UNL     1      17.490 -54.761 -52.815  1.00  0.00     0.169 HD
HETATM   20  C8  UNL     1      17.548 -57.545 -54.318  1.00  0.00     0.182 A 
HETATM   21  N8  UNL     1      18.493 -57.600 -52.240  1.00  0.00    -0.240 N 
HETATM   22  N7  UNL     1      17.992 -58.878 -54.071  1.00  0.00    -0.239 N 
HETATM   23  C9  UNL     1      17.876 -60.227 -54.475  1.00  0.00     0.382 C 
HETATM   24  C10 UNL     1      18.944 -58.745 -52.947  1.00  0.00     0.303 C 
HETATM   25  O3  UNL     1      17.936 -60.558 -55.708  1.00  0.00    -0.237 OA
HETATM   26  O4  UNL     1      17.699 -61.098 -53.407  1.00  0.00    -0.223 OA
HETATM   27  S1  UNL     1      18.529 -60.308 -52.064  1.00  0.00     0.049 SA
HETATM   28  C11 UNL     1      18.638 -57.304 -50.885  1.00  0.00     0.294 C 
HETATM   29  O5  UNL     1      18.176 -56.238 -50.418  1.00  0.00    -0.629 OA
HETATM   30  O6  UNL     1      19.297 -58.189 -50.044  1.00  0.00    -0.629 OA
ENDBRANCH  12  14
ENDBRANCH   1  12
BRANCH   1  31
HETATM   31  C12 UNL     1      15.472 -58.873 -57.864  1.00  0.00     0.268 C 
BRANCH  31  32
HETATM   32  N9  UNL     1      14.717 -59.770 -57.894  1.00  0.00    -0.295 NA
BRANCH  32  33
HETATM   33  N10 UNL     1      13.847 -60.747 -57.901  1.00  0.00    -0.189 N 
HETATM   34  C18 UNL     1      14.051 -61.928 -57.159  1.00  0.00     0.290 C 
HETATM   35  O8  UNL     1      13.197 -62.834 -57.186  1.00  0.00    -0.268 OA
BRANCH  33  36
HETATM   36  C13 UNL     1      12.644 -60.657 -58.730  1.00  0.00     0.177 C 
BRANCH  36  37
HETATM   37  C14 UNL     1      11.495 -59.961 -58.116  1.00  0.00    -0.007 C 
HETATM   38  C15 UNL     1      11.607 -59.718 -56.627  1.00  0.00     0.019 C 
HETATM   39  C16 UNL     1      10.158 -60.575 -58.403  1.00  0.00     0.019 C 
BRANCH  37  40
HETATM   40  C17 UNL     1      11.457 -58.561 -58.751  1.00  0.00     0.174 C 
BRANCH  40  41
HETATM   41  O7  UNL     1      12.512 -58.374 -59.628  1.00  0.00    -0.400 OA
ATOM     42  H7  UNL     1      12.671 -57.451 -59.789  1.00  0.00     0.209 HD
ENDBRANCH  40  41
ENDBRANCH  37  40
ENDBRANCH  36  37
ENDBRANCH  33  36
BRANCH  34  43
HETATM   43  C19 UNL     1      15.262 -62.143 -56.344  1.00  0.00     0.376 C 
BRANCH  43  44
HETATM   44  N11 UNL     1      16.363 -62.635 -57.187  1.00  0.00    -0.056 N 
ATOM     45 3H11 UNL     1      16.047 -63.337 -57.856  1.00  0.00     0.275 HD
ATOM     46 2H11 UNL     1      16.681 -61.927 -57.849  1.00  0.00     0.275 HD
ATOM     47 1H11 UNL     1      17.126 -62.981 -56.605  1.00  0.00     0.275 HD
ENDBRANCH  43  44
BRANCH  43  48
HETATM   48  C20 UNL     1      15.085 -63.218 -55.313  1.00  0.00     0.214 C 
HETATM   49  O9  UNL     1      14.814 -64.417 -55.679  1.00  0.00    -0.646 OA
HETATM   50  O10 UNL     1      15.192 -63.025 -53.963  1.00  0.00    -0.646 OA
ENDBRANCH  43  48
ENDBRANCH  34  43
ENDBRANCH  32  33
ENDBRANCH  31  32
BRANCH  31  51
HETATM   51  O11 UNL     1      16.585 -58.708 -58.682  1.00  0.00    -0.248 OA
BRANCH  51  52
HETATM   52  C21 UNL     1      16.545 -58.287 -59.994  1.00  0.00     0.262 C 
HETATM   53  C22 UNL     1      17.811 -58.041 -60.774  1.00  0.00     0.126 C 
HETATM   54  O12 UNL     1      15.433 -58.112 -60.540  1.00  0.00    -0.265 OA
ENDBRANCH  51  52
ENDBRANCH  31  51
ENDBRANCH   1  31
TORSDOF 18
ENDMDL
