MODEL 1
REMARK VINA RESULT: -8.850312259      0.000      0.000
REMARK  16 active torsions:
REMARK  status: ('A' for Active; 'I' for Inactive)
REMARK    1  A    between atoms: C2_2  and  N1_3 
REMARK    2  A    between atoms: C2_2  and  N3_31 
REMARK    3  A    between atoms: C3_4  and  C4_5 
REMARK    4  A    between atoms: C5_8  and  S1_9 
REMARK    5  A    between atoms: S1_9  and  S2_10 
REMARK    6  A    between atoms: S2_10  and  C6_11 
REMARK    7  A    between atoms: C8_13  and  N2_14 
REMARK       I    between atoms: N2_14  and  C9_16 
REMARK    8  A    between atoms: C11_19  and  O4_20 
REMARK    9  A    between atoms: C12_23  and  O6_24 
REMARK   10  A    between atoms: C13_26  and  O7_27 
REMARK   11  A    between atoms: C15_36  and  C16_37 
REMARK   12  A    between atoms: C16_37  and  C17_38 
REMARK   13  A    between atoms: N6_40  and  N7_42 
REMARK       I    between atoms: N7_42  and  C18_44 
REMARK   14  A    between atoms: C18_44  and  C19_46 
REMARK   15  A    between atoms: C19_46  and  N8_48 
REMARK   16  A    between atoms: C21_52  and  N9_53 
ROOT
HETATM    1  N1  UNL     1      16.118 -56.924 -57.850  1.00  0.00    -0.333 N 
HETATM    2  C3  UNL     1      15.189 -56.994 -58.960  1.00  0.00     0.205 C 
HETATM    3  C5  UNL     1      15.396 -58.348 -59.603  1.00  0.00     0.124 C 
HETATM    4  C12 UNL     1      16.079 -59.275 -58.625  1.00  0.00     0.183 C 
HETATM    5  C13 UNL     1      17.495 -58.839 -58.447  1.00  0.00     0.164 A 
HETATM    6  S3  UNL     1      18.203 -57.689 -59.599  1.00  0.00    -0.096 SA
HETATM    7  C14 UNL     1      17.504 -57.371 -58.052  1.00  0.00     0.199 A 
ENDROOT
BRANCH   1   8
HETATM    8  C2  UNL     1      15.671 -56.456 -56.587  1.00  0.00     0.121 C 
HETATM    9  C1  UNL     1      14.539 -55.754 -56.555  1.00  0.00     0.065 C 
BRANCH   8  10
HETATM   10  N3  UNL     1      16.363 -56.673 -55.387  1.00  0.00    -0.208 N 
HETATM   11  N4  UNL     1      16.409 -57.821 -54.744  1.00  0.00    -0.232 N 
HETATM   12  N5  UNL     1      17.144 -57.744 -53.692  1.00  0.00    -0.280 N 
ATOM     13  H4  UNL     1      15.922 -58.666 -55.043  1.00  0.00     0.209 HD
HETATM   14  C15 UNL     1      17.666 -56.448 -53.572  1.00  0.00     0.126 A 
ATOM     15  H5  UNL     1      17.322 -58.511 -53.042  1.00  0.00     0.188 HD
HETATM   16  C21 UNL     1      17.151 -55.811 -54.652  1.00  0.00     0.158 A 
BRANCH  14  17
HETATM   17  C16 UNL     1      18.586 -56.080 -52.537  1.00  0.00     0.117 C 
HETATM   18  N6  UNL     1      19.258 -57.047 -51.915  1.00  0.00    -0.293 N 
ATOM     19  H6  UNL     1      19.913 -56.778 -51.181  1.00  0.00     0.187 HD
BRANCH  17  20
HETATM   20  C17 UNL     1      18.980 -54.782 -52.089  1.00  0.00     0.292 C 
HETATM   21  O8  UNL     1      19.764 -53.956 -52.529  1.00  0.00    -0.300 OA
ENDBRANCH  17  20
BRANCH  18  22
HETATM   22  N7  UNL     1      19.125 -58.372 -52.198  1.00  0.00    -0.268 N 
HETATM   23  C18 UNL     1      19.198 -59.406 -51.207  1.00  0.00     0.266 C 
HETATM   24  O9  UNL     1      19.395 -59.096 -50.018  1.00  0.00    -0.269 OA
ATOM     25  H7  UNL     1      18.964 -58.645 -53.168  1.00  0.00     0.190 HD
BRANCH  23  26
HETATM   26  C19 UNL     1      19.040 -60.804 -51.621  1.00  0.00     0.272 C 
HETATM   27  C20 UNL     1      20.328 -61.405 -52.151  1.00  0.00     0.050 C 
BRANCH  26  28
HETATM   28  N8  UNL     1      17.962 -61.010 -52.553  1.00  0.00    -0.067 N 
ATOM     29  H83 UNL     1      17.903 -60.234 -53.213  1.00  0.00     0.275 HD
ATOM     30  H82 UNL     1      18.184 -61.767 -53.200  1.00  0.00     0.275 HD
ATOM     31  H81 UNL     1      17.061 -61.171 -52.104  1.00  0.00     0.275 HD
ENDBRANCH  26  28
ENDBRANCH  23  26
ENDBRANCH  18  22
ENDBRANCH  14  17
BRANCH  16  32
HETATM   32  N9  UNL     1      17.259 -54.473 -55.080  1.00  0.00    -0.372 N 
HETATM   33  C22 UNL     1      16.486 -53.423 -54.423  1.00  0.00     0.150 C 
HETATM   34  C23 UNL     1      18.083 -54.057 -56.227  1.00  0.00     0.150 C 
ENDBRANCH  16  32
ENDBRANCH   8  10
ENDBRANCH   1   8
BRANCH   2  35
HETATM   35  C4  UNL     1      15.534 -55.928 -59.933  1.00  0.00     0.198 C 
HETATM   36  O1  UNL     1      16.104 -54.850 -59.632  1.00  0.00    -0.646 OA
HETATM   37  O2  UNL     1      15.224 -56.087 -61.280  1.00  0.00    -0.646 OA
ENDBRANCH   2  35
BRANCH   3  38
HETATM   38  S1  UNL     1      13.876 -59.153 -60.126  1.00  0.00    -0.085 SA
BRANCH  38  39
HETATM   39  S2  UNL     1      12.236 -58.801 -58.832  1.00  0.00    -0.065 SA
BRANCH  39  40
HETATM   40  C6  UNL     1      12.168 -60.076 -57.512  1.00  0.00     0.199 C 
HETATM   41  C7  UNL     1      13.300 -59.888 -56.538  1.00  0.00     0.074 C 
HETATM   42  C8  UNL     1      14.144 -61.125 -56.741  1.00  0.00     0.142 C 
HETATM   43  C11 UNL     1      13.259 -62.044 -57.508  1.00  0.00     0.281 C 
HETATM   44  O5  UNL     1      12.320 -61.283 -58.146  1.00  0.00    -0.343 OA
BRANCH  42  45
HETATM   45  N2  UNL     1      14.551 -61.773 -55.528  1.00  0.00    -0.352 N 
HETATM   46  C9  UNL     1      15.581 -62.725 -55.477  1.00  0.00     0.214 C 
HETATM   47  C10 UNL     1      15.981 -63.393 -54.184  1.00  0.00     0.117 C 
HETATM   48  O3  UNL     1      16.245 -63.099 -56.479  1.00  0.00    -0.274 OA
ATOM     49  H2  UNL     1      14.070 -61.531 -54.662  1.00  0.00     0.163 HD
ENDBRANCH  42  45
BRANCH  43  50
HETATM   50  O4  UNL     1      14.030 -62.688 -58.488  1.00  0.00    -0.369 OA
ATOM     51  H4  UNL     1      14.217 -63.570 -58.191  1.00  0.00     0.212 HD
ENDBRANCH  43  50
ENDBRANCH  39  40
ENDBRANCH  38  39
ENDBRANCH   3  38
BRANCH   5  52
HETATM   52  O7  UNL     1      18.325 -59.716 -57.761  1.00  0.00    -0.373 OA
ATOM     53  H7  UNL     1      18.303 -59.659 -56.813  1.00  0.00     0.212 HD
ENDBRANCH   5  52
BRANCH   4  54
HETATM   54  O6  UNL     1      16.008 -60.562 -59.151  1.00  0.00    -0.390 OA
ATOM     55  H6  UNL     1      16.895 -60.838 -59.351  1.00  0.00     0.210 HD
ENDBRANCH   4  54
TORSDOF 16
ENDMDL
MODEL 2
REMARK VINA RESULT: -8.625860915      8.350     13.809
REMARK  16 active torsions:
REMARK  status: ('A' for Active; 'I' for Inactive)
REMARK    1  A    between atoms: C2_2  and  N1_3 
REMARK    2  A    between atoms: C2_2  and  N3_31 
REMARK    3  A    between atoms: C3_4  and  C4_5 
REMARK    4  A    between atoms: C5_8  and  S1_9 
REMARK    5  A    between atoms: S1_9  and  S2_10 
REMARK    6  A    between atoms: S2_10  and  C6_11 
REMARK    7  A    between atoms: C8_13  and  N2_14 
REMARK       I    between atoms: N2_14  and  C9_16 
REMARK    8  A    between atoms: C11_19  and  O4_20 
REMARK    9  A    between atoms: C12_23  and  O6_24 
REMARK   10  A    between atoms: C13_26  and  O7_27 
REMARK   11  A    between atoms: C15_36  and  C16_37 
REMARK   12  A    between atoms: C16_37  and  C17_38 
REMARK   13  A    between atoms: N6_40  and  N7_42 
REMARK       I    between atoms: N7_42  and  C18_44 
REMARK   14  A    between atoms: C18_44  and  C19_46 
REMARK   15  A    between atoms: C19_46  and  N8_48 
REMARK   16  A    between atoms: C21_52  and  N9_53 
ROOT
HETATM    1  N1  UNL     1      22.935 -50.022 -47.646  1.00  0.00    -0.333 N 
HETATM    2  C3  UNL     1      22.978 -48.804 -48.429  1.00  0.00     0.205 C 
HETATM    3  C5  UNL     1      24.337 -48.187 -48.180  1.00  0.00     0.124 C 
HETATM    4  C12 UNL     1      25.283 -49.238 -47.651  1.00  0.00     0.183 C 
HETATM    5  C13 UNL     1      24.886 -49.595 -46.257  1.00  0.00     0.164 A 
HETATM    6  S3  UNL     1      23.755 -48.547 -45.379  1.00  0.00    -0.096 SA
HETATM    7  C14 UNL     1      23.419 -49.995 -46.259  1.00  0.00     0.199 A 
ENDROOT
BRANCH   1   8
HETATM    8  C2  UNL     1      22.455 -51.221 -48.236  1.00  0.00     0.121 C 
HETATM    9  C1  UNL     1      22.976 -52.370 -47.808  1.00  0.00     0.065 C 
BRANCH   8  10
HETATM   10  N3  UNL     1      21.486 -51.256 -49.248  1.00  0.00    -0.208 N 
HETATM   11  N4  UNL     1      21.705 -50.948 -50.509  1.00  0.00    -0.232 N 
HETATM   12  N5  UNL     1      20.648 -51.103 -51.225  1.00  0.00    -0.280 N 
ATOM     13  H4  UNL     1      22.602 -50.625 -50.873  1.00  0.00     0.209 HD
HETATM   14  C15 UNL     1      19.594 -51.560 -50.420  1.00  0.00     0.126 A 
ATOM     15  H5  UNL     1      20.585 -50.922 -52.227  1.00  0.00     0.188 HD
HETATM   16  C21 UNL     1      20.161 -51.640 -49.192  1.00  0.00     0.158 A 
BRANCH  14  17
HETATM   17  C16 UNL     1      18.308 -51.898 -50.953  1.00  0.00     0.117 C 
HETATM   18  N6  UNL     1      18.072 -53.168 -51.276  1.00  0.00    -0.293 N 
ATOM     19  H6  UNL     1      17.153 -53.403 -51.653  1.00  0.00     0.187 HD
BRANCH  17  20
HETATM   20  C17 UNL     1      17.153 -51.077 -51.136  1.00  0.00     0.292 C 
HETATM   21  O8  UNL     1      15.957 -51.322 -51.158  1.00  0.00    -0.300 OA
ENDBRANCH  17  20
BRANCH  18  22
HETATM   22  N7  UNL     1      18.979 -54.173 -51.135  1.00  0.00    -0.268 N 
HETATM   23  C18 UNL     1      18.649 -55.476 -50.634  1.00  0.00     0.266 C 
HETATM   24  O9  UNL     1      17.475 -55.721 -50.303  1.00  0.00    -0.269 OA
ATOM     25  H7  UNL     1      19.948 -53.990 -51.400  1.00  0.00     0.190 HD
BRANCH  23  26
HETATM   26  C19 UNL     1      19.706 -56.487 -50.523  1.00  0.00     0.272 C 
HETATM   27  C20 UNL     1      19.156 -57.889 -50.344  1.00  0.00     0.050 C 
BRANCH  26  28
HETATM   28  N8  UNL     1      20.682 -56.190 -49.507  1.00  0.00    -0.067 N 
ATOM     29  H83 UNL     1      21.621 -56.164 -49.904  1.00  0.00     0.275 HD
ATOM     30  H82 UNL     1      20.600 -55.220 -49.201  1.00  0.00     0.275 HD
ATOM     31  H81 UNL     1      20.645 -56.824 -48.709  1.00  0.00     0.275 HD
ENDBRANCH  26  28
ENDBRANCH  23  26
ENDBRANCH  18  22
ENDBRANCH  14  17
BRANCH  16  32
HETATM   32  N9  UNL     1      19.618 -51.992 -47.940  1.00  0.00    -0.372 N 
HETATM   33  C22 UNL     1      19.039 -50.970 -47.073  1.00  0.00     0.150 C 
HETATM   34  C23 UNL     1      19.655 -53.361 -47.401  1.00  0.00     0.150 C 
ENDBRANCH  16  32
ENDBRANCH   8  10
ENDBRANCH   1   8
BRANCH   2  35
HETATM   35  C4  UNL     1      21.921 -47.887 -47.936  1.00  0.00     0.198 C 
HETATM   36  O1  UNL     1      20.745 -48.238 -47.666  1.00  0.00    -0.646 OA
HETATM   37  O2  UNL     1      22.202 -46.538 -47.745  1.00  0.00    -0.646 OA
ENDBRANCH   2  35
BRANCH   3  38
HETATM   38  S1  UNL     1      25.099 -47.473 -49.643  1.00  0.00    -0.085 SA
BRANCH  38  39
HETATM   39  S2  UNL     1      24.377 -48.284 -51.463  1.00  0.00    -0.065 SA
BRANCH  39  40
HETATM   40  C6  UNL     1      25.242 -49.854 -51.860  1.00  0.00     0.199 C 
HETATM   41  C7  UNL     1      25.521 -50.636 -50.603  1.00  0.00     0.074 C 
HETATM   42  C8  UNL     1      27.029 -50.624 -50.512  1.00  0.00     0.142 C 
HETATM   43  C11 UNL     1      27.469 -50.180 -51.863  1.00  0.00     0.281 C 
HETATM   44  O5  UNL     1      26.435 -49.492 -52.434  1.00  0.00    -0.343 OA
BRANCH  42  45
HETATM   45  N2  UNL     1      27.616 -51.901 -50.226  1.00  0.00    -0.352 N 
HETATM   46  C9  UNL     1      27.965 -52.309 -48.929  1.00  0.00     0.214 C 
HETATM   47  C10 UNL     1      28.587 -53.658 -48.662  1.00  0.00     0.117 C 
HETATM   48  O3  UNL     1      27.797 -51.605 -47.899  1.00  0.00    -0.274 OA
ATOM     49  H2  UNL     1      27.788 -52.542 -51.000  1.00  0.00     0.163 HD
ENDBRANCH  42  45
BRANCH  43  50
HETATM   50  O4  UNL     1      28.544 -49.292 -51.709  1.00  0.00    -0.369 OA
ATOM     51  H4  UNL     1      28.196 -48.414 -51.608  1.00  0.00     0.212 HD
ENDBRANCH  43  50
ENDBRANCH  39  40
ENDBRANCH  38  39
ENDBRANCH   3  38
BRANCH   5  52
HETATM   52  O7  UNL     1      25.786 -50.377 -45.545  1.00  0.00    -0.373 OA
ATOM     53  H7  UNL     1      25.445 -50.812 -44.773  1.00  0.00     0.212 HD
ENDBRANCH   5  52
BRANCH   4  54
HETATM   54  O6  UNL     1      26.567 -48.702 -47.690  1.00  0.00    -0.390 OA
ATOM     55  H6  UNL     1      27.127 -49.265 -47.167  1.00  0.00     0.210 HD
ENDBRANCH   4  54
TORSDOF 16
ENDMDL
MODEL 3
REMARK VINA RESULT: -8.397736687      8.473     13.884
REMARK  16 active torsions:
REMARK  status: ('A' for Active; 'I' for Inactive)
REMARK    1  A    between atoms: C2_2  and  N1_3 
REMARK    2  A    between atoms: C2_2  and  N3_31 
REMARK    3  A    between atoms: C3_4  and  C4_5 
REMARK    4  A    between atoms: C5_8  and  S1_9 
REMARK    5  A    between atoms: S1_9  and  S2_10 
REMARK    6  A    between atoms: S2_10  and  C6_11 
REMARK    7  A    between atoms: C8_13  and  N2_14 
REMARK       I    between atoms: N2_14  and  C9_16 
REMARK    8  A    between atoms: C11_19  and  O4_20 
REMARK    9  A    between atoms: C12_23  and  O6_24 
REMARK   10  A    between atoms: C13_26  and  O7_27 
REMARK   11  A    between atoms: C15_36  and  C16_37 
REMARK   12  A    between atoms: C16_37  and  C17_38 
REMARK   13  A    between atoms: N6_40  and  N7_42 
REMARK       I    between atoms: N7_42  and  C18_44 
REMARK   14  A    between atoms: C18_44  and  C19_46 
REMARK   15  A    between atoms: C19_46  and  N8_48 
REMARK   16  A    between atoms: C21_52  and  N9_53 
ROOT
HETATM    1  N1  UNL     1      22.622 -48.321 -50.173  1.00  0.00    -0.333 N 
HETATM    2  C3  UNL     1      23.398 -48.564 -48.974  1.00  0.00     0.205 C 
HETATM    3  C5  UNL     1      23.132 -47.393 -48.053  1.00  0.00     0.124 C 
HETATM    4  C12 UNL     1      21.856 -46.701 -48.466  1.00  0.00     0.183 C 
HETATM    5  C13 UNL     1      22.084 -45.985 -49.756  1.00  0.00     0.164 A 
HETATM    6  S3  UNL     1      23.745 -45.731 -50.328  1.00  0.00    -0.096 SA
HETATM    7  C14 UNL     1      22.633 -46.977 -50.769  1.00  0.00     0.199 A 
ENDROOT
BRANCH   1   8
HETATM    8  C2  UNL     1      21.848 -49.370 -50.734  1.00  0.00     0.121 C 
HETATM    9  C1  UNL     1      21.237 -49.134 -51.895  1.00  0.00     0.065 C 
BRANCH   8  10
HETATM   10  N3  UNL     1      21.678 -50.622 -50.127  1.00  0.00    -0.208 N 
HETATM   11  N4  UNL     1      22.615 -51.541 -50.023  1.00  0.00    -0.232 N 
HETATM   12  N5  UNL     1      22.194 -52.577 -49.389  1.00  0.00    -0.280 N 
ATOM     13  H4  UNL     1      23.558 -51.443 -50.400  1.00  0.00     0.209 HD
HETATM   14  C15 UNL     1      20.858 -52.387 -49.006  1.00  0.00     0.126 A 
ATOM     15  H5  UNL     1      22.748 -53.411 -49.193  1.00  0.00     0.188 HD
HETATM   16  C21 UNL     1      20.575 -51.153 -49.488  1.00  0.00     0.158 A 
BRANCH  14  17
HETATM   17  C16 UNL     1      20.141 -53.342 -48.214  1.00  0.00     0.117 C 
HETATM   18  N6  UNL     1      19.339 -54.204 -48.836  1.00  0.00    -0.293 N 
ATOM     19  H6  UNL     1      18.833 -54.882 -48.266  1.00  0.00     0.187 HD
BRANCH  17  20
HETATM   20  C17 UNL     1      20.201 -53.587 -46.807  1.00  0.00     0.292 C 
HETATM   21  O8  UNL     1      21.091 -53.986 -46.074  1.00  0.00    -0.300 OA
ENDBRANCH  17  20
BRANCH  18  22
HETATM   22  N7  UNL     1      19.152 -54.236 -50.185  1.00  0.00    -0.268 N 
HETATM   23  C18 UNL     1      18.174 -55.063 -50.830  1.00  0.00     0.266 C 
HETATM   24  O9  UNL     1      17.448 -55.800 -50.139  1.00  0.00    -0.269 OA
ATOM     25  H7  UNL     1      19.739 -53.639 -50.767  1.00  0.00     0.190 HD
BRANCH  23  26
HETATM   26  C19 UNL     1      18.056 -55.020 -52.292  1.00  0.00     0.272 C 
HETATM   27  C20 UNL     1      17.868 -56.396 -52.903  1.00  0.00     0.050 C 
BRANCH  26  28
HETATM   28  N8  UNL     1      19.138 -54.321 -52.936  1.00  0.00    -0.067 N 
ATOM     29  H83 UNL     1      18.835 -53.932 -53.829  1.00  0.00     0.275 HD
ATOM     30  H82 UNL     1      19.355 -53.457 -52.439  1.00  0.00     0.275 HD
ATOM     31  H81 UNL     1      19.976 -54.890 -53.055  1.00  0.00     0.275 HD
ENDBRANCH  26  28
ENDBRANCH  23  26
ENDBRANCH  18  22
ENDBRANCH  14  17
BRANCH  16  32
HETATM   32  N9  UNL     1      19.383 -50.402 -49.474  1.00  0.00    -0.372 N 
HETATM   33  C22 UNL     1      19.184 -49.352 -48.479  1.00  0.00     0.150 C 
HETATM   34  C23 UNL     1      18.258 -50.656 -50.389  1.00  0.00     0.150 C 
ENDBRANCH  16  32
ENDBRANCH   8  10
ENDBRANCH   1   8
BRANCH   2  35
HETATM   35  C4  UNL     1      24.836 -48.589 -49.337  1.00  0.00     0.198 C 
HETATM   36  O1  UNL     1      25.731 -47.938 -48.741  1.00  0.00    -0.646 OA
HETATM   37  O2  UNL     1      25.272 -49.368 -50.404  1.00  0.00    -0.646 OA
ENDBRANCH   2  35
BRANCH   3  38
HETATM   38  S1  UNL     1      22.955 -47.845 -46.322  1.00  0.00    -0.085 SA
BRANCH  38  39
HETATM   39  S2  UNL     1      22.010 -49.718 -46.023  1.00  0.00    -0.065 SA
BRANCH  39  40
HETATM   40  C6  UNL     1      23.253 -51.015 -45.640  1.00  0.00     0.199 C 
HETATM   41  C7  UNL     1      24.555 -50.390 -45.215  1.00  0.00     0.074 C 
HETATM   42  C8  UNL     1      25.505 -50.773 -46.327  1.00  0.00     0.142 C 
HETATM   43  C11 UNL     1      24.785 -51.849 -47.063  1.00  0.00     0.281 C 
HETATM   44  O5  UNL     1      23.449 -51.705 -46.811  1.00  0.00    -0.343 OA
BRANCH  42  45
HETATM   45  N2  UNL     1      26.770 -51.279 -45.879  1.00  0.00    -0.352 N 
HETATM   46  C9  UNL     1      27.925 -51.267 -46.677  1.00  0.00     0.214 C 
HETATM   47  C10 UNL     1      29.240 -51.813 -46.177  1.00  0.00     0.117 C 
HETATM   48  O3  UNL     1      27.966 -50.814 -47.850  1.00  0.00    -0.274 OA
ATOM     49  H2  UNL     1      26.833 -51.666 -44.937  1.00  0.00     0.163 HD
ENDBRANCH  42  45
BRANCH  43  50
HETATM   50  O4  UNL     1      24.987 -51.656 -48.438  1.00  0.00    -0.369 OA
ATOM     51  H4  UNL     1      24.255 -52.040 -48.905  1.00  0.00     0.212 HD
ENDBRANCH  43  50
ENDBRANCH  39  40
ENDBRANCH  38  39
ENDBRANCH   3  38
BRANCH   5  52
HETATM   52  O7  UNL     1      21.082 -45.112 -50.159  1.00  0.00    -0.373 OA
ATOM     53  H7  UNL     1      20.868 -45.116 -51.084  1.00  0.00     0.212 HD
ENDBRANCH   5  52
BRANCH   4  54
HETATM   54  O6  UNL     1      21.513 -45.813 -47.449  1.00  0.00    -0.390 OA
ATOM     55  H6  UNL     1      20.784 -45.290 -47.762  1.00  0.00     0.210 HD
ENDBRANCH   4  54
TORSDOF 16
ENDMDL
MODEL 4
REMARK VINA RESULT: -8.352186076      8.369     12.509
REMARK  16 active torsions:
REMARK  status: ('A' for Active; 'I' for Inactive)
REMARK    1  A    between atoms: C2_2  and  N1_3 
REMARK    2  A    between atoms: C2_2  and  N3_31 
REMARK    3  A    between atoms: C3_4  and  C4_5 
REMARK    4  A    between atoms: C5_8  and  S1_9 
REMARK    5  A    between atoms: S1_9  and  S2_10 
REMARK    6  A    between atoms: S2_10  and  C6_11 
REMARK    7  A    between atoms: C8_13  and  N2_14 
REMARK       I    between atoms: N2_14  and  C9_16 
REMARK    8  A    between atoms: C11_19  and  O4_20 
REMARK    9  A    between atoms: C12_23  and  O6_24 
REMARK   10  A    between atoms: C13_26  and  O7_27 
REMARK   11  A    between atoms: C15_36  and  C16_37 
REMARK   12  A    between atoms: C16_37  and  C17_38 
REMARK   13  A    between atoms: N6_40  and  N7_42 
REMARK       I    between atoms: N7_42  and  C18_44 
REMARK   14  A    between atoms: C18_44  and  C19_46 
REMARK   15  A    between atoms: C19_46  and  N8_48 
REMARK   16  A    between atoms: C21_52  and  N9_53 
ROOT
HETATM    1  N1  UNL     1      22.929 -48.420 -48.665  1.00  0.00    -0.333 N 
HETATM    2  C3  UNL     1      22.209 -49.637 -48.350  1.00  0.00     0.205 C 
HETATM    3  C5  UNL     1      21.398 -49.980 -49.580  1.00  0.00     0.124 C 
HETATM    4  C12 UNL     1      21.975 -49.274 -50.783  1.00  0.00     0.183 C 
HETATM    5  C13 UNL     1      21.695 -47.812 -50.672  1.00  0.00     0.164 A 
HETATM    6  S3  UNL     1      20.496 -47.243 -49.493  1.00  0.00    -0.096 SA
HETATM    7  C14 UNL     1      22.214 -47.321 -49.329  1.00  0.00     0.199 A 
ENDROOT
BRANCH   1   8
HETATM    8  C2  UNL     1      24.310 -48.318 -48.353  1.00  0.00     0.121 C 
HETATM    9  C1  UNL     1      25.024 -47.402 -49.006  1.00  0.00     0.065 C 
BRANCH   8  10
HETATM   10  N3  UNL     1      24.959 -49.137 -47.418  1.00  0.00    -0.208 N 
HETATM   11  N4  UNL     1      24.882 -48.993 -46.111  1.00  0.00    -0.232 N 
HETATM   12  N5  UNL     1      25.547 -49.904 -45.495  1.00  0.00    -0.280 N 
ATOM     13  H4  UNL     1      24.360 -48.249 -45.646  1.00  0.00     0.209 HD
HETATM   14  C15 UNL     1      26.143 -50.767 -46.426  1.00  0.00     0.126 A 
ATOM     15  H5  UNL     1      25.630 -49.987 -44.481  1.00  0.00     0.188 HD
HETATM   16  C21 UNL     1      25.750 -50.251 -47.615  1.00  0.00     0.158 A 
BRANCH  14  17
HETATM   17  C16 UNL     1      26.885 -51.928 -46.035  1.00  0.00     0.117 C 
HETATM   18  N6  UNL     1      26.212 -53.031 -45.713  1.00  0.00    -0.293 N 
ATOM     19  H6  UNL     1      26.747 -53.855 -45.438  1.00  0.00     0.187 HD
BRANCH  17  20
HETATM   20  C17 UNL     1      28.299 -52.137 -46.003  1.00  0.00     0.292 C 
HETATM   21  O8  UNL     1      29.156 -52.132 -46.871  1.00  0.00    -0.300 OA
ENDBRANCH  17  20
BRANCH  18  22
HETATM   22  N7  UNL     1      24.853 -53.128 -45.728  1.00  0.00    -0.268 N 
HETATM   23  C18 UNL     1      24.079 -53.596 -44.615  1.00  0.00     0.266 C 
HETATM   24  O9  UNL     1      24.661 -53.938 -43.570  1.00  0.00    -0.269 OA
ATOM     25  H7  UNL     1      24.359 -52.852 -46.577  1.00  0.00     0.190 HD
BRANCH  23  26
HETATM   26  C19 UNL     1      22.619 -53.659 -44.738  1.00  0.00     0.272 C 
HETATM   27  C20 UNL     1      22.105 -52.933 -45.967  1.00  0.00     0.050 C 
BRANCH  26  28
HETATM   28  N8  UNL     1      21.922 -53.218 -43.559  1.00  0.00    -0.067 N 
ATOM     29  H83 UNL     1      21.005 -52.843 -43.800  1.00  0.00     0.275 HD
ATOM     30  H82 UNL     1      21.636 -54.014 -42.990  1.00  0.00     0.275 HD
ATOM     31  H81 UNL     1      22.450 -52.546 -43.001  1.00  0.00     0.275 HD
ENDBRANCH  26  28
ENDBRANCH  23  26
ENDBRANCH  18  22
ENDBRANCH  14  17
BRANCH  16  32
HETATM   32  N9  UNL     1      26.049 -50.633 -48.938  1.00  0.00    -0.372 N 
HETATM   33  C22 UNL     1      27.300 -50.211 -49.563  1.00  0.00     0.150 C 
HETATM   34  C23 UNL     1      25.124 -51.405 -49.784  1.00  0.00     0.150 C 
ENDBRANCH  16  32
ENDBRANCH   8  10
ENDBRANCH   1   8
BRANCH   2  35
HETATM   35  C4  UNL     1      21.294 -49.366 -47.215  1.00  0.00     0.198 C 
HETATM   36  O1  UNL     1      21.612 -48.722 -46.184  1.00  0.00    -0.646 OA
HETATM   37  O2  UNL     1      19.985 -49.837 -47.246  1.00  0.00    -0.646 OA
ENDBRANCH   2  35
BRANCH   3  38
HETATM   38  S1  UNL     1      21.354 -51.736 -49.965  1.00  0.00    -0.085 SA
BRANCH  38  39
HETATM   39  S2  UNL     1      19.399 -52.551 -50.006  1.00  0.00    -0.065 SA
BRANCH  39  40
HETATM   40  C6  UNL     1      19.358 -54.177 -49.153  1.00  0.00     0.199 C 
HETATM   41  C7  UNL     1      20.489 -55.050 -49.626  1.00  0.00     0.074 C 
HETATM   42  C8  UNL     1      19.784 -56.178 -50.342  1.00  0.00     0.142 C 
HETATM   43  C11 UNL     1      18.365 -56.050 -49.909  1.00  0.00     0.281 C 
HETATM   44  O5  UNL     1      18.166 -54.759 -49.507  1.00  0.00    -0.343 OA
BRANCH  42  45
HETATM   45  N2  UNL     1      20.260 -57.488 -50.001  1.00  0.00    -0.352 N 
HETATM   46  C9  UNL     1      20.097 -58.603 -50.839  1.00  0.00     0.214 C 
HETATM   47  C10 UNL     1      20.605 -59.969 -50.449  1.00  0.00     0.117 C 
HETATM   48  O3  UNL     1      19.526 -58.565 -51.960  1.00  0.00    -0.274 OA
ATOM     49  H2  UNL     1      20.739 -57.615 -49.111  1.00  0.00     0.163 HD
ENDBRANCH  42  45
BRANCH  43  50
HETATM   50  O4  UNL     1      17.540 -56.289 -51.018  1.00  0.00    -0.369 OA
ATOM     51  H4  UNL     1      16.643 -56.361 -50.714  1.00  0.00     0.212 HD
ENDBRANCH  43  50
ENDBRANCH  39  40
ENDBRANCH  38  39
ENDBRANCH   3  38
BRANCH   5  52
HETATM   52  O7  UNL     1      21.956 -47.050 -51.803  1.00  0.00    -0.373 OA
ATOM     53  H7  UNL     1      21.398 -46.294 -51.937  1.00  0.00     0.212 HD
ENDBRANCH   5  52
BRANCH   4  54
HETATM   54  O6  UNL     1      21.376 -49.819 -51.915  1.00  0.00    -0.390 OA
ATOM     55  H6  UNL     1      21.261 -50.749 -51.758  1.00  0.00     0.210 HD
ENDBRANCH   4  54
TORSDOF 16
ENDMDL
MODEL 5
REMARK VINA RESULT: -8.351104900      9.051     13.565
REMARK  16 active torsions:
REMARK  status: ('A' for Active; 'I' for Inactive)
REMARK    1  A    between atoms: C2_2  and  N1_3 
REMARK    2  A    between atoms: C2_2  and  N3_31 
REMARK    3  A    between atoms: C3_4  and  C4_5 
REMARK    4  A    between atoms: C5_8  and  S1_9 
REMARK    5  A    between atoms: S1_9  and  S2_10 
REMARK    6  A    between atoms: S2_10  and  C6_11 
REMARK    7  A    between atoms: C8_13  and  N2_14 
REMARK       I    between atoms: N2_14  and  C9_16 
REMARK    8  A    between atoms: C11_19  and  O4_20 
REMARK    9  A    between atoms: C12_23  and  O6_24 
REMARK   10  A    between atoms: C13_26  and  O7_27 
REMARK   11  A    between atoms: C15_36  and  C16_37 
REMARK   12  A    between atoms: C16_37  and  C17_38 
REMARK   13  A    between atoms: N6_40  and  N7_42 
REMARK       I    between atoms: N7_42  and  C18_44 
REMARK   14  A    between atoms: C18_44  and  C19_46 
REMARK   15  A    between atoms: C19_46  and  N8_48 
REMARK   16  A    between atoms: C21_52  and  N9_53 
ROOT
HETATM    1  N1  UNL     1      24.021 -47.664 -48.619  1.00  0.00    -0.333 N 
HETATM    2  C3  UNL     1      22.865 -48.511 -48.406  1.00  0.00     0.205 C 
HETATM    3  C5  UNL     1      21.789 -48.003 -49.341  1.00  0.00     0.124 C 
HETATM    4  C12 UNL     1      22.419 -47.187 -50.444  1.00  0.00     0.183 C 
HETATM    5  C13 UNL     1      22.915 -45.899 -49.876  1.00  0.00     0.164 A 
HETATM    6  S3  UNL     1      22.374 -45.394 -48.262  1.00  0.00    -0.096 SA
HETATM    7  C14 UNL     1      23.832 -46.209 -48.704  1.00  0.00     0.199 A 
ENDROOT
BRANCH   1   8
HETATM    8  C2  UNL     1      25.305 -48.251 -48.769  1.00  0.00     0.121 C 
HETATM    9  C1  UNL     1      26.041 -47.867 -49.811  1.00  0.00     0.065 C 
BRANCH   8  10
HETATM   10  N3  UNL     1      25.825 -49.218 -47.897  1.00  0.00    -0.208 N 
HETATM   11  N4  UNL     1      26.107 -49.013 -46.628  1.00  0.00    -0.232 N 
HETATM   12  N5  UNL     1      26.536 -50.083 -46.059  1.00  0.00    -0.280 N 
ATOM     13  H4  UNL     1      25.998 -48.115 -46.155  1.00  0.00     0.209 HD
HETATM   14  C15 UNL     1      26.562 -51.134 -46.987  1.00  0.00     0.126 A 
ATOM     15  H5  UNL     1      26.815 -50.156 -45.080  1.00  0.00     0.188 HD
HETATM   16  C21 UNL     1      26.111 -50.550 -48.123  1.00  0.00     0.158 A 
BRANCH  14  17
HETATM   17  C16 UNL     1      26.923 -52.473 -46.624  1.00  0.00     0.117 C 
HETATM   18  N6  UNL     1      26.033 -53.210 -45.962  1.00  0.00    -0.293 N 
ATOM     19  H6  UNL     1      26.296 -54.163 -45.710  1.00  0.00     0.187 HD
BRANCH  17  20
HETATM   20  C17 UNL     1      28.105 -53.213 -46.934  1.00  0.00     0.292 C 
HETATM   21  O8  UNL     1      29.132 -52.923 -47.528  1.00  0.00    -0.300 OA
ENDBRANCH  17  20
BRANCH  18  22
HETATM   22  N7  UNL     1      24.795 -52.772 -45.602  1.00  0.00    -0.268 N 
HETATM   23  C18 UNL     1      24.094 -53.243 -44.443  1.00  0.00     0.266 C 
HETATM   24  O9  UNL     1      24.627 -54.100 -43.715  1.00  0.00    -0.269 OA
ATOM     25  H7  UNL     1      24.342 -52.070 -46.188  1.00  0.00     0.190 HD
BRANCH  23  26
HETATM   26  C19 UNL     1      22.763 -52.702 -44.146  1.00  0.00     0.272 C 
HETATM   27  C20 UNL     1      22.019 -53.521 -43.108  1.00  0.00     0.050 C 
BRANCH  26  28
HETATM   28  N8  UNL     1      21.948 -52.504 -45.316  1.00  0.00    -0.067 N 
ATOM     29  H83 UNL     1      22.530 -52.406 -46.148  1.00  0.00     0.275 HD
ATOM     30  H82 UNL     1      21.449 -53.360 -45.557  1.00  0.00     0.275 HD
ATOM     31  H81 UNL     1      21.302 -51.719 -45.234  1.00  0.00     0.275 HD
ENDBRANCH  26  28
ENDBRANCH  23  26
ENDBRANCH  18  22
ENDBRANCH  14  17
BRANCH  16  32
HETATM   32  N9  UNL     1      25.946 -51.059 -49.426  1.00  0.00    -0.372 N 
HETATM   33  C22 UNL     1      27.106 -51.288 -50.282  1.00  0.00     0.150 C 
HETATM   34  C23 UNL     1      24.628 -51.325 -50.027  1.00  0.00     0.150 C 
ENDBRANCH  16  32
ENDBRANCH   8  10
ENDBRANCH   1   8
BRANCH   2  35
HETATM   35  C4  UNL     1      22.414 -48.352 -47.002  1.00  0.00     0.198 C 
HETATM   36  O1  UNL     1      23.182 -48.330 -46.007  1.00  0.00    -0.646 OA
HETATM   37  O2  UNL     1      21.060 -48.216 -46.716  1.00  0.00    -0.646 OA
ENDBRANCH   2  35
BRANCH   3  38
HETATM   38  S1  UNL     1      20.825 -49.302 -50.125  1.00  0.00    -0.085 SA
BRANCH  38  39
HETATM   39  S2  UNL     1      20.240 -50.848 -48.800  1.00  0.00    -0.065 SA
BRANCH  39  40
HETATM   40  C6  UNL     1      20.976 -52.451 -49.310  1.00  0.00     0.199 C 
HETATM   41  C7  UNL     1      19.955 -53.298 -50.022  1.00  0.00     0.074 C 
HETATM   42  C8  UNL     1      19.757 -54.468 -49.085  1.00  0.00     0.142 C 
HETATM   43  C11 UNL     1      20.908 -54.376 -48.145  1.00  0.00     0.281 C 
HETATM   44  O5  UNL     1      21.348 -53.082 -48.149  1.00  0.00    -0.343 OA
BRANCH  42  45
HETATM   45  N2  UNL     1      19.778 -55.751 -49.726  1.00  0.00    -0.352 N 
HETATM   46  C9  UNL     1      18.633 -56.354 -50.269  1.00  0.00     0.214 C 
HETATM   47  C10 UNL     1      18.688 -57.709 -50.932  1.00  0.00     0.117 C 
HETATM   48  O3  UNL     1      17.487 -55.834 -50.251  1.00  0.00    -0.274 OA
ATOM     49  H2  UNL     1      20.666 -56.249 -49.789  1.00  0.00     0.163 HD
ENDBRANCH  42  45
BRANCH  43  50
HETATM   50  O4  UNL     1      20.449 -54.671 -46.853  1.00  0.00    -0.369 OA
ATOM     51  H4  UNL     1      20.210 -53.857 -46.427  1.00  0.00     0.212 HD
ENDBRANCH  43  50
ENDBRANCH  39  40
ENDBRANCH  38  39
ENDBRANCH   3  38
BRANCH   5  52
HETATM   52  O7  UNL     1      23.314 -44.937 -50.795  1.00  0.00    -0.373 OA
ATOM     53  H7  UNL     1      22.826 -44.907 -51.609  1.00  0.00     0.212 HD
ENDBRANCH   5  52
BRANCH   4  54
HETATM   54  O6  UNL     1      21.442 -46.969 -51.412  1.00  0.00    -0.390 OA
ATOM     55  H6  UNL     1      21.319 -47.786 -51.882  1.00  0.00     0.210 HD
ENDBRANCH   4  54
TORSDOF 16
ENDMDL
