MODEL 1
REMARK VINA RESULT: -9.238447262      0.000      0.000
REMARK  15 active torsions:
REMARK  status: ('A' for Active; 'I' for Inactive)
REMARK    1  A    between atoms: C4_6  and  N1_7 
REMARK    2  A    between atoms: N2_12  and  C6_14 
REMARK    3  A    between atoms: C6_14  and  O3_15 
REMARK    4  A    between atoms: C7_17  and  O4_18 
REMARK    5  A    between atoms: C7_17  and  N3_20 
REMARK    6  A    between atoms: C9_26  and  C10_27 
REMARK    7  A    between atoms: C10_27  and  O6_28 
REMARK    8  A    between atoms: C10_27  and  N5_30 
REMARK    9  A    between atoms: N5_30  and  C11_32 
REMARK   10  A    between atoms: C11_32  and  O7_33 
REMARK   11  A    between atoms: C11_32  and  O10_53 
REMARK   12  A    between atoms: O7_33  and  C12_34 
REMARK   13  A    between atoms: N7_41  and  N8_43 
REMARK   14  A    between atoms: C16_45  and  C17_47 
REMARK   15  A    between atoms: O10_53  and  S1_54 
ROOT
HETATM    1  C10 UNL     1      17.128 -56.557 -54.002  1.00  0.00     0.256 C 
ENDROOT
BRANCH   1   2
HETATM    2  C9  UNL     1      17.645 -55.329 -54.643  1.00  0.00     0.269 C 
HETATM    3  C8  UNL     1      17.317 -55.021 -56.031  1.00  0.00     0.139 C 
HETATM    4  N3  UNL     1      17.070 -55.518 -57.133  1.00  0.00    -0.319 N 
HETATM    5  N4  UNL     1      17.409 -53.671 -55.566  1.00  0.00    -0.250 N 
ATOM      6  H3  UNL     1      16.898 -54.811 -57.847  1.00  0.00     0.169 HD
HETATM    7  O5  UNL     1      17.068 -54.113 -54.341  1.00  0.00    -0.261 OA
ATOM      8  H4  UNL     1      17.634 -52.767 -55.982  1.00  0.00     0.196 HD
BRANCH   4   9
HETATM    9  C7  UNL     1      16.972 -56.804 -57.630  1.00  0.00     0.194 C 
HETATM   10  C6  UNL     1      15.934 -57.623 -57.388  1.00  0.00     0.192 C 
BRANCH  10  11
HETATM   11  N2  UNL     1      15.874 -58.925 -57.913  1.00  0.00    -0.338 N 
HETATM   12  C5  UNL     1      14.932 -59.467 -58.562  1.00  0.00     0.035 C 
HETATM   13  C4  UNL     1      13.687 -58.708 -58.859  1.00  0.00     0.328 C 
HETATM   14  C21 UNL     1      14.981 -60.867 -59.064  1.00  0.00     0.059 C 
HETATM   15  C3  UNL     1      12.578 -59.530 -58.255  1.00  0.00     0.295 C 
HETATM   16  O1  UNL     1      12.600 -60.872 -58.521  1.00  0.00    -0.314 OA
HETATM   17  O2  UNL     1      11.721 -58.942 -57.561  1.00  0.00    -0.262 OA
HETATM   18  C2  UNL     1      13.761 -61.659 -58.655  1.00  0.00     0.137 C 
HETATM   19  C1  UNL     1      14.031 -62.385 -57.348  1.00  0.00     0.041 C 
HETATM   20  C22 UNL     1      15.204 -60.971 -60.543  1.00  0.00     0.018 C 
ATOM     21  H2  UNL     1      16.695 -59.508 -57.750  1.00  0.00     0.167 HD
BRANCH  13  22
HETATM   22  N1  UNL     1      13.451 -58.712 -60.307  1.00  0.00    -0.061 N 
ATOM     23  H13 UNL     1      13.257 -59.640 -60.685  1.00  0.00     0.275 HD
ATOM     24  H12 UNL     1      12.566 -58.281 -60.576  1.00  0.00     0.275 HD
ATOM     25  H11 UNL     1      14.266 -58.264 -60.726  1.00  0.00     0.275 HD
ENDBRANCH  13  22
ENDBRANCH  10  11
BRANCH  10  26
HETATM   26  O3  UNL     1      14.868 -57.182 -56.590  1.00  0.00    -0.343 OA
ATOM     27  H3  UNL     1      13.989 -57.447 -56.832  1.00  0.00     0.219 HD
ENDBRANCH  10  26
BRANCH   9  28
HETATM   28  O4  UNL     1      17.982 -57.317 -58.429  1.00  0.00    -0.343 OA
ATOM     29  H4  UNL     1      18.865 -57.244 -58.086  1.00  0.00     0.219 HD
ENDBRANCH   9  28
ENDBRANCH   4   9
ENDBRANCH   1   2
BRANCH   1  30
HETATM   30  O6  UNL     1      17.122 -56.276 -52.596  1.00  0.00    -0.374 OA
ATOM     31  H6  UNL     1      16.471 -55.594 -52.481  1.00  0.00     0.212 HD
ENDBRANCH   1  30
BRANCH   1  32
HETATM   32  N5  UNL     1      17.736 -57.789 -54.157  1.00  0.00    -0.346 N 
ATOM     33  H5  UNL     1      18.493 -57.873 -54.836  1.00  0.00     0.160 HD
BRANCH  32  34
HETATM   34  C11 UNL     1      17.366 -58.935 -53.426  1.00  0.00     0.387 C 
BRANCH  34  35
HETATM   35  O7  UNL     1      17.796 -58.875 -52.124  1.00  0.00    -0.330 OA
BRANCH  35  36
HETATM   36  C12 UNL     1      19.169 -59.013 -51.957  1.00  0.00     0.204 C 
HETATM   37  C13 UNL     1      19.556 -60.334 -51.308  1.00  0.00     0.143 C 
HETATM   38  C14 UNL     1      20.961 -60.000 -50.872  1.00  0.00     0.225 C 
HETATM   39  O8  UNL     1      21.979 -60.724 -50.851  1.00  0.00    -0.273 OA
HETATM   40  N6  UNL     1      20.901 -58.622 -50.466  1.00  0.00    -0.313 N 
HETATM   41  C15 UNL     1      19.664 -58.067 -50.893  1.00  0.00     0.128 C 
ATOM     42  H6  UNL     1      21.629 -58.124 -49.954  1.00  0.00     0.170 HD
HETATM   43  N7  UNL     1      19.039 -57.031 -50.528  1.00  0.00    -0.285 N 
ATOM     44  H7  UNL     1      18.152 -56.858 -51.001  1.00  0.00     0.188 HD
BRANCH  43  45
HETATM   45  N8  UNL     1      19.396 -56.110 -49.577  1.00  0.00    -0.284 N 
HETATM   46  C16 UNL     1      19.009 -54.880 -49.567  1.00  0.00     0.167 C 
HETATM   47  N9  UNL     1      18.154 -54.383 -50.578  1.00  0.00    -0.078 NA
ATOM     48  H8  UNL     1      20.013 -56.419 -48.825  1.00  0.00     0.188 HD
BRANCH  46  49
HETATM   49  C17 UNL     1      19.456 -53.960 -48.503  1.00  0.00     0.142 A 
HETATM   50  C18 UNL     1      20.113 -52.765 -48.652  1.00  0.00     0.062 A 
HETATM   51  C19 UNL     1      20.332 -52.249 -47.392  1.00  0.00     0.117 A 
HETATM   52  N10 UNL     1      19.801 -53.151 -46.547  1.00  0.00    -0.272 N 
HETATM   53  O9  UNL     1      19.297 -54.138 -47.215  1.00  0.00    -0.235 OA
ATOM     54  H10 UNL     1      19.796 -53.068 -45.530  1.00  0.00     0.194 HD
ENDBRANCH  46  49
ENDBRANCH  43  45
ENDBRANCH  35  36
ENDBRANCH  34  35
BRANCH  34  55
HETATM   55  O10 UNL     1      17.807 -60.130 -54.047  1.00  0.00    -0.225 OA
BRANCH  55  56
HETATM   56  S1  UNL     1      16.639 -60.833 -54.984  1.00  0.00     0.265 S 
HETATM   57  C20 UNL     1      16.157 -62.412 -54.282  1.00  0.00     0.194 C 
HETATM   58  O11 UNL     1      15.411 -60.021 -55.156  1.00  0.00    -0.199 OA
HETATM   59  O12 UNL     1      17.165 -61.148 -56.378  1.00  0.00    -0.199 OA
ENDBRANCH  55  56
ENDBRANCH  34  55
ENDBRANCH  32  34
ENDBRANCH   1  32
TORSDOF 15
ENDMDL
MODEL 2
REMARK VINA RESULT: -9.152081472      3.102     11.627
REMARK  15 active torsions:
REMARK  status: ('A' for Active; 'I' for Inactive)
REMARK    1  A    between atoms: C4_6  and  N1_7 
REMARK    2  A    between atoms: N2_12  and  C6_14 
REMARK    3  A    between atoms: C6_14  and  O3_15 
REMARK    4  A    between atoms: C7_17  and  O4_18 
REMARK    5  A    between atoms: C7_17  and  N3_20 
REMARK    6  A    between atoms: C9_26  and  C10_27 
REMARK    7  A    between atoms: C10_27  and  O6_28 
REMARK    8  A    between atoms: C10_27  and  N5_30 
REMARK    9  A    between atoms: N5_30  and  C11_32 
REMARK   10  A    between atoms: C11_32  and  O7_33 
REMARK   11  A    between atoms: C11_32  and  O10_53 
REMARK   12  A    between atoms: O7_33  and  C12_34 
REMARK   13  A    between atoms: N7_41  and  N8_43 
REMARK   14  A    between atoms: C16_45  and  C17_47 
REMARK   15  A    between atoms: O10_53  and  S1_54 
ROOT
HETATM    1  C10 UNL     1      18.979 -55.263 -50.218  1.00  0.00     0.256 C 
ENDROOT
BRANCH   1   2
HETATM    2  C9  UNL     1      18.250 -54.009 -50.505  1.00  0.00     0.269 C 
HETATM    3  C8  UNL     1      18.748 -52.730 -50.009  1.00  0.00     0.139 C 
HETATM    4  N3  UNL     1      19.362 -52.188 -49.087  1.00  0.00    -0.319 N 
HETATM    5  N4  UNL     1      18.143 -52.233 -51.206  1.00  0.00    -0.250 N 
ATOM      6  H3  UNL     1      19.451 -51.181 -49.220  1.00  0.00     0.169 HD
HETATM    7  O5  UNL     1      18.341 -53.445 -51.760  1.00  0.00    -0.261 OA
ATOM      8  H4  UNL     1      17.739 -51.347 -51.509  1.00  0.00     0.196 HD
BRANCH   4   9
HETATM    9  C7  UNL     1      19.960 -52.618 -47.917  1.00  0.00     0.194 C 
HETATM   10  C6  UNL     1      21.207 -53.115 -47.853  1.00  0.00     0.192 C 
BRANCH  10  11
HETATM   11  N2  UNL     1      21.777 -53.544 -46.641  1.00  0.00    -0.338 N 
HETATM   12  C5  UNL     1      22.481 -52.878 -45.827  1.00  0.00     0.035 C 
HETATM   13  C4  UNL     1      22.800 -51.450 -46.097  1.00  0.00     0.328 C 
HETATM   14  C21 UNL     1      23.039 -53.448 -44.570  1.00  0.00     0.059 C 
HETATM   15  C3  UNL     1      24.304 -51.383 -46.104  1.00  0.00     0.295 C 
HETATM   16  O1  UNL     1      24.947 -52.008 -45.071  1.00  0.00    -0.314 OA
HETATM   17  O2  UNL     1      24.861 -50.769 -47.039  1.00  0.00    -0.262 OA
HETATM   18  C2  UNL     1      24.524 -53.198 -44.445  1.00  0.00     0.137 C 
HETATM   19  C1  UNL     1      25.295 -54.372 -45.022  1.00  0.00     0.041 C 
HETATM   20  C22 UNL     1      22.323 -52.995 -43.332  1.00  0.00     0.018 C 
ATOM     21  H2  UNL     1      21.601 -54.516 -46.387  1.00  0.00     0.167 HD
BRANCH  13  22
HETATM   22  N1  UNL     1      22.364 -50.633 -44.959  1.00  0.00    -0.061 N 
ATOM     23  H13 UNL     1      22.450 -49.629 -45.122  1.00  0.00     0.275 HD
ATOM     24  H12 UNL     1      21.354 -50.648 -44.811  1.00  0.00     0.275 HD
ATOM     25  H11 UNL     1      22.899 -50.962 -44.155  1.00  0.00     0.275 HD
ENDBRANCH  13  22
ENDBRANCH  10  11
BRANCH  10  26
HETATM   26  O3  UNL     1      21.980 -53.216 -49.019  1.00  0.00    -0.343 OA
ATOM     27  H3  UNL     1      22.843 -52.818 -49.020  1.00  0.00     0.219 HD
ENDBRANCH  10  26
BRANCH   9  28
HETATM   28  O4  UNL     1      19.265 -52.553 -46.719  1.00  0.00    -0.343 OA
ATOM     29  H4  UNL     1      19.271 -51.711 -46.278  1.00  0.00     0.219 HD
ENDBRANCH   9  28
ENDBRANCH   4   9
ENDBRANCH   1   2
BRANCH   1  30
HETATM   30  O6  UNL     1      20.281 -55.083 -50.792  1.00  0.00    -0.374 OA
ATOM     31  H6  UNL     1      20.822 -54.754 -50.085  1.00  0.00     0.212 HD
ENDBRANCH   1  30
BRANCH   1  32
HETATM   32  N5  UNL     1      18.527 -56.500 -50.640  1.00  0.00    -0.346 N 
ATOM     33  H5  UNL     1      18.133 -57.134 -49.945  1.00  0.00     0.160 HD
BRANCH  32  34
HETATM   34  C11 UNL     1      18.582 -56.929 -51.981  1.00  0.00     0.387 C 
BRANCH  34  35
HETATM   35  O7  UNL     1      17.479 -56.530 -52.694  1.00  0.00    -0.330 OA
BRANCH  35  36
HETATM   36  C12 UNL     1      17.694 -56.367 -54.057  1.00  0.00     0.204 C 
HETATM   37  C13 UNL     1      16.909 -55.205 -54.646  1.00  0.00     0.143 C 
HETATM   38  C14 UNL     1      16.989 -55.559 -56.110  1.00  0.00     0.225 C 
HETATM   39  O8  UNL     1      17.105 -54.810 -57.102  1.00  0.00    -0.273 OA
HETATM   40  N6  UNL     1      16.902 -56.993 -56.144  1.00  0.00    -0.313 N 
HETATM   41  C15 UNL     1      17.061 -57.499 -54.826  1.00  0.00     0.128 C 
ATOM     42  H6  UNL     1      16.750 -57.557 -56.980  1.00  0.00     0.170 HD
HETATM   43  N7  UNL     1      16.770 -58.618 -54.315  1.00  0.00    -0.285 N 
ATOM     44  H7  UNL     1      16.990 -58.725 -53.324  1.00  0.00     0.188 HD
BRANCH  43  45
HETATM   45  N8  UNL     1      16.196 -59.708 -54.919  1.00  0.00    -0.284 N 
HETATM   46  C16 UNL     1      16.352 -60.928 -54.530  1.00  0.00     0.167 C 
HETATM   47  N9  UNL     1      17.158 -61.231 -53.408  1.00  0.00    -0.078 NA
ATOM     48  H8  UNL     1      15.606 -59.542 -55.734  1.00  0.00     0.188 HD
BRANCH  46  49
HETATM   49  C17 UNL     1      15.699 -62.036 -55.252  1.00  0.00     0.142 A 
HETATM   50  C18 UNL     1      15.443 -62.122 -56.597  1.00  0.00     0.062 A 
HETATM   51  C19 UNL     1      14.820 -63.331 -56.826  1.00  0.00     0.117 A 
HETATM   52  N10 UNL     1      14.729 -63.914 -55.617  1.00  0.00    -0.272 N 
HETATM   53  O9  UNL     1      15.246 -63.142 -54.716  1.00  0.00    -0.235 OA
ATOM     54  H10 UNL     1      14.313 -64.828 -55.438  1.00  0.00     0.194 HD
ENDBRANCH  46  49
ENDBRANCH  43  45
ENDBRANCH  35  36
ENDBRANCH  34  35
BRANCH  34  55
HETATM   55  O10 UNL     1      18.768 -58.330 -52.085  1.00  0.00    -0.225 OA
BRANCH  55  56
HETATM   56  S1  UNL     1      19.786 -58.928 -50.927  1.00  0.00     0.265 S 
HETATM   57  C20 UNL     1      20.532 -60.457 -51.496  1.00  0.00     0.194 C 
HETATM   58  O11 UNL     1      20.881 -58.011 -50.531  1.00  0.00    -0.199 OA
HETATM   59  O12 UNL     1      19.026 -59.291 -49.658  1.00  0.00    -0.199 OA
ENDBRANCH  55  56
ENDBRANCH  34  55
ENDBRANCH  32  34
ENDBRANCH   1  32
TORSDOF 15
ENDMDL
MODEL 3
REMARK VINA RESULT: -9.148416739      1.834      2.446
REMARK  15 active torsions:
REMARK  status: ('A' for Active; 'I' for Inactive)
REMARK    1  A    between atoms: C4_6  and  N1_7 
REMARK    2  A    between atoms: N2_12  and  C6_14 
REMARK    3  A    between atoms: C6_14  and  O3_15 
REMARK    4  A    between atoms: C7_17  and  O4_18 
REMARK    5  A    between atoms: C7_17  and  N3_20 
REMARK    6  A    between atoms: C9_26  and  C10_27 
REMARK    7  A    between atoms: C10_27  and  O6_28 
REMARK    8  A    between atoms: C10_27  and  N5_30 
REMARK    9  A    between atoms: N5_30  and  C11_32 
REMARK   10  A    between atoms: C11_32  and  O7_33 
REMARK   11  A    between atoms: C11_32  and  O10_53 
REMARK   12  A    between atoms: O7_33  and  C12_34 
REMARK   13  A    between atoms: N7_41  and  N8_43 
REMARK   14  A    between atoms: C16_45  and  C17_47 
REMARK   15  A    between atoms: O10_53  and  S1_54 
ROOT
HETATM    1  C10 UNL     1      17.285 -56.820 -53.530  1.00  0.00     0.256 C 
ENDROOT
BRANCH   1   2
HETATM    2  C9  UNL     1      18.121 -55.611 -53.364  1.00  0.00     0.269 C 
HETATM    3  C8  UNL     1      17.938 -54.456 -54.237  1.00  0.00     0.139 C 
HETATM    4  N3  UNL     1      17.619 -54.106 -55.376  1.00  0.00    -0.319 N 
HETATM    5  N4  UNL     1      18.350 -53.735 -53.072  1.00  0.00    -0.250 N 
ATOM      6  H3  UNL     1      17.660 -53.094 -55.496  1.00  0.00     0.169 HD
HETATM    7  O5  UNL     1      17.858 -54.743 -52.326  1.00  0.00    -0.261 OA
ATOM      8  H4  UNL     1      18.812 -52.845 -52.886  1.00  0.00     0.196 HD
BRANCH   4   9
HETATM    9  C7  UNL     1      17.219 -54.757 -56.528  1.00  0.00     0.194 C 
HETATM   10  C6  UNL     1      15.945 -55.095 -56.793  1.00  0.00     0.192 C 
BRANCH  10  11
HETATM   11  N2  UNL     1      15.582 -55.758 -57.978  1.00  0.00    -0.338 N 
HETATM   12  C5  UNL     1      15.589 -57.002 -58.213  1.00  0.00     0.035 C 
HETATM   13  C4  UNL     1      16.020 -57.966 -57.166  1.00  0.00     0.328 C 
HETATM   14  C21 UNL     1      15.185 -57.590 -59.520  1.00  0.00     0.059 C 
HETATM   15  C3  UNL     1      17.164 -58.725 -57.785  1.00  0.00     0.295 C 
HETATM   16  O1  UNL     1      16.971 -59.191 -59.056  1.00  0.00    -0.314 OA
HETATM   17  O2  UNL     1      18.203 -58.879 -57.107  1.00  0.00    -0.262 OA
HETATM   18  C2  UNL     1      16.230 -58.537 -60.062  1.00  0.00     0.137 C 
HETATM   19  C1  UNL     1      17.180 -57.787 -60.980  1.00  0.00     0.041 C 
HETATM   20  C22 UNL     1      13.839 -58.251 -59.495  1.00  0.00     0.018 C 
ATOM     21  H2  UNL     1      15.273 -55.161 -58.744  1.00  0.00     0.167 HD
BRANCH  13  22
HETATM   22  N1  UNL     1      14.955 -58.950 -56.945  1.00  0.00    -0.061 N 
ATOM     23  H13 UNL     1      14.985 -59.736 -57.596  1.00  0.00     0.275 HD
ATOM     24  H12 UNL     1      15.074 -59.494 -56.090  1.00  0.00     0.275 HD
ATOM     25  H11 UNL     1      14.079 -58.428 -56.978  1.00  0.00     0.275 HD
ENDBRANCH  13  22
ENDBRANCH  10  11
BRANCH  10  26
HETATM   26  O3  UNL     1      14.934 -54.784 -55.872  1.00  0.00    -0.343 OA
ATOM     27  H3  UNL     1      14.896 -53.899 -55.531  1.00  0.00     0.219 HD
ENDBRANCH  10  26
BRANCH   9  28
HETATM   28  O4  UNL     1      18.156 -55.100 -57.491  1.00  0.00    -0.343 OA
ATOM     29  H4  UNL     1      17.852 -55.674 -58.184  1.00  0.00     0.219 HD
ENDBRANCH   9  28
ENDBRANCH   4   9
ENDBRANCH   1   2
BRANCH   1  30
HETATM   30  O6  UNL     1      16.715 -57.064 -52.237  1.00  0.00    -0.374 OA
ATOM     31  H6  UNL     1      15.795 -56.844 -52.324  1.00  0.00     0.212 HD
ENDBRANCH   1  30
BRANCH   1  32
HETATM   32  N5  UNL     1      17.800 -58.025 -53.971  1.00  0.00    -0.346 N 
ATOM     33  H5  UNL     1      18.446 -58.016 -54.759  1.00  0.00     0.160 HD
BRANCH  32  34
HETATM   34  C11 UNL     1      17.478 -59.266 -53.386  1.00  0.00     0.387 C 
BRANCH  34  35
HETATM   35  O7  UNL     1      18.015 -59.397 -52.131  1.00  0.00    -0.330 OA
BRANCH  35  36
HETATM   36  C12 UNL     1      19.403 -59.451 -52.093  1.00  0.00     0.204 C 
HETATM   37  C13 UNL     1      19.930 -60.682 -51.371  1.00  0.00     0.143 C 
HETATM   38  C14 UNL     1      21.348 -60.238 -51.113  1.00  0.00     0.225 C 
HETATM   39  O8  UNL     1      22.404 -60.906 -51.131  1.00  0.00    -0.273 OA
HETATM   40  N6  UNL     1      21.246 -58.833 -50.828  1.00  0.00    -0.313 N 
HETATM   41  C15 UNL     1      19.943 -58.384 -51.175  1.00  0.00     0.128 C 
ATOM     42  H6  UNL     1      21.989 -58.252 -50.440  1.00  0.00     0.170 HD
HETATM   43  N7  UNL     1      19.296 -57.350 -50.842  1.00  0.00    -0.285 N 
ATOM     44  H7  UNL     1      18.359 -57.268 -51.236  1.00  0.00     0.188 HD
BRANCH  43  45
HETATM   45  N8  UNL     1      19.689 -56.325 -50.020  1.00  0.00    -0.284 N 
HETATM   46  C16 UNL     1      18.892 -55.632 -49.281  1.00  0.00     0.167 C 
HETATM   47  N9  UNL     1      17.503 -55.895 -49.271  1.00  0.00    -0.078 NA
ATOM     48  H8  UNL     1      20.683 -56.095 -49.991  1.00  0.00     0.188 HD
BRANCH  46  49
HETATM   49  C17 UNL     1      19.411 -54.540 -48.434  1.00  0.00     0.142 A 
HETATM   50  C18 UNL     1      20.353 -53.599 -48.766  1.00  0.00     0.062 A 
HETATM   51  C19 UNL     1      20.528 -52.780 -47.670  1.00  0.00     0.117 A 
HETATM   52  N10 UNL     1      19.690 -53.262 -46.735  1.00  0.00    -0.272 N 
HETATM   53  O9  UNL     1      19.050 -54.285 -47.201  1.00  0.00    -0.235 OA
ATOM     54  H10 UNL     1      19.575 -52.876 -45.797  1.00  0.00     0.194 HD
ENDBRANCH  46  49
ENDBRANCH  43  45
ENDBRANCH  35  36
ENDBRANCH  34  35
BRANCH  34  55
HETATM   55  O10 UNL     1      17.852 -60.357 -54.210  1.00  0.00    -0.225 OA
BRANCH  55  56
HETATM   56  S1  UNL     1      16.555 -61.243 -54.728  1.00  0.00     0.265 S 
HETATM   57  C20 UNL     1      16.417 -62.749 -53.765  1.00  0.00     0.194 C 
HETATM   58  O11 UNL     1      15.253 -60.537 -54.653  1.00  0.00    -0.199 OA
HETATM   59  O12 UNL     1      16.736 -61.695 -56.171  1.00  0.00    -0.199 OA
ENDBRANCH  55  56
ENDBRANCH  34  55
ENDBRANCH  32  34
ENDBRANCH   1  32
TORSDOF 15
ENDMDL
MODEL 4
REMARK VINA RESULT: -9.048777311      2.284      4.857
REMARK  15 active torsions:
REMARK  status: ('A' for Active; 'I' for Inactive)
REMARK    1  A    between atoms: C4_6  and  N1_7 
REMARK    2  A    between atoms: N2_12  and  C6_14 
REMARK    3  A    between atoms: C6_14  and  O3_15 
REMARK    4  A    between atoms: C7_17  and  O4_18 
REMARK    5  A    between atoms: C7_17  and  N3_20 
REMARK    6  A    between atoms: C9_26  and  C10_27 
REMARK    7  A    between atoms: C10_27  and  O6_28 
REMARK    8  A    between atoms: C10_27  and  N5_30 
REMARK    9  A    between atoms: N5_30  and  C11_32 
REMARK   10  A    between atoms: C11_32  and  O7_33 
REMARK   11  A    between atoms: C11_32  and  O10_53 
REMARK   12  A    between atoms: O7_33  and  C12_34 
REMARK   13  A    between atoms: N7_41  and  N8_43 
REMARK   14  A    between atoms: C16_45  and  C17_47 
REMARK   15  A    between atoms: O10_53  and  S1_54 
ROOT
HETATM    1  C10 UNL     1      17.663 -59.792 -53.859  1.00  0.00     0.256 C 
ENDROOT
BRANCH   1   2
HETATM    2  C9  UNL     1      16.880 -60.965 -53.413  1.00  0.00     0.269 C 
HETATM    3  C8  UNL     1      16.353 -61.918 -54.384  1.00  0.00     0.139 C 
HETATM    4  N3  UNL     1      15.918 -62.036 -55.532  1.00  0.00    -0.319 N 
HETATM    5  N4  UNL     1      16.553 -62.846 -53.314  1.00  0.00    -0.250 N 
ATOM      6  H3  UNL     1      15.653 -62.997 -55.749  1.00  0.00     0.169 HD
HETATM    7  O5  UNL     1      17.533 -62.044 -52.857  1.00  0.00    -0.261 OA
ATOM      8  H4  UNL     1      16.136 -63.731 -53.024  1.00  0.00     0.196 HD
BRANCH   4   9
HETATM    9  C7  UNL     1      15.704 -61.179 -56.595  1.00  0.00     0.194 C 
HETATM   10  C6  UNL     1      16.664 -60.803 -57.458  1.00  0.00     0.192 C 
BRANCH  10  11
HETATM   11  N2  UNL     1      16.404 -59.927 -58.526  1.00  0.00    -0.338 N 
HETATM   12  C5  UNL     1      16.896 -58.780 -58.736  1.00  0.00     0.035 C 
HETATM   13  C4  UNL     1      17.886 -58.198 -57.790  1.00  0.00     0.328 C 
HETATM   14  C21 UNL     1      16.535 -57.935 -59.908  1.00  0.00     0.059 C 
HETATM   15  C3  UNL     1      17.275 -56.896 -57.341  1.00  0.00     0.295 C 
HETATM   16  O1  UNL     1      16.765 -56.092 -58.322  1.00  0.00    -0.314 OA
HETATM   17  O2  UNL     1      17.275 -56.638 -56.118  1.00  0.00    -0.262 OA
HETATM   18  C2  UNL     1      16.127 -56.540 -59.496  1.00  0.00     0.137 C 
HETATM   19  C1  UNL     1      14.621 -56.477 -59.307  1.00  0.00     0.041 C 
HETATM   20  C22 UNL     1      17.599 -57.883 -60.964  1.00  0.00     0.018 C 
ATOM     21  H2  UNL     1      15.733 -60.257 -59.219  1.00  0.00     0.167 HD
BRANCH  13  22
HETATM   22  N1  UNL     1      19.105 -57.841 -58.523  1.00  0.00    -0.061 N 
ATOM     23  H13 UNL     1      18.924 -57.406 -59.428  1.00  0.00     0.275 HD
ATOM     24  H12 UNL     1      19.615 -57.059 -58.110  1.00  0.00     0.275 HD
ATOM     25  H11 UNL     1      19.656 -58.698 -58.587  1.00  0.00     0.275 HD
ENDBRANCH  13  22
ENDBRANCH  10  11
BRANCH  10  26
HETATM   26  O3  UNL     1      17.971 -61.290 -57.306  1.00  0.00    -0.343 OA
ATOM     27  H3  UNL     1      18.097 -62.230 -57.279  1.00  0.00     0.219 HD
ENDBRANCH  10  26
BRANCH   9  28
HETATM   28  O4  UNL     1      14.441 -60.652 -56.818  1.00  0.00    -0.343 OA
ATOM     29  H4  UNL     1      13.957 -60.384 -56.046  1.00  0.00     0.219 HD
ENDBRANCH   9  28
ENDBRANCH   4   9
ENDBRANCH   1   2
BRANCH   1  30
HETATM   30  O6  UNL     1      18.844 -60.335 -54.465  1.00  0.00    -0.374 OA
ATOM     31  H6  UNL     1      19.507 -60.311 -53.785  1.00  0.00     0.212 HD
ENDBRANCH   1  30
BRANCH   1  32
HETATM   32  N5  UNL     1      18.083 -58.804 -52.987  1.00  0.00    -0.346 N 
ATOM     33  H5  UNL     1      17.659 -57.880 -53.064  1.00  0.00     0.160 HD
BRANCH  32  34
HETATM   34  C11 UNL     1      19.067 -59.008 -51.999  1.00  0.00     0.387 C 
BRANCH  34  35
HETATM   35  O7  UNL     1      19.065 -58.008 -51.060  1.00  0.00    -0.330 OA
BRANCH  35  36
HETATM   36  C12 UNL     1      18.299 -56.897 -51.392  1.00  0.00     0.204 C 
HETATM   37  C13 UNL     1      18.695 -56.281 -52.726  1.00  0.00     0.143 C 
HETATM   38  C14 UNL     1      18.044 -54.928 -52.585  1.00  0.00     0.225 C 
HETATM   39  O8  UNL     1      17.481 -54.224 -53.450  1.00  0.00    -0.273 OA
HETATM   40  N6  UNL     1      18.203 -54.588 -51.197  1.00  0.00    -0.313 N 
HETATM   41  C15 UNL     1      18.633 -55.740 -50.485  1.00  0.00     0.128 C 
ATOM     42  H6  UNL     1      18.035 -53.668 -50.790  1.00  0.00     0.170 HD
HETATM   43  N7  UNL     1      19.181 -55.871 -49.353  1.00  0.00    -0.285 N 
ATOM     44  H7  UNL     1      19.395 -56.828 -49.071  1.00  0.00     0.188 HD
BRANCH  43  45
HETATM   45  N8  UNL     1      19.525 -54.894 -48.454  1.00  0.00    -0.284 N 
HETATM   46  C16 UNL     1      20.466 -54.030 -48.636  1.00  0.00     0.167 C 
HETATM   47  N9  UNL     1      21.233 -54.037 -49.823  1.00  0.00    -0.078 NA
ATOM     48  H8  UNL     1      19.001 -54.847 -47.580  1.00  0.00     0.188 HD
BRANCH  46  49
HETATM   49  C17 UNL     1      20.768 -53.021 -47.603  1.00  0.00     0.142 A 
HETATM   50  C18 UNL     1      21.854 -52.979 -46.766  1.00  0.00     0.062 A 
HETATM   51  C19 UNL     1      21.724 -51.863 -45.968  1.00  0.00     0.117 A 
HETATM   52  N10 UNL     1      20.572 -51.286 -46.357  1.00  0.00    -0.272 N 
HETATM   53  O9  UNL     1      20.034 -51.977 -47.309  1.00  0.00    -0.235 OA
ATOM     54  H10 UNL     1      20.182 -50.430 -45.960  1.00  0.00     0.194 HD
ENDBRANCH  46  49
ENDBRANCH  43  45
ENDBRANCH  35  36
ENDBRANCH  34  35
BRANCH  34  55
HETATM   55  O10 UNL     1      20.358 -59.172 -52.557  1.00  0.00    -0.225 OA
BRANCH  55  56
HETATM   56  S1  UNL     1      21.133 -60.520 -51.993  1.00  0.00     0.265 S 
HETATM   57  C20 UNL     1      22.457 -60.981 -53.111  1.00  0.00     0.194 C 
HETATM   58  O11 UNL     1      21.716 -60.377 -50.637  1.00  0.00    -0.199 OA
HETATM   59  O12 UNL     1      20.195 -61.719 -51.952  1.00  0.00    -0.199 OA
ENDBRANCH  55  56
ENDBRANCH  34  55
ENDBRANCH  32  34
ENDBRANCH   1  32
TORSDOF 15
ENDMDL
MODEL 5
REMARK VINA RESULT: -9.014196122      4.654     11.887
REMARK  15 active torsions:
REMARK  status: ('A' for Active; 'I' for Inactive)
REMARK    1  A    between atoms: C4_6  and  N1_7 
REMARK    2  A    between atoms: N2_12  and  C6_14 
REMARK    3  A    between atoms: C6_14  and  O3_15 
REMARK    4  A    between atoms: C7_17  and  O4_18 
REMARK    5  A    between atoms: C7_17  and  N3_20 
REMARK    6  A    between atoms: C9_26  and  C10_27 
REMARK    7  A    between atoms: C10_27  and  O6_28 
REMARK    8  A    between atoms: C10_27  and  N5_30 
REMARK    9  A    between atoms: N5_30  and  C11_32 
REMARK   10  A    between atoms: C11_32  and  O7_33 
REMARK   11  A    between atoms: C11_32  and  O10_53 
REMARK   12  A    between atoms: O7_33  and  C12_34 
REMARK   13  A    between atoms: N7_41  and  N8_43 
REMARK   14  A    between atoms: C16_45  and  C17_47 
REMARK   15  A    between atoms: O10_53  and  S1_54 
ROOT
HETATM    1  C10 UNL     1      20.295 -54.353 -49.267  1.00  0.00     0.256 C 
ENDROOT
BRANCH   1   2
HETATM    2  C9  UNL     1      20.497 -54.055 -47.832  1.00  0.00     0.269 C 
HETATM    3  C8  UNL     1      20.993 -52.751 -47.407  1.00  0.00     0.139 C 
HETATM    4  N3  UNL     1      21.718 -51.805 -47.728  1.00  0.00    -0.319 N 
HETATM    5  N4  UNL     1      20.186 -53.017 -46.257  1.00  0.00    -0.250 N 
ATOM      6  H3  UNL     1      21.734 -51.071 -47.020  1.00  0.00     0.169 HD
HETATM    7  O5  UNL     1      19.403 -53.787 -47.036  1.00  0.00    -0.261 OA
ATOM      8  H4  UNL     1      20.197 -52.742 -45.274  1.00  0.00     0.196 HD
BRANCH   4   9
HETATM    9  C7  UNL     1      22.514 -51.503 -48.817  1.00  0.00     0.194 C 
HETATM   10  C6  UNL     1      23.847 -51.344 -48.749  1.00  0.00     0.192 C 
BRANCH  10  11
HETATM   11  N2  UNL     1      24.620 -51.035 -49.881  1.00  0.00    -0.338 N 
HETATM   12  C5  UNL     1      25.125 -49.920 -50.205  1.00  0.00     0.035 C 
HETATM   13  C4  UNL     1      24.933 -48.725 -49.340  1.00  0.00     0.328 C 
HETATM   14  C21 UNL     1      25.925 -49.712 -51.443  1.00  0.00     0.059 C 
HETATM   15  C3  UNL     1      24.279 -47.702 -50.231  1.00  0.00     0.295 C 
HETATM   16  O1  UNL     1      24.835 -47.526 -51.468  1.00  0.00    -0.314 OA
HETATM   17  O2  UNL     1      23.284 -47.088 -49.790  1.00  0.00    -0.262 OA
HETATM   18  C2  UNL     1      25.420 -48.540 -52.253  1.00  0.00     0.137 C 
HETATM   19  C1  UNL     1      24.415 -49.021 -53.286  1.00  0.00     0.041 C 
HETATM   20  C22 UNL     1      27.399 -49.585 -51.196  1.00  0.00     0.018 C 
ATOM     21  H2  UNL     1      24.795 -51.807 -50.524  1.00  0.00     0.167 HD
BRANCH  13  22
HETATM   22  N1  UNL     1      26.244 -48.171 -48.983  1.00  0.00    -0.061 N 
ATOM     23  H13 UNL     1      26.698 -47.672 -49.748  1.00  0.00     0.275 HD
ATOM     24  H12 UNL     1      26.190 -47.382 -48.337  1.00  0.00     0.275 HD
ATOM     25  H11 UNL     1      26.792 -48.954 -48.625  1.00  0.00     0.275 HD
ENDBRANCH  13  22
ENDBRANCH  10  11
BRANCH  10  26
HETATM   26  O3  UNL     1      24.506 -51.489 -47.518  1.00  0.00    -0.343 OA
ATOM     27  H3  UNL     1      24.458 -52.330 -47.081  1.00  0.00     0.219 HD
ENDBRANCH  10  26
BRANCH   9  28
HETATM   28  O4  UNL     1      21.943 -51.344 -50.070  1.00  0.00    -0.343 OA
ATOM     29  H4  UNL     1      21.733 -52.143 -50.539  1.00  0.00     0.219 HD
ENDBRANCH   9  28
ENDBRANCH   4   9
ENDBRANCH   1   2
BRANCH   1  30
HETATM   30  O6  UNL     1      21.613 -54.528 -49.805  1.00  0.00    -0.374 OA
ATOM     31  H6  UNL     1      21.993 -55.242 -49.307  1.00  0.00     0.212 HD
ENDBRANCH   1  30
BRANCH   1  32
HETATM   32  N5  UNL     1      19.631 -53.490 -50.119  1.00  0.00    -0.346 N 
ATOM     33  H5  UNL     1      20.040 -52.573 -50.294  1.00  0.00     0.160 HD
BRANCH  32  34
HETATM   34  C11 UNL     1      18.417 -53.813 -50.759  1.00  0.00     0.387 C 
BRANCH  34  35
HETATM   35  O7  UNL     1      18.620 -54.517 -51.919  1.00  0.00    -0.330 OA
BRANCH  35  36
HETATM   36  C12 UNL     1      18.169 -55.831 -51.890  1.00  0.00     0.204 C 
HETATM   37  C13 UNL     1      19.282 -56.834 -51.624  1.00  0.00     0.143 C 
HETATM   38  C14 UNL     1      18.601 -58.098 -52.086  1.00  0.00     0.225 C 
HETATM   39  O8  UNL     1      18.673 -59.254 -51.619  1.00  0.00    -0.273 OA
HETATM   40  N6  UNL     1      17.815 -57.697 -53.220  1.00  0.00    -0.313 N 
HETATM   41  C15 UNL     1      17.768 -56.277 -53.273  1.00  0.00     0.128 C 
ATOM     42  H6  UNL     1      17.364 -58.329 -53.881  1.00  0.00     0.170 HD
HETATM   43  N7  UNL     1      17.475 -55.481 -54.211  1.00  0.00    -0.285 N 
ATOM     44  H7  UNL     1      17.524 -54.488 -53.981  1.00  0.00     0.188 HD
BRANCH  43  45
HETATM   45  N8  UNL     1      17.100 -55.778 -55.496  1.00  0.00    -0.284 N 
HETATM   46  C16 UNL     1      17.466 -55.113 -56.538  1.00  0.00     0.167 C 
HETATM   47  N9  UNL     1      18.314 -53.988 -56.416  1.00  0.00    -0.078 NA
ATOM     48  H8  UNL     1      16.487 -56.582 -55.637  1.00  0.00     0.188 HD
BRANCH  46  49
HETATM   49  C17 UNL     1      17.002 -55.507 -57.882  1.00  0.00     0.142 A 
HETATM   50  C18 UNL     1      17.120 -56.735 -58.483  1.00  0.00     0.062 A 
HETATM   51  C19 UNL     1      16.547 -56.645 -59.734  1.00  0.00     0.117 A 
HETATM   52  N10 UNL     1      16.113 -55.375 -59.830  1.00  0.00    -0.272 N 
HETATM   53  O9  UNL     1      16.388 -54.731 -58.742  1.00  0.00    -0.235 OA
ATOM     54  H10 UNL     1      15.637 -54.979 -60.641  1.00  0.00     0.194 HD
ENDBRANCH  46  49
ENDBRANCH  43  45
ENDBRANCH  35  36
ENDBRANCH  34  35
BRANCH  34  55
HETATM   55  O10 UNL     1      17.619 -52.667 -50.997  1.00  0.00    -0.225 OA
BRANCH  55  56
HETATM   56  S1  UNL     1      18.412 -51.254 -50.666  1.00  0.00     0.265 S 
HETATM   57  C20 UNL     1      17.379 -49.854 -51.101  1.00  0.00     0.194 C 
HETATM   58  O11 UNL     1      18.821 -51.091 -49.251  1.00  0.00    -0.199 OA
HETATM   59  O12 UNL     1      19.669 -51.114 -51.514  1.00  0.00    -0.199 OA
ENDBRANCH  55  56
ENDBRANCH  34  55
ENDBRANCH  32  34
ENDBRANCH   1  32
TORSDOF 15
ENDMDL
