MODEL 1
REMARK VINA RESULT: -8.215800491      0.000      0.000
REMARK  6 active torsions:
REMARK  status: ('A' for Active; 'I' for Inactive)
REMARK    1  A    between atoms: C3_3  and  C4_4 
REMARK    2  A    between atoms: C4_4  and  C5_5 
REMARK    3  A    between atoms: C5_5  and  N1_6 
REMARK    4  A    between atoms: N1_6  and  C6_8 
REMARK    5  A    between atoms: C14_20  and  N4_21 
REMARK    6  A    between atoms: N4_21  and  C15_23 
ROOT
HETATM    1  C1  UNL     1      21.125  28.500 -12.149  1.00  0.00     0.012 C 
HETATM    2  C2  UNL     1      20.300  28.291 -11.306  1.00  0.00    -0.117 C 
HETATM    3  C3  UNL     1      19.296  28.012 -10.279  1.00  0.00     0.094 C 
ENDROOT
BRANCH   3   4
HETATM    4  C4  UNL     1      18.307  29.168 -10.311  1.00  0.00     0.032 C 
BRANCH   4   5
HETATM    5  C5  UNL     1      18.606  30.020  -9.090  1.00  0.00     0.139 C 
BRANCH   5   6
HETATM    6  N1  UNL     1      19.462  31.128  -9.400  1.00  0.00    -0.225 N 
ATOM      7  H1  UNL     1      19.246  31.747 -10.181  1.00  0.00     0.177 HD
BRANCH   6   8
HETATM    8  C6  UNL     1      20.504  31.329  -8.676  1.00  0.00     0.694 A 
HETATM    9  N2  UNL     1      20.826  32.549  -8.222  1.00  0.00    -0.175 N 
HETATM   10  C7  UNL     1      21.906  32.732  -7.476  1.00  0.00     0.146 A 
ATOM     11  H2  UNL     1      20.233  33.346  -8.454  1.00  0.00     0.186 HD
HETATM   12  C8  UNL     1      22.296  34.019  -6.965  1.00  0.00     0.009 A 
HETATM   13  N3  UNL     1      22.670  31.647  -7.190  1.00  0.00    -0.175 N 
HETATM   14  C9  UNL     1      21.593  35.175  -7.198  1.00  0.00     0.015 A 
HETATM   15  C13 UNL     1      23.447  34.153  -6.181  1.00  0.00     0.015 A 
HETATM   16  C10 UNL     1      22.017  36.390  -6.679  1.00  0.00     0.001 A 
HETATM   17  C11 UNL     1      23.153  36.505  -5.909  1.00  0.00     0.000 A 
HETATM   18  C12 UNL     1      23.869  35.354  -5.665  1.00  0.00     0.001 A 
HETATM   19  C14 UNL     1      22.366  30.427  -7.633  1.00  0.00     0.698 A 
ATOM     20  H3  UNL     1      23.505  31.770  -6.617  1.00  0.00     0.186 HD
HETATM   21  N5  UNL     1      21.267  30.240  -8.391  1.00  0.00    -0.022 N 
ATOM     22  H5  UNL     1      21.017  29.315  -8.738  1.00  0.00     0.203 HD
BRANCH  19  23
HETATM   23  N4  UNL     1      23.117  29.446  -7.334  1.00  0.00    -0.191 N 
ATOM     24  H4  UNL     1      23.809  29.556  -6.593  1.00  0.00     0.184 HD
BRANCH  23  25
HETATM   25  C15 UNL     1      23.018  28.198  -8.007  1.00  0.00     0.049 A 
HETATM   26  C16 UNL     1      23.550  27.967  -9.259  1.00  0.00     0.030 A 
HETATM   27  C17 UNL     1      23.428  26.737  -9.873  1.00  0.00     0.002 A 
HETATM   28  C18 UNL     1      22.770  25.686  -9.268  1.00  0.00     0.000 A 
HETATM   29  C19 UNL     1      22.239  25.919  -8.016  1.00  0.00     0.002 A 
HETATM   30  C20 UNL     1      22.350  27.140  -7.386  1.00  0.00     0.030 A 
ENDBRANCH  23  25
ENDBRANCH  19  23
ENDBRANCH   6   8
ENDBRANCH   5   6
ENDBRANCH   4   5
ENDBRANCH   3   4
TORSDOF 6
ENDMDL
MODEL 2
REMARK VINA RESULT: -8.178667356      2.777      5.590
REMARK  6 active torsions:
REMARK  status: ('A' for Active; 'I' for Inactive)
REMARK    1  A    between atoms: C3_3  and  C4_4 
REMARK    2  A    between atoms: C4_4  and  C5_5 
REMARK    3  A    between atoms: C5_5  and  N1_6 
REMARK    4  A    between atoms: N1_6  and  C6_8 
REMARK    5  A    between atoms: C14_20  and  N4_21 
REMARK    6  A    between atoms: N4_21  and  C15_23 
ROOT
HETATM    1  C1  UNL     1      23.108  32.629  -5.650  1.00  0.00     0.012 C 
HETATM    2  C2  UNL     1      23.517  33.754  -5.667  1.00  0.00    -0.117 C 
HETATM    3  C3  UNL     1      24.012  35.132  -5.665  1.00  0.00     0.094 C 
ENDROOT
BRANCH   3   4
HETATM    4  C4  UNL     1      23.817  35.667  -7.075  1.00  0.00     0.032 C 
BRANCH   4   5
HETATM    5  C5  UNL     1      22.372  36.127  -7.160  1.00  0.00     0.139 C 
BRANCH   5   6
HETATM    6  N1  UNL     1      21.698  35.586  -8.304  1.00  0.00    -0.225 N 
ATOM      7  H1  UNL     1      21.793  36.026  -9.219  1.00  0.00     0.177 HD
BRANCH   6   8
HETATM    8  C6  UNL     1      20.971  34.537  -8.157  1.00  0.00     0.694 A 
HETATM    9  N2  UNL     1      19.857  34.548  -7.410  1.00  0.00    -0.175 N 
HETATM   10  C7  UNL     1      19.121  33.454  -7.273  1.00  0.00     0.146 A 
ATOM     11  H2  UNL     1      19.572  35.408  -6.942  1.00  0.00     0.186 HD
HETATM   12  C8  UNL     1      17.920  33.412  -6.483  1.00  0.00     0.009 A 
HETATM   13  N3  UNL     1      19.534  32.329  -7.911  1.00  0.00    -0.175 N 
HETATM   14  C9  UNL     1      17.419  34.492  -5.800  1.00  0.00     0.015 A 
HETATM   15  C13 UNL     1      17.181  32.228  -6.375  1.00  0.00     0.015 A 
HETATM   16  C10 UNL     1      16.254  34.394  -5.054  1.00  0.00     0.001 A 
HETATM   17  C11 UNL     1      15.540  33.221  -4.957  1.00  0.00     0.000 A 
HETATM   18  C12 UNL     1      16.028  32.127  -5.637  1.00  0.00     0.001 A 
HETATM   19  C14 UNL     1      20.638  32.299  -8.657  1.00  0.00     0.698 A 
ATOM     20  H3  UNL     1      18.980  31.477  -7.816  1.00  0.00     0.186 HD
HETATM   21  N5  UNL     1      21.386  33.411  -8.797  1.00  0.00    -0.022 N 
ATOM     22  H5  UNL     1      22.233  33.409  -9.364  1.00  0.00     0.203 HD
BRANCH  19  23
HETATM   23  N4  UNL     1      20.977  31.217  -9.233  1.00  0.00    -0.191 N 
ATOM     24  H4  UNL     1      20.950  31.166 -10.251  1.00  0.00     0.184 HD
BRANCH  23  25
HETATM   25  C15 UNL     1      21.393  30.078  -8.493  1.00  0.00     0.049 A 
HETATM   26  C16 UNL     1      20.616  28.949  -8.338  1.00  0.00     0.030 A 
HETATM   27  C17 UNL     1      21.063  27.865  -7.610  1.00  0.00     0.002 A 
HETATM   28  C18 UNL     1      22.303  27.860  -7.004  1.00  0.00     0.000 A 
HETATM   29  C19 UNL     1      23.079  28.989  -7.160  1.00  0.00     0.002 A 
HETATM   30  C20 UNL     1      22.650  30.082  -7.883  1.00  0.00     0.030 A 
ENDBRANCH  23  25
ENDBRANCH  19  23
ENDBRANCH   6   8
ENDBRANCH   5   6
ENDBRANCH   4   5
ENDBRANCH   3   4
TORSDOF 6
ENDMDL
MODEL 3
REMARK VINA RESULT: -8.041855708      2.841      5.849
REMARK  6 active torsions:
REMARK  status: ('A' for Active; 'I' for Inactive)
REMARK    1  A    between atoms: C3_3  and  C4_4 
REMARK    2  A    between atoms: C4_4  and  C5_5 
REMARK    3  A    between atoms: C5_5  and  N1_6 
REMARK    4  A    between atoms: N1_6  and  C6_8 
REMARK    5  A    between atoms: C14_20  and  N4_21 
REMARK    6  A    between atoms: N4_21  and  C15_23 
ROOT
HETATM    1  C1  UNL     1      22.914  32.553  -5.757  1.00  0.00     0.012 C 
HETATM    2  C2  UNL     1      23.399  33.648  -5.736  1.00  0.00    -0.117 C 
HETATM    3  C3  UNL     1      23.987  34.988  -5.685  1.00  0.00     0.094 C 
ENDROOT
BRANCH   3   4
HETATM    4  C4  UNL     1      23.756  35.617  -7.052  1.00  0.00     0.032 C 
BRANCH   4   5
HETATM    5  C5  UNL     1      22.344  36.175  -7.031  1.00  0.00     0.139 C 
BRANCH   5   6
HETATM    6  N1  UNL     1      21.582  35.764  -8.174  1.00  0.00    -0.225 N 
ATOM      7  H1  UNL     1      21.617  36.301  -9.040  1.00  0.00     0.177 HD
BRANCH   6   8
HETATM    8  C6  UNL     1      20.855  34.710  -8.088  1.00  0.00     0.694 A 
HETATM    9  N2  UNL     1      19.764  34.663  -7.310  1.00  0.00    -0.175 N 
HETATM   10  C7  UNL     1      19.028  33.564  -7.237  1.00  0.00     0.146 A 
ATOM     11  H2  UNL     1      19.498  35.485  -6.767  1.00  0.00     0.186 HD
HETATM   12  C8  UNL     1      17.850  33.462  -6.418  1.00  0.00     0.009 A 
HETATM   13  N3  UNL     1      19.415  32.492  -7.975  1.00  0.00    -0.175 N 
HETATM   14  C9  UNL     1      17.376  34.486  -5.636  1.00  0.00     0.015 A 
HETATM   15  C13 UNL     1      17.109  32.275  -6.382  1.00  0.00     0.015 A 
HETATM   16  C10 UNL     1      16.233  34.332  -4.866  1.00  0.00     0.001 A 
HETATM   17  C11 UNL     1      15.516  33.156  -4.840  1.00  0.00     0.000 A 
HETATM   18  C12 UNL     1      15.978  32.119  -5.620  1.00  0.00     0.001 A 
HETATM   19  C14 UNL     1      20.497  32.519  -8.754  1.00  0.00     0.698 A 
ATOM     20  H3  UNL     1      18.860  31.637  -7.931  1.00  0.00     0.186 HD
HETATM   21  N5  UNL     1      21.245  33.637  -8.828  1.00  0.00    -0.022 N 
ATOM     22  H5  UNL     1      22.075  33.678  -9.420  1.00  0.00     0.203 HD
BRANCH  19  23
HETATM   23  N4  UNL     1      20.813  31.486  -9.424  1.00  0.00    -0.191 N 
ATOM     24  H4  UNL     1      21.610  31.529 -10.059  1.00  0.00     0.184 HD
BRANCH  23  25
HETATM   25  C15 UNL     1      20.084  30.271  -9.311  1.00  0.00     0.049 A 
HETATM   26  C16 UNL     1      20.282  29.359  -8.295  1.00  0.00     0.030 A 
HETATM   27  C17 UNL     1      19.548  28.192  -8.226  1.00  0.00     0.002 A 
HETATM   28  C18 UNL     1      18.587  27.884  -9.167  1.00  0.00     0.000 A 
HETATM   29  C19 UNL     1      18.390  28.797 -10.182  1.00  0.00     0.002 A 
HETATM   30  C20 UNL     1      19.113  29.967 -10.268  1.00  0.00     0.030 A 
ENDBRANCH  23  25
ENDBRANCH  19  23
ENDBRANCH   6   8
ENDBRANCH   5   6
ENDBRANCH   4   5
ENDBRANCH   3   4
TORSDOF 6
ENDMDL
MODEL 4
REMARK VINA RESULT: -7.992291359      1.278      1.539
REMARK  6 active torsions:
REMARK  status: ('A' for Active; 'I' for Inactive)
REMARK    1  A    between atoms: C3_3  and  C4_4 
REMARK    2  A    between atoms: C4_4  and  C5_5 
REMARK    3  A    between atoms: C5_5  and  N1_6 
REMARK    4  A    between atoms: N1_6  and  C6_8 
REMARK    5  A    between atoms: C14_20  and  N4_21 
REMARK    6  A    between atoms: N4_21  and  C15_23 
ROOT
HETATM    1  C1  UNL     1      17.559  27.086 -10.135  1.00  0.00     0.012 C 
HETATM    2  C2  UNL     1      18.199  27.745  -9.367  1.00  0.00    -0.117 C 
HETATM    3  C3  UNL     1      18.989  28.530  -8.416  1.00  0.00     0.094 C 
ENDROOT
BRANCH   3   4
HETATM    4  C4  UNL     1      18.319  29.892  -8.314  1.00  0.00     0.032 C 
BRANCH   4   5
HETATM    5  C5  UNL     1      18.500  30.559  -9.666  1.00  0.00     0.139 C 
BRANCH   5   6
HETATM    6  N1  UNL     1      19.037  31.884  -9.548  1.00  0.00    -0.225 N 
ATOM      7  H1  UNL     1      18.496  32.692  -9.857  1.00  0.00     0.177 HD
BRANCH   6   8
HETATM    8  C6  UNL     1      20.210  32.036  -9.048  1.00  0.00     0.694 A 
HETATM    9  N2  UNL     1      20.559  33.149  -8.386  1.00  0.00    -0.175 N 
HETATM   10  C7  UNL     1      21.776  33.283  -7.878  1.00  0.00     0.146 A 
ATOM     11  H2  UNL     1      19.879  33.901  -8.272  1.00  0.00     0.186 HD
HETATM   12  C8  UNL     1      22.199  34.456  -7.161  1.00  0.00     0.009 A 
HETATM   13  N3  UNL     1      22.651  32.260  -8.051  1.00  0.00    -0.175 N 
HETATM   14  C9  UNL     1      21.392  35.543  -6.933  1.00  0.00     0.015 A 
HETATM   15  C13 UNL     1      23.498  34.542  -6.644  1.00  0.00     0.015 A 
HETATM   16  C10 UNL     1      21.855  36.647  -6.234  1.00  0.00     0.001 A 
HETATM   17  C11 UNL     1      23.136  36.717  -5.733  1.00  0.00     0.000 A 
HETATM   18  C12 UNL     1      23.959  35.635  -5.951  1.00  0.00     0.001 A 
HETATM   19  C14 UNL     1      22.323  31.146  -8.706  1.00  0.00     0.698 A 
ATOM     20  H3  UNL     1      23.592  32.347  -7.666  1.00  0.00     0.186 HD
HETATM   21  N5  UNL     1      21.086  31.009  -9.222  1.00  0.00    -0.022 N 
ATOM     22  H5  UNL     1      20.815  30.165  -9.726  1.00  0.00     0.203 HD
BRANCH  19  23
HETATM   23  N4  UNL     1      23.183  30.220  -8.838  1.00  0.00    -0.191 N 
ATOM     24  H4  UNL     1      24.094  30.439  -9.240  1.00  0.00     0.184 HD
BRANCH  23  25
HETATM   25  C15 UNL     1      22.907  28.884  -8.437  1.00  0.00     0.049 A 
HETATM   26  C16 UNL     1      22.981  27.805  -9.293  1.00  0.00     0.030 A 
HETATM   27  C17 UNL     1      22.704  26.525  -8.858  1.00  0.00     0.002 A 
HETATM   28  C18 UNL     1      22.340  26.266  -7.552  1.00  0.00     0.000 A 
HETATM   29  C19 UNL     1      22.266  27.346  -6.698  1.00  0.00     0.002 A 
HETATM   30  C20 UNL     1      22.539  28.632  -7.114  1.00  0.00     0.030 A 
ENDBRANCH  23  25
ENDBRANCH  19  23
ENDBRANCH   6   8
ENDBRANCH   5   6
ENDBRANCH   4   5
ENDBRANCH   3   4
TORSDOF 6
ENDMDL
MODEL 5
REMARK VINA RESULT: -7.978518654      2.568      6.300
REMARK  6 active torsions:
REMARK  status: ('A' for Active; 'I' for Inactive)
REMARK    1  A    between atoms: C3_3  and  C4_4 
REMARK    2  A    between atoms: C4_4  and  C5_5 
REMARK    3  A    between atoms: C5_5  and  N1_6 
REMARK    4  A    between atoms: N1_6  and  C6_8 
REMARK    5  A    between atoms: C14_20  and  N4_21 
REMARK    6  A    between atoms: N4_21  and  C15_23 
ROOT
HETATM    1  C1  UNL     1      18.742  28.492  -7.813  1.00  0.00     0.012 C 
HETATM    2  C2  UNL     1      18.858  28.878  -8.941  1.00  0.00    -0.117 C 
HETATM    3  C3  UNL     1      18.977  29.340 -10.325  1.00  0.00     0.094 C 
ENDROOT
BRANCH   3   4
HETATM    4  C4  UNL     1      20.466  29.421 -10.630  1.00  0.00     0.032 C 
BRANCH   4   5
HETATM    5  C5  UNL     1      20.784  30.894 -10.817  1.00  0.00     0.139 C 
BRANCH   5   6
HETATM    6  N1  UNL     1      21.607  31.409  -9.761  1.00  0.00    -0.225 N 
ATOM      7  H1  UNL     1      22.542  31.034  -9.603  1.00  0.00     0.177 HD
BRANCH   6   8
HETATM    8  C6  UNL     1      21.145  32.349  -9.019  1.00  0.00     0.694 A 
HETATM    9  N2  UNL     1      20.001  32.213  -8.333  1.00  0.00    -0.175 N 
HETATM   10  C7  UNL     1      19.544  33.198  -7.572  1.00  0.00     0.146 A 
ATOM     11  H2  UNL     1      19.475  31.342  -8.399  1.00  0.00     0.186 HD
HETATM   12  C8  UNL     1      18.322  33.102  -6.818  1.00  0.00     0.009 A 
HETATM   13  N3  UNL     1      20.272  34.342  -7.511  1.00  0.00    -0.175 N 
HETATM   14  C9  UNL     1      17.516  31.992  -6.813  1.00  0.00     0.015 A 
HETATM   15  C13 UNL     1      17.889  34.174  -6.029  1.00  0.00     0.015 A 
HETATM   16  C10 UNL     1      16.348  31.956  -6.065  1.00  0.00     0.001 A 
HETATM   17  C11 UNL     1      15.935  33.020  -5.295  1.00  0.00     0.000 A 
HETATM   18  C12 UNL     1      16.734  34.142  -5.288  1.00  0.00     0.001 A 
HETATM   19  C14 UNL     1      21.412  34.496  -8.185  1.00  0.00     0.698 A 
ATOM     20  H3  UNL     1      19.935  35.110  -6.930  1.00  0.00     0.186 HD
HETATM   21  N5  UNL     1      21.877  33.495  -8.959  1.00  0.00    -0.022 N 
ATOM     22  H5  UNL     1      22.747  33.592  -9.481  1.00  0.00     0.203 HD
BRANCH  19  23
HETATM   23  N4  UNL     1      22.054  35.589  -8.091  1.00  0.00    -0.191 N 
ATOM     24  H4  UNL     1      22.055  36.235  -8.881  1.00  0.00     0.184 HD
BRANCH  23  25
HETATM   25  C15 UNL     1      22.770  35.934  -6.913  1.00  0.00     0.049 A 
HETATM   26  C16 UNL     1      23.978  35.366  -6.565  1.00  0.00     0.030 A 
HETATM   27  C17 UNL     1      24.637  35.734  -5.410  1.00  0.00     0.002 A 
HETATM   28  C18 UNL     1      24.120  36.683  -4.551  1.00  0.00     0.000 A 
HETATM   29  C19 UNL     1      22.913  37.250  -4.901  1.00  0.00     0.002 A 
HETATM   30  C20 UNL     1      22.239  36.896  -6.050  1.00  0.00     0.030 A 
ENDBRANCH  23  25
ENDBRANCH  19  23
ENDBRANCH   6   8
ENDBRANCH   5   6
ENDBRANCH   4   5
ENDBRANCH   3   4
TORSDOF 6
ENDMDL
