MODEL 1
REMARK VINA RESULT: -7.337704312      0.000      0.000
REMARK  7 active torsions:
REMARK  status: ('A' for Active; 'I' for Inactive)
REMARK    1  A    between atoms: C2_2  and  C3_3 
REMARK    2  A    between atoms: C7_9  and  N2_10 
REMARK    3  A    between atoms: N2_10  and  C8_12 
REMARK    4  A    between atoms: C8_12  and  C9_13 
REMARK    5  A    between atoms: C9_13  and  C10_14 
REMARK    6  A    between atoms: C10_14  and  N3_15 
REMARK    7  A    between atoms: N3_15  and  C11_17 
ROOT
HETATM    1  C9  UNL     1      22.194  32.011 -11.812  1.00  0.00     0.040 C 
ENDROOT
BRANCH   1   2
HETATM    2  C8  UNL     1      22.704  30.626 -12.019  1.00  0.00     0.139 C 
BRANCH   2   3
HETATM    3  N2  UNL     1      21.648  29.753 -12.469  1.00  0.00    -0.226 N 
ATOM      4  H2  UNL     1      21.041  30.004 -13.248  1.00  0.00     0.177 HD
BRANCH   3   5
HETATM    5  C7  UNL     1      21.507  28.619 -11.826  1.00  0.00     0.678 A 
HETATM    6  N1  UNL     1      22.546  27.830 -11.538  1.00  0.00    -0.196 N 
HETATM    7  C5  UNL     1      22.455  26.663 -10.885  1.00  0.00     0.024 A 
ATOM      8  H1  UNL     1      23.472  28.137 -11.835  1.00  0.00     0.184 HD
HETATM    9  C4  UNL     1      21.200  26.262 -10.489  1.00  0.00     0.050 A 
HETATM   10  C6  UNL     1      23.624  25.806 -10.576  1.00  0.00     0.068 C 
HETATM   11  C3  UNL     1      20.101  27.070 -10.782  1.00  0.00     0.028 A 
HETATM   12  N5  UNL     1      20.274  28.227 -11.440  1.00  0.00    -0.196 N 
ATOM     13  H5  UNL     1      19.467  28.815 -11.651  1.00  0.00     0.184 HD
BRANCH  11  14
HETATM   14  C2  UNL     1      18.732  26.625 -10.347  1.00  0.00     0.053 C 
HETATM   15  C1  UNL     1      17.842  27.837 -10.280  1.00  0.00     0.011 C 
ENDBRANCH  11  14
ENDBRANCH   3   5
ENDBRANCH   2   3
ENDBRANCH   1   2
BRANCH   1  16
HETATM   16  C10 UNL     1      22.735  32.586 -10.544  1.00  0.00     0.123 C 
BRANCH  16  17
HETATM   17  N3  UNL     1      21.825  32.382  -9.463  1.00  0.00    -0.376 N 
ATOM     18  H3  UNL     1      21.362  33.206  -9.079  1.00  0.00     0.161 HD
BRANCH  17  19
HETATM   19  C11 UNL     1      21.543  31.252  -8.936  1.00  0.00     0.101 A 
HETATM   20  C12 UNL     1      20.242  30.863  -8.775  1.00  0.00     0.049 A 
HETATM   21  C13 UNL     1      19.914  29.634  -8.203  1.00  0.00     0.017 A 
HETATM   22  C14 UNL     1      20.957  28.837  -7.811  1.00  0.00    -0.009 A 
HETATM   23  C15 UNL     1      20.681  27.616  -7.242  1.00  0.00     0.013 A 
HETATM   24  C19 UNL     1      22.269  29.260  -7.987  1.00  0.00     0.043 A 
HETATM   25  C16 UNL     1      21.723  26.809  -6.846  1.00  0.00     0.001 A 
HETATM   26  C17 UNL     1      23.038  27.189  -7.002  1.00  0.00     0.002 A 
HETATM   27  C18 UNL     1      23.286  28.418  -7.575  1.00  0.00     0.030 A 
HETATM   28  N4  UNL     1      22.546  30.448  -8.541  1.00  0.00    -0.342 N 
ATOM     29  H4  UNL     1      23.514  30.742  -8.662  1.00  0.00     0.167 HD
ENDBRANCH  17  19
ENDBRANCH  16  17
ENDBRANCH   1  16
TORSDOF 7
ENDMDL
MODEL 2
REMARK VINA RESULT: -7.331218161      0.392      2.151
REMARK  7 active torsions:
REMARK  status: ('A' for Active; 'I' for Inactive)
REMARK    1  A    between atoms: C2_2  and  C3_3 
REMARK    2  A    between atoms: C7_9  and  N2_10 
REMARK    3  A    between atoms: N2_10  and  C8_12 
REMARK    4  A    between atoms: C8_12  and  C9_13 
REMARK    5  A    between atoms: C9_13  and  C10_14 
REMARK    6  A    between atoms: C10_14  and  N3_15 
REMARK    7  A    between atoms: N3_15  and  C11_17 
ROOT
HETATM    1  C9  UNL     1      22.141  32.224 -11.668  1.00  0.00     0.040 C 
ENDROOT
BRANCH   1   2
HETATM    2  C8  UNL     1      22.815  30.907 -11.850  1.00  0.00     0.139 C 
BRANCH   2   3
HETATM    3  N2  UNL     1      21.944  29.973 -12.520  1.00  0.00    -0.226 N 
ATOM      4  H2  UNL     1      21.527  30.186 -13.426  1.00  0.00     0.177 HD
BRANCH   3   5
HETATM    5  C7  UNL     1      21.716  28.837 -11.908  1.00  0.00     0.678 A 
HETATM    6  N1  UNL     1      20.489  28.467 -11.529  1.00  0.00    -0.196 N 
HETATM    7  C5  UNL     1      20.203  27.318 -10.901  1.00  0.00     0.024 A 
ATOM      8  H1  UNL     1      19.717  29.103 -11.731  1.00  0.00     0.184 HD
HETATM    9  C4  UNL     1      21.254  26.470 -10.635  1.00  0.00     0.050 A 
HETATM   10  C6  UNL     1      18.833  26.930 -10.490  1.00  0.00     0.068 C 
HETATM   11  C3  UNL     1      22.542  26.838 -11.022  1.00  0.00     0.028 A 
HETATM   12  N5  UNL     1      22.748  28.007 -11.648  1.00  0.00    -0.196 N 
ATOM     13  H5  UNL     1      23.693  28.271 -11.930  1.00  0.00     0.184 HD
BRANCH  11  14
HETATM   14  C2  UNL     1      23.686  25.906 -10.728  1.00  0.00     0.053 C 
HETATM   15  C1  UNL     1      23.208  24.872  -9.743  1.00  0.00     0.011 C 
ENDBRANCH  11  14
ENDBRANCH   3   5
ENDBRANCH   2   3
ENDBRANCH   1   2
BRANCH   1  16
HETATM   16  C10 UNL     1      22.427  32.778 -10.312  1.00  0.00     0.123 C 
BRANCH  16  17
HETATM   17  N3  UNL     1      21.393  32.430  -9.390  1.00  0.00    -0.376 N 
ATOM     18  H3  UNL     1      20.740  33.165  -9.119  1.00  0.00     0.161 HD
BRANCH  17  19
HETATM   19  C11 UNL     1      21.218  31.272  -8.877  1.00  0.00     0.101 A 
HETATM   20  C12 UNL     1      19.961  30.757  -8.730  1.00  0.00     0.049 A 
HETATM   21  C13 UNL     1      19.751  29.496  -8.173  1.00  0.00     0.017 A 
HETATM   22  C14 UNL     1      20.863  28.799  -7.781  1.00  0.00    -0.009 A 
HETATM   23  C15 UNL     1      20.703  27.551  -7.226  1.00  0.00     0.013 A 
HETATM   24  C19 UNL     1      22.128  29.350  -7.942  1.00  0.00     0.043 A 
HETATM   25  C16 UNL     1      21.817  26.846  -6.830  1.00  0.00     0.001 A 
HETATM   26  C17 UNL     1      23.089  27.353  -6.971  1.00  0.00     0.002 A 
HETATM   27  C18 UNL     1      23.221  28.607  -7.530  1.00  0.00     0.030 A 
HETATM   28  N4  UNL     1      22.292  30.565  -8.482  1.00  0.00    -0.342 N 
ATOM     29  H4  UNL     1      23.228  30.953  -8.592  1.00  0.00     0.167 HD
ENDBRANCH  17  19
ENDBRANCH  16  17
ENDBRANCH   1  16
TORSDOF 7
ENDMDL
MODEL 3
REMARK VINA RESULT: -7.213691963      1.694      4.916
REMARK  7 active torsions:
REMARK  status: ('A' for Active; 'I' for Inactive)
REMARK    1  A    between atoms: C2_2  and  C3_3 
REMARK    2  A    between atoms: C7_9  and  N2_10 
REMARK    3  A    between atoms: N2_10  and  C8_12 
REMARK    4  A    between atoms: C8_12  and  C9_13 
REMARK    5  A    between atoms: C9_13  and  C10_14 
REMARK    6  A    between atoms: C10_14  and  N3_15 
REMARK    7  A    between atoms: N3_15  and  C11_17 
ROOT
HETATM    1  C9  UNL     1      18.135  28.969 -10.500  1.00  0.00     0.040 C 
ENDROOT
BRANCH   1   2
HETATM    2  C8  UNL     1      18.264  29.835  -9.294  1.00  0.00     0.139 C 
BRANCH   2   3
HETATM    3  N2  UNL     1      18.658  31.172  -9.662  1.00  0.00    -0.226 N 
ATOM      4  H2  UNL     1      17.982  31.854 -10.004  1.00  0.00     0.177 HD
BRANCH   3   5
HETATM    5  C7  UNL     1      19.929  31.468  -9.534  1.00  0.00     0.678 A 
HETATM    6  N1  UNL     1      20.458  31.848  -8.368  1.00  0.00    -0.196 N 
HETATM    7  C5  UNL     1      21.748  32.161  -8.185  1.00  0.00     0.024 A 
ATOM      8  H1  UNL     1      19.837  31.903  -7.560  1.00  0.00     0.184 HD
HETATM    9  C4  UNL     1      22.575  32.081  -9.283  1.00  0.00     0.050 A 
HETATM   10  C6  UNL     1      22.311  32.579  -6.880  1.00  0.00     0.068 C 
HETATM   11  C3  UNL     1      22.042  31.687 -10.510  1.00  0.00     0.028 A 
HETATM   12  N5  UNL     1      20.737  31.389 -10.613  1.00  0.00    -0.196 N 
ATOM     13  H5  UNL     1      20.353  31.101 -11.513  1.00  0.00     0.184 HD
BRANCH  11  14
HETATM   14  C2  UNL     1      22.951  31.603 -11.706  1.00  0.00     0.053 C 
HETATM   15  C1  UNL     1      24.372  31.534 -11.212  1.00  0.00     0.011 C 
ENDBRANCH  11  14
ENDBRANCH   3   5
ENDBRANCH   2   3
ENDBRANCH   1   2
BRANCH   1  16
HETATM   16  C10 UNL     1      18.103  27.528 -10.112  1.00  0.00     0.123 C 
BRANCH  16  17
HETATM   17  N3  UNL     1      19.367  26.907 -10.350  1.00  0.00    -0.376 N 
ATOM     18  H3  UNL     1      19.366  26.029 -10.870  1.00  0.00     0.161 HD
BRANCH  17  19
HETATM   19  C11 UNL     1      20.498  27.360  -9.965  1.00  0.00     0.101 A 
HETATM   20  C12 UNL     1      21.517  27.543 -10.858  1.00  0.00     0.049 A 
HETATM   21  C13 UNL     1      22.758  28.037 -10.457  1.00  0.00     0.017 A 
HETATM   22  C14 UNL     1      22.907  28.329  -9.127  1.00  0.00    -0.009 A 
HETATM   23  C15 UNL     1      24.113  28.818  -8.687  1.00  0.00     0.013 A 
HETATM   24  C19 UNL     1      21.853  28.132  -8.243  1.00  0.00     0.043 A 
HETATM   25  C16 UNL     1      24.271  29.115  -7.351  1.00  0.00     0.001 A 
HETATM   26  C17 UNL     1      23.253  28.934  -6.441  1.00  0.00     0.002 A 
HETATM   27  C18 UNL     1      22.054  28.442  -6.910  1.00  0.00     0.030 A 
HETATM   28  N4  UNL     1      20.674  27.655  -8.665  1.00  0.00    -0.342 N 
ATOM     29  H4  UNL     1      19.912  27.517  -8.002  1.00  0.00     0.167 HD
ENDBRANCH  17  19
ENDBRANCH  16  17
ENDBRANCH   1  16
TORSDOF 7
ENDMDL
MODEL 4
REMARK VINA RESULT: -7.188670432      1.697      5.160
REMARK  7 active torsions:
REMARK  status: ('A' for Active; 'I' for Inactive)
REMARK    1  A    between atoms: C2_2  and  C3_3 
REMARK    2  A    between atoms: C7_9  and  N2_10 
REMARK    3  A    between atoms: N2_10  and  C8_12 
REMARK    4  A    between atoms: C8_12  and  C9_13 
REMARK    5  A    between atoms: C9_13  and  C10_14 
REMARK    6  A    between atoms: C10_14  and  N3_15 
REMARK    7  A    between atoms: N3_15  and  C11_17 
ROOT
HETATM    1  C9  UNL     1      22.585  26.258  -7.705  1.00  0.00     0.040 C 
ENDROOT
BRANCH   1   2
HETATM    2  C8  UNL     1      21.359  26.822  -7.072  1.00  0.00     0.139 C 
BRANCH   2   3
HETATM    3  N2  UNL     1      21.261  28.240  -7.316  1.00  0.00    -0.226 N 
ATOM      4  H2  UNL     1      21.897  28.904  -6.875  1.00  0.00     0.177 HD
BRANCH   3   5
HETATM    5  C7  UNL     1      20.315  28.634  -8.133  1.00  0.00     0.678 A 
HETATM    6  N1  UNL     1      19.454  27.777  -8.691  1.00  0.00    -0.196 N 
HETATM    7  C5  UNL     1      18.471  28.128  -9.531  1.00  0.00     0.024 A 
ATOM      8  H1  UNL     1      19.553  26.788  -8.461  1.00  0.00     0.184 HD
HETATM    9  C4  UNL     1      18.350  29.466  -9.831  1.00  0.00     0.050 A 
HETATM   10  C6  UNL     1      17.528  27.158 -10.136  1.00  0.00     0.068 C 
HETATM   11  C3  UNL     1      19.239  30.376  -9.260  1.00  0.00     0.028 A 
HETATM   12  N5  UNL     1      20.199  29.946  -8.426  1.00  0.00    -0.196 N 
ATOM     13  H5  UNL     1      20.846  30.617  -8.010  1.00  0.00     0.184 HD
BRANCH  11  14
HETATM   14  C2  UNL     1      19.101  31.836  -9.593  1.00  0.00     0.053 C 
HETATM   15  C1  UNL     1      20.065  32.609  -8.733  1.00  0.00     0.011 C 
ENDBRANCH  11  14
ENDBRANCH   3   5
ENDBRANCH   2   3
ENDBRANCH   1   2
BRANCH   1  16
HETATM   16  C10 UNL     1      22.245  25.560  -8.980  1.00  0.00     0.123 C 
BRANCH  16  17
HETATM   17  N3  UNL     1      22.889  26.185 -10.091  1.00  0.00    -0.376 N 
ATOM     18  H3  UNL     1      23.690  25.704 -10.499  1.00  0.00     0.161 HD
BRANCH  17  19
HETATM   19  C11 UNL     1      22.544  27.298 -10.616  1.00  0.00     0.101 A 
HETATM   20  C12 UNL     1      21.574  27.343 -11.579  1.00  0.00     0.049 A 
HETATM   21  C13 UNL     1      21.183  28.548 -12.163  1.00  0.00     0.017 A 
HETATM   22  C14 UNL     1      21.817  29.681 -11.728  1.00  0.00    -0.009 A 
HETATM   23  C15 UNL     1      21.464  30.892 -12.276  1.00  0.00     0.013 A 
HETATM   24  C19 UNL     1      22.799  29.603 -10.748  1.00  0.00     0.043 A 
HETATM   25  C16 UNL     1      22.096  32.035 -11.843  1.00  0.00     0.001 A 
HETATM   26  C17 UNL     1      23.075  32.003 -10.875  1.00  0.00     0.002 A 
HETATM   27  C18 UNL     1      23.410  30.776 -10.342  1.00  0.00     0.030 A 
HETATM   28  N4  UNL     1      23.149  28.427 -10.209  1.00  0.00    -0.342 N 
ATOM     29  H4  UNL     1      23.872  28.389  -9.491  1.00  0.00     0.167 HD
ENDBRANCH  17  19
ENDBRANCH  16  17
ENDBRANCH   1  16
TORSDOF 7
ENDMDL
MODEL 5
REMARK VINA RESULT: -7.133090648      1.636      4.598
REMARK  7 active torsions:
REMARK  status: ('A' for Active; 'I' for Inactive)
REMARK    1  A    between atoms: C2_2  and  C3_3 
REMARK    2  A    between atoms: C7_9  and  N2_10 
REMARK    3  A    between atoms: N2_10  and  C8_12 
REMARK    4  A    between atoms: C8_12  and  C9_13 
REMARK    5  A    between atoms: C9_13  and  C10_14 
REMARK    6  A    between atoms: C10_14  and  N3_15 
REMARK    7  A    between atoms: N3_15  and  C11_17 
ROOT
HETATM    1  C9  UNL     1      18.192  30.756  -8.366  1.00  0.00     0.040 C 
ENDROOT
BRANCH   1   2
HETATM    2  C8  UNL     1      19.140  31.614  -9.131  1.00  0.00     0.139 C 
BRANCH   2   3
HETATM    3  N2  UNL     1      20.334  31.871  -8.363  1.00  0.00    -0.226 N 
ATOM      4  H2  UNL     1      20.325  32.488  -7.551  1.00  0.00     0.177 HD
BRANCH   3   5
HETATM    5  C7  UNL     1      21.430  31.272  -8.759  1.00  0.00     0.678 A 
HETATM    6  N1  UNL     1      22.068  31.623  -9.879  1.00  0.00    -0.196 N 
HETATM    7  C5  UNL     1      23.190  31.043 -10.328  1.00  0.00     0.024 A 
ATOM      8  H1  UNL     1      21.674  32.386 -10.431  1.00  0.00     0.184 HD
HETATM    9  C4  UNL     1      23.710  30.017  -9.573  1.00  0.00     0.050 A 
HETATM   10  C6  UNL     1      23.879  31.452 -11.574  1.00  0.00     0.068 C 
HETATM   11  C3  UNL     1      23.059  29.634  -8.401  1.00  0.00     0.028 A 
HETATM   12  N5  UNL     1      21.938  30.265  -8.017  1.00  0.00    -0.196 N 
ATOM     13  H5  UNL     1      21.466  29.981  -7.159  1.00  0.00     0.184 HD
BRANCH  11  14
HETATM   14  C2  UNL     1      23.633  28.511  -7.582  1.00  0.00     0.053 C 
HETATM   15  C1  UNL     1      22.662  28.189  -6.477  1.00  0.00     0.011 C 
ENDBRANCH  11  14
ENDBRANCH   3   5
ENDBRANCH   2   3
ENDBRANCH   1   2
BRANCH   1  16
HETATM   16  C10 UNL     1      18.586  29.319  -8.466  1.00  0.00     0.123 C 
BRANCH  16  17
HETATM   17  N3  UNL     1      18.817  28.947  -9.825  1.00  0.00    -0.376 N 
ATOM     18  H3  UNL     1      18.092  29.179 -10.504  1.00  0.00     0.161 HD
BRANCH  17  19
HETATM   19  C11 UNL     1      19.857  28.346 -10.260  1.00  0.00     0.101 A 
HETATM   20  C12 UNL     1      20.426  28.708 -11.450  1.00  0.00     0.049 A 
HETATM   21  C13 UNL     1      21.562  28.065 -11.940  1.00  0.00     0.017 A 
HETATM   22  C14 UNL     1      22.079  27.053 -11.176  1.00  0.00    -0.009 A 
HETATM   23  C15 UNL     1      23.198  26.390 -11.621  1.00  0.00     0.013 A 
HETATM   24  C19 UNL     1      21.478  26.706  -9.972  1.00  0.00     0.043 A 
HETATM   25  C16 UNL     1      23.724  25.372 -10.857  1.00  0.00     0.001 A 
HETATM   26  C17 UNL     1      23.161  24.996  -9.658  1.00  0.00     0.002 A 
HETATM   27  C18 UNL     1      22.039  25.677  -9.235  1.00  0.00     0.030 A 
HETATM   28  N4  UNL     1      20.387  27.347  -9.531  1.00  0.00    -0.342 N 
ATOM     29  H4  UNL     1      19.960  27.079  -8.645  1.00  0.00     0.167 HD
ENDBRANCH  17  19
ENDBRANCH  16  17
ENDBRANCH   1  16
TORSDOF 7
ENDMDL
