MODEL 1
REMARK VINA RESULT: -7.102006155      0.000      0.000
REMARK  7 active torsions:
REMARK  status: ('A' for Active; 'I' for Inactive)
REMARK    1  A    between atoms: C2_2  and  C3_3 
REMARK    2  A    between atoms: C3_3  and  C4_4 
REMARK    3  A    between atoms: C4_4  and  N1_5 
REMARK    4  A    between atoms: N1_5  and  C5_7 
REMARK    5  A    between atoms: C6_10  and  N3_11 
REMARK    6  A    between atoms: N4_18  and  C11_19 
REMARK    7  A    between atoms: C11_19  and  C12_20 
ROOT
HETATM    1  C5  UNL     1      21.005  28.306 -11.400  1.00  0.00     0.680 A 
HETATM    2  N2  UNL     1      19.999  27.557 -10.867  1.00  0.00    -0.176 N 
ATOM      3  H2  UNL     1      19.853  26.575 -11.103  1.00  0.00     0.186 HD
HETATM    4  C6  UNL     1      19.217  28.228 -10.003  1.00  0.00     0.136 A 
HETATM    5  C8  UNL     1      19.437  29.560  -9.701  1.00  0.00     0.078 A 
HETATM    6  S1  UNL     1      18.654  30.667  -8.679  1.00  0.00    -0.082 SA
HETATM    7  C9  UNL     1      19.638  32.047  -8.969  1.00  0.00     0.034 A 
HETATM    8  C10 UNL     1      19.622  33.364  -8.484  1.00  0.00     0.110 A 
HETATM    9  N4  UNL     1      20.532  34.263  -8.888  1.00  0.00    -0.365 N 
HETATM   10  C14 UNL     1      21.431  33.822  -9.762  1.00  0.00     0.091 A 
HETATM   11  C15 UNL     1      21.498  32.557 -10.270  1.00  0.00     0.032 A 
HETATM   12  C16 UNL     1      20.554  31.581  -9.867  1.00  0.00     0.012 A 
HETATM   13  C17 UNL     1      20.450  30.288 -10.247  1.00  0.00     0.081 A 
HETATM   14  N5  UNL     1      21.231  29.573 -11.126  1.00  0.00    -0.190 N 
ATOM     15  H5  UNL     1      22.015  30.043 -11.581  1.00  0.00     0.184 HD
ENDROOT
BRANCH   1  16
HETATM   16  N1  UNL     1      21.768  27.681 -12.233  1.00  0.00    -0.226 N 
ATOM     17  H1  UNL     1      22.225  28.239 -12.954  1.00  0.00     0.177 HD
BRANCH  16  18
HETATM   18  C4  UNL     1      22.032  26.264 -12.231  1.00  0.00     0.138 C 
BRANCH  18  19
HETATM   19  C3  UNL     1      23.478  25.971 -11.868  1.00  0.00     0.020 C 
BRANCH  19  20
HETATM   20  C2  UNL     1      23.555  25.639 -10.395  1.00  0.00    -0.003 C 
HETATM   21  C1  UNL     1      24.046  24.213 -10.279  1.00  0.00     0.005 C 
ENDBRANCH  19  20
ENDBRANCH  18  19
ENDBRANCH  16  18
ENDBRANCH   1  16
BRANCH   4  22
HETATM   22  N3  UNL     1      18.239  27.598  -9.449  1.00  0.00    -0.379 N 
HETATM   23  C7  UNL     1      17.177  26.982 -10.177  1.00  0.00     0.147 C 
ATOM     24  H3  UNL     1      18.222  27.537  -8.431  1.00  0.00     0.160 HD
ENDBRANCH   4  22
BRANCH   9  25
HETATM   25  C11 UNL     1      20.493  35.609  -8.374  1.00  0.00     0.127 C 
BRANCH  25  26
HETATM   26  C12 UNL     1      21.687  35.924  -7.499  1.00  0.00     0.016 C 
HETATM   27  C13 UNL     1      22.424  37.105  -8.070  1.00  0.00     0.006 C 
ENDBRANCH  25  26
ENDBRANCH   9  25
TORSDOF 7
ENDMDL
MODEL 2
REMARK VINA RESULT: -6.911769182      1.026      1.125
REMARK  7 active torsions:
REMARK  status: ('A' for Active; 'I' for Inactive)
REMARK    1  A    between atoms: C2_2  and  C3_3 
REMARK    2  A    between atoms: C3_3  and  C4_4 
REMARK    3  A    between atoms: C4_4  and  N1_5 
REMARK    4  A    between atoms: N1_5  and  C5_7 
REMARK    5  A    between atoms: C6_10  and  N3_11 
REMARK    6  A    between atoms: N4_18  and  C11_19 
REMARK    7  A    between atoms: C11_19  and  C12_20 
ROOT
HETATM    1  C5  UNL     1      21.226  28.571 -11.394  1.00  0.00     0.680 A 
HETATM    2  N2  UNL     1      19.972  28.082 -11.178  1.00  0.00    -0.176 N 
ATOM      3  H2  UNL     1      19.635  27.213 -11.594  1.00  0.00     0.186 HD
HETATM    4  C6  UNL     1      19.218  28.847 -10.368  1.00  0.00     0.136 A 
HETATM    5  C8  UNL     1      19.699  30.021  -9.817  1.00  0.00     0.078 A 
HETATM    6  S1  UNL     1      19.022  31.185  -8.782  1.00  0.00    -0.082 SA
HETATM    7  C9  UNL     1      20.363  32.255  -8.663  1.00  0.00     0.034 A 
HETATM    8  C10 UNL     1      20.578  33.461  -7.979  1.00  0.00     0.110 A 
HETATM    9  N4  UNL     1      21.751  34.106  -8.062  1.00  0.00    -0.365 N 
HETATM   10  C14 UNL     1      22.675  33.529  -8.824  1.00  0.00     0.091 A 
HETATM   11  C15 UNL     1      22.527  32.359  -9.512  1.00  0.00     0.032 A 
HETATM   12  C16 UNL     1      21.302  31.652  -9.449  1.00  0.00     0.012 A 
HETATM   13  C17 UNL     1      20.957  30.490 -10.048  1.00  0.00     0.081 A 
HETATM   14  N5  UNL     1      21.701  29.685 -10.880  1.00  0.00    -0.190 N 
ATOM     15  H5  UNL     1      22.657  29.962 -11.105  1.00  0.00     0.184 HD
ENDROOT
BRANCH   1  16
HETATM   16  N1  UNL     1      21.966  27.852 -12.169  1.00  0.00    -0.226 N 
ATOM     17  H1  UNL     1      22.522  28.343 -12.869  1.00  0.00     0.177 HD
BRANCH  16  18
HETATM   18  C4  UNL     1      22.075  26.414 -12.131  1.00  0.00     0.138 C 
BRANCH  18  19
HETATM   19  C3  UNL     1      23.496  25.978 -11.812  1.00  0.00     0.020 C 
BRANCH  19  20
HETATM   20  C2  UNL     1      23.575  25.604 -10.349  1.00  0.00    -0.003 C 
HETATM   21  C1  UNL     1      24.056  24.171 -10.276  1.00  0.00     0.005 C 
ENDBRANCH  19  20
ENDBRANCH  18  19
ENDBRANCH  16  18
ENDBRANCH   1  16
BRANCH   4  22
HETATM   22  N3  UNL     1      18.017  28.462 -10.108  1.00  0.00    -0.379 N 
HETATM   23  C7  UNL     1      17.602  27.097 -10.109  1.00  0.00     0.147 C 
ATOM     24  H3  UNL     1      17.321  29.174  -9.888  1.00  0.00     0.160 HD
ENDBRANCH   4  22
BRANCH   9  25
HETATM   25  C11 UNL     1      21.946  35.343  -7.349  1.00  0.00     0.127 C 
BRANCH  25  26
HETATM   26  C12 UNL     1      23.406  35.727  -7.253  1.00  0.00     0.016 C 
HETATM   27  C13 UNL     1      23.916  35.404  -5.874  1.00  0.00     0.006 C 
ENDBRANCH  25  26
ENDBRANCH   9  25
TORSDOF 7
ENDMDL
MODEL 3
REMARK VINA RESULT: -6.711190686      1.633      1.865
REMARK  7 active torsions:
REMARK  status: ('A' for Active; 'I' for Inactive)
REMARK    1  A    between atoms: C2_2  and  C3_3 
REMARK    2  A    between atoms: C3_3  and  C4_4 
REMARK    3  A    between atoms: C4_4  and  N1_5 
REMARK    4  A    between atoms: N1_5  and  C5_7 
REMARK    5  A    between atoms: C6_10  and  N3_11 
REMARK    6  A    between atoms: N4_18  and  C11_19 
REMARK    7  A    between atoms: C11_19  and  C12_20 
ROOT
HETATM    1  C5  UNL     1      21.308  28.019  -8.510  1.00  0.00     0.680 A 
HETATM    2  N2  UNL     1      20.137  27.647  -9.099  1.00  0.00    -0.176 N 
ATOM      3  H2  UNL     1      19.874  26.673  -9.245  1.00  0.00     0.186 HD
HETATM    4  C6  UNL     1      19.359  28.681  -9.470  1.00  0.00     0.136 A 
HETATM    5  C8  UNL     1      19.740  29.994  -9.260  1.00  0.00     0.078 A 
HETATM    6  S1  UNL     1      19.007  31.487  -9.600  1.00  0.00    -0.082 SA
HETATM    7  C9  UNL     1      20.223  32.533  -8.979  1.00  0.00     0.034 A 
HETATM    8  C10 UNL     1      20.346  33.929  -8.897  1.00  0.00     0.110 A 
HETATM    9  N4  UNL     1      21.430  34.498  -8.348  1.00  0.00    -0.365 N 
HETATM   10  C14 UNL     1      22.358  33.660  -7.899  1.00  0.00     0.091 A 
HETATM   11  C15 UNL     1      22.296  32.297  -7.951  1.00  0.00     0.032 A 
HETATM   12  C16 UNL     1      21.169  31.661  -8.523  1.00  0.00     0.012 A 
HETATM   13  C17 UNL     1      20.917  30.340  -8.668  1.00  0.00     0.081 A 
HETATM   14  N5  UNL     1      21.688  29.262  -8.301  1.00  0.00    -0.190 N 
ATOM     15  H5  UNL     1      22.587  29.432  -7.849  1.00  0.00     0.184 HD
ENDROOT
BRANCH   1  16
HETATM   16  N1  UNL     1      22.069  27.043  -8.146  1.00  0.00    -0.226 N 
ATOM     17  H1  UNL     1      22.333  27.000  -7.161  1.00  0.00     0.177 HD
BRANCH  16  18
HETATM   18  C4  UNL     1      22.580  26.007  -9.009  1.00  0.00     0.138 C 
BRANCH  18  19
HETATM   19  C3  UNL     1      23.447  26.587 -10.115  1.00  0.00     0.020 C 
BRANCH  19  20
HETATM   20  C2  UNL     1      23.824  25.479 -11.072  1.00  0.00    -0.003 C 
HETATM   21  C1  UNL     1      24.046  24.229 -10.249  1.00  0.00     0.005 C 
ENDBRANCH  19  20
ENDBRANCH  18  19
ENDBRANCH  16  18
ENDBRANCH   1  16
BRANCH   4  22
HETATM   22  N3  UNL     1      18.231  28.423 -10.036  1.00  0.00    -0.379 N 
HETATM   23  C7  UNL     1      17.620  27.134 -10.041  1.00  0.00     0.147 C 
ATOM     24  H3  UNL     1      17.746  29.185 -10.509  1.00  0.00     0.160 HD
ENDBRANCH   4  22
BRANCH   9  25
HETATM   25  C11 UNL     1      21.531  35.934  -8.275  1.00  0.00     0.127 C 
BRANCH  25  26
HETATM   26  C12 UNL     1      22.785  36.385  -7.560  1.00  0.00     0.016 C 
HETATM   27  C13 UNL     1      22.417  36.930  -6.206  1.00  0.00     0.006 C 
ENDBRANCH  25  26
ENDBRANCH   9  25
TORSDOF 7
ENDMDL
MODEL 4
REMARK VINA RESULT: -6.658664071      2.413      4.155
REMARK  7 active torsions:
REMARK  status: ('A' for Active; 'I' for Inactive)
REMARK    1  A    between atoms: C2_2  and  C3_3 
REMARK    2  A    between atoms: C3_3  and  C4_4 
REMARK    3  A    between atoms: C4_4  and  N1_5 
REMARK    4  A    between atoms: N1_5  and  C5_7 
REMARK    5  A    between atoms: C6_10  and  N3_11 
REMARK    6  A    between atoms: N4_18  and  C11_19 
REMARK    7  A    between atoms: C11_19  and  C12_20 
ROOT
HETATM    1  C5  UNL     1      21.386  28.982 -11.957  1.00  0.00     0.680 A 
HETATM    2  N2  UNL     1      22.479  29.721 -12.302  1.00  0.00    -0.176 N 
ATOM      3  H2  UNL     1      23.144  29.428 -13.018  1.00  0.00     0.186 HD
HETATM    4  C6  UNL     1      22.601  30.871 -11.614  1.00  0.00     0.136 A 
HETATM    5  C8  UNL     1      21.684  31.245 -10.648  1.00  0.00     0.078 A 
HETATM    6  S1  UNL     1      21.554  32.595  -9.627  1.00  0.00    -0.082 SA
HETATM    7  C9  UNL     1      20.110  32.169  -8.796  1.00  0.00     0.034 A 
HETATM    8  C10 UNL     1      19.357  32.790  -7.788  1.00  0.00     0.110 A 
HETATM    9  N4  UNL     1      18.240  32.222  -7.307  1.00  0.00    -0.365 N 
HETATM   10  C14 UNL     1      17.908  31.053  -7.845  1.00  0.00     0.091 A 
HETATM   11  C15 UNL     1      18.598  30.401  -8.826  1.00  0.00     0.032 A 
HETATM   12  C16 UNL     1      19.781  30.968  -9.357  1.00  0.00     0.012 A 
HETATM   13  C17 UNL     1      20.600  30.488 -10.320  1.00  0.00     0.081 A 
HETATM   14  N5  UNL     1      20.503  29.320 -11.042  1.00  0.00    -0.190 N 
ATOM     15  H5  UNL     1      19.719  28.694 -10.860  1.00  0.00     0.184 HD
ENDROOT
BRANCH   1  16
HETATM   16  N1  UNL     1      21.250  27.875 -12.605  1.00  0.00    -0.226 N 
ATOM     17  H1  UNL     1      20.962  27.939 -13.582  1.00  0.00     0.177 HD
BRANCH  16  18
HETATM   18  C4  UNL     1      21.469  26.554 -12.070  1.00  0.00     0.138 C 
BRANCH  18  19
HETATM   19  C3  UNL     1      22.946  26.301 -11.814  1.00  0.00     0.020 C 
BRANCH  19  20
HETATM   20  C2  UNL     1      23.134  25.939 -10.358  1.00  0.00    -0.003 C 
HETATM   21  C1  UNL     1      23.467  27.215  -9.616  1.00  0.00     0.005 C 
ENDBRANCH  19  20
ENDBRANCH  18  19
ENDBRANCH  16  18
ENDBRANCH   1  16
BRANCH   4  22
HETATM   22  N3  UNL     1      23.605  31.634 -11.874  1.00  0.00    -0.379 N 
HETATM   23  C7  UNL     1      24.860  31.555 -11.198  1.00  0.00     0.147 C 
ATOM     24  H3  UNL     1      23.498  32.336 -12.606  1.00  0.00     0.160 HD
ENDBRANCH   4  22
BRANCH   9  25
HETATM   25  C11 UNL     1      17.484  32.881  -6.272  1.00  0.00     0.127 C 
BRANCH  25  26
HETATM   26  C12 UNL     1      16.235  32.115  -5.896  1.00  0.00     0.016 C 
HETATM   27  C13 UNL     1      15.192  33.079  -5.396  1.00  0.00     0.006 C 
ENDBRANCH  25  26
ENDBRANCH   9  25
TORSDOF 7
ENDMDL
MODEL 5
REMARK VINA RESULT: -6.623347337      1.755      2.119
REMARK  7 active torsions:
REMARK  status: ('A' for Active; 'I' for Inactive)
REMARK    1  A    between atoms: C2_2  and  C3_3 
REMARK    2  A    between atoms: C3_3  and  C4_4 
REMARK    3  A    between atoms: C4_4  and  N1_5 
REMARK    4  A    between atoms: N1_5  and  C5_7 
REMARK    5  A    between atoms: C6_10  and  N3_11 
REMARK    6  A    between atoms: N4_18  and  C11_19 
REMARK    7  A    between atoms: C11_19  and  C12_20 
ROOT
HETATM    1  C5  UNL     1      21.465  28.151 -10.125  1.00  0.00     0.680 A 
HETATM    2  N2  UNL     1      20.179  27.738 -10.311  1.00  0.00    -0.176 N 
ATOM      3  H2  UNL     1      19.934  26.777 -10.548  1.00  0.00     0.186 HD
HETATM    4  C6  UNL     1      19.264  28.711 -10.155  1.00  0.00     0.136 A 
HETATM    5  C8  UNL     1      19.623  30.007  -9.833  1.00  0.00     0.078 A 
HETATM    6  S1  UNL     1      18.736  31.431  -9.571  1.00  0.00    -0.082 SA
HETATM    7  C9  UNL     1      20.038  32.504  -9.233  1.00  0.00     0.034 A 
HETATM    8  C10 UNL     1      20.106  33.869  -8.917  1.00  0.00     0.110 A 
HETATM    9  N4  UNL     1      21.285  34.471  -8.695  1.00  0.00    -0.365 N 
HETATM   10  C14 UNL     1      22.359  33.694  -8.795  1.00  0.00     0.091 A 
HETATM   11  C15 UNL     1      22.356  32.363  -9.099  1.00  0.00     0.032 A 
HETATM   12  C16 UNL     1      21.132  31.694  -9.340  1.00  0.00     0.012 A 
HETATM   13  C17 UNL     1      20.916  30.396  -9.651  1.00  0.00     0.081 A 
HETATM   14  N5  UNL     1      21.827  29.378  -9.818  1.00  0.00    -0.190 N 
ATOM     15  H5  UNL     1      22.819  29.583  -9.699  1.00  0.00     0.184 HD
ENDROOT
BRANCH   1  16
HETATM   16  N1  UNL     1      22.359  27.233 -10.270  1.00  0.00    -0.226 N 
ATOM     17  H1  UNL     1      22.531  26.896 -11.218  1.00  0.00     0.177 HD
BRANCH  16  18
HETATM   18  C4  UNL     1      23.137  26.640  -9.210  1.00  0.00     0.138 C 
BRANCH  18  19
HETATM   19  C3  UNL     1      22.359  26.613  -7.904  1.00  0.00     0.020 C 
BRANCH  19  20
HETATM   20  C2  UNL     1      23.192  27.269  -6.826  1.00  0.00    -0.003 C 
HETATM   21  C1  UNL     1      22.533  28.588  -6.489  1.00  0.00     0.005 C 
ENDBRANCH  19  20
ENDBRANCH  18  19
ENDBRANCH  16  18
ENDBRANCH   1  16
BRANCH   4  22
HETATM   22  N3  UNL     1      18.021  28.411 -10.313  1.00  0.00    -0.379 N 
HETATM   23  C7  UNL     1      17.484  27.107 -10.096  1.00  0.00     0.147 C 
ATOM     24  H3  UNL     1      17.383  29.149 -10.610  1.00  0.00     0.160 HD
ENDBRANCH   4  22
BRANCH   9  25
HETATM   25  C11 UNL     1      21.328  35.874  -8.371  1.00  0.00     0.127 C 
BRANCH  25  26
HETATM   26  C12 UNL     1      22.640  36.277  -7.736  1.00  0.00     0.016 C 
HETATM   27  C13 UNL     1      22.385  36.768  -6.335  1.00  0.00     0.006 C 
ENDBRANCH  25  26
ENDBRANCH   9  25
TORSDOF 7
ENDMDL
