MODEL 1
REMARK VINA RESULT: -6.748296016      0.000      0.000
REMARK  9 active torsions:
REMARK  status: ('A' for Active; 'I' for Inactive)
REMARK    1  A    between atoms: O1_2  and  C2_3 
REMARK    2  A    between atoms: C3_5  and  C4_6 
REMARK    3  A    between atoms: C4_6  and  O3_7 
REMARK    4  A    between atoms: C4_6  and  C5_9 
REMARK    5  A    between atoms: C6_11  and  O5_12 
REMARK    6  A    between atoms: C7_14  and  O6_15 
REMARK    7  A    between atoms: C8_18  and  O8_19 
REMARK    8  A    between atoms: C9_21  and  O9_22 
REMARK    9  A    between atoms: C10_24  and  O10_25 
ROOT
HETATM    1  C2  UNL     1      34.252  67.303  20.106  1.00  0.00     0.290 C 
HETATM    2  O2  UNL     1      33.924  68.238  19.097  1.00  0.00    -0.348 OA
HETATM    3  C3  UNL     1      33.253  67.500  18.122  1.00  0.00     0.189 C 
HETATM    4  C8  UNL     1      31.812  67.235  18.529  1.00  0.00     0.181 C 
HETATM    5  C9  UNL     1      31.785  67.245  20.044  1.00  0.00     0.183 C 
HETATM    6  C10 UNL     1      33.036  66.547  20.519  1.00  0.00     0.204 C 
ENDROOT
BRANCH   3   7
HETATM    7  C4  UNL     1      33.258  68.176  16.783  1.00  0.00     0.205 C 
BRANCH   7   8
HETATM    8  O3  UNL     1      32.441  69.279  16.707  1.00  0.00    -0.388 OA
ATOM      9  H3  UNL     1      32.907  70.106  16.663  1.00  0.00     0.210 HD
ENDBRANCH   7   8
BRANCH   7  10
HETATM   10  C5  UNL     1      34.691  68.491  16.354  1.00  0.00     0.297 C 
HETATM   11  O4  UNL     1      35.294  67.420  15.746  1.00  0.00    -0.324 OA
HETATM   12  C6  UNL     1      35.926  67.865  14.603  1.00  0.00     0.315 C 
HETATM   13  C7  UNL     1      35.931  69.373  14.825  1.00  0.00     0.315 C 
HETATM   14  O7  UNL     1      34.684  69.543  15.466  1.00  0.00    -0.324 OA
BRANCH  12  15
HETATM   15  O5  UNL     1      35.129  67.574  13.497  1.00  0.00    -0.367 OA
ATOM     16  H5  UNL     1      34.711  66.730  13.627  1.00  0.00     0.212 HD
ENDBRANCH  12  15
BRANCH  13  17
HETATM   17  O6  UNL     1      36.902  69.706  15.761  1.00  0.00    -0.367 OA
ATOM     18  H6  UNL     1      37.099  70.633  15.702  1.00  0.00     0.212 HD
ENDBRANCH  13  17
ENDBRANCH   7  10
ENDBRANCH   3   7
BRANCH   4  19
HETATM   19  O8  UNL     1      31.428  66.021  18.008  1.00  0.00    -0.390 OA
ATOM     20  H8  UNL     1      31.007  66.173  17.170  1.00  0.00     0.210 HD
ENDBRANCH   4  19
BRANCH   1  21
HETATM   21  O1  UNL     1      34.965  67.859  21.125  1.00  0.00    -0.363 OA
HETATM   22  C1  UNL     1      36.113  67.154  21.466  1.00  0.00     0.204 C 
ENDBRANCH   1  21
BRANCH   5  23
HETATM   23  O9  UNL     1      30.702  66.481  20.479  1.00  0.00    -0.390 OA
ATOM     24  H9  UNL     1      29.898  66.945  20.276  1.00  0.00     0.210 HD
ENDBRANCH   5  23
BRANCH   6  25
HETATM   25  O10 UNL     1      33.005  65.250  19.961  1.00  0.00    -0.388 OA
ATOM     26  H10 UNL     1      32.136  65.012  19.661  1.00  0.00     0.210 HD
ENDBRANCH   6  25
TORSDOF 9
ENDMDL
MODEL 2
REMARK VINA RESULT: -6.629688296      3.013      5.316
REMARK  9 active torsions:
REMARK  status: ('A' for Active; 'I' for Inactive)
REMARK    1  A    between atoms: O1_2  and  C2_3 
REMARK    2  A    between atoms: C3_5  and  C4_6 
REMARK    3  A    between atoms: C4_6  and  O3_7 
REMARK    4  A    between atoms: C4_6  and  C5_9 
REMARK    5  A    between atoms: C6_11  and  O5_12 
REMARK    6  A    between atoms: C7_14  and  O6_15 
REMARK    7  A    between atoms: C8_18  and  O8_19 
REMARK    8  A    between atoms: C9_21  and  O9_22 
REMARK    9  A    between atoms: C10_24  and  O10_25 
ROOT
HETATM    1  C2  UNL     1      35.244  68.136  20.064  1.00  0.00     0.290 C 
HETATM    2  O2  UNL     1      34.486  68.068  21.256  1.00  0.00    -0.348 OA
HETATM    3  C3  UNL     1      33.293  67.445  20.894  1.00  0.00     0.189 C 
HETATM    4  C8  UNL     1      33.475  65.941  20.768  1.00  0.00     0.181 C 
HETATM    5  C9  UNL     1      34.929  65.713  20.412  1.00  0.00     0.183 C 
HETATM    6  C10 UNL     1      35.325  66.790  19.431  1.00  0.00     0.204 C 
ENDROOT
BRANCH   3   7
HETATM    7  C4  UNL     1      32.183  67.715  21.867  1.00  0.00     0.205 C 
BRANCH   7   8
HETATM    8  O3  UNL     1      32.544  68.515  22.924  1.00  0.00    -0.388 OA
ATOM      9  H3  UNL     1      33.358  68.988  22.793  1.00  0.00     0.210 HD
ENDBRANCH   7   8
BRANCH   7  10
HETATM   10  C5  UNL     1      30.953  68.250  21.133  1.00  0.00     0.297 C 
HETATM   11  O4  UNL     1      31.192  68.438  19.796  1.00  0.00    -0.324 OA
HETATM   12  C6  UNL     1      30.135  67.907  19.085  1.00  0.00     0.315 C 
HETATM   13  C7  UNL     1      29.090  67.728  20.180  1.00  0.00     0.315 C 
HETATM   14  O7  UNL     1      29.915  67.356  21.265  1.00  0.00    -0.324 OA
BRANCH  12  15
HETATM   15  O5  UNL     1      30.498  66.652  18.596  1.00  0.00    -0.367 OA
ATOM     16  H5  UNL     1      29.870  66.006  18.900  1.00  0.00     0.212 HD
ENDBRANCH  12  15
BRANCH  13  17
HETATM   17  O6  UNL     1      28.541  68.960  20.509  1.00  0.00    -0.367 OA
ATOM     18  H6  UNL     1      27.881  68.846  21.183  1.00  0.00     0.212 HD
ENDBRANCH  13  17
ENDBRANCH   7  10
ENDBRANCH   3   7
BRANCH   4  19
HETATM   19  O8  UNL     1      32.620  65.478  19.794  1.00  0.00    -0.390 OA
ATOM     20  H8  UNL     1      32.740  64.540  19.709  1.00  0.00     0.210 HD
ENDBRANCH   4  19
BRANCH   1  21
HETATM   21  O1  UNL     1      36.436  68.772  20.235  1.00  0.00    -0.363 OA
HETATM   22  C1  UNL     1      36.580  69.926  19.474  1.00  0.00     0.204 C 
ENDBRANCH   1  21
BRANCH   5  23
HETATM   23  O9  UNL     1      35.044  64.492  19.746  1.00  0.00    -0.390 OA
ATOM     24  H9  UNL     1      35.950  64.210  19.776  1.00  0.00     0.210 HD
ENDBRANCH   5  23
BRANCH   6  25
HETATM   25  O10 UNL     1      34.448  66.668  18.331  1.00  0.00    -0.388 OA
ATOM     26  H10 UNL     1      34.494  65.807  17.932  1.00  0.00     0.210 HD
ENDBRANCH   6  25
TORSDOF 9
ENDMDL
MODEL 3
REMARK VINA RESULT: -6.575870467      1.901      2.693
REMARK  9 active torsions:
REMARK  status: ('A' for Active; 'I' for Inactive)
REMARK    1  A    between atoms: O1_2  and  C2_3 
REMARK    2  A    between atoms: C3_5  and  C4_6 
REMARK    3  A    between atoms: C4_6  and  O3_7 
REMARK    4  A    between atoms: C4_6  and  C5_9 
REMARK    5  A    between atoms: C6_11  and  O5_12 
REMARK    6  A    between atoms: C7_14  and  O6_15 
REMARK    7  A    between atoms: C8_18  and  O8_19 
REMARK    8  A    between atoms: C9_21  and  O9_22 
REMARK    9  A    between atoms: C10_24  and  O10_25 
ROOT
HETATM    1  C2  UNL     1      35.876  68.695  20.940  1.00  0.00     0.290 C 
HETATM    2  O2  UNL     1      35.086  68.516  19.782  1.00  0.00    -0.348 OA
HETATM    3  C3  UNL     1      35.262  67.180  19.423  1.00  0.00     0.189 C 
HETATM    4  C8  UNL     1      34.424  66.261  20.298  1.00  0.00     0.181 C 
HETATM    5  C9  UNL     1      34.237  66.979  21.619  1.00  0.00     0.183 C 
HETATM    6  C10 UNL     1      35.547  67.653  21.952  1.00  0.00     0.204 C 
ENDROOT
BRANCH   3   7
HETATM    7  C4  UNL     1      34.920  66.919  17.986  1.00  0.00     0.205 C 
BRANCH   7   8
HETATM    8  O3  UNL     1      33.636  66.471  17.786  1.00  0.00    -0.388 OA
ATOM      9  H3  UNL     1      33.116  67.024  17.214  1.00  0.00     0.210 HD
ENDBRANCH   7   8
BRANCH   7  10
HETATM   10  C5  UNL     1      35.240  68.147  17.134  1.00  0.00     0.297 C 
HETATM   11  O4  UNL     1      36.301  67.928  16.292  1.00  0.00    -0.324 OA
HETATM   12  C6  UNL     1      35.967  68.396  15.038  1.00  0.00     0.315 C 
HETATM   13  C7  UNL     1      34.739  69.244  15.345  1.00  0.00     0.315 C 
HETATM   14  O7  UNL     1      34.143  68.474  16.369  1.00  0.00    -0.324 OA
BRANCH  12  15
HETATM   15  O5  UNL     1      35.584  67.321  14.236  1.00  0.00    -0.367 OA
ATOM     16  H5  UNL     1      34.641  67.336  14.124  1.00  0.00     0.212 HD
ENDBRANCH  12  15
BRANCH  13  17
HETATM   17  O6  UNL     1      35.131  70.440  15.933  1.00  0.00    -0.367 OA
ATOM     18  H6  UNL     1      34.373  70.997  16.062  1.00  0.00     0.212 HD
ENDBRANCH  13  17
ENDBRANCH   7  10
ENDBRANCH   3   7
BRANCH   4  19
HETATM   19  O8  UNL     1      35.092  65.067  20.442  1.00  0.00    -0.390 OA
ATOM     20  H8  UNL     1      35.629  64.927  19.672  1.00  0.00     0.210 HD
ENDBRANCH   4  19
BRANCH   1  21
HETATM   21  O1  UNL     1      35.856  69.977  21.397  1.00  0.00    -0.363 OA
HETATM   22  C1  UNL     1      35.990  70.939  20.403  1.00  0.00     0.204 C 
ENDBRANCH   1  21
BRANCH   5  23
HETATM   23  O9  UNL     1      34.001  66.032  22.616  1.00  0.00    -0.390 OA
ATOM     24  H9  UNL     1      34.512  66.260  23.384  1.00  0.00     0.210 HD
ENDBRANCH   5  23
BRANCH   6  25
HETATM   25  O10 UNL     1      36.520  66.630  21.996  1.00  0.00    -0.388 OA
ATOM     26  H10 UNL     1      37.183  66.798  22.656  1.00  0.00     0.210 HD
ENDBRANCH   6  25
TORSDOF 9
ENDMDL
MODEL 4
REMARK VINA RESULT: -6.541934689      2.612      5.775
REMARK  9 active torsions:
REMARK  status: ('A' for Active; 'I' for Inactive)
REMARK    1  A    between atoms: O1_2  and  C2_3 
REMARK    2  A    between atoms: C3_5  and  C4_6 
REMARK    3  A    between atoms: C4_6  and  O3_7 
REMARK    4  A    between atoms: C4_6  and  C5_9 
REMARK    5  A    between atoms: C6_11  and  O5_12 
REMARK    6  A    between atoms: C7_14  and  O6_15 
REMARK    7  A    between atoms: C8_18  and  O8_19 
REMARK    8  A    between atoms: C9_21  and  O9_22 
REMARK    9  A    between atoms: C10_24  and  O10_25 
ROOT
HETATM    1  C2  UNL     1      33.954  67.115  19.673  1.00  0.00     0.290 C 
HETATM    2  O2  UNL     1      33.185  67.946  20.519  1.00  0.00    -0.348 OA
HETATM    3  C3  UNL     1      32.909  67.166  21.642  1.00  0.00     0.189 C 
HETATM    4  C8  UNL     1      34.108  67.101  22.574  1.00  0.00     0.181 C 
HETATM    5  C9  UNL     1      35.336  67.300  21.710  1.00  0.00     0.183 C 
HETATM    6  C10 UNL     1      35.106  66.542  20.424  1.00  0.00     0.204 C 
ENDROOT
BRANCH   3   7
HETATM    7  C4  UNL     1      31.725  67.668  22.415  1.00  0.00     0.205 C 
BRANCH   7   8
HETATM    8  O3  UNL     1      31.917  68.895  23.003  1.00  0.00    -0.388 OA
ATOM      9  H3  UNL     1      32.604  69.415  22.603  1.00  0.00     0.210 HD
ENDBRANCH   7   8
BRANCH   7  10
HETATM   10  C5  UNL     1      30.470  67.638  21.542  1.00  0.00     0.297 C 
HETATM   11  O4  UNL     1      30.108  68.891  21.117  1.00  0.00    -0.324 OA
HETATM   12  C6  UNL     1      29.822  68.829  19.769  1.00  0.00     0.315 C 
HETATM   13  C7  UNL     1      29.702  67.325  19.551  1.00  0.00     0.315 C 
HETATM   14  O7  UNL     1      30.701  66.856  20.433  1.00  0.00    -0.324 OA
BRANCH  12  15
HETATM   15  O5  UNL     1      30.917  69.303  19.047  1.00  0.00    -0.367 OA
ATOM     16  H5  UNL     1      30.957  68.855  18.210  1.00  0.00     0.212 HD
ENDBRANCH  12  15
BRANCH  13  17
HETATM   17  O6  UNL     1      28.490  66.873  20.057  1.00  0.00    -0.367 OA
ATOM     18  H6  UNL     1      28.637  66.405  20.870  1.00  0.00     0.212 HD
ENDBRANCH  13  17
ENDBRANCH   7  10
ENDBRANCH   3   7
BRANCH   4  19
HETATM   19  O8  UNL     1      34.105  65.878  23.204  1.00  0.00    -0.390 OA
ATOM     20  H8  UNL     1      34.844  65.843  23.799  1.00  0.00     0.210 HD
ENDBRANCH   4  19
BRANCH   1  21
HETATM   21  O1  UNL     1      34.270  67.715  18.492  1.00  0.00    -0.363 OA
HETATM   22  C1  UNL     1      33.439  67.366  17.435  1.00  0.00     0.204 C 
ENDBRANCH   1  21
BRANCH   5  23
HETATM   23  O9  UNL     1      36.431  66.710  22.341  1.00  0.00    -0.390 OA
ATOM     24  H9  UNL     1      36.325  66.793  23.282  1.00  0.00     0.210 HD
ENDBRANCH   5  23
BRANCH   6  25
HETATM   25  O10 UNL     1      34.884  65.196  20.790  1.00  0.00    -0.388 OA
ATOM     26  H10 UNL     1      34.245  64.775  20.227  1.00  0.00     0.210 HD
ENDBRANCH   6  25
TORSDOF 9
ENDMDL
MODEL 5
REMARK VINA RESULT: -6.533447381      1.573      2.529
REMARK  9 active torsions:
REMARK  status: ('A' for Active; 'I' for Inactive)
REMARK    1  A    between atoms: O1_2  and  C2_3 
REMARK    2  A    between atoms: C3_5  and  C4_6 
REMARK    3  A    between atoms: C4_6  and  O3_7 
REMARK    4  A    between atoms: C4_6  and  C5_9 
REMARK    5  A    between atoms: C6_11  and  O5_12 
REMARK    6  A    between atoms: C7_14  and  O6_15 
REMARK    7  A    between atoms: C8_18  and  O8_19 
REMARK    8  A    between atoms: C9_21  and  O9_22 
REMARK    9  A    between atoms: C10_24  and  O10_25 
ROOT
HETATM    1  C2  UNL     1      33.993  66.899  22.124  1.00  0.00     0.290 C 
HETATM    2  O2  UNL     1      33.903  67.266  20.761  1.00  0.00    -0.348 OA
HETATM    3  C3  UNL     1      32.763  66.619  20.285  1.00  0.00     0.189 C 
HETATM    4  C8  UNL     1      31.499  67.353  20.703  1.00  0.00     0.181 C 
HETATM    5  C9  UNL     1      31.833  68.085  21.987  1.00  0.00     0.183 C 
HETATM    6  C10 UNL     1      32.700  67.167  22.814  1.00  0.00     0.204 C 
ENDROOT
BRANCH   3   7
HETATM    7  C4  UNL     1      32.764  66.476  18.792  1.00  0.00     0.205 C 
BRANCH   7   8
HETATM    8  O3  UNL     1      31.534  66.183  18.254  1.00  0.00    -0.388 OA
ATOM      9  H3  UNL     1      31.032  65.548  18.752  1.00  0.00     0.210 HD
ENDBRANCH   7   8
BRANCH   7  10
HETATM   10  C5  UNL     1      33.398  67.706  18.141  1.00  0.00     0.297 C 
HETATM   11  O4  UNL     1      34.717  67.499  17.824  1.00  0.00    -0.324 OA
HETATM   12  C6  UNL     1      34.935  67.958  16.542  1.00  0.00     0.315 C 
HETATM   13  C7  UNL     1      33.681  68.791  16.299  1.00  0.00     0.315 C 
HETATM   14  O7  UNL     1      32.719  68.015  16.985  1.00  0.00    -0.324 OA
BRANCH  12  15
HETATM   15  O5  UNL     1      34.936  66.876  15.662  1.00  0.00    -0.367 OA
ATOM     16  H5  UNL     1      35.718  66.913  15.124  1.00  0.00     0.212 HD
ENDBRANCH  12  15
BRANCH  13  17
HETATM   17  O6  UNL     1      33.777  69.994  16.986  1.00  0.00    -0.367 OA
ATOM     18  H6  UNL     1      34.473  69.940  17.629  1.00  0.00     0.212 HD
ENDBRANCH  13  17
ENDBRANCH   7  10
ENDBRANCH   3   7
BRANCH   4  19
HETATM   19  O8  UNL     1      30.494  66.429  20.874  1.00  0.00    -0.390 OA
ATOM     20  H8  UNL     1      30.703  65.894  21.631  1.00  0.00     0.210 HD
ENDBRANCH   4  19
BRANCH   1  21
HETATM   21  O1  UNL     1      35.096  67.414  22.734  1.00  0.00    -0.363 OA
HETATM   22  C1  UNL     1      36.252  67.356  21.966  1.00  0.00     0.204 C 
ENDBRANCH   1  21
BRANCH   5  23
HETATM   23  O9  UNL     1      30.655  68.291  22.706  1.00  0.00    -0.390 OA
ATOM     24  H9  UNL     1      30.719  67.835  23.537  1.00  0.00     0.210 HD
ENDBRANCH   5  23
BRANCH   6  25
HETATM   25  O10 UNL     1      31.952  65.986  23.014  1.00  0.00    -0.388 OA
ATOM     26  H10 UNL     1      31.018  66.136  22.925  1.00  0.00     0.210 HD
ENDBRANCH   6  25
TORSDOF 9
ENDMDL
