MODEL 1
REMARK VINA RESULT: -7.004233051      0.000      0.000
REMARK  8 active torsions:
REMARK  status: ('A' for Active; 'I' for Inactive)
REMARK    1  A    between atoms: C3_4  and  O2_5 
REMARK    2  A    between atoms: O2_5  and  C4_6 
REMARK    3  A    between atoms: C6_8  and  O3_9 
REMARK    4  A    between atoms: C7_11  and  O4_12 
REMARK    5  A    between atoms: C8_14  and  O5_15 
REMARK    6  A    between atoms: C9_18  and  O7_19 
REMARK    7  A    between atoms: C10_21  and  O8_22 
REMARK    8  A    between atoms: C11_24  and  O9_25 
ROOT
HETATM    1  C1  UNL     1      35.835  67.444  22.170  1.00  0.00     0.042 C 
HETATM    2  C2  UNL     1      35.749  66.908  20.748  1.00  0.00     0.152 C 
HETATM    3  O1  UNL     1      35.647  67.924  19.852  1.00  0.00    -0.351 OA
HETATM    4  C3  UNL     1      34.636  67.815  18.931  1.00  0.00     0.300 C 
HETATM    5  C9  UNL     1      33.328  67.682  19.721  1.00  0.00     0.205 C 
HETATM    6  C10 UNL     1      33.315  66.358  20.447  1.00  0.00     0.183 C 
HETATM    7  C11 UNL     1      34.696  65.864  20.681  1.00  0.00     0.178 C 
ENDROOT
BRANCH   4   8
HETATM    8  O2  UNL     1      34.533  69.069  18.259  1.00  0.00    -0.296 OA
BRANCH   8   9
HETATM    9  C4  UNL     1      34.663  69.229  16.909  1.00  0.00     0.183 C 
HETATM   10  C5  UNL     1      33.717  68.738  16.125  1.00  0.00     0.071 C 
HETATM   11  C6  UNL     1      33.854  68.909  14.646  1.00  0.00     0.179 C 
HETATM   12  C7  UNL     1      35.289  68.634  14.297  1.00  0.00     0.206 C 
HETATM   13  C8  UNL     1      36.221  69.570  15.033  1.00  0.00     0.297 C 
HETATM   14  O6  UNL     1      35.748  69.884  16.323  1.00  0.00    -0.296 OA
BRANCH  11  15
HETATM   15  O3  UNL     1      33.459  70.178  14.236  1.00  0.00    -0.389 OA
ATOM     16  H3  UNL     1      33.118  70.172  13.349  1.00  0.00     0.210 HD
ENDBRANCH  11  15
BRANCH  12  17
HETATM   17  O4  UNL     1      35.606  67.331  14.640  1.00  0.00    -0.388 OA
ATOM     18  H4  UNL     1      36.236  67.335  15.350  1.00  0.00     0.210 HD
ENDBRANCH  12  17
BRANCH  13  19
HETATM   19  O5  UNL     1      37.479  68.981  15.057  1.00  0.00    -0.368 OA
ATOM     20  H5  UNL     1      38.120  69.672  15.173  1.00  0.00     0.212 HD
ENDBRANCH  13  19
ENDBRANCH   8   9
ENDBRANCH   4   8
BRANCH   5  21
HETATM   21  O7  UNL     1      33.357  68.680  20.697  1.00  0.00    -0.388 OA
ATOM     22  H7  UNL     1      33.132  69.490  20.256  1.00  0.00     0.210 HD
ENDBRANCH   5  21
BRANCH   6  23
HETATM   23  O8  UNL     1      32.636  65.455  19.597  1.00  0.00    -0.390 OA
ATOM     24  H8  UNL     1      32.197  65.990  18.946  1.00  0.00     0.210 HD
ENDBRANCH   6  23
BRANCH   7  25
HETATM   25  O9  UNL     1      35.006  64.876  19.740  1.00  0.00    -0.390 OA
ATOM     26  H9  UNL     1      34.421  64.908  18.993  1.00  0.00     0.210 HD
ENDBRANCH   7  25
TORSDOF 8
ENDMDL
MODEL 2
REMARK VINA RESULT: -6.972327017      0.873      1.928
REMARK  8 active torsions:
REMARK  status: ('A' for Active; 'I' for Inactive)
REMARK    1  A    between atoms: C3_4  and  O2_5 
REMARK    2  A    between atoms: O2_5  and  C4_6 
REMARK    3  A    between atoms: C6_8  and  O3_9 
REMARK    4  A    between atoms: C7_11  and  O4_12 
REMARK    5  A    between atoms: C8_14  and  O5_15 
REMARK    6  A    between atoms: C9_18  and  O7_19 
REMARK    7  A    between atoms: C10_21  and  O8_22 
REMARK    8  A    between atoms: C11_24  and  O9_25 
ROOT
HETATM    1  C1  UNL     1      35.748  67.424  22.272  1.00  0.00     0.042 C 
HETATM    2  C2  UNL     1      35.724  66.807  20.880  1.00  0.00     0.152 C 
HETATM    3  O1  UNL     1      35.772  67.769  19.922  1.00  0.00    -0.351 OA
HETATM    4  C3  UNL     1      34.827  67.681  18.931  1.00  0.00     0.300 C 
HETATM    5  C9  UNL     1      33.457  67.701  19.623  1.00  0.00     0.205 C 
HETATM    6  C10 UNL     1      33.281  66.430  20.420  1.00  0.00     0.183 C 
HETATM    7  C11 UNL     1      34.595  65.846  20.790  1.00  0.00     0.178 C 
ENDROOT
BRANCH   4   8
HETATM    8  O2  UNL     1      34.877  68.894  18.183  1.00  0.00    -0.296 OA
BRANCH   8   9
HETATM    9  C4  UNL     1      35.388  68.995  16.920  1.00  0.00     0.183 C 
HETATM   10  C5  UNL     1      36.132  70.049  16.627  1.00  0.00     0.071 C 
HETATM   11  C6  UNL     1      36.694  70.165  15.246  1.00  0.00     0.179 C 
HETATM   12  C7  UNL     1      35.607  69.766  14.289  1.00  0.00     0.206 C 
HETATM   13  C8  UNL     1      35.133  68.356  14.556  1.00  0.00     0.297 C 
HETATM   14  O6  UNL     1      35.158  68.038  15.929  1.00  0.00    -0.296 OA
BRANCH  11  15
HETATM   15  O3  UNL     1      37.834  69.384  15.087  1.00  0.00    -0.389 OA
ATOM     16  H3  UNL     1      38.558  69.887  14.733  1.00  0.00     0.210 HD
ENDBRANCH  11  15
BRANCH  12  17
HETATM   17  O4  UNL     1      34.534  70.629  14.423  1.00  0.00    -0.388 OA
ATOM     18  H4  UNL     1      33.845  70.374  13.821  1.00  0.00     0.210 HD
ENDBRANCH  12  17
BRANCH  13  19
HETATM   19  O5  UNL     1      33.865  68.225  14.003  1.00  0.00    -0.368 OA
ATOM     20  H5  UNL     1      33.572  67.335  14.159  1.00  0.00     0.212 HD
ENDBRANCH  13  19
ENDBRANCH   8   9
ENDBRANCH   4   8
BRANCH   5  21
HETATM   21  O7  UNL     1      33.496  68.753  20.539  1.00  0.00    -0.388 OA
ATOM     22  H7  UNL     1      33.071  68.436  21.327  1.00  0.00     0.210 HD
ENDBRANCH   5  21
BRANCH   6  23
HETATM   23  O8  UNL     1      32.594  65.531  19.572  1.00  0.00    -0.390 OA
ATOM     24  H8  UNL     1      32.779  64.662  19.909  1.00  0.00     0.210 HD
ENDBRANCH   6  23
BRANCH   7  25
HETATM   25  O9  UNL     1      34.892  64.780  19.935  1.00  0.00    -0.390 OA
ATOM     26  H9  UNL     1      34.777  63.941  20.367  1.00  0.00     0.210 HD
ENDBRANCH   7  25
TORSDOF 8
ENDMDL
MODEL 3
REMARK VINA RESULT: -6.877114013      1.033      1.407
REMARK  8 active torsions:
REMARK  status: ('A' for Active; 'I' for Inactive)
REMARK    1  A    between atoms: C3_4  and  O2_5 
REMARK    2  A    between atoms: O2_5  and  C4_6 
REMARK    3  A    between atoms: C6_8  and  O3_9 
REMARK    4  A    between atoms: C7_11  and  O4_12 
REMARK    5  A    between atoms: C8_14  and  O5_15 
REMARK    6  A    between atoms: C9_18  and  O7_19 
REMARK    7  A    between atoms: C10_21  and  O8_22 
REMARK    8  A    between atoms: C11_24  and  O9_25 
ROOT
HETATM    1  C1  UNL     1      35.474  67.130  22.535  1.00  0.00     0.042 C 
HETATM    2  C2  UNL     1      35.622  66.593  21.118  1.00  0.00     0.152 C 
HETATM    3  O1  UNL     1      35.924  67.594  20.250  1.00  0.00    -0.351 OA
HETATM    4  C3  UNL     1      35.153  67.661  19.116  1.00  0.00     0.300 C 
HETATM    5  C9  UNL     1      33.696  67.791  19.578  1.00  0.00     0.205 C 
HETATM    6  C10 UNL     1      33.266  66.505  20.246  1.00  0.00     0.183 C 
HETATM    7  C11 UNL     1      34.437  65.765  20.780  1.00  0.00     0.178 C 
ENDROOT
BRANCH   4   8
HETATM    8  O2  UNL     1      35.445  68.899  18.473  1.00  0.00    -0.296 OA
BRANCH   8   9
HETATM    9  C4  UNL     1      35.490  69.067  17.117  1.00  0.00     0.183 C 
HETATM   10  C5  UNL     1      35.769  68.015  16.365  1.00  0.00     0.071 C 
HETATM   11  C6  UNL     1      35.819  68.192  14.880  1.00  0.00     0.179 C 
HETATM   12  C7  UNL     1      36.545  69.480  14.610  1.00  0.00     0.206 C 
HETATM   13  C8  UNL     1      35.845  70.649  15.265  1.00  0.00     0.297 C 
HETATM   14  O6  UNL     1      35.257  70.295  16.496  1.00  0.00    -0.296 OA
BRANCH  11  15
HETATM   15  O3  UNL     1      34.547  68.190  14.318  1.00  0.00    -0.389 OA
ATOM     16  H3  UNL     1      33.926  67.713  14.856  1.00  0.00     0.210 HD
ENDBRANCH  11  15
BRANCH  12  17
HETATM   17  O4  UNL     1      37.833  69.397  15.108  1.00  0.00    -0.388 OA
ATOM     18  H4  UNL     1      37.959  70.063  15.773  1.00  0.00     0.210 HD
ENDBRANCH  12  17
BRANCH  13  19
HETATM   19  O5  UNL     1      36.772  71.677  15.395  1.00  0.00    -0.368 OA
ATOM     20  H5  UNL     1      36.651  72.270  14.664  1.00  0.00     0.212 HD
ENDBRANCH  13  19
ENDBRANCH   8   9
ENDBRANCH   4   8
BRANCH   5  21
HETATM   21  O7  UNL     1      33.683  68.783  20.560  1.00  0.00    -0.388 OA
ATOM     22  H7  UNL     1      32.772  68.909  20.799  1.00  0.00     0.210 HD
ENDBRANCH   5  21
BRANCH   6  23
HETATM   23  O8  UNL     1      32.647  65.731  19.237  1.00  0.00    -0.390 OA
ATOM     24  H8  UNL     1      33.273  65.685  18.523  1.00  0.00     0.210 HD
ENDBRANCH   6  23
BRANCH   7  25
HETATM   25  O9  UNL     1      34.768  64.720  19.911  1.00  0.00    -0.390 OA
ATOM     26  H9  UNL     1      34.492  64.904  19.021  1.00  0.00     0.210 HD
ENDBRANCH   7  25
TORSDOF 8
ENDMDL
MODEL 4
REMARK VINA RESULT: -6.837217968      1.019      1.931
REMARK  8 active torsions:
REMARK  status: ('A' for Active; 'I' for Inactive)
REMARK    1  A    between atoms: C3_4  and  O2_5 
REMARK    2  A    between atoms: O2_5  and  C4_6 
REMARK    3  A    between atoms: C6_8  and  O3_9 
REMARK    4  A    between atoms: C7_11  and  O4_12 
REMARK    5  A    between atoms: C8_14  and  O5_15 
REMARK    6  A    between atoms: C9_18  and  O7_19 
REMARK    7  A    between atoms: C10_21  and  O8_22 
REMARK    8  A    between atoms: C11_24  and  O9_25 
ROOT
HETATM    1  C1  UNL     1      35.726  67.428  22.187  1.00  0.00     0.042 C 
HETATM    2  C2  UNL     1      35.715  66.693  20.854  1.00  0.00     0.152 C 
HETATM    3  O1  UNL     1      35.896  67.559  19.822  1.00  0.00    -0.351 OA
HETATM    4  C3  UNL     1      34.996  67.462  18.791  1.00  0.00     0.300 C 
HETATM    5  C9  UNL     1      33.601  67.659  19.400  1.00  0.00     0.205 C 
HETATM    6  C10 UNL     1      33.274  66.484  20.291  1.00  0.00     0.183 C 
HETATM    7  C11 UNL     1      34.512  65.827  20.782  1.00  0.00     0.178 C 
ENDROOT
BRANCH   4   8
HETATM    8  O2  UNL     1      35.190  68.595  17.947  1.00  0.00    -0.296 OA
BRANCH   8   9
HETATM    9  C4  UNL     1      35.021  68.579  16.591  1.00  0.00     0.183 C 
HETATM   10  C5  UNL     1      36.092  68.441  15.828  1.00  0.00     0.071 C 
HETATM   11  C6  UNL     1      35.914  68.422  14.343  1.00  0.00     0.179 C 
HETATM   12  C7  UNL     1      34.923  69.498  14.000  1.00  0.00     0.206 C 
HETATM   13  C8  UNL     1      33.602  69.269  14.701  1.00  0.00     0.297 C 
HETATM   14  O6  UNL     1      33.772  68.702  15.980  1.00  0.00    -0.296 OA
BRANCH  11  15
HETATM   15  O3  UNL     1      35.497  67.175  13.890  1.00  0.00    -0.389 OA
ATOM     16  H3  UNL     1      34.750  67.244  13.308  1.00  0.00     0.210 HD
ENDBRANCH  11  15
BRANCH  12  17
HETATM   17  O4  UNL     1      35.424  70.729  14.389  1.00  0.00    -0.388 OA
ATOM     18  H4  UNL     1      36.048  71.035  13.742  1.00  0.00     0.210 HD
ENDBRANCH  12  17
BRANCH  13  19
HETATM   19  O5  UNL     1      32.930  70.484  14.743  1.00  0.00    -0.368 OA
ATOM     20  H5  UNL     1      32.706  70.660  15.649  1.00  0.00     0.212 HD
ENDBRANCH  13  19
ENDBRANCH   8   9
ENDBRANCH   4   8
BRANCH   5  21
HETATM   21  O7  UNL     1      33.689  68.782  20.225  1.00  0.00    -0.388 OA
ATOM     22  H7  UNL     1      33.220  68.564  21.022  1.00  0.00     0.210 HD
ENDBRANCH   5  21
BRANCH   6  23
HETATM   23  O8  UNL     1      32.553  65.573  19.484  1.00  0.00    -0.390 OA
ATOM     24  H8  UNL     1      32.726  64.711  19.845  1.00  0.00     0.210 HD
ENDBRANCH   6  23
BRANCH   7  25
HETATM   25  O9  UNL     1      34.754  64.667  20.038  1.00  0.00    -0.390 OA
ATOM     26  H9  UNL     1      35.196  64.004  20.556  1.00  0.00     0.210 HD
ENDBRANCH   7  25
TORSDOF 8
ENDMDL
MODEL 5
REMARK VINA RESULT: -6.793133410      1.273      6.073
REMARK  8 active torsions:
REMARK  status: ('A' for Active; 'I' for Inactive)
REMARK    1  A    between atoms: C3_4  and  O2_5 
REMARK    2  A    between atoms: O2_5  and  C4_6 
REMARK    3  A    between atoms: C6_8  and  O3_9 
REMARK    4  A    between atoms: C7_11  and  O4_12 
REMARK    5  A    between atoms: C8_14  and  O5_15 
REMARK    6  A    between atoms: C9_18  and  O7_19 
REMARK    7  A    between atoms: C10_21  and  O8_22 
REMARK    8  A    between atoms: C11_24  and  O9_25 
ROOT
HETATM    1  C1  UNL     1      34.943  71.559  15.168  1.00  0.00     0.042 C 
HETATM    2  C2  UNL     1      34.337  70.213  15.541  1.00  0.00     0.152 C 
HETATM    3  O1  UNL     1      34.828  69.773  16.729  1.00  0.00    -0.351 OA
HETATM    4  C3  UNL     1      35.299  68.484  16.745  1.00  0.00     0.300 C 
HETATM    5  C9  UNL     1      36.385  68.395  15.666  1.00  0.00     0.205 C 
HETATM    6  C10 UNL     1      35.749  68.542  14.303  1.00  0.00     0.183 C 
HETATM    7  C11 UNL     1      34.465  69.282  14.391  1.00  0.00     0.178 C 
ENDROOT
BRANCH   4   8
HETATM    8  O2  UNL     1      35.991  68.298  17.978  1.00  0.00    -0.296 OA
BRANCH   8   9
HETATM    9  C4  UNL     1      35.390  67.926  19.147  1.00  0.00     0.183 C 
HETATM   10  C5  UNL     1      36.149  67.767  20.219  1.00  0.00     0.071 C 
HETATM   11  C6  UNL     1      35.497  67.360  21.502  1.00  0.00     0.179 C 
HETATM   12  C7  UNL     1      34.490  66.295  21.171  1.00  0.00     0.206 C 
HETATM   13  C8  UNL     1      33.462  66.801  20.185  1.00  0.00     0.297 C 
HETATM   14  O6  UNL     1      34.016  67.707  19.258  1.00  0.00    -0.296 OA
BRANCH  11  15
HETATM   15  O3  UNL     1      34.908  68.443  22.147  1.00  0.00    -0.389 OA
ATOM     16  H3  UNL     1      34.647  68.225  23.033  1.00  0.00     0.210 HD
ENDBRANCH  11  15
BRANCH  12  17
HETATM   17  O4  UNL     1      35.137  65.204  20.617  1.00  0.00    -0.388 OA
ATOM     18  H4  UNL     1      35.639  65.484  19.862  1.00  0.00     0.210 HD
ENDBRANCH  12  17
BRANCH  13  19
HETATM   19  O5  UNL     1      32.886  65.697  19.570  1.00  0.00    -0.368 OA
ATOM     20  H5  UNL     1      31.964  65.886  19.440  1.00  0.00     0.212 HD
ENDBRANCH  13  19
ENDBRANCH   8   9
ENDBRANCH   4   8
BRANCH   5  21
HETATM   21  O7  UNL     1      37.212  69.504  15.849  1.00  0.00    -0.388 OA
ATOM     22  H7  UNL     1      36.683  70.267  15.646  1.00  0.00     0.210 HD
ENDBRANCH   5  21
BRANCH   6  23
HETATM   23  O8  UNL     1      35.497  67.226  13.848  1.00  0.00    -0.390 OA
ATOM     24  H8  UNL     1      35.154  67.317  12.967  1.00  0.00     0.210 HD
ENDBRANCH   6  23
BRANCH   7  25
HETATM   25  O9  UNL     1      33.398  68.379  14.336  1.00  0.00    -0.390 OA
ATOM     26  H9  UNL     1      33.352  67.942  13.494  1.00  0.00     0.210 HD
ENDBRANCH   7  25
TORSDOF 8
ENDMDL
