MODEL 1
REMARK VINA RESULT: -6.391419577      0.000      0.000
REMARK  8 active torsions:
REMARK  status: ('A' for Active; 'I' for Inactive)
REMARK    1  A    between atoms: S1_2  and  C2_3 
REMARK    2  A    between atoms: C3_5  and  O2_6 
REMARK    3  A    between atoms: O2_6  and  C4_7 
REMARK    4  A    between atoms: C5_11  and  O3_12 
REMARK    5  A    between atoms: C6_14  and  O4_15 
REMARK    6  A    between atoms: C7_18  and  O6_19 
REMARK    7  A    between atoms: C8_21  and  O7_22 
REMARK    8  A    between atoms: C9_24  and  O8_25 
ROOT
HETATM    1  C2  UNL     1      32.551  68.594  20.887  1.00  0.00     0.217 C 
HETATM    2  O1  UNL     1      33.243  67.857  19.935  1.00  0.00    -0.340 OA
HETATM    3  C3  UNL     1      34.190  67.088  20.625  1.00  0.00     0.297 C 
HETATM    4  C7  UNL     1      33.419  65.892  21.149  1.00  0.00     0.204 C 
HETATM    5  C8  UNL     1      32.214  66.319  21.948  1.00  0.00     0.183 C 
HETATM    6  C9  UNL     1      32.076  67.809  22.053  1.00  0.00     0.188 C 
ENDROOT
BRANCH   3   7
HETATM    7  O2  UNL     1      35.183  66.738  19.748  1.00  0.00    -0.305 OA
BRANCH   7   8
HETATM    8  C4  UNL     1      35.041  67.288  18.490  1.00  0.00     0.477 C 
HETATM    9  N1  UNL     1      36.060  68.284  18.196  1.00  0.00     0.006 N 
HETATM   10  C5  UNL     1      35.878  68.453  16.764  1.00  0.00     0.380 C 
ATOM     11  H12 UNL     1      36.009  69.139  18.748  1.00  0.00     0.286 HD
ATOM     12  H11 UNL     1      37.007  68.043  18.491  1.00  0.00     0.286 HD
HETATM   13  C6  UNL     1      35.059  67.227  16.344  1.00  0.00     0.318 C 
HETATM   14  O5  UNL     1      35.273  66.376  17.456  1.00  0.00    -0.304 OA
BRANCH  10  15
HETATM   15  O3  UNL     1      37.087  68.404  16.075  1.00  0.00    -0.366 OA
ATOM     16  H3  UNL     1      37.310  69.243  15.689  1.00  0.00     0.212 HD
ENDBRANCH  10  15
BRANCH  13  17
HETATM   17  O4  UNL     1      33.699  67.522  16.346  1.00  0.00    -0.367 OA
ATOM     18  H4  UNL     1      33.189  66.745  16.148  1.00  0.00     0.212 HD
ENDBRANCH  13  17
ENDBRANCH   7   8
ENDBRANCH   3   7
BRANCH   4  19
HETATM   19  O6  UNL     1      33.036  65.147  20.034  1.00  0.00    -0.388 OA
ATOM     20  H6  UNL     1      32.792  64.286  20.354  1.00  0.00     0.210 HD
ENDBRANCH   4  19
BRANCH   1  21
HETATM   21  S1  UNL     1      31.188  69.535  20.098  1.00  0.00    -0.139 SA
HETATM   22  C1  UNL     1      29.671  68.507  20.146  1.00  0.00     0.092 C 
ENDBRANCH   1  21
BRANCH   5  23
HETATM   23  O7  UNL     1      32.285  65.824  23.265  1.00  0.00    -0.390 OA
ATOM     24  H7  UNL     1      31.798  65.013  23.348  1.00  0.00     0.210 HD
ENDBRANCH   5  23
BRANCH   6  25
HETATM   25  O8  UNL     1      32.673  68.288  23.227  1.00  0.00    -0.389 OA
ATOM     26  H8  UNL     1      33.477  67.813  23.398  1.00  0.00     0.210 HD
ENDBRANCH   6  25
TORSDOF 8
ENDMDL
MODEL 2
REMARK VINA RESULT: -6.299559805      1.203      1.254
REMARK  8 active torsions:
REMARK  status: ('A' for Active; 'I' for Inactive)
REMARK    1  A    between atoms: S1_2  and  C2_3 
REMARK    2  A    between atoms: C3_5  and  O2_6 
REMARK    3  A    between atoms: O2_6  and  C4_7 
REMARK    4  A    between atoms: C5_11  and  O3_12 
REMARK    5  A    between atoms: C6_14  and  O4_15 
REMARK    6  A    between atoms: C7_18  and  O6_19 
REMARK    7  A    between atoms: C8_21  and  O7_22 
REMARK    8  A    between atoms: C9_24  and  O8_25 
ROOT
HETATM    1  C2  UNL     1      32.449  67.836  20.994  1.00  0.00     0.217 C 
HETATM    2  O1  UNL     1      33.427  67.547  20.052  1.00  0.00    -0.340 OA
HETATM    3  C3  UNL     1      34.665  67.745  20.678  1.00  0.00     0.297 C 
HETATM    4  C7  UNL     1      34.908  66.480  21.478  1.00  0.00     0.204 C 
HETATM    5  C8  UNL     1      33.751  66.178  22.397  1.00  0.00     0.183 C 
HETATM    6  C9  UNL     1      32.656  67.199  22.318  1.00  0.00     0.188 C 
ENDROOT
BRANCH   3   7
HETATM    7  O2  UNL     1      35.610  67.950  19.707  1.00  0.00    -0.305 OA
BRANCH   7   8
HETATM    8  C4  UNL     1      35.123  67.854  18.419  1.00  0.00     0.477 C 
HETATM    9  N1  UNL     1      35.730  68.822  17.518  1.00  0.00     0.006 N 
HETATM   10  C5  UNL     1      35.297  68.311  16.229  1.00  0.00     0.380 C 
ATOM     11  H12 UNL     1      35.498  69.798  17.703  1.00  0.00     0.286 HD
ATOM     12  H11 UNL     1      36.737  68.948  17.623  1.00  0.00     0.286 HD
HETATM   13  C6  UNL     1      34.846  66.876  16.528  1.00  0.00     0.318 C 
HETATM   14  O5  UNL     1      35.472  66.661  17.780  1.00  0.00    -0.304 OA
BRANCH  10  15
HETATM   15  O3  UNL     1      36.348  68.236  15.318  1.00  0.00    -0.366 OA
ATOM     16  H3  UNL     1      36.039  68.111  14.429  1.00  0.00     0.212 HD
ENDBRANCH  10  15
BRANCH  13  17
HETATM   17  O4  UNL     1      33.477  66.835  16.775  1.00  0.00    -0.367 OA
ATOM     18  H4  UNL     1      33.288  66.277  17.521  1.00  0.00     0.212 HD
ENDBRANCH  13  17
ENDBRANCH   7   8
ENDBRANCH   3   7
BRANCH   4  19
HETATM   19  O6  UNL     1      35.088  65.453  20.553  1.00  0.00    -0.388 OA
ATOM     20  H6  UNL     1      35.184  64.651  21.054  1.00  0.00     0.210 HD
ENDBRANCH   4  19
BRANCH   1  21
HETATM   21  S1  UNL     1      30.783  67.472  20.317  1.00  0.00    -0.139 SA
HETATM   22  C1  UNL     1      30.717  68.072  18.587  1.00  0.00     0.092 C 
ENDBRANCH   1  21
BRANCH   5  23
HETATM   23  O7  UNL     1      34.175  66.139  23.740  1.00  0.00    -0.390 OA
ATOM     24  H7  UNL     1      34.697  65.364  23.908  1.00  0.00     0.210 HD
ENDBRANCH   5  23
BRANCH   6  25
HETATM   25  O8  UNL     1      32.814  68.183  23.303  1.00  0.00    -0.389 OA
ATOM     26  H8  UNL     1      32.012  68.270  23.806  1.00  0.00     0.210 HD
ENDBRANCH   6  25
TORSDOF 8
ENDMDL
MODEL 3
REMARK VINA RESULT: -6.284698412      2.512      3.630
REMARK  8 active torsions:
REMARK  status: ('A' for Active; 'I' for Inactive)
REMARK    1  A    between atoms: S1_2  and  C2_3 
REMARK    2  A    between atoms: C3_5  and  O2_6 
REMARK    3  A    between atoms: O2_6  and  C4_7 
REMARK    4  A    between atoms: C5_11  and  O3_12 
REMARK    5  A    between atoms: C6_14  and  O4_15 
REMARK    6  A    between atoms: C7_18  and  O6_19 
REMARK    7  A    between atoms: C8_21  and  O7_22 
REMARK    8  A    between atoms: C9_24  and  O8_25 
ROOT
HETATM    1  C2  UNL     1      35.341  67.244  19.304  1.00  0.00     0.217 C 
HETATM    2  O1  UNL     1      34.528  68.104  18.578  1.00  0.00    -0.340 OA
HETATM    3  C3  UNL     1      33.536  67.316  17.978  1.00  0.00     0.297 C 
HETATM    4  C7  UNL     1      32.506  67.084  19.065  1.00  0.00     0.204 C 
HETATM    5  C8  UNL     1      33.136  66.509  20.309  1.00  0.00     0.183 C 
HETATM    6  C9  UNL     1      34.612  66.285  20.170  1.00  0.00     0.188 C 
ENDROOT
BRANCH   3   7
HETATM    7  O2  UNL     1      33.032  68.003  16.905  1.00  0.00    -0.305 OA
BRANCH   7   8
HETATM    8  C4  UNL     1      33.988  68.398  15.991  1.00  0.00     0.477 C 
HETATM    9  N1  UNL     1      34.853  67.304  15.576  1.00  0.00     0.006 N 
HETATM   10  C5  UNL     1      35.520  67.898  14.430  1.00  0.00     0.380 C 
ATOM     11  H12 UNL     1      35.469  66.935  16.299  1.00  0.00     0.286 HD
ATOM     12  H11 UNL     1      34.382  66.417  15.397  1.00  0.00     0.286 HD
HETATM   13  C6  UNL     1      34.650  69.110  14.076  1.00  0.00     0.318 C 
HETATM   14  O5  UNL     1      33.453  68.780  14.757  1.00  0.00    -0.304 OA
BRANCH  10  15
HETATM   15  O3  UNL     1      35.518  67.047  13.327  1.00  0.00    -0.366 OA
ATOM     16  H3  UNL     1      36.398  66.823  13.049  1.00  0.00     0.212 HD
ENDBRANCH  10  15
BRANCH  13  17
HETATM   17  O4  UNL     1      35.136  70.257  14.696  1.00  0.00    -0.367 OA
ATOM     18  H4  UNL     1      36.005  70.469  14.372  1.00  0.00     0.212 HD
ENDBRANCH  13  17
ENDBRANCH   7   8
ENDBRANCH   3   7
BRANCH   4  19
HETATM   19  O6  UNL     1      31.924  68.323  19.332  1.00  0.00    -0.388 OA
ATOM     20  H6  UNL     1      32.600  68.860  19.729  1.00  0.00     0.210 HD
ENDBRANCH   4  19
BRANCH   1  21
HETATM   21  S1  UNL     1      36.595  68.195  20.247  1.00  0.00    -0.139 SA
HETATM   22  C1  UNL     1      35.741  69.116  21.582  1.00  0.00     0.092 C 
ENDBRANCH   1  21
BRANCH   5  23
HETATM   23  O7  UNL     1      32.563  65.262  20.629  1.00  0.00    -0.390 OA
ATOM     24  H7  UNL     1      32.480  64.719  19.854  1.00  0.00     0.210 HD
ENDBRANCH   5  23
BRANCH   6  25
HETATM   25  O8  UNL     1      34.886  64.972  19.765  1.00  0.00    -0.389 OA
ATOM     26  H8  UNL     1      34.180  64.648  19.218  1.00  0.00     0.210 HD
ENDBRANCH   6  25
TORSDOF 8
ENDMDL
MODEL 4
REMARK VINA RESULT: -6.142255131      1.672      1.863
REMARK  8 active torsions:
REMARK  status: ('A' for Active; 'I' for Inactive)
REMARK    1  A    between atoms: S1_2  and  C2_3 
REMARK    2  A    between atoms: C3_5  and  O2_6 
REMARK    3  A    between atoms: O2_6  and  C4_7 
REMARK    4  A    between atoms: C5_11  and  O3_12 
REMARK    5  A    between atoms: C6_14  and  O4_15 
REMARK    6  A    between atoms: C7_18  and  O6_19 
REMARK    7  A    between atoms: C8_21  and  O7_22 
REMARK    8  A    between atoms: C9_24  and  O8_25 
ROOT
HETATM    1  C2  UNL     1      32.866  67.721  20.269  1.00  0.00     0.217 C 
HETATM    2  O1  UNL     1      33.285  66.879  19.247  1.00  0.00    -0.340 OA
HETATM    3  C3  UNL     1      34.685  66.939  19.220  1.00  0.00     0.297 C 
HETATM    4  C7  UNL     1      35.140  66.004  20.324  1.00  0.00     0.204 C 
HETATM    5  C8  UNL     1      34.495  66.352  21.642  1.00  0.00     0.183 C 
HETATM    6  C9  UNL     1      33.582  67.539  21.555  1.00  0.00     0.188 C 
ENDROOT
BRANCH   3   7
HETATM    7  O2  UNL     1      35.109  66.543  17.979  1.00  0.00    -0.305 OA
BRANCH   7   8
HETATM    8  C4  UNL     1      35.188  67.567  17.058  1.00  0.00     0.477 C 
HETATM    9  N1  UNL     1      36.447  68.294  17.135  1.00  0.00     0.006 N 
HETATM   10  C5  UNL     1      36.398  69.065  15.905  1.00  0.00     0.380 C 
ATOM     11  H12 UNL     1      36.587  68.836  17.987  1.00  0.00     0.286 HD
ATOM     12  H11 UNL     1      37.279  67.717  17.258  1.00  0.00     0.286 HD
HETATM   13  C6  UNL     1      35.315  68.371  15.071  1.00  0.00     0.318 C 
HETATM   14  O5  UNL     1      35.235  67.122  15.734  1.00  0.00    -0.304 OA
BRANCH  10  15
HETATM   15  O3  UNL     1      37.591  68.984  15.191  1.00  0.00    -0.366 OA
ATOM     16  H3  UNL     1      37.526  69.403  14.341  1.00  0.00     0.212 HD
ENDBRANCH  10  15
BRANCH  13  17
HETATM   17  O4  UNL     1      34.080  68.984  15.264  1.00  0.00    -0.367 OA
ATOM     18  H4  UNL     1      33.929  69.647  14.600  1.00  0.00     0.212 HD
ENDBRANCH  13  17
ENDBRANCH   7   8
ENDBRANCH   3   7
BRANCH   4  19
HETATM   19  O6  UNL     1      34.787  64.716  19.924  1.00  0.00    -0.388 OA
ATOM     20  H6  UNL     1      35.082  64.621  19.026  1.00  0.00     0.210 HD
ENDBRANCH   4  19
BRANCH   1  21
HETATM   21  S1  UNL     1      31.046  67.609  20.481  1.00  0.00    -0.139 SA
HETATM   22  C1  UNL     1      30.695  67.100  22.207  1.00  0.00     0.092 C 
ENDBRANCH   1  21
BRANCH   5  23
HETATM   23  O7  UNL     1      35.470  66.659  22.612  1.00  0.00    -0.390 OA
ATOM     24  H7  UNL     1      36.344  66.504  22.273  1.00  0.00     0.210 HD
ENDBRANCH   5  23
BRANCH   6  25
HETATM   25  O8  UNL     1      34.258  68.718  21.896  1.00  0.00    -0.389 OA
ATOM     26  H8  UNL     1      34.944  68.528  22.525  1.00  0.00     0.210 HD
ENDBRANCH   6  25
TORSDOF 8
ENDMDL
MODEL 5
REMARK VINA RESULT: -6.139094231      2.046      2.846
REMARK  8 active torsions:
REMARK  status: ('A' for Active; 'I' for Inactive)
REMARK    1  A    between atoms: S1_2  and  C2_3 
REMARK    2  A    between atoms: C3_5  and  O2_6 
REMARK    3  A    between atoms: O2_6  and  C4_7 
REMARK    4  A    between atoms: C5_11  and  O3_12 
REMARK    5  A    between atoms: C6_14  and  O4_15 
REMARK    6  A    between atoms: C7_18  and  O6_19 
REMARK    7  A    between atoms: C8_21  and  O7_22 
REMARK    8  A    between atoms: C9_24  and  O8_25 
ROOT
HETATM    1  C2  UNL     1      33.786  67.886  21.096  1.00  0.00     0.217 C 
HETATM    2  O1  UNL     1      33.299  68.302  19.864  1.00  0.00    -0.340 OA
HETATM    3  C3  UNL     1      34.197  67.836  18.893  1.00  0.00     0.297 C 
HETATM    4  C7  UNL     1      33.820  66.385  18.673  1.00  0.00     0.204 C 
HETATM    5  C8  UNL     1      33.802  65.617  19.971  1.00  0.00     0.183 C 
HETATM    6  C9  UNL     1      34.178  66.456  21.156  1.00  0.00     0.188 C 
ENDROOT
BRANCH   3   7
HETATM    7  O2  UNL     1      34.048  68.602  17.767  1.00  0.00    -0.305 OA
BRANCH   7   8
HETATM    8  C4  UNL     1      34.997  68.362  16.794  1.00  0.00     0.477 C 
HETATM    9  N1  UNL     1      34.513  67.478  15.745  1.00  0.00     0.006 N 
HETATM   10  C5  UNL     1      35.548  67.648  14.739  1.00  0.00     0.380 C 
ATOM     11  H12 UNL     1      34.334  66.516  16.031  1.00  0.00     0.286 HD
ATOM     12  H11 UNL     1      33.560  67.656  15.427  1.00  0.00     0.286 HD
HETATM   13  C6  UNL     1      36.277  68.927  15.165  1.00  0.00     0.318 C 
HETATM   14  O5  UNL     1      35.320  69.495  16.041  1.00  0.00    -0.304 OA
BRANCH  10  15
HETATM   15  O3  UNL     1      35.012  67.874  13.474  1.00  0.00    -0.366 OA
ATOM     16  H3  UNL     1      34.080  68.053  13.509  1.00  0.00     0.212 HD
ENDBRANCH  10  15
BRANCH  13  17
HETATM   17  O4  UNL     1      37.381  68.620  15.956  1.00  0.00    -0.367 OA
ATOM     18  H4  UNL     1      37.188  68.776  16.873  1.00  0.00     0.212 HD
ENDBRANCH  13  17
ENDBRANCH   7   8
ENDBRANCH   3   7
BRANCH   4  19
HETATM   19  O6  UNL     1      32.557  66.387  18.082  1.00  0.00    -0.388 OA
ATOM     20  H6  UNL     1      31.926  66.387  18.791  1.00  0.00     0.210 HD
ENDBRANCH   4  19
BRANCH   1  21
HETATM   21  S1  UNL     1      32.607  68.325  22.431  1.00  0.00    -0.139 SA
HETATM   22  C1  UNL     1      31.168  67.194  22.329  1.00  0.00     0.092 C 
ENDBRANCH   1  21
BRANCH   5  23
HETATM   23  O7  UNL     1      34.712  64.541  19.930  1.00  0.00    -0.390 OA
ATOM     24  H7  UNL     1      34.738  64.154  19.063  1.00  0.00     0.210 HD
ENDBRANCH   5  23
BRANCH   6  25
HETATM   25  O8  UNL     1      35.546  66.346  21.437  1.00  0.00    -0.389 OA
ATOM     26  H8  UNL     1      35.907  65.586  20.995  1.00  0.00     0.210 HD
ENDBRANCH   6  25
TORSDOF 8
ENDMDL
