MODEL 1
REMARK VINA RESULT: -6.594752355      0.000      0.000
REMARK  8 active torsions:
REMARK  status: ('A' for Active; 'I' for Inactive)
REMARK    1  A    between atoms: C2_4  and  C3_5 
REMARK    2  A    between atoms: C4_7  and  C5_8 
REMARK    3  A    between atoms: C5_8  and  O3_9 
REMARK    4  A    between atoms: C6_11  and  O4_12 
REMARK    5  A    between atoms: C7_14  and  O5_15 
REMARK    6  A    between atoms: C8_17  and  O6_18 
REMARK    7  A    between atoms: C9_20  and  O7_21 
REMARK    8  A    between atoms: C10_24  and  O9_25 
ROOT
HETATM    1  C3  UNL     1      34.468  68.098  16.780  1.00  0.00     0.189 C 
HETATM    2  O2  UNL     1      33.297  68.340  16.085  1.00  0.00    -0.370 OA
HETATM    3  C4  UNL     1      33.443  69.511  15.387  1.00  0.00     0.177 C 
HETATM    4  C6  UNL     1      34.402  69.323  14.262  1.00  0.00     0.180 C 
HETATM    5  C7  UNL     1      35.498  68.359  14.500  1.00  0.00     0.180 C 
HETATM    6  C8  UNL     1      35.540  67.709  15.824  1.00  0.00     0.181 C 
ENDROOT
BRANCH   1   7
HETATM    7  C2  UNL     1      34.179  67.056  17.831  1.00  0.00     0.232 C 
HETATM    8  O1  UNL     1      35.051  67.217  18.890  1.00  0.00    -0.286 OA
HETATM    9  N1  UNL     1      34.757  66.376  19.905  1.00  0.00    -0.147 NA
HETATM   10  C1  UNL     1      35.639  66.687  21.013  1.00  0.00     0.149 C 
HETATM   11  C10 UNL     1      33.366  66.492  20.305  1.00  0.00     0.367 C 
HETATM   12  O8  UNL     1      32.699  67.482  19.613  1.00  0.00    -0.314 OA
HETATM   13  C9  UNL     1      32.730  67.216  18.250  1.00  0.00     0.294 C 
BRANCH  11  14
HETATM   14  O9  UNL     1      32.740  65.273  20.122  1.00  0.00    -0.357 OA
ATOM     15  H9  UNL     1      32.545  64.894  20.971  1.00  0.00     0.214 HD
ENDBRANCH  11  14
BRANCH  13  16
HETATM   16  O7  UNL     1      31.960  66.108  17.911  1.00  0.00    -0.368 OA
ATOM     17  H7  UNL     1      31.771  66.075  16.980  1.00  0.00     0.212 HD
ENDBRANCH  13  16
ENDBRANCH   1   7
BRANCH   6  18
HETATM   18  O6  UNL     1      36.776  67.996  16.447  1.00  0.00    -0.390 OA
ATOM     19  H6  UNL     1      37.260  68.563  15.858  1.00  0.00     0.210 HD
ENDBRANCH   6  18
BRANCH   3  20
HETATM   20  C5  UNL     1      32.058  69.863  14.827  1.00  0.00     0.198 C 
BRANCH  20  21
HETATM   21  O3  UNL     1      32.078  71.125  14.238  1.00  0.00    -0.398 OA
ATOM     22  H3  UNL     1      31.238  71.319  13.840  1.00  0.00     0.209 HD
ENDBRANCH  20  21
ENDBRANCH   3  20
BRANCH   5  23
HETATM   23  O5  UNL     1      35.444  67.342  13.521  1.00  0.00    -0.390 OA
ATOM     24  H5  UNL     1      35.576  66.499  13.938  1.00  0.00     0.210 HD
ENDBRANCH   5  23
BRANCH   4  25
HETATM   25  O4  UNL     1      34.888  70.607  13.920  1.00  0.00    -0.390 OA
ATOM     26  H4  UNL     1      35.254  70.538  13.045  1.00  0.00     0.210 HD
ENDBRANCH   4  25
TORSDOF 8
ENDMDL
MODEL 2
REMARK VINA RESULT: -6.550678148      2.209      2.890
REMARK  8 active torsions:
REMARK  status: ('A' for Active; 'I' for Inactive)
REMARK    1  A    between atoms: C2_4  and  C3_5 
REMARK    2  A    between atoms: C4_7  and  C5_8 
REMARK    3  A    between atoms: C5_8  and  O3_9 
REMARK    4  A    between atoms: C6_11  and  O4_12 
REMARK    5  A    between atoms: C7_14  and  O5_15 
REMARK    6  A    between atoms: C8_17  and  O6_18 
REMARK    7  A    between atoms: C9_20  and  O7_21 
REMARK    8  A    between atoms: C10_24  and  O9_25 
ROOT
HETATM    1  C3  UNL     1      36.024  68.551  16.906  1.00  0.00     0.189 C 
HETATM    2  O2  UNL     1      35.978  69.749  17.594  1.00  0.00    -0.370 OA
HETATM    3  C4  UNL     1      36.886  70.608  17.030  1.00  0.00     0.177 C 
HETATM    4  C6  UNL     1      36.416  71.041  15.683  1.00  0.00     0.180 C 
HETATM    5  C7  UNL     1      35.632  70.045  14.920  1.00  0.00     0.180 C 
HETATM    6  C8  UNL     1      35.421  68.731  15.557  1.00  0.00     0.181 C 
ENDROOT
BRANCH   1   7
HETATM    7  C2  UNL     1      35.339  67.504  17.746  1.00  0.00     0.232 C 
HETATM    8  O1  UNL     1      35.768  67.613  19.055  1.00  0.00    -0.286 OA
HETATM    9  N1  UNL     1      35.096  66.767  19.867  1.00  0.00    -0.147 NA
HETATM   10  C1  UNL     1      35.522  67.024  21.229  1.00  0.00     0.149 C 
HETATM   11  C10 UNL     1      33.660  66.931  19.735  1.00  0.00     0.367 C 
HETATM   12  O8  UNL     1      33.323  67.958  18.878  1.00  0.00    -0.314 OA
HETATM   13  C9  UNL     1      33.843  67.715  17.613  1.00  0.00     0.294 C 
BRANCH  11  14
HETATM   14  O9  UNL     1      33.107  65.742  19.300  1.00  0.00    -0.357 OA
ATOM     15  H9  UNL     1      32.215  65.678  19.620  1.00  0.00     0.214 HD
ENDBRANCH  11  14
BRANCH  13  16
HETATM   16  O7  UNL     1      33.216  66.644  16.983  1.00  0.00    -0.368 OA
ATOM     17  H7  UNL     1      33.202  66.743  16.038  1.00  0.00     0.212 HD
ENDBRANCH  13  16
ENDBRANCH   1   7
BRANCH   6  18
HETATM   18  O6  UNL     1      35.952  67.718  14.726  1.00  0.00    -0.390 OA
ATOM     19  H6  UNL     1      36.290  68.145  13.947  1.00  0.00     0.210 HD
ENDBRANCH   6  18
BRANCH   3  20
HETATM   20  C5  UNL     1      36.973  71.826  17.958  1.00  0.00     0.198 C 
BRANCH  20  21
HETATM   21  O3  UNL     1      38.122  72.565  17.685  1.00  0.00    -0.398 OA
ATOM     22  H3  UNL     1      38.186  72.747  16.754  1.00  0.00     0.209 HD
ENDBRANCH  20  21
ENDBRANCH   3  20
BRANCH   5  23
HETATM   23  O5  UNL     1      34.363  70.587  14.615  1.00  0.00    -0.390 OA
ATOM     24  H5  UNL     1      33.705  69.906  14.698  1.00  0.00     0.210 HD
ENDBRANCH   5  23
BRANCH   4  25
HETATM   25  O4  UNL     1      37.558  71.476  14.971  1.00  0.00    -0.390 OA
ATOM     26  H4  UNL     1      37.283  72.210  14.433  1.00  0.00     0.210 HD
ENDBRANCH   4  25
TORSDOF 8
ENDMDL
MODEL 3
REMARK VINA RESULT: -6.501522852      2.432      6.076
REMARK  8 active torsions:
REMARK  status: ('A' for Active; 'I' for Inactive)
REMARK    1  A    between atoms: C2_4  and  C3_5 
REMARK    2  A    between atoms: C4_7  and  C5_8 
REMARK    3  A    between atoms: C5_8  and  O3_9 
REMARK    4  A    between atoms: C6_11  and  O4_12 
REMARK    5  A    between atoms: C7_14  and  O5_15 
REMARK    6  A    between atoms: C8_17  and  O6_18 
REMARK    7  A    between atoms: C9_20  and  O7_21 
REMARK    8  A    between atoms: C10_24  and  O9_25 
ROOT
HETATM    1  C3  UNL     1      34.042  67.699  19.108  1.00  0.00     0.189 C 
HETATM    2  O2  UNL     1      35.077  67.783  20.021  1.00  0.00    -0.370 OA
HETATM    3  C4  UNL     1      34.563  67.590  21.277  1.00  0.00     0.177 C 
HETATM    4  C6  UNL     1      34.151  66.168  21.451  1.00  0.00     0.180 C 
HETATM    5  C7  UNL     1      33.653  65.486  20.237  1.00  0.00     0.180 C 
HETATM    6  C8  UNL     1      33.592  66.285  18.999  1.00  0.00     0.181 C 
ENDROOT
BRANCH   1   7
HETATM    7  C2  UNL     1      34.520  68.290  17.806  1.00  0.00     0.232 C 
HETATM    8  O1  UNL     1      35.185  69.475  18.056  1.00  0.00    -0.286 OA
HETATM    9  N1  UNL     1      35.729  69.984  16.929  1.00  0.00    -0.147 NA
HETATM   10  C1  UNL     1      36.500  71.157  17.296  1.00  0.00     0.149 C 
HETATM   11  C10 UNL     1      36.564  69.008  16.254  1.00  0.00     0.367 C 
HETATM   12  O8  UNL     1      36.668  67.826  16.958  1.00  0.00    -0.314 OA
HETATM   13  C9  UNL     1      35.411  67.263  17.135  1.00  0.00     0.294 C 
BRANCH  11  14
HETATM   14  O9  UNL     1      36.052  68.771  14.992  1.00  0.00    -0.357 OA
ATOM     15  H9  UNL     1      36.742  68.886  14.350  1.00  0.00     0.214 HD
ENDBRANCH  11  14
BRANCH  13  16
HETATM   16  O7  UNL     1      34.868  66.798  15.941  1.00  0.00    -0.368 OA
ATOM     17  H7  UNL     1      35.166  65.921  15.730  1.00  0.00     0.212 HD
ENDBRANCH  13  16
ENDBRANCH   1   7
BRANCH   6  18
HETATM   18  O6  UNL     1      32.261  66.309  18.523  1.00  0.00    -0.390 OA
ATOM     19  H6  UNL     1      31.808  66.998  18.994  1.00  0.00     0.210 HD
ENDBRANCH   6  18
BRANCH   3  20
HETATM   20  C5  UNL     1      35.687  67.923  22.267  1.00  0.00     0.198 C 
BRANCH  20  21
HETATM   21  O3  UNL     1      35.677  67.026  23.334  1.00  0.00    -0.398 OA
ATOM     22  H3  UNL     1      35.078  67.321  24.010  1.00  0.00     0.209 HD
ENDBRANCH  20  21
ENDBRANCH   3  20
BRANCH   5  23
HETATM   23  O5  UNL     1      34.452  64.350  19.980  1.00  0.00    -0.390 OA
ATOM     24  H5  UNL     1      35.239  64.620  19.521  1.00  0.00     0.210 HD
ENDBRANCH   5  23
BRANCH   4  25
HETATM   25  O4  UNL     1      33.206  66.141  22.503  1.00  0.00    -0.390 OA
ATOM     26  H4  UNL     1      33.696  66.197  23.315  1.00  0.00     0.210 HD
ENDBRANCH   4  25
TORSDOF 8
ENDMDL
MODEL 4
REMARK VINA RESULT: -6.465517298      2.488      6.299
REMARK  8 active torsions:
REMARK  status: ('A' for Active; 'I' for Inactive)
REMARK    1  A    between atoms: C2_4  and  C3_5 
REMARK    2  A    between atoms: C4_7  and  C5_8 
REMARK    3  A    between atoms: C5_8  and  O3_9 
REMARK    4  A    between atoms: C6_11  and  O4_12 
REMARK    5  A    between atoms: C7_14  and  O5_15 
REMARK    6  A    between atoms: C8_17  and  O6_18 
REMARK    7  A    between atoms: C9_20  and  O7_21 
REMARK    8  A    between atoms: C10_24  and  O9_25 
ROOT
HETATM    1  C3  UNL     1      34.976  67.778  19.222  1.00  0.00     0.189 C 
HETATM    2  O2  UNL     1      35.728  67.630  20.373  1.00  0.00    -0.370 OA
HETATM    3  C4  UNL     1      34.875  67.401  21.422  1.00  0.00     0.177 C 
HETATM    4  C6  UNL     1      34.271  66.043  21.306  1.00  0.00     0.180 C 
HETATM    5  C7  UNL     1      34.044  65.551  19.929  1.00  0.00     0.180 C 
HETATM    6  C8  UNL     1      34.412  66.459  18.826  1.00  0.00     0.181 C 
ENDROOT
BRANCH   1   7
HETATM    7  C2  UNL     1      35.853  68.408  18.171  1.00  0.00     0.232 C 
HETATM    8  O1  UNL     1      35.575  67.842  16.941  1.00  0.00    -0.286 OA
HETATM    9  N1  UNL     1      36.258  68.454  15.950  1.00  0.00    -0.147 NA
HETATM   10  C1  UNL     1      35.825  67.881  14.690  1.00  0.00     0.149 C 
HETATM   11  C10 UNL     1      36.043  69.890  15.964  1.00  0.00     0.367 C 
HETATM   12  O8  UNL     1      35.137  70.278  16.929  1.00  0.00    -0.314 OA
HETATM   13  C9  UNL     1      35.589  69.902  18.188  1.00  0.00     0.294 C 
BRANCH  11  14
HETATM   14  O9  UNL     1      37.254  70.526  16.159  1.00  0.00    -0.357 OA
ATOM     15  H9  UNL     1      37.168  71.145  16.874  1.00  0.00     0.214 HD
ENDBRANCH  11  14
BRANCH  13  16
HETATM   16  O7  UNL     1      36.708  70.628  18.585  1.00  0.00    -0.368 OA
ATOM     17  H7  UNL     1      36.603  71.000  19.453  1.00  0.00     0.212 HD
ENDBRANCH  13  16
ENDBRANCH   1   7
BRANCH   6  18
HETATM   18  O6  UNL     1      33.271  66.717  18.032  1.00  0.00    -0.390 OA
ATOM     19  H6  UNL     1      32.558  66.203  18.392  1.00  0.00     0.210 HD
ENDBRANCH   6  18
BRANCH   3  20
HETATM   20  C5  UNL     1      35.720  67.478  22.700  1.00  0.00     0.198 C 
BRANCH  20  21
HETATM   21  O3  UNL     1      35.061  66.853  23.757  1.00  0.00    -0.398 OA
ATOM     22  H3  UNL     1      35.410  65.981  23.896  1.00  0.00     0.209 HD
ENDBRANCH  20  21
ENDBRANCH   3  20
BRANCH   5  23
HETATM   23  O5  UNL     1      34.747  64.340  19.746  1.00  0.00    -0.390 OA
ATOM     24  H5  UNL     1      35.345  64.434  19.014  1.00  0.00     0.210 HD
ENDBRANCH   5  23
BRANCH   4  25
HETATM   25  O4  UNL     1      33.080  66.058  22.069  1.00  0.00    -0.390 OA
ATOM     26  H4  UNL     1      32.812  66.967  22.143  1.00  0.00     0.210 HD
ENDBRANCH   4  25
TORSDOF 8
ENDMDL
MODEL 5
REMARK VINA RESULT: -6.447971641      2.403      6.298
REMARK  8 active torsions:
REMARK  status: ('A' for Active; 'I' for Inactive)
REMARK    1  A    between atoms: C2_4  and  C3_5 
REMARK    2  A    between atoms: C4_7  and  C5_8 
REMARK    3  A    between atoms: C5_8  and  O3_9 
REMARK    4  A    between atoms: C6_11  and  O4_12 
REMARK    5  A    between atoms: C7_14  and  O5_15 
REMARK    6  A    between atoms: C8_17  and  O6_18 
REMARK    7  A    between atoms: C9_20  and  O7_21 
REMARK    8  A    between atoms: C10_24  and  O9_25 
ROOT
HETATM    1  C3  UNL     1      32.200  67.871  18.991  1.00  0.00     0.189 C 
HETATM    2  O2  UNL     1      32.534  66.862  19.876  1.00  0.00    -0.370 OA
HETATM    3  C4  UNL     1      32.205  67.271  21.142  1.00  0.00     0.177 C 
HETATM    4  C6  UNL     1      30.723  67.304  21.303  1.00  0.00     0.180 C 
HETATM    5  C7  UNL     1      29.949  67.652  20.091  1.00  0.00     0.180 C 
HETATM    6  C8  UNL     1      30.719  67.952  18.870  1.00  0.00     0.181 C 
ENDROOT
BRANCH   1   7
HETATM    7  C2  UNL     1      32.905  67.599  17.687  1.00  0.00     0.232 C 
HETATM    8  O1  UNL     1      32.717  68.667  16.831  1.00  0.00    -0.286 OA
HETATM    9  N1  UNL     1      33.424  68.517  15.690  1.00  0.00    -0.147 NA
HETATM   10  C1  UNL     1      33.264  69.725  14.903  1.00  0.00     0.149 C 
HETATM   11  C10 UNL     1      34.827  68.263  15.964  1.00  0.00     0.367 C 
HETATM   12  O8  UNL     1      35.119  68.312  17.311  1.00  0.00    -0.314 OA
HETATM   13  C9  UNL     1      34.371  67.364  17.998  1.00  0.00     0.294 C 
BRANCH  11  14
HETATM   14  O9  UNL     1      35.173  67.030  15.443  1.00  0.00    -0.357 OA
ATOM     15  H9  UNL     1      36.117  66.934  15.473  1.00  0.00     0.214 HD
ENDBRANCH  11  14
BRANCH  13  16
HETATM   16  O7  UNL     1      34.769  66.064  17.701  1.00  0.00    -0.368 OA
ATOM     17  H7  UNL     1      34.369  65.426  18.281  1.00  0.00     0.212 HD
ENDBRANCH  13  16
ENDBRANCH   1   7
BRANCH   6  18
HETATM   18  O6  UNL     1      30.409  69.260  18.431  1.00  0.00    -0.390 OA
ATOM     19  H6  UNL     1      29.751  69.178  17.751  1.00  0.00     0.210 HD
ENDBRANCH   6  18
BRANCH   3  20
HETATM   20  C5  UNL     1      32.802  66.237  22.106  1.00  0.00     0.198 C 
BRANCH  20  21
HETATM   21  O3  UNL     1      31.891  65.930  23.115  1.00  0.00    -0.398 OA
ATOM     22  H3  UNL     1      31.231  66.610  23.184  1.00  0.00     0.209 HD
ENDBRANCH  20  21
ENDBRANCH   3  20
BRANCH   5  23
HETATM   23  O5  UNL     1      29.055  66.600  19.792  1.00  0.00    -0.390 OA
ATOM     24  H5  UNL     1      29.529  65.904  19.352  1.00  0.00     0.210 HD
ENDBRANCH   5  23
BRANCH   4  25
HETATM   25  O4  UNL     1      30.447  68.179  22.380  1.00  0.00    -0.390 OA
ATOM     26  H4  UNL     1      31.177  68.785  22.435  1.00  0.00     0.210 HD
ENDBRANCH   4  25
TORSDOF 8
ENDMDL
