MODEL 1
REMARK VINA RESULT: -6.771530347      0.000      0.000
REMARK  10 active torsions:
REMARK  status: ('A' for Active; 'I' for Inactive)
REMARK    1  A    between atoms: C2_2  and  N1_3 
REMARK    2  A    between atoms: C3_5  and  C4_6 
REMARK    3  A    between atoms: C3_5  and  N3_25 
REMARK    4  A    between atoms: C4_6  and  C5_11 
REMARK    5  A    between atoms: N2_7  and  O1_9 
REMARK    6  A    between atoms: C7_13  and  C8_14 
REMARK    7  A    between atoms: C8_14  and  C9_15 
REMARK    8  A    between atoms: C10_19  and  C11_20 
REMARK    9  A    between atoms: C11_20  and  O5_22 
REMARK   10  A    between atoms: O5_22  and  C12_23 
ROOT
HETATM    1  C4  UNL     1     -54.835  22.293  31.547  1.00  0.00     0.109 C 
HETATM    2  N2  UNL     1     -54.936  22.597  32.766  1.00  0.00    -0.265 N 
ATOM      3  H2  UNL     1     -55.728  22.168  33.246  1.00  0.00     0.194 HD
ENDROOT
BRANCH   1   4
HETATM    4  C3  UNL     1     -53.762  22.814  30.717  1.00  0.00     0.133 C 
HETATM    5  N1  UNL     1     -53.648  24.013  30.410  1.00  0.00    -0.354 N 
ATOM      6  H1  UNL     1     -54.386  24.596  30.802  1.00  0.00     0.166 HD
BRANCH   5   7
HETATM    7  C2  UNL     1     -52.722  24.744  29.638  1.00  0.00     0.058 C 
HETATM    8  C1  UNL     1     -51.603  25.373  30.439  1.00  0.00     0.054 C 
ENDBRANCH   5   7
BRANCH   4   9
HETATM    9  N3  UNL     1     -52.751  21.939  30.195  1.00  0.00    -0.365 N 
HETATM   10  C14 UNL     1     -52.914  21.341  28.893  1.00  0.00     0.124 C 
HETATM   11  C15 UNL     1     -51.710  21.611  27.977  1.00  0.00     0.020 C 
HETATM   12  C16 UNL     1     -50.428  21.413  28.712  1.00  0.00     0.007 C 
HETATM   13  C17 UNL     1     -50.555  20.906  30.111  1.00  0.00    -0.001 C 
HETATM   14  C18 UNL     1     -50.739  19.413  30.175  1.00  0.00     0.011 C 
HETATM   15  C19 UNL     1     -51.552  21.682  30.932  1.00  0.00     0.128 C 
ENDBRANCH   4   9
ENDBRANCH   1   4
BRANCH   1  16
HETATM   16  C5  UNL     1     -55.870  21.331  31.011  1.00  0.00     0.020 A 
HETATM   17  C6  UNL     1     -55.924  20.026  31.416  1.00  0.00     0.030 A 
HETATM   18  C7  UNL     1     -56.801  19.185  30.794  1.00  0.00    -0.006 A 
HETATM   19  S1  UNL     1     -57.545  20.173  29.665  1.00  0.00    -0.087 SA
HETATM   20  C10 UNL     1     -56.715  21.684  30.005  1.00  0.00     0.093 A 
BRANCH  18  21
HETATM   21  C8  UNL     1     -57.011  17.708  31.096  1.00  0.00     0.159 C 
BRANCH  21  22
HETATM   22  C9  UNL     1     -58.402  17.528  31.515  1.00  0.00     0.177 C 
HETATM   23  O2  UNL     1     -58.680  17.470  32.738  1.00  0.00    -0.648 OA
HETATM   24  O3  UNL     1     -59.452  17.414  30.606  1.00  0.00    -0.648 OA
ENDBRANCH  21  22
ENDBRANCH  18  21
BRANCH  20  25
HETATM   25  C11 UNL     1     -57.074  22.934  29.323  1.00  0.00     0.301 C 
HETATM   26  O4  UNL     1     -56.663  24.062  29.498  1.00  0.00    -0.259 OA
BRANCH  25  27
HETATM   27  O5  UNL     1     -58.055  22.841  28.285  1.00  0.00    -0.317 OA
BRANCH  27  28
HETATM   28  C12 UNL     1     -59.315  23.465  28.530  1.00  0.00     0.174 C 
HETATM   29  C13 UNL     1     -60.409  22.447  28.700  1.00  0.00     0.034 C 
ENDBRANCH  27  28
ENDBRANCH  25  27
ENDBRANCH  20  25
ENDBRANCH   1  16
BRANCH   2  30
HETATM   30  O1  UNL     1     -54.187  23.379  33.529  1.00  0.00    -0.289 OA
ATOM     31  H1  UNL     1     -54.298  23.658  34.430  1.00  0.00     0.244 HD
ENDBRANCH   2  30
TORSDOF 10
ENDMDL
MODEL 2
REMARK VINA RESULT: -6.708828622      1.662      2.356
REMARK  10 active torsions:
REMARK  status: ('A' for Active; 'I' for Inactive)
REMARK    1  A    between atoms: C2_2  and  N1_3 
REMARK    2  A    between atoms: C3_5  and  C4_6 
REMARK    3  A    between atoms: C3_5  and  N3_25 
REMARK    4  A    between atoms: C4_6  and  C5_11 
REMARK    5  A    between atoms: N2_7  and  O1_9 
REMARK    6  A    between atoms: C7_13  and  C8_14 
REMARK    7  A    between atoms: C8_14  and  C9_15 
REMARK    8  A    between atoms: C10_19  and  C11_20 
REMARK    9  A    between atoms: C11_20  and  O5_22 
REMARK   10  A    between atoms: O5_22  and  C12_23 
ROOT
HETATM    1  C4  UNL     1     -56.415  22.346  29.913  1.00  0.00     0.109 C 
HETATM    2  N2  UNL     1     -57.010  23.299  29.343  1.00  0.00    -0.265 N 
ATOM      3  H2  UNL     1     -57.917  23.056  28.945  1.00  0.00     0.194 HD
ENDROOT
BRANCH   1   4
HETATM    4  C3  UNL     1     -55.114  22.520  30.534  1.00  0.00     0.133 C 
HETATM    5  N1  UNL     1     -54.945  23.035  31.653  1.00  0.00    -0.354 N 
ATOM      6  H1  UNL     1     -55.819  23.323  32.092  1.00  0.00     0.166 HD
BRANCH   5   7
HETATM    7  C2  UNL     1     -53.813  23.308  32.447  1.00  0.00     0.058 C 
HETATM    8  C1  UNL     1     -53.324  24.737  32.363  1.00  0.00     0.054 C 
ENDBRANCH   5   7
BRANCH   4   9
HETATM    9  N3  UNL     1     -53.920  22.091  29.861  1.00  0.00    -0.365 N 
HETATM   10  C14 UNL     1     -53.239  22.985  28.957  1.00  0.00     0.124 C 
HETATM   11  C15 UNL     1     -51.754  23.150  29.316  1.00  0.00     0.020 C 
HETATM   12  C16 UNL     1     -51.134  21.833  29.640  1.00  0.00     0.007 C 
HETATM   13  C17 UNL     1     -52.015  20.641  29.454  1.00  0.00    -0.001 C 
HETATM   14  C18 UNL     1     -52.078  20.180  28.021  1.00  0.00     0.011 C 
HETATM   15  C19 UNL     1     -53.364  20.796  30.107  1.00  0.00     0.128 C 
ENDBRANCH   4   9
ENDBRANCH   1   4
BRANCH   1  16
HETATM   16  C5  UNL     1     -57.149  21.024  29.941  1.00  0.00     0.020 A 
HETATM   17  C6  UNL     1     -56.819  20.032  30.822  1.00  0.00     0.030 A 
HETATM   18  C7  UNL     1     -57.437  18.820  30.703  1.00  0.00    -0.006 A 
HETATM   19  S1  UNL     1     -58.461  19.039  29.396  1.00  0.00    -0.087 SA
HETATM   20  C10 UNL     1     -58.086  20.711  29.006  1.00  0.00     0.093 A 
BRANCH  18  21
HETATM   21  C8  UNL     1     -57.209  17.596  31.578  1.00  0.00     0.159 C 
BRANCH  21  22
HETATM   22  C9  UNL     1     -58.518  17.108  32.017  1.00  0.00     0.177 C 
HETATM   23  O2  UNL     1     -59.097  16.207  31.362  1.00  0.00    -0.648 OA
HETATM   24  O3  UNL     1     -59.165  17.603  33.148  1.00  0.00    -0.648 OA
ENDBRANCH  21  22
ENDBRANCH  18  21
BRANCH  20  25
HETATM   25  C11 UNL     1     -58.804  21.438  27.951  1.00  0.00     0.301 C 
HETATM   26  O4  UNL     1     -58.815  21.258  26.751  1.00  0.00    -0.259 OA
BRANCH  25  27
HETATM   27  O5  UNL     1     -59.627  22.531  28.370  1.00  0.00    -0.317 OA
BRANCH  27  28
HETATM   28  C12 UNL     1     -60.945  22.212  28.816  1.00  0.00     0.174 C 
HETATM   29  C13 UNL     1     -61.572  23.365  29.550  1.00  0.00     0.034 C 
ENDBRANCH  27  28
ENDBRANCH  25  27
ENDBRANCH  20  25
ENDBRANCH   1  16
BRANCH   2  30
HETATM   30  O1  UNL     1     -56.655  24.564  29.173  1.00  0.00    -0.289 OA
ATOM     31  H1  UNL     1     -57.179  25.354  29.114  1.00  0.00     0.244 HD
ENDBRANCH   2  30
TORSDOF 10
ENDMDL
MODEL 3
REMARK VINA RESULT: -6.586177575      1.727      4.401
REMARK  10 active torsions:
REMARK  status: ('A' for Active; 'I' for Inactive)
REMARK    1  A    between atoms: C2_2  and  N1_3 
REMARK    2  A    between atoms: C3_5  and  C4_6 
REMARK    3  A    between atoms: C3_5  and  N3_25 
REMARK    4  A    between atoms: C4_6  and  C5_11 
REMARK    5  A    between atoms: N2_7  and  O1_9 
REMARK    6  A    between atoms: C7_13  and  C8_14 
REMARK    7  A    between atoms: C8_14  and  C9_15 
REMARK    8  A    between atoms: C10_19  and  C11_20 
REMARK    9  A    between atoms: C11_20  and  O5_22 
REMARK   10  A    between atoms: O5_22  and  C12_23 
ROOT
HETATM    1  C4  UNL     1     -55.223  21.584  30.801  1.00  0.00     0.109 C 
HETATM    2  N2  UNL     1     -55.374  22.187  31.897  1.00  0.00    -0.265 N 
ATOM      3  H2  UNL     1     -56.345  22.368  32.152  1.00  0.00     0.194 HD
ENDROOT
BRANCH   1   4
HETATM    4  C3  UNL     1     -53.906  21.246  30.291  1.00  0.00     0.133 C 
HETATM    5  N1  UNL     1     -53.555  20.091  29.996  1.00  0.00    -0.354 N 
ATOM      6  H1  UNL     1     -54.290  19.401  30.149  1.00  0.00     0.166 HD
BRANCH   5   7
HETATM    7  C2  UNL     1     -52.365  19.524  29.497  1.00  0.00     0.058 C 
HETATM    8  C1  UNL     1     -52.138  19.753  28.019  1.00  0.00     0.054 C 
ENDBRANCH   5   7
BRANCH   4   9
HETATM    9  N3  UNL     1     -52.914  22.266  30.096  1.00  0.00    -0.365 N 
HETATM   10  C14 UNL     1     -51.796  22.369  31.001  1.00  0.00     0.124 C 
HETATM   11  C15 UNL     1     -50.449  22.349  30.262  1.00  0.00     0.020 C 
HETATM   12  C16 UNL     1     -50.490  23.225  29.057  1.00  0.00     0.007 C 
HETATM   13  C17 UNL     1     -51.749  24.007  28.868  1.00  0.00    -0.001 C 
HETATM   14  C18 UNL     1     -51.784  25.265  29.696  1.00  0.00     0.011 C 
HETATM   15  C19 UNL     1     -52.992  23.163  28.985  1.00  0.00     0.128 C 
ENDBRANCH   4   9
ENDBRANCH   1   4
BRANCH   1  16
HETATM   16  C5  UNL     1     -56.490  21.207  30.068  1.00  0.00     0.020 A 
HETATM   17  C6  UNL     1     -57.191  22.111  29.320  1.00  0.00     0.030 A 
HETATM   18  C7  UNL     1     -58.393  21.733  28.794  1.00  0.00    -0.006 A 
HETATM   19  S1  UNL     1     -58.561  20.152  29.320  1.00  0.00    -0.087 SA
HETATM   20  C10 UNL     1     -57.063  19.983  30.224  1.00  0.00     0.093 A 
BRANCH  18  21
HETATM   21  C8  UNL     1     -59.318  22.588  27.940  1.00  0.00     0.159 C 
BRANCH  21  22
HETATM   22  C9  UNL     1     -60.513  21.797  27.643  1.00  0.00     0.177 C 
HETATM   23  O2  UNL     1     -60.574  21.139  26.574  1.00  0.00    -0.648 OA
HETATM   24  O3  UNL     1     -61.608  21.735  28.503  1.00  0.00    -0.648 OA
ENDBRANCH  21  22
ENDBRANCH  18  21
BRANCH  20  25
HETATM   25  C11 UNL     1     -56.670  18.707  30.835  1.00  0.00     0.301 C 
HETATM   26  O4  UNL     1     -55.801  17.924  30.511  1.00  0.00    -0.259 OA
BRANCH  25  27
HETATM   27  O5  UNL     1     -57.402  18.296  31.994  1.00  0.00    -0.317 OA
BRANCH  27  28
HETATM   28  C12 UNL     1     -58.395  17.289  31.806  1.00  0.00     0.174 C 
HETATM   29  C13 UNL     1     -59.230  17.101  33.043  1.00  0.00     0.034 C 
ENDBRANCH  27  28
ENDBRANCH  25  27
ENDBRANCH  20  25
ENDBRANCH   1  16
BRANCH   2  30
HETATM   30  O1  UNL     1     -54.483  22.623  32.776  1.00  0.00    -0.289 OA
ATOM     31  H1  UNL     1     -54.349  22.399  33.689  1.00  0.00     0.244 HD
ENDBRANCH   2  30
TORSDOF 10
ENDMDL
MODEL 4
REMARK VINA RESULT: -6.578902962      1.149      2.612
REMARK  10 active torsions:
REMARK  status: ('A' for Active; 'I' for Inactive)
REMARK    1  A    between atoms: C2_2  and  N1_3 
REMARK    2  A    between atoms: C3_5  and  C4_6 
REMARK    3  A    between atoms: C3_5  and  N3_25 
REMARK    4  A    between atoms: C4_6  and  C5_11 
REMARK    5  A    between atoms: N2_7  and  O1_9 
REMARK    6  A    between atoms: C7_13  and  C8_14 
REMARK    7  A    between atoms: C8_14  and  C9_15 
REMARK    8  A    between atoms: C10_19  and  C11_20 
REMARK    9  A    between atoms: C11_20  and  O5_22 
REMARK   10  A    between atoms: O5_22  and  C12_23 
ROOT
HETATM    1  C4  UNL     1     -55.083  21.298  31.105  1.00  0.00     0.109 C 
HETATM    2  N2  UNL     1     -55.206  22.063  32.098  1.00  0.00    -0.265 N 
ATOM      3  H2  UNL     1     -56.133  22.060  32.524  1.00  0.00     0.194 HD
ENDROOT
BRANCH   1   4
HETATM    4  C3  UNL     1     -53.827  21.179  30.383  1.00  0.00     0.133 C 
HETATM    5  N1  UNL     1     -53.425  20.124  29.864  1.00  0.00    -0.354 N 
ATOM      6  H1  UNL     1     -54.071  19.346  29.996  1.00  0.00     0.166 HD
BRANCH   5   7
HETATM    7  C2  UNL     1     -52.275  19.766  29.132  1.00  0.00     0.058 C 
HETATM    8  C1  UNL     1     -51.240  19.005  29.932  1.00  0.00     0.054 C 
ENDBRANCH   5   7
BRANCH   4   9
HETATM    9  N3  UNL     1     -52.963  22.316  30.231  1.00  0.00    -0.365 N 
HETATM   10  C14 UNL     1     -51.822  22.478  31.098  1.00  0.00     0.124 C 
HETATM   11  C15 UNL     1     -50.517  22.664  30.309  1.00  0.00     0.020 C 
HETATM   12  C16 UNL     1     -50.709  23.615  29.177  1.00  0.00     0.007 C 
HETATM   13  C17 UNL     1     -52.053  24.262  29.097  1.00  0.00    -0.001 C 
HETATM   14  C18 UNL     1     -52.188  25.444  30.021  1.00  0.00     0.011 C 
HETATM   15  C19 UNL     1     -53.190  23.277  29.195  1.00  0.00     0.128 C 
ENDBRANCH   4   9
ENDBRANCH   1   4
BRANCH   1  16
HETATM   16  C5  UNL     1     -56.304  20.488  30.731  1.00  0.00     0.020 A 
HETATM   17  C6  UNL     1     -56.509  19.225  31.210  1.00  0.00     0.030 A 
HETATM   18  C7  UNL     1     -57.566  18.507  30.728  1.00  0.00    -0.006 A 
HETATM   19  S1  UNL     1     -58.271  19.554  29.628  1.00  0.00    -0.087 SA
HETATM   20  C10 UNL     1     -57.190  20.930  29.798  1.00  0.00     0.093 A 
BRANCH  18  21
HETATM   21  C8  UNL     1     -57.961  17.093  31.131  1.00  0.00     0.159 C 
BRANCH  21  22
HETATM   22  C9  UNL     1     -59.195  17.177  31.913  1.00  0.00     0.177 C 
HETATM   23  O2  UNL     1     -60.294  17.341  31.326  1.00  0.00    -0.648 OA
HETATM   24  O3  UNL     1     -59.213  17.083  33.303  1.00  0.00    -0.648 OA
ENDBRANCH  21  22
ENDBRANCH  18  21
BRANCH  20  25
HETATM   25  C11 UNL     1     -57.429  22.193  29.088  1.00  0.00     0.301 C 
HETATM   26  O4  UNL     1     -56.943  23.291  29.267  1.00  0.00    -0.259 OA
BRANCH  25  27
HETATM   27  O5  UNL     1     -58.373  22.158  28.013  1.00  0.00    -0.317 OA
BRANCH  27  28
HETATM   28  C12 UNL     1     -59.512  23.010  28.127  1.00  0.00     0.174 C 
HETATM   29  C13 UNL     1     -60.631  22.338  28.873  1.00  0.00     0.034 C 
ENDBRANCH  27  28
ENDBRANCH  25  27
ENDBRANCH  20  25
ENDBRANCH   1  16
BRANCH   2  30
HETATM   30  O1  UNL     1     -54.333  22.870  32.684  1.00  0.00    -0.289 OA
ATOM     31  H1  UNL     1     -54.282  23.818  32.706  1.00  0.00     0.244 HD
ENDBRANCH   2  30
TORSDOF 10
ENDMDL
MODEL 5
REMARK VINA RESULT: -6.440742502      1.495      3.585
REMARK  10 active torsions:
REMARK  status: ('A' for Active; 'I' for Inactive)
REMARK    1  A    between atoms: C2_2  and  N1_3 
REMARK    2  A    between atoms: C3_5  and  C4_6 
REMARK    3  A    between atoms: C3_5  and  N3_25 
REMARK    4  A    between atoms: C4_6  and  C5_11 
REMARK    5  A    between atoms: N2_7  and  O1_9 
REMARK    6  A    between atoms: C7_13  and  C8_14 
REMARK    7  A    between atoms: C8_14  and  C9_15 
REMARK    8  A    between atoms: C10_19  and  C11_20 
REMARK    9  A    between atoms: C11_20  and  O5_22 
REMARK   10  A    between atoms: O5_22  and  C12_23 
ROOT
HETATM    1  C4  UNL     1     -54.891  22.669  30.933  1.00  0.00     0.109 C 
HETATM    2  N2  UNL     1     -55.000  22.659  32.188  1.00  0.00    -0.265 N 
ATOM      3  H2  UNL     1     -55.891  22.303  32.534  1.00  0.00     0.194 HD
ENDROOT
BRANCH   1   4
HETATM    4  C3  UNL     1     -53.686  23.144  30.274  1.00  0.00     0.133 C 
HETATM    5  N1  UNL     1     -53.457  24.341  30.030  1.00  0.00    -0.354 N 
ATOM      6  H1  UNL     1     -54.206  24.959  30.341  1.00  0.00     0.166 HD
BRANCH   5   7
HETATM    7  C2  UNL     1     -52.392  25.032  29.418  1.00  0.00     0.058 C 
HETATM    8  C1  UNL     1     -51.385  25.608  30.389  1.00  0.00     0.054 C 
ENDBRANCH   5   7
BRANCH   4   9
HETATM    9  N3  UNL     1     -52.667  22.220  29.861  1.00  0.00    -0.365 N 
HETATM   10  C14 UNL     1     -52.683  21.676  28.526  1.00  0.00     0.124 C 
HETATM   11  C15 UNL     1     -51.348  21.894  27.796  1.00  0.00     0.020 C 
HETATM   12  C16 UNL     1     -50.197  21.587  28.691  1.00  0.00     0.007 C 
HETATM   13  C17 UNL     1     -50.549  21.045  30.037  1.00  0.00    -0.001 C 
HETATM   14  C18 UNL     1     -50.834  19.566  30.014  1.00  0.00     0.011 C 
HETATM   15  C19 UNL     1     -51.602  21.859  30.745  1.00  0.00     0.128 C 
ENDBRANCH   4   9
ENDBRANCH   1   4
BRANCH   1  16
HETATM   16  C5  UNL     1     -56.071  22.130  30.157  1.00  0.00     0.020 A 
HETATM   17  C6  UNL     1     -56.970  22.955  29.539  1.00  0.00     0.030 A 
HETATM   18  C7  UNL     1     -58.080  22.402  28.969  1.00  0.00    -0.006 A 
HETATM   19  S1  UNL     1     -57.894  20.766  29.275  1.00  0.00    -0.087 SA
HETATM   20  C10 UNL     1     -56.367  20.802  30.146  1.00  0.00     0.093 A 
BRANCH  18  21
HETATM   21  C8  UNL     1     -59.190  23.145  28.240  1.00  0.00     0.159 C 
BRANCH  21  22
HETATM   22  C9  UNL     1     -60.179  22.158  27.803  1.00  0.00     0.177 C 
HETATM   23  O2  UNL     1     -60.120  21.690  26.639  1.00  0.00    -0.648 OA
HETATM   24  O3  UNL     1     -61.203  21.702  28.631  1.00  0.00    -0.648 OA
ENDBRANCH  21  22
ENDBRANCH  18  21
BRANCH  20  25
HETATM   25  C11 UNL     1     -55.694  19.571  30.577  1.00  0.00     0.301 C 
HETATM   26  O4  UNL     1     -54.584  19.158  30.315  1.00  0.00    -0.259 OA
BRANCH  25  27
HETATM   27  O5  UNL     1     -56.434  18.704  31.443  1.00  0.00    -0.317 OA
BRANCH  27  28
HETATM   28  C12 UNL     1     -56.923  17.489  30.874  1.00  0.00     0.174 C 
HETATM   29  C13 UNL     1     -58.222  17.069  31.505  1.00  0.00     0.034 C 
ENDBRANCH  27  28
ENDBRANCH  25  27
ENDBRANCH  20  25
ENDBRANCH   1  16
BRANCH   2  30
HETATM   30  O1  UNL     1     -54.150  23.032  33.134  1.00  0.00    -0.289 OA
ATOM     31  H1  UNL     1     -54.214  23.714  33.792  1.00  0.00     0.244 HD
ENDBRANCH   2  30
TORSDOF 10
ENDMDL
