MODEL 1
REMARK VINA RESULT: -8.196711858      0.000      0.000
REMARK  7 active torsions:
REMARK  status: ('A' for Active; 'I' for Inactive)
REMARK    1  A    between atoms: N1_2  and  N2_3 
REMARK    2  A    between atoms: N1_2  and  C12_23 
REMARK       I    between atoms: N2_3  and  C2_5 
REMARK    3  A    between atoms: C2_5  and  C3_7 
REMARK    4  A    between atoms: C3_7  and  S1_8 
REMARK    5  A    between atoms: S1_8  and  C4_9 
REMARK    6  A    between atoms: C6_14  and  C7_15 
REMARK    7  A    between atoms: N4_19  and  C9_20 
ROOT
HETATM    1  C3  UNL     1     -50.551  19.281  29.696  1.00  0.00     0.186 C 
ENDROOT
BRANCH   1   2
HETATM    2  C2  UNL     1     -49.891  19.787  30.920  1.00  0.00     0.245 C 
HETATM    3  N2  UNL     1     -49.103  18.938  31.738  1.00  0.00    -0.272 N 
ATOM      4  H2  UNL     1     -49.018  17.966  31.438  1.00  0.00     0.189 HD
HETATM    5  O1  UNL     1     -50.070  21.011  31.193  1.00  0.00    -0.271 OA
BRANCH   3   6
HETATM    6  N1  UNL     1     -48.448  19.281  32.880  1.00  0.00    -0.325 N 
HETATM    7  C1  UNL     1     -47.067  19.438  32.814  1.00  0.00     0.171 C 
BRANCH   6   8
HETATM    8  C12 UNL     1     -49.142  19.313  34.093  1.00  0.00     0.102 C 
HETATM    9  C13 UNL     1     -48.723  20.376  35.060  1.00  0.00     0.027 C 
HETATM   10  C14 UNL     1     -49.504  20.405  36.323  1.00  0.00     0.002 C 
HETATM   11  C15 UNL     1     -48.632  20.382  37.550  1.00  0.00     0.000 C 
HETATM   12  C16 UNL     1     -48.872  19.195  38.438  1.00  0.00     0.000 C 
HETATM   13  C17 UNL     1     -48.990  17.881  37.693  1.00  0.00     0.000 C 
HETATM   14  C18 UNL     1     -47.879  17.684  36.725  1.00  0.00     0.000 C 
HETATM   15  C19 UNL     1     -48.246  17.277  35.347  1.00  0.00     0.002 C 
HETATM   16  C20 UNL     1     -49.348  17.959  34.660  1.00  0.00     0.027 C 
ENDBRANCH   6   8
ENDBRANCH   3   6
ENDBRANCH   1   2
BRANCH   1  17
HETATM   17  S1  UNL     1     -52.030  20.125  29.205  1.00  0.00    -0.084 SA
BRANCH  17  18
HETATM   18  C4  UNL     1     -53.546  19.339  29.622  1.00  0.00     0.150 A 
HETATM   19  N3  UNL     1     -53.866  18.076  29.381  1.00  0.00    -0.303 N 
HETATM   20  C5  UNL     1     -55.049  17.545  29.731  1.00  0.00     0.265 A 
ATOM     21  H3  UNL     1     -53.185  17.481  28.910  1.00  0.00     0.171 HD
HETATM   22  O2  UNL     1     -55.294  16.358  29.482  1.00  0.00    -0.267 OA
HETATM   23  C6  UNL     1     -55.999  18.311  30.369  1.00  0.00     0.124 A 
HETATM   24  C8  UNL     1     -55.674  19.619  30.620  1.00  0.00     0.117 A 
HETATM   25  N4  UNL     1     -54.475  20.112  30.254  1.00  0.00    -0.332 N 
BRANCH  23  26
HETATM   26  C7  UNL     1     -57.294  17.736  30.749  1.00  0.00     0.216 C 
HETATM   27  O3  UNL     1     -58.288  17.974  30.020  1.00  0.00    -0.644 OA
HETATM   28  O4  UNL     1     -57.456  16.954  31.856  1.00  0.00    -0.644 OA
ENDBRANCH  23  26
BRANCH  25  29
HETATM   29  C9  UNL     1     -54.240  21.504  30.584  1.00  0.00     0.091 A 
HETATM   30  C10 UNL     1     -55.035  22.099  31.688  1.00  0.00     0.028 A 
HETATM   31  C11 UNL     1     -55.283  22.489  30.244  1.00  0.00     0.028 A 
ENDBRANCH  25  29
ENDBRANCH  17  18
ENDBRANCH   1  17
TORSDOF 7
ENDMDL
MODEL 2
REMARK VINA RESULT: -8.006888377      0.803      1.694
REMARK  7 active torsions:
REMARK  status: ('A' for Active; 'I' for Inactive)
REMARK    1  A    between atoms: N1_2  and  N2_3 
REMARK    2  A    between atoms: N1_2  and  C12_23 
REMARK       I    between atoms: N2_3  and  C2_5 
REMARK    3  A    between atoms: C2_5  and  C3_7 
REMARK    4  A    between atoms: C3_7  and  S1_8 
REMARK    5  A    between atoms: S1_8  and  C4_9 
REMARK    6  A    between atoms: C6_14  and  C7_15 
REMARK    7  A    between atoms: N4_19  and  C9_20 
ROOT
HETATM    1  C3  UNL     1     -50.826  18.913  30.017  1.00  0.00     0.186 C 
ENDROOT
BRANCH   1   2
HETATM    2  C2  UNL     1     -49.896  19.733  30.825  1.00  0.00     0.245 C 
HETATM    3  N2  UNL     1     -48.849  19.139  31.574  1.00  0.00    -0.272 N 
ATOM      4  H2  UNL     1     -48.774  18.123  31.527  1.00  0.00     0.189 HD
HETATM    5  O1  UNL     1     -50.089  20.985  30.808  1.00  0.00    -0.271 OA
BRANCH   3   6
HETATM    6  N1  UNL     1     -47.934  19.781  32.350  1.00  0.00    -0.325 N 
HETATM    7  C1  UNL     1     -47.414  20.983  31.881  1.00  0.00     0.171 C 
BRANCH   6   8
HETATM    8  C12 UNL     1     -47.436  19.153  33.495  1.00  0.00     0.102 C 
HETATM    9  C13 UNL     1     -47.949  17.771  33.760  1.00  0.00     0.027 C 
HETATM   10  C14 UNL     1     -47.373  17.119  34.964  1.00  0.00     0.002 C 
HETATM   11  C15 UNL     1     -48.425  16.582  35.896  1.00  0.00     0.000 C 
HETATM   12  C16 UNL     1     -48.385  17.194  37.267  1.00  0.00     0.000 C 
HETATM   13  C17 UNL     1     -48.216  18.700  37.267  1.00  0.00     0.000 C 
HETATM   14  C18 UNL     1     -49.171  19.370  36.345  1.00  0.00     0.000 C 
HETATM   15  C19 UNL     1     -48.615  20.372  35.405  1.00  0.00     0.002 C 
HETATM   16  C20 UNL     1     -47.388  20.065  34.663  1.00  0.00     0.027 C 
ENDBRANCH   6   8
ENDBRANCH   3   6
ENDBRANCH   1   2
BRANCH   1  17
HETATM   17  S1  UNL     1     -52.228  19.763  29.344  1.00  0.00    -0.084 SA
BRANCH  17  18
HETATM   18  C4  UNL     1     -53.803  19.079  29.720  1.00  0.00     0.150 A 
HETATM   19  N3  UNL     1     -54.214  17.852  29.431  1.00  0.00    -0.303 N 
HETATM   20  C5  UNL     1     -55.437  17.400  29.751  1.00  0.00     0.265 A 
ATOM     21  H3  UNL     1     -53.574  17.225  28.943  1.00  0.00     0.171 HD
HETATM   22  O2  UNL     1     -55.768  16.244  29.457  1.00  0.00    -0.267 OA
HETATM   23  C6  UNL     1     -56.334  18.212  30.408  1.00  0.00     0.124 A 
HETATM   24  C8  UNL     1     -55.914  19.482  30.710  1.00  0.00     0.117 A 
HETATM   25  N4  UNL     1     -54.679  19.897  30.371  1.00  0.00    -0.332 N 
BRANCH  23  26
HETATM   26  C7  UNL     1     -57.672  17.722  30.757  1.00  0.00     0.216 C 
HETATM   27  O3  UNL     1     -58.633  18.029  30.008  1.00  0.00    -0.644 OA
HETATM   28  O4  UNL     1     -57.911  16.949  31.856  1.00  0.00    -0.644 OA
ENDBRANCH  23  26
BRANCH  25  29
HETATM   29  C9  UNL     1     -54.344  21.254  30.753  1.00  0.00     0.091 A 
HETATM   30  C10 UNL     1     -55.299  21.986  31.624  1.00  0.00     0.028 A 
HETATM   31  C11 UNL     1     -55.123  22.358  30.165  1.00  0.00     0.028 A 
ENDBRANCH  25  29
ENDBRANCH  17  18
ENDBRANCH   1  17
TORSDOF 7
ENDMDL
MODEL 3
REMARK VINA RESULT: -7.704537421      3.407      5.382
REMARK  7 active torsions:
REMARK  status: ('A' for Active; 'I' for Inactive)
REMARK    1  A    between atoms: N1_2  and  N2_3 
REMARK    2  A    between atoms: N1_2  and  C12_23 
REMARK       I    between atoms: N2_3  and  C2_5 
REMARK    3  A    between atoms: C2_5  and  C3_7 
REMARK    4  A    between atoms: C3_7  and  S1_8 
REMARK    5  A    between atoms: S1_8  and  C4_9 
REMARK    6  A    between atoms: C6_14  and  C7_15 
REMARK    7  A    between atoms: N4_19  and  C9_20 
ROOT
HETATM    1  C3  UNL     1     -54.443  19.244  30.137  1.00  0.00     0.186 C 
ENDROOT
BRANCH   1   2
HETATM    2  C2  UNL     1     -53.447  20.267  29.748  1.00  0.00     0.245 C 
HETATM    3  N2  UNL     1     -52.173  19.903  29.246  1.00  0.00    -0.272 N 
ATOM      4  H2  UNL     1     -51.981  18.904  29.169  1.00  0.00     0.189 HD
HETATM    5  O1  UNL     1     -53.797  21.477  29.890  1.00  0.00    -0.271 OA
BRANCH   3   6
HETATM    6  N1  UNL     1     -51.177  20.745  28.855  1.00  0.00    -0.325 N 
HETATM    7  C1  UNL     1     -51.232  21.260  27.563  1.00  0.00     0.171 C 
BRANCH   6   8
HETATM    8  C12 UNL     1     -50.071  20.941  29.687  1.00  0.00     0.102 C 
HETATM    9  C13 UNL     1     -49.845  19.895  30.733  1.00  0.00     0.027 C 
HETATM   10  C14 UNL     1     -48.641  20.115  31.577  1.00  0.00     0.002 C 
HETATM   11  C15 UNL     1     -48.944  20.064  33.050  1.00  0.00     0.000 C 
HETATM   12  C16 UNL     1     -48.626  21.340  33.775  1.00  0.00     0.000 C 
HETATM   13  C17 UNL     1     -49.086  22.591  33.055  1.00  0.00     0.000 C 
HETATM   14  C18 UNL     1     -50.503  22.495  32.615  1.00  0.00     0.000 C 
HETATM   15  C19 UNL     1     -50.801  22.857  31.209  1.00  0.00     0.002 C 
HETATM   16  C20 UNL     1     -49.944  22.350  30.133  1.00  0.00     0.027 C 
ENDBRANCH   6   8
ENDBRANCH   3   6
ENDBRANCH   1   2
BRANCH   1  17
HETATM   17  S1  UNL     1     -55.852  19.832  31.036  1.00  0.00    -0.084 SA
BRANCH  17  18
HETATM   18  C4  UNL     1     -57.276  20.220  30.080  1.00  0.00     0.150 A 
HETATM   19  N3  UNL     1     -57.507  21.360  29.446  1.00  0.00    -0.303 N 
HETATM   20  C5  UNL     1     -58.623  21.583  28.733  1.00  0.00     0.265 A 
ATOM     21  H3  UNL     1     -56.808  22.102  29.503  1.00  0.00     0.171 HD
HETATM   22  O2  UNL     1     -58.787  22.668  28.160  1.00  0.00    -0.267 OA
HETATM   23  C6  UNL     1     -59.594  20.612  28.630  1.00  0.00     0.124 A 
HETATM   24  C8  UNL     1     -59.359  19.430  29.284  1.00  0.00     0.117 A 
HETATM   25  N4  UNL     1     -58.227  19.246  29.988  1.00  0.00    -0.332 N 
BRANCH  23  26
HETATM   26  C7  UNL     1     -60.816  20.853  27.855  1.00  0.00     0.216 C 
HETATM   27  O3  UNL     1     -60.897  20.363  26.702  1.00  0.00    -0.644 OA
HETATM   28  O4  UNL     1     -61.863  21.584  28.339  1.00  0.00    -0.644 OA
ENDBRANCH  23  26
BRANCH  25  29
HETATM   29  C9  UNL     1     -58.084  17.952  30.625  1.00  0.00     0.091 A 
HETATM   30  C10 UNL     1     -59.322  17.195  30.943  1.00  0.00     0.028 A 
HETATM   31  C11 UNL     1     -58.482  17.822  32.038  1.00  0.00     0.028 A 
ENDBRANCH  25  29
ENDBRANCH  17  18
ENDBRANCH   1  17
TORSDOF 7
ENDMDL
MODEL 4
REMARK VINA RESULT: -7.608865616      2.840      4.404
REMARK  7 active torsions:
REMARK  status: ('A' for Active; 'I' for Inactive)
REMARK    1  A    between atoms: N1_2  and  N2_3 
REMARK    2  A    between atoms: N1_2  and  C12_23 
REMARK       I    between atoms: N2_3  and  C2_5 
REMARK    3  A    between atoms: C2_5  and  C3_7 
REMARK    4  A    between atoms: C3_7  and  S1_8 
REMARK    5  A    between atoms: S1_8  and  C4_9 
REMARK    6  A    between atoms: C6_14  and  C7_15 
REMARK    7  A    between atoms: N4_19  and  C9_20 
ROOT
HETATM    1  C3  UNL     1     -53.526  20.673  30.093  1.00  0.00     0.186 C 
ENDROOT
BRANCH   1   2
HETATM    2  C2  UNL     1     -52.244  21.367  30.346  1.00  0.00     0.245 C 
HETATM    3  N2  UNL     1     -51.009  20.808  29.933  1.00  0.00    -0.272 N 
ATOM      4  H2  UNL     1     -51.052  19.907  29.456  1.00  0.00     0.189 HD
HETATM    5  O1  UNL     1     -52.314  22.479  30.949  1.00  0.00    -0.271 OA
BRANCH   3   6
HETATM    6  N1  UNL     1     -49.770  21.346  30.105  1.00  0.00    -0.325 N 
HETATM    7  C1  UNL     1     -49.352  22.315  29.199  1.00  0.00     0.171 C 
BRANCH   6   8
HETATM    8  C12 UNL     1     -48.911  20.811  31.069  1.00  0.00     0.102 C 
HETATM    9  C13 UNL     1     -49.290  19.467  31.609  1.00  0.00     0.027 C 
HETATM   10  C14 UNL     1     -48.337  18.911  32.605  1.00  0.00     0.002 C 
HETATM   11  C15 UNL     1     -49.012  18.476  33.878  1.00  0.00     0.000 C 
HETATM   12  C16 UNL     1     -48.524  19.204  35.098  1.00  0.00     0.000 C 
HETATM   13  C17 UNL     1     -48.383  20.700  34.909  1.00  0.00     0.000 C 
HETATM   14  C18 UNL     1     -49.599  21.305  34.303  1.00  0.00     0.000 C 
HETATM   15  C19 UNL     1     -49.400  22.211  33.147  1.00  0.00     0.002 C 
HETATM   16  C20 UNL     1     -48.487  21.820  32.069  1.00  0.00     0.027 C 
ENDBRANCH   6   8
ENDBRANCH   3   6
ENDBRANCH   1   2
BRANCH   1  17
HETATM   17  S1  UNL     1     -54.935  21.297  30.971  1.00  0.00    -0.084 SA
BRANCH  17  18
HETATM   18  C4  UNL     1     -56.472  21.221  30.122  1.00  0.00     0.150 A 
HETATM   19  N3  UNL     1     -57.036  22.202  29.433  1.00  0.00    -0.303 N 
HETATM   20  C5  UNL     1     -58.218  22.068  28.809  1.00  0.00     0.265 A 
ATOM     21  H3  UNL     1     -56.552  23.098  29.373  1.00  0.00     0.171 HD
HETATM   22  O2  UNL     1     -58.698  23.018  28.178  1.00  0.00    -0.267 OA
HETATM   23  C6  UNL     1     -58.907  20.877  28.863  1.00  0.00     0.124 A 
HETATM   24  C8  UNL     1     -58.328  19.858  29.576  1.00  0.00     0.117 A 
HETATM   25  N4  UNL     1     -57.141  20.033  30.185  1.00  0.00    -0.332 N 
BRANCH  23  26
HETATM   26  C7  UNL     1     -60.200  20.728  28.187  1.00  0.00     0.216 C 
HETATM   27  O3  UNL     1     -60.228  20.141  27.077  1.00  0.00    -0.644 OA
HETATM   28  O4  UNL     1     -61.367  21.198  28.718  1.00  0.00    -0.644 OA
ENDBRANCH  23  26
BRANCH  25  29
HETATM   29  C9  UNL     1     -56.622  18.882  30.897  1.00  0.00     0.091 A 
HETATM   30  C10 UNL     1     -56.515  17.599  30.156  1.00  0.00     0.028 A 
HETATM   31  C11 UNL     1     -57.556  17.794  31.240  1.00  0.00     0.028 A 
ENDBRANCH  25  29
ENDBRANCH  17  18
ENDBRANCH   1  17
TORSDOF 7
ENDMDL
MODEL 5
REMARK VINA RESULT: -7.593913560      4.296      6.035
REMARK  7 active torsions:
REMARK  status: ('A' for Active; 'I' for Inactive)
REMARK    1  A    between atoms: N1_2  and  N2_3 
REMARK    2  A    between atoms: N1_2  and  C12_23 
REMARK       I    between atoms: N2_3  and  C2_5 
REMARK    3  A    between atoms: C2_5  and  C3_7 
REMARK    4  A    between atoms: C3_7  and  S1_8 
REMARK    5  A    between atoms: S1_8  and  C4_9 
REMARK    6  A    between atoms: C6_14  and  C7_15 
REMARK    7  A    between atoms: N4_19  and  C9_20 
ROOT
HETATM    1  C3  UNL     1     -54.645  21.365  31.019  1.00  0.00     0.186 C 
ENDROOT
BRANCH   1   2
HETATM    2  C2  UNL     1     -53.657  21.478  29.924  1.00  0.00     0.245 C 
HETATM    3  N2  UNL     1     -52.508  20.649  29.878  1.00  0.00    -0.272 N 
ATOM      4  H2  UNL     1     -52.401  19.976  30.637  1.00  0.00     0.189 HD
HETATM    5  O1  UNL     1     -53.895  22.353  29.038  1.00  0.00    -0.271 OA
BRANCH   3   6
HETATM    6  N1  UNL     1     -51.532  20.656  28.929  1.00  0.00    -0.325 N 
HETATM    7  C1  UNL     1     -51.791  20.004  27.728  1.00  0.00     0.171 C 
BRANCH   6   8
HETATM    8  C12 UNL     1     -50.270  21.171  29.239  1.00  0.00     0.102 C 
HETATM    9  C13 UNL     1     -49.801  20.953  30.644  1.00  0.00     0.027 C 
HETATM   10  C14 UNL     1     -48.441  21.481  30.929  1.00  0.00     0.002 C 
HETATM   11  C15 UNL     1     -48.404  22.371  32.142  1.00  0.00     0.000 C 
HETATM   12  C16 UNL     1     -47.947  23.771  31.847  1.00  0.00     0.000 C 
HETATM   13  C17 UNL     1     -48.573  24.378  30.608  1.00  0.00     0.000 C 
HETATM   14  C18 UNL     1     -50.052  24.219  30.593  1.00  0.00     0.000 C 
HETATM   15  C19 UNL     1     -50.664  23.691  29.351  1.00  0.00     0.002 C 
HETATM   16  C20 UNL     1     -50.064  22.531  28.685  1.00  0.00     0.027 C 
ENDBRANCH   6   8
ENDBRANCH   3   6
ENDBRANCH   1   2
BRANCH   1  17
HETATM   17  S1  UNL     1     -55.798  20.024  30.891  1.00  0.00    -0.084 SA
BRANCH  17  18
HETATM   18  C4  UNL     1     -57.265  20.347  29.978  1.00  0.00     0.150 A 
HETATM   19  N3  UNL     1     -57.556  21.468  29.334  1.00  0.00    -0.303 N 
HETATM   20  C5  UNL     1     -58.703  21.641  28.657  1.00  0.00     0.265 A 
ATOM     21  H3  UNL     1     -56.881  22.232  29.353  1.00  0.00     0.171 HD
HETATM   22  O2  UNL     1     -58.923  22.710  28.071  1.00  0.00    -0.267 OA
HETATM   23  C6  UNL     1     -59.643  20.637  28.604  1.00  0.00     0.124 A 
HETATM   24  C8  UNL     1     -59.348  19.475  29.269  1.00  0.00     0.117 A 
HETATM   25  N4  UNL     1     -58.186  19.342  29.936  1.00  0.00    -0.332 N 
BRANCH  23  26
HETATM   26  C7  UNL     1     -60.899  20.824  27.868  1.00  0.00     0.216 C 
HETATM   27  O3  UNL     1     -61.032  20.249  26.760  1.00  0.00    -0.644 OA
HETATM   28  O4  UNL     1     -61.923  21.593  28.342  1.00  0.00    -0.644 OA
ENDBRANCH  23  26
BRANCH  25  29
HETATM   29  C9  UNL     1     -57.978  18.065  30.590  1.00  0.00     0.091 A 
HETATM   30  C10 UNL     1     -59.176  17.248  30.913  1.00  0.00     0.028 A 
HETATM   31  C11 UNL     1     -58.375  17.931  32.003  1.00  0.00     0.028 A 
ENDBRANCH  25  29
ENDBRANCH  17  18
ENDBRANCH   1  17
TORSDOF 7
ENDMDL
