MODEL 1
REMARK VINA RESULT: -6.861352512      0.000      0.000
REMARK  10 active torsions:
REMARK  status: ('A' for Active; 'I' for Inactive)
REMARK    1  A    between atoms: C2_2  and  C4_4 
REMARK    2  A    between atoms: C5_5  and  C6_6 
REMARK    3  A    between atoms: C6_6  and  O1_7 
REMARK    4  A    between atoms: C10_13  and  C11_14 
REMARK    5  A    between atoms: C11_14  and  O3_15 
REMARK    6  A    between atoms: O3_15  and  C12_16 
REMARK    7  A    between atoms: C12_16  and  C13_18 
REMARK    8  A    between atoms: C13_18  and  C14_19 
REMARK    9  A    between atoms: C20_26  and  C21_27 
REMARK   10  A    between atoms: C23_30  and  O7_31 
ROOT
HETATM    1  C6  UNL     1     -52.001  23.138  31.605  1.00  0.00     0.141 C 
HETATM    2  C7  UNL     1     -51.675  24.450  30.997  1.00  0.00     0.126 C 
HETATM    3  C8  UNL     1     -51.882  24.547  29.546  1.00  0.00     0.133 C 
HETATM    4  O2  UNL     1     -51.981  25.656  29.050  1.00  0.00    -0.298 OA
HETATM    5  C9  UNL     1     -51.978  23.376  28.645  1.00  0.00     0.124 C 
HETATM    6  C10 UNL     1     -52.808  22.334  29.348  1.00  0.00     0.149 C 
HETATM    7  O5  UNL     1     -52.951  21.253  28.563  1.00  0.00    -0.359 OA
HETATM    8  C17 UNL     1     -52.032  20.236  28.638  1.00  0.00     0.081 C 
HETATM    9  C18 UNL     1     -52.799  18.985  28.998  1.00  0.00     0.048 C 
HETATM   10  C19 UNL     1     -51.608  20.038  27.165  1.00  0.00     0.048 C 
HETATM   11  C20 UNL     1     -50.827  20.497  29.430  1.00  0.00     0.159 C 
HETATM   12  O6  UNL     1     -50.918  21.478  30.396  1.00  0.00    -0.341 OA
HETATM   13  C23 UNL     1     -52.149  21.996  30.644  1.00  0.00     0.233 C 
ENDROOT
BRANCH   6  14
HETATM   14  C11 UNL     1     -54.174  22.912  29.626  1.00  0.00     0.223 C 
BRANCH  14  15
HETATM   15  O3  UNL     1     -55.197  21.929  29.387  1.00  0.00    -0.318 OA
BRANCH  15  16
HETATM   16  C12 UNL     1     -55.883  21.358  30.450  1.00  0.00     0.259 C 
HETATM   17  O4  UNL     1     -55.556  21.768  31.600  1.00  0.00    -0.265 OA
BRANCH  16  18
HETATM   18  C13 UNL     1     -56.932  20.342  30.338  1.00  0.00     0.115 C 
BRANCH  18  19
HETATM   19  C14 UNL     1     -56.680  19.156  31.264  1.00  0.00    -0.013 C 
HETATM   20  C15 UNL     1     -55.888  18.130  30.490  1.00  0.00     0.010 C 
HETATM   21  C16 UNL     1     -57.985  18.505  31.662  1.00  0.00     0.010 C 
ENDBRANCH  18  19
ENDBRANCH  16  18
ENDBRANCH  15  16
ENDBRANCH  14  15
ENDBRANCH   6  14
BRANCH  13  22
HETATM   22  O7  UNL     1     -52.886  21.008  31.340  1.00  0.00    -0.360 OA
ATOM     23  H7  UNL     1     -53.651  20.835  30.803  1.00  0.00     0.213 HD
ENDBRANCH  13  22
BRANCH   1  24
HETATM   24  C5  UNL     1     -50.912  22.780  32.556  1.00  0.00     0.017 C 
HETATM   25  C4  UNL     1     -50.993  23.032  33.851  1.00  0.00     0.005 C 
BRANCH  25  26
HETATM   26  C2  UNL     1     -49.948  22.690  34.778  1.00  0.00    -0.072 C 
HETATM   27  C1  UNL     1     -49.486  23.563  35.660  1.00  0.00     0.018 C 
HETATM   28  C3  UNL     1     -49.356  21.327  34.759  1.00  0.00     0.047 C 
ENDBRANCH  25  26
ENDBRANCH   1  24
BRANCH   1  29
HETATM   29  O1  UNL     1     -53.169  23.199  32.387  1.00  0.00    -0.380 OA
ATOM     30  H1  UNL     1     -52.911  23.642  33.186  1.00  0.00     0.211 HD
ENDBRANCH   1  29
BRANCH  11  31
HETATM   31  C21 UNL     1     -50.218  19.293  30.130  1.00  0.00     0.030 C 
HETATM   32  C22 UNL     1     -49.358  19.635  31.296  1.00  0.00     0.007 C 
ENDBRANCH  11  31
TORSDOF 10
ENDMDL
MODEL 2
REMARK VINA RESULT: -6.803358706      1.877      6.011
REMARK  10 active torsions:
REMARK  status: ('A' for Active; 'I' for Inactive)
REMARK    1  A    between atoms: C2_2  and  C4_4 
REMARK    2  A    between atoms: C5_5  and  C6_6 
REMARK    3  A    between atoms: C6_6  and  O1_7 
REMARK    4  A    between atoms: C10_13  and  C11_14 
REMARK    5  A    between atoms: C11_14  and  O3_15 
REMARK    6  A    between atoms: O3_15  and  C12_16 
REMARK    7  A    between atoms: C12_16  and  C13_18 
REMARK    8  A    between atoms: C13_18  and  C14_19 
REMARK    9  A    between atoms: C20_26  and  C21_27 
REMARK   10  A    between atoms: C23_30  and  O7_31 
ROOT
HETATM    1  C6  UNL     1     -54.716  22.267  30.615  1.00  0.00     0.141 C 
HETATM    2  C7  UNL     1     -54.958  22.679  32.018  1.00  0.00     0.126 C 
HETATM    3  C8  UNL     1     -53.843  23.368  32.679  1.00  0.00     0.133 C 
HETATM    4  O2  UNL     1     -54.083  24.036  33.670  1.00  0.00    -0.298 OA
HETATM    5  C9  UNL     1     -52.439  23.302  32.214  1.00  0.00     0.124 C 
HETATM    6  C10 UNL     1     -52.458  23.397  30.711  1.00  0.00     0.149 C 
HETATM    7  O5  UNL     1     -51.202  23.368  30.232  1.00  0.00    -0.359 OA
HETATM    8  C17 UNL     1     -50.627  22.162  29.915  1.00  0.00     0.081 C 
HETATM    9  C18 UNL     1     -50.241  22.235  28.456  1.00  0.00     0.048 C 
HETATM   10  C19 UNL     1     -49.288  22.200  30.687  1.00  0.00     0.048 C 
HETATM   11  C20 UNL     1     -51.357  20.958  30.324  1.00  0.00     0.159 C 
HETATM   12  O6  UNL     1     -52.715  21.094  30.528  1.00  0.00    -0.341 OA
HETATM   13  C23 UNL     1     -53.283  22.275  30.173  1.00  0.00     0.233 C 
ENDROOT
BRANCH   6  14
HETATM   14  C11 UNL     1     -53.092  24.709  30.318  1.00  0.00     0.223 C 
BRANCH  14  15
HETATM   15  O3  UNL     1     -52.381  25.305  29.219  1.00  0.00    -0.318 OA
BRANCH  15  16
HETATM   16  C12 UNL     1     -51.922  26.612  29.306  1.00  0.00     0.259 C 
HETATM   17  O4  UNL     1     -52.719  27.441  29.832  1.00  0.00    -0.265 OA
BRANCH  16  18
HETATM   18  C13 UNL     1     -50.616  27.088  28.845  1.00  0.00     0.115 C 
BRANCH  18  19
HETATM   19  C14 UNL     1     -49.526  26.039  29.036  1.00  0.00    -0.013 C 
HETATM   20  C15 UNL     1     -49.082  26.094  30.477  1.00  0.00     0.010 C 
HETATM   21  C16 UNL     1     -48.319  26.364  28.185  1.00  0.00     0.010 C 
ENDBRANCH  18  19
ENDBRANCH  16  18
ENDBRANCH  15  16
ENDBRANCH  14  15
ENDBRANCH   6  14
BRANCH  13  22
HETATM   22  O7  UNL     1     -53.322  22.313  28.758  1.00  0.00    -0.360 OA
ATOM     23  H7  UNL     1     -52.526  21.883  28.470  1.00  0.00     0.213 HD
ENDBRANCH  13  22
BRANCH   1  24
HETATM   24  C5  UNL     1     -55.226  20.877  30.441  1.00  0.00     0.017 C 
HETATM   25  C4  UNL     1     -56.112  20.342  31.263  1.00  0.00     0.005 C 
BRANCH  25  26
HETATM   26  C2  UNL     1     -56.610  19.002  31.104  1.00  0.00    -0.072 C 
HETATM   27  C1  UNL     1     -57.729  18.601  31.688  1.00  0.00     0.018 C 
HETATM   28  C3  UNL     1     -55.864  18.028  30.266  1.00  0.00     0.047 C 
ENDBRANCH  25  26
ENDBRANCH   1  24
BRANCH   1  29
HETATM   29  O1  UNL     1     -55.453  23.047  29.704  1.00  0.00    -0.380 OA
ATOM     30  H1  UNL     1     -55.901  23.694  30.237  1.00  0.00     0.211 HD
ENDBRANCH   1  29
BRANCH  11  31
HETATM   31  C21 UNL     1     -51.201  19.747  29.420  1.00  0.00     0.030 C 
HETATM   32  C22 UNL     1     -52.410  18.884  29.342  1.00  0.00     0.007 C 
ENDBRANCH  11  31
TORSDOF 10
ENDMDL
MODEL 3
REMARK VINA RESULT: -6.578158765      2.298      5.286
REMARK  10 active torsions:
REMARK  status: ('A' for Active; 'I' for Inactive)
REMARK    1  A    between atoms: C2_2  and  C4_4 
REMARK    2  A    between atoms: C5_5  and  C6_6 
REMARK    3  A    between atoms: C6_6  and  O1_7 
REMARK    4  A    between atoms: C10_13  and  C11_14 
REMARK    5  A    between atoms: C11_14  and  O3_15 
REMARK    6  A    between atoms: O3_15  and  C12_16 
REMARK    7  A    between atoms: C12_16  and  C13_18 
REMARK    8  A    between atoms: C13_18  and  C14_19 
REMARK    9  A    between atoms: C20_26  and  C21_27 
REMARK   10  A    between atoms: C23_30  and  O7_31 
ROOT
HETATM    1  C6  UNL     1     -54.742  21.849  30.520  1.00  0.00     0.141 C 
HETATM    2  C7  UNL     1     -55.084  22.338  31.877  1.00  0.00     0.126 C 
HETATM    3  C8  UNL     1     -54.117  23.263  32.482  1.00  0.00     0.133 C 
HETATM    4  O2  UNL     1     -54.490  23.966  33.405  1.00  0.00    -0.298 OA
HETATM    5  C9  UNL     1     -52.710  23.394  32.038  1.00  0.00     0.124 C 
HETATM    6  C10 UNL     1     -52.708  23.350  30.532  1.00  0.00     0.149 C 
HETATM    7  O5  UNL     1     -51.454  23.492  30.070  1.00  0.00    -0.359 OA
HETATM    8  C17 UNL     1     -50.677  22.377  29.871  1.00  0.00     0.081 C 
HETATM    9  C18 UNL     1     -50.273  22.384  28.415  1.00  0.00     0.048 C 
HETATM   10  C19 UNL     1     -49.383  22.710  30.648  1.00  0.00     0.048 C 
HETATM   11  C20 UNL     1     -51.204  21.109  30.382  1.00  0.00     0.159 C 
HETATM   12  O6  UNL     1     -52.570  21.029  30.561  1.00  0.00    -0.341 OA
HETATM   13  C23 UNL     1     -53.320  22.061  30.093  1.00  0.00     0.233 C 
ENDROOT
BRANCH   6  14
HETATM   14  C11 UNL     1     -53.544  24.495  30.014  1.00  0.00     0.223 C 
BRANCH  14  15
HETATM   15  O3  UNL     1     -53.059  25.748  30.526  1.00  0.00    -0.318 OA
BRANCH  15  16
HETATM   16  C12 UNL     1     -53.927  26.637  31.145  1.00  0.00     0.259 C 
HETATM   17  O4  UNL     1     -53.492  27.189  32.196  1.00  0.00    -0.265 OA
BRANCH  16  18
HETATM   18  C13 UNL     1     -55.274  26.973  30.680  1.00  0.00     0.115 C 
BRANCH  18  19
HETATM   19  C14 UNL     1     -56.332  26.055  31.283  1.00  0.00    -0.013 C 
HETATM   20  C15 UNL     1     -57.261  25.634  30.170  1.00  0.00     0.010 C 
HETATM   21  C16 UNL     1     -57.165  26.799  32.302  1.00  0.00     0.010 C 
ENDBRANCH  18  19
ENDBRANCH  16  18
ENDBRANCH  15  16
ENDBRANCH  14  15
ENDBRANCH   6  14
BRANCH  13  22
HETATM   22  O7  UNL     1     -53.330  21.965  28.681  1.00  0.00    -0.360 OA
ATOM     23  H7  UNL     1     -54.086  21.430  28.467  1.00  0.00     0.213 HD
ENDBRANCH  13  22
BRANCH   1  24
HETATM   24  C5  UNL     1     -55.006  20.383  30.472  1.00  0.00     0.017 C 
HETATM   25  C4  UNL     1     -56.147  19.857  30.884  1.00  0.00     0.005 C 
BRANCH  25  26
HETATM   26  C2  UNL     1     -56.412  18.444  30.840  1.00  0.00    -0.072 C 
HETATM   27  C1  UNL     1     -55.604  17.603  30.214  1.00  0.00     0.018 C 
HETATM   28  C3  UNL     1     -57.619  17.894  31.511  1.00  0.00     0.047 C 
ENDBRANCH  25  26
ENDBRANCH   1  24
BRANCH   1  29
HETATM   29  O1  UNL     1     -55.577  22.408  29.535  1.00  0.00    -0.380 OA
ATOM     30  H1  UNL     1     -55.238  23.283  29.390  1.00  0.00     0.211 HD
ENDBRANCH   1  29
BRANCH  11  31
HETATM   31  C21 UNL     1     -50.824  19.866  29.596  1.00  0.00     0.030 C 
HETATM   32  C22 UNL     1     -51.894  18.832  29.534  1.00  0.00     0.007 C 
ENDBRANCH  11  31
TORSDOF 10
ENDMDL
MODEL 4
REMARK VINA RESULT: -6.396214184      1.964      5.835
REMARK  10 active torsions:
REMARK  status: ('A' for Active; 'I' for Inactive)
REMARK    1  A    between atoms: C2_2  and  C4_4 
REMARK    2  A    between atoms: C5_5  and  C6_6 
REMARK    3  A    between atoms: C6_6  and  O1_7 
REMARK    4  A    between atoms: C10_13  and  C11_14 
REMARK    5  A    between atoms: C11_14  and  O3_15 
REMARK    6  A    between atoms: O3_15  and  C12_16 
REMARK    7  A    between atoms: C12_16  and  C13_18 
REMARK    8  A    between atoms: C13_18  and  C14_19 
REMARK    9  A    between atoms: C20_26  and  C21_27 
REMARK   10  A    between atoms: C23_30  and  O7_31 
ROOT
HETATM    1  C6  UNL     1     -54.775  21.972  30.535  1.00  0.00     0.141 C 
HETATM    2  C7  UNL     1     -55.062  22.484  31.897  1.00  0.00     0.126 C 
HETATM    3  C8  UNL     1     -54.037  23.364  32.473  1.00  0.00     0.133 C 
HETATM    4  O2  UNL     1     -54.355  24.089  33.400  1.00  0.00    -0.298 OA
HETATM    5  C9  UNL     1     -52.637  23.424  31.997  1.00  0.00     0.124 C 
HETATM    6  C10 UNL     1     -52.671  23.372  30.492  1.00  0.00     0.149 C 
HETATM    7  O5  UNL     1     -51.423  23.450  30.000  1.00  0.00    -0.359 OA
HETATM    8  C17 UNL     1     -50.705  22.298  29.791  1.00  0.00     0.081 C 
HETATM    9  C18 UNL     1     -50.335  22.278  28.326  1.00  0.00     0.048 C 
HETATM   10  C19 UNL     1     -49.379  22.572  30.536  1.00  0.00     0.048 C 
HETATM   11  C20 UNL     1     -51.281  21.059  30.322  1.00  0.00     0.159 C 
HETATM   12  O6  UNL     1     -52.645  21.048  30.531  1.00  0.00    -0.341 OA
HETATM   13  C23 UNL     1     -53.354  22.112  30.075  1.00  0.00     0.233 C 
ENDROOT
BRANCH   6  14
HETATM   14  C11 UNL     1     -53.462  24.553  29.986  1.00  0.00     0.223 C 
BRANCH  14  15
HETATM   15  O3  UNL     1     -52.611  25.702  29.826  1.00  0.00    -0.318 OA
BRANCH  15  16
HETATM   16  C12 UNL     1     -52.990  26.934  30.340  1.00  0.00     0.259 C 
HETATM   17  O4  UNL     1     -53.067  27.878  29.503  1.00  0.00    -0.265 OA
BRANCH  16  18
HETATM   18  C13 UNL     1     -53.300  27.212  31.744  1.00  0.00     0.115 C 
BRANCH  18  19
HETATM   19  C14 UNL     1     -52.101  26.966  32.654  1.00  0.00    -0.013 C 
HETATM   20  C15 UNL     1     -52.564  27.139  34.079  1.00  0.00     0.010 C 
HETATM   21  C16 UNL     1     -51.024  27.998  32.406  1.00  0.00     0.010 C 
ENDBRANCH  18  19
ENDBRANCH  16  18
ENDBRANCH  15  16
ENDBRANCH  14  15
ENDBRANCH   6  14
BRANCH  13  22
HETATM   22  O7  UNL     1     -53.401  22.010  28.663  1.00  0.00    -0.360 OA
ATOM     23  H7  UNL     1     -52.779  22.651  28.340  1.00  0.00     0.213 HD
ENDBRANCH  13  22
BRANCH   1  24
HETATM   24  C5  UNL     1     -55.111  20.520  30.501  1.00  0.00     0.017 C 
HETATM   25  C4  UNL     1     -56.235  20.044  31.008  1.00  0.00     0.005 C 
BRANCH  25  26
HETATM   26  C2  UNL     1     -56.569  18.645  30.980  1.00  0.00    -0.072 C 
HETATM   27  C1  UNL     1     -55.804  17.759  30.361  1.00  0.00     0.018 C 
HETATM   28  C3  UNL     1     -57.800  18.162  31.658  1.00  0.00     0.047 C 
ENDBRANCH  25  26
ENDBRANCH   1  24
BRANCH   1  29
HETATM   29  O1  UNL     1     -55.604  22.566  29.566  1.00  0.00    -0.380 OA
ATOM     30  H1  UNL     1     -55.306  23.465  29.501  1.00  0.00     0.211 HD
ENDBRANCH   1  29
BRANCH  11  31
HETATM   31  C21 UNL     1     -50.980  19.796  29.534  1.00  0.00     0.030 C 
HETATM   32  C22 UNL     1     -52.096  18.811  29.510  1.00  0.00     0.007 C 
ENDBRANCH  11  31
TORSDOF 10
ENDMDL
MODEL 5
REMARK VINA RESULT: -6.337906510      0.869      1.109
REMARK  10 active torsions:
REMARK  status: ('A' for Active; 'I' for Inactive)
REMARK    1  A    between atoms: C2_2  and  C4_4 
REMARK    2  A    between atoms: C5_5  and  C6_6 
REMARK    3  A    between atoms: C6_6  and  O1_7 
REMARK    4  A    between atoms: C10_13  and  C11_14 
REMARK    5  A    between atoms: C11_14  and  O3_15 
REMARK    6  A    between atoms: O3_15  and  C12_16 
REMARK    7  A    between atoms: C12_16  and  C13_18 
REMARK    8  A    between atoms: C13_18  and  C14_19 
REMARK    9  A    between atoms: C20_26  and  C21_27 
REMARK   10  A    between atoms: C23_30  and  O7_31 
ROOT
HETATM    1  C6  UNL     1     -52.555  23.390  31.900  1.00  0.00     0.141 C 
HETATM    2  C7  UNL     1     -52.419  24.812  31.502  1.00  0.00     0.126 C 
HETATM    3  C8  UNL     1     -52.478  25.076  30.059  1.00  0.00     0.133 C 
HETATM    4  O2  UNL     1     -52.731  26.210  29.690  1.00  0.00    -0.298 OA
HETATM    5  C9  UNL     1     -52.247  24.046  29.021  1.00  0.00     0.124 C 
HETATM    6  C10 UNL     1     -52.936  22.787  29.476  1.00  0.00     0.149 C 
HETATM    7  O5  UNL     1     -52.782  21.820  28.555  1.00  0.00    -0.359 OA
HETATM    8  C17 UNL     1     -51.700  20.978  28.633  1.00  0.00     0.081 C 
HETATM    9  C18 UNL     1     -52.249  19.574  28.734  1.00  0.00     0.048 C 
HETATM   10  C19 UNL     1     -51.084  21.068  27.219  1.00  0.00     0.048 C 
HETATM   11  C20 UNL     1     -50.663  21.330  29.608  1.00  0.00     0.159 C 
HETATM   12  O6  UNL     1     -51.047  22.133  30.662  1.00  0.00    -0.341 OA
HETATM   13  C23 UNL     1     -52.374  22.388  30.799  1.00  0.00     0.233 C 
ENDROOT
BRANCH   6  14
HETATM   14  C11 UNL     1     -54.410  23.072  29.631  1.00  0.00     0.223 C 
BRANCH  14  15
HETATM   15  O3  UNL     1     -55.187  21.903  29.320  1.00  0.00    -0.318 OA
BRANCH  15  16
HETATM   16  C12 UNL     1     -56.320  21.594  30.060  1.00  0.00     0.259 C 
HETATM   17  O4  UNL     1     -57.368  22.231  29.752  1.00  0.00    -0.265 OA
BRANCH  16  18
HETATM   18  C13 UNL     1     -56.387  20.611  31.143  1.00  0.00     0.115 C 
BRANCH  18  19
HETATM   19  C14 UNL     1     -56.853  19.246  30.649  1.00  0.00    -0.013 C 
HETATM   20  C15 UNL     1     -57.683  18.621  31.743  1.00  0.00     0.010 C 
HETATM   21  C16 UNL     1     -55.672  18.335  30.408  1.00  0.00     0.010 C 
ENDBRANCH  18  19
ENDBRANCH  16  18
ENDBRANCH  15  16
ENDBRANCH  14  15
ENDBRANCH   6  14
BRANCH  13  22
HETATM   22  O7  UNL     1     -52.982  21.198  31.266  1.00  0.00    -0.360 OA
ATOM     23  H7  UNL     1     -52.328  20.517  31.157  1.00  0.00     0.213 HD
ENDBRANCH  13  22
BRANCH   1  24
HETATM   24  C5  UNL     1     -51.531  23.096  32.942  1.00  0.00     0.017 C 
HETATM   25  C4  UNL     1     -51.650  23.517  34.189  1.00  0.00     0.005 C 
BRANCH  25  26
HETATM   26  C2  UNL     1     -50.667  23.239  35.201  1.00  0.00    -0.072 C 
HETATM   27  C1  UNL     1     -50.547  23.995  36.282  1.00  0.00     0.018 C 
HETATM   28  C3  UNL     1     -49.754  22.077  35.049  1.00  0.00     0.047 C 
ENDBRANCH  25  26
ENDBRANCH   1  24
BRANCH   1  29
HETATM   29  O1  UNL     1     -53.793  23.135  32.518  1.00  0.00    -0.380 OA
ATOM     30  H1  UNL     1     -53.779  23.640  33.322  1.00  0.00     0.211 HD
ENDBRANCH   1  29
BRANCH  11  31
HETATM   31  C21 UNL     1     -49.918  20.164  30.235  1.00  0.00     0.030 C 
HETATM   32  C22 UNL     1     -49.216  20.501  31.504  1.00  0.00     0.007 C 
ENDBRANCH  11  31
TORSDOF 10
ENDMDL
