MODEL 1
REMARK VINA RESULT: -6.812864666      0.000      0.000
REMARK  12 active torsions:
REMARK  status: ('A' for Active; 'I' for Inactive)
REMARK    1  A    between atoms: C4_4  and  C5_5 
REMARK    2  A    between atoms: C6_6  and  C7_7 
REMARK    3  A    between atoms: C7_7  and  C9_9 
REMARK    4  A    between atoms: C9_9  and  C11_11 
REMARK    5  A    between atoms: C9_9  and  C20_25 
REMARK    6  A    between atoms: C11_11  and  C12_13 
REMARK    7  A    between atoms: C12_13  and  O2_14 
REMARK    8  A    between atoms: O2_14  and  C13_15 
REMARK    9  A    between atoms: C13_15  and  C14_17 
REMARK   10  A    between atoms: C14_17  and  O4_19 
REMARK   11  A    between atoms: C14_17  and  C16_21 
REMARK   12  A    between atoms: C20_25  and  O5_26 
ROOT
HETATM    1  C9  UNL     1     -50.964  22.297  30.646  1.00  0.00     0.102 C 
HETATM    2  C10 UNL     1     -50.584  23.407  29.633  1.00  0.00     0.034 C 
ENDROOT
BRANCH   1   3
HETATM    3  C7  UNL     1     -52.273  22.677  31.244  1.00  0.00    -0.062 C 
HETATM    4  C8  UNL     1     -52.264  23.847  32.145  1.00  0.00     0.045 C 
BRANCH   3   5
HETATM    5  C6  UNL     1     -53.404  22.646  30.332  1.00  0.00     0.004 C 
HETATM    6  C5  UNL     1     -54.495  21.976  30.242  1.00  0.00     0.001 C 
BRANCH   6   7
HETATM    7  C4  UNL     1     -55.074  20.937  31.043  1.00  0.00     0.002 C 
HETATM    8  C2  UNL     1     -56.348  20.539  30.858  1.00  0.00    -0.088 C 
HETATM    9  C1  UNL     1     -56.968  19.474  31.667  1.00  0.00     0.043 C 
HETATM   10  C3  UNL     1     -57.116  21.224  29.796  1.00  0.00     0.043 C 
ENDBRANCH   6   7
ENDBRANCH   3   5
ENDBRANCH   1   3
BRANCH   1  11
HETATM   11  C11 UNL     1     -49.921  22.363  31.700  1.00  0.00     0.169 C 
HETATM   12  O1  UNL     1     -48.891  22.999  31.445  1.00  0.00    -0.294 OA
BRANCH  11  13
HETATM   13  C12 UNL     1     -50.011  21.734  33.026  1.00  0.00     0.258 C 
BRANCH  13  14
HETATM   14  O2  UNL     1     -48.862  20.922  33.280  1.00  0.00    -0.312 OA
BRANCH  14  15
HETATM   15  C13 UNL     1     -48.999  19.556  33.457  1.00  0.00     0.294 C 
HETATM   16  O3  UNL     1     -49.152  18.849  32.449  1.00  0.00    -0.262 OA
BRANCH  15  17
HETATM   17  C14 UNL     1     -48.954  19.027  34.843  1.00  0.00     0.148 C 
HETATM   18  C15 UNL     1     -48.572  20.142  35.777  1.00  0.00     0.057 C 
BRANCH  17  19
HETATM   19  O4  UNL     1     -50.182  18.535  35.236  1.00  0.00    -0.379 OA
ATOM     20  H4  UNL     1     -50.091  17.734  35.739  1.00  0.00     0.211 HD
ENDBRANCH  17  19
BRANCH  17  21
HETATM   21  C16 UNL     1     -47.936  17.922  34.995  1.00  0.00    -0.011 C 
HETATM   22  C17 UNL     1     -47.754  17.693  36.485  1.00  0.00     0.018 C 
HETATM   23  C18 UNL     1     -46.605  18.303  34.371  1.00  0.00     0.018 C 
HETATM   24  C19 UNL     1     -48.372  16.629  34.366  1.00  0.00     0.018 C 
ENDBRANCH  17  21
ENDBRANCH  15  17
ENDBRANCH  14  15
ENDBRANCH  13  14
ENDBRANCH  11  13
ENDBRANCH   1  11
BRANCH   1  25
HETATM   25  C20 UNL     1     -50.845  21.024  29.918  1.00  0.00     0.209 A 
HETATM   26  C21 UNL     1     -50.967  21.092  28.447  1.00  0.00     0.048 A 
HETATM   27  C22 UNL     1     -51.719  20.069  28.084  1.00  0.00     0.083 A 
HETATM   28  C23 UNL     1     -52.122  19.302  29.253  1.00  0.00     0.285 A 
HETATM   29  O6  UNL     1     -52.847  18.255  29.237  1.00  0.00    -0.260 OA
HETATM   30  O7  UNL     1     -51.567  19.934  30.349  1.00  0.00    -0.275 OA
BRANCH  25  31
HETATM   31  O5  UNL     1     -49.468  20.634  30.107  1.00  0.00    -0.361 OA
ATOM     32  H5  UNL     1     -49.512  19.705  30.301  1.00  0.00     0.213 HD
ENDBRANCH  25  31
ENDBRANCH   1  25
TORSDOF 12
ENDMDL
MODEL 2
REMARK VINA RESULT: -6.766276187      1.132      1.815
REMARK  12 active torsions:
REMARK  status: ('A' for Active; 'I' for Inactive)
REMARK    1  A    between atoms: C4_4  and  C5_5 
REMARK    2  A    between atoms: C6_6  and  C7_7 
REMARK    3  A    between atoms: C7_7  and  C9_9 
REMARK    4  A    between atoms: C9_9  and  C11_11 
REMARK    5  A    between atoms: C9_9  and  C20_25 
REMARK    6  A    between atoms: C11_11  and  C12_13 
REMARK    7  A    between atoms: C12_13  and  O2_14 
REMARK    8  A    between atoms: O2_14  and  C13_15 
REMARK    9  A    between atoms: C13_15  and  C14_17 
REMARK   10  A    between atoms: C14_17  and  O4_19 
REMARK   11  A    between atoms: C14_17  and  C16_21 
REMARK   12  A    between atoms: C20_25  and  O5_26 
ROOT
HETATM    1  C9  UNL     1     -51.129  22.254  30.433  1.00  0.00     0.102 C 
HETATM    2  C10 UNL     1     -50.864  23.369  29.389  1.00  0.00     0.034 C 
ENDROOT
BRANCH   1   3
HETATM    3  C7  UNL     1     -52.400  22.596  31.129  1.00  0.00    -0.062 C 
HETATM    4  C8  UNL     1     -52.341  23.724  32.078  1.00  0.00     0.045 C 
BRANCH   3   5
HETATM    5  C6  UNL     1     -53.586  22.596  30.289  1.00  0.00     0.004 C 
HETATM    6  C5  UNL     1     -54.682  21.931  30.245  1.00  0.00     0.001 C 
BRANCH   6   7
HETATM    7  C4  UNL     1     -55.214  20.867  31.047  1.00  0.00     0.002 C 
HETATM    8  C2  UNL     1     -56.463  20.402  30.852  1.00  0.00    -0.088 C 
HETATM    9  C1  UNL     1     -57.035  19.311  31.662  1.00  0.00     0.043 C 
HETATM   10  C3  UNL     1     -57.256  21.040  29.779  1.00  0.00     0.043 C 
ENDBRANCH   6   7
ENDBRANCH   3   5
ENDBRANCH   1   3
BRANCH   1  11
HETATM   11  C11 UNL     1     -50.011  22.361  31.404  1.00  0.00     0.169 C 
HETATM   12  O1  UNL     1     -49.050  23.074  31.091  1.00  0.00    -0.294 OA
BRANCH  11  13
HETATM   13  C12 UNL     1     -49.952  21.688  32.709  1.00  0.00     0.258 C 
BRANCH  13  14
HETATM   14  O2  UNL     1     -49.297  20.422  32.597  1.00  0.00    -0.312 OA
BRANCH  14  15
HETATM   15  C13 UNL     1     -48.718  19.836  33.709  1.00  0.00     0.294 C 
HETATM   16  O3  UNL     1     -49.304  19.943  34.798  1.00  0.00    -0.262 OA
BRANCH  15  17
HETATM   17  C14 UNL     1     -47.434  19.115  33.527  1.00  0.00     0.148 C 
HETATM   18  C15 UNL     1     -47.191  18.242  34.729  1.00  0.00     0.057 C 
BRANCH  17  19
HETATM   19  O4  UNL     1     -47.461  18.309  32.406  1.00  0.00    -0.379 OA
ATOM     20  H4  UNL     1     -46.883  17.562  32.501  1.00  0.00     0.211 HD
ENDBRANCH  17  19
BRANCH  17  21
HETATM   21  C16 UNL     1     -46.265  20.062  33.395  1.00  0.00    -0.011 C 
HETATM   22  C17 UNL     1     -45.005  19.236  33.591  1.00  0.00     0.018 C 
HETATM   23  C18 UNL     1     -46.321  21.162  34.440  1.00  0.00     0.018 C 
HETATM   24  C19 UNL     1     -46.194  20.725  32.049  1.00  0.00     0.018 C 
ENDBRANCH  17  21
ENDBRANCH  15  17
ENDBRANCH  14  15
ENDBRANCH  13  14
ENDBRANCH  11  13
ENDBRANCH   1  11
BRANCH   1  25
HETATM   25  C20 UNL     1     -51.024  20.981  29.703  1.00  0.00     0.209 A 
HETATM   26  C21 UNL     1     -51.228  21.041  28.241  1.00  0.00     0.048 A 
HETATM   27  C22 UNL     1     -51.978  20.002  27.922  1.00  0.00     0.083 A 
HETATM   28  C23 UNL     1     -52.301  19.232  29.114  1.00  0.00     0.285 A 
HETATM   29  O6  UNL     1     -53.004  18.170  29.141  1.00  0.00    -0.260 OA
HETATM   30  O7  UNL     1     -51.699  19.879  30.176  1.00  0.00    -0.275 OA
BRANCH  25  31
HETATM   31  O5  UNL     1     -49.631  20.619  29.816  1.00  0.00    -0.361 OA
ATOM     32  H5  UNL     1     -49.602  19.711  29.539  1.00  0.00     0.213 HD
ENDBRANCH  25  31
ENDBRANCH   1  25
TORSDOF 12
ENDMDL
MODEL 3
REMARK VINA RESULT: -6.676994329      1.924      3.115
REMARK  12 active torsions:
REMARK  status: ('A' for Active; 'I' for Inactive)
REMARK    1  A    between atoms: C4_4  and  C5_5 
REMARK    2  A    between atoms: C6_6  and  C7_7 
REMARK    3  A    between atoms: C7_7  and  C9_9 
REMARK    4  A    between atoms: C9_9  and  C11_11 
REMARK    5  A    between atoms: C9_9  and  C20_25 
REMARK    6  A    between atoms: C11_11  and  C12_13 
REMARK    7  A    between atoms: C12_13  and  O2_14 
REMARK    8  A    between atoms: O2_14  and  C13_15 
REMARK    9  A    between atoms: C13_15  and  C14_17 
REMARK   10  A    between atoms: C14_17  and  O4_19 
REMARK   11  A    between atoms: C14_17  and  C16_21 
REMARK   12  A    between atoms: C20_25  and  O5_26 
ROOT
HETATM    1  C9  UNL     1     -52.968  22.475  30.413  1.00  0.00     0.102 C 
HETATM    2  C10 UNL     1     -53.620  23.326  29.293  1.00  0.00     0.034 C 
ENDROOT
BRANCH   1   3
HETATM    3  C7  UNL     1     -54.053  21.674  31.045  1.00  0.00    -0.062 C 
HETATM    4  C8  UNL     1     -55.179  22.438  31.615  1.00  0.00     0.045 C 
BRANCH   3   5
HETATM    5  C6  UNL     1     -54.459  20.489  30.308  1.00  0.00     0.004 C 
HETATM    6  C5  UNL     1     -55.403  19.626  30.402  1.00  0.00     0.001 C 
BRANCH   6   7
HETATM    7  C4  UNL     1     -56.498  19.469  31.315  1.00  0.00     0.002 C 
HETATM    8  C2  UNL     1     -57.217  18.330  31.356  1.00  0.00    -0.088 C 
HETATM    9  C1  UNL     1     -58.347  18.143  32.283  1.00  0.00     0.043 C 
HETATM   10  C3  UNL     1     -56.823  17.256  30.419  1.00  0.00     0.043 C 
ENDBRANCH   6   7
ENDBRANCH   3   5
ENDBRANCH   1   3
BRANCH   1  11
HETATM   11  C11 UNL     1     -52.464  23.459  31.402  1.00  0.00     0.169 C 
HETATM   12  O1  UNL     1     -52.463  24.651  31.072  1.00  0.00    -0.294 OA
BRANCH  11  13
HETATM   13  C12 UNL     1     -51.964  23.134  32.746  1.00  0.00     0.258 C 
BRANCH  13  14
HETATM   14  O2  UNL     1     -50.537  23.033  32.745  1.00  0.00    -0.312 OA
BRANCH  14  15
HETATM   15  C13 UNL     1     -49.911  22.012  33.439  1.00  0.00     0.294 C 
HETATM   16  O3  UNL     1     -50.350  21.714  34.561  1.00  0.00    -0.262 OA
BRANCH  15  17
HETATM   17  C14 UNL     1     -48.754  21.341  32.796  1.00  0.00     0.148 C 
HETATM   18  C15 UNL     1     -48.922  19.851  32.928  1.00  0.00     0.057 C 
BRANCH  17  19
HETATM   19  O4  UNL     1     -48.675  21.649  31.452  1.00  0.00    -0.379 OA
ATOM     20  H4  UNL     1     -48.099  21.050  30.992  1.00  0.00     0.211 HD
ENDBRANCH  17  19
BRANCH  17  21
HETATM   21  C16 UNL     1     -47.445  21.721  33.443  1.00  0.00    -0.011 C 
HETATM   22  C17 UNL     1     -46.356  21.474  32.413  1.00  0.00     0.018 C 
HETATM   23  C18 UNL     1     -47.174  20.886  34.682  1.00  0.00     0.018 C 
HETATM   24  C19 UNL     1     -47.390  23.165  33.855  1.00  0.00     0.018 C 
ENDBRANCH  17  21
ENDBRANCH  15  17
ENDBRANCH  14  15
ENDBRANCH  13  14
ENDBRANCH  11  13
ENDBRANCH   1  11
BRANCH   1  25
HETATM   25  C20 UNL     1     -51.831  21.783  29.787  1.00  0.00     0.209 A 
HETATM   26  C21 UNL     1     -51.982  21.422  28.362  1.00  0.00     0.048 A 
HETATM   27  C22 UNL     1     -51.500  20.200  28.229  1.00  0.00     0.083 A 
HETATM   28  C23 UNL     1     -51.027  19.705  29.513  1.00  0.00     0.285 A 
HETATM   29  O6  UNL     1     -50.502  18.562  29.717  1.00  0.00    -0.260 OA
HETATM   30  O7  UNL     1     -51.260  20.709  30.432  1.00  0.00    -0.275 OA
BRANCH  25  31
HETATM   31  O5  UNL     1     -50.783  22.776  29.755  1.00  0.00    -0.361 OA
ATOM     32  H5  UNL     1     -50.196  22.475  29.072  1.00  0.00     0.213 HD
ENDBRANCH  25  31
ENDBRANCH   1  25
TORSDOF 12
ENDMDL
MODEL 4
REMARK VINA RESULT: -6.562106303      1.559      2.356
REMARK  12 active torsions:
REMARK  status: ('A' for Active; 'I' for Inactive)
REMARK    1  A    between atoms: C4_4  and  C5_5 
REMARK    2  A    between atoms: C6_6  and  C7_7 
REMARK    3  A    between atoms: C7_7  and  C9_9 
REMARK    4  A    between atoms: C9_9  and  C11_11 
REMARK    5  A    between atoms: C9_9  and  C20_25 
REMARK    6  A    between atoms: C11_11  and  C12_13 
REMARK    7  A    between atoms: C12_13  and  O2_14 
REMARK    8  A    between atoms: O2_14  and  C13_15 
REMARK    9  A    between atoms: C13_15  and  C14_17 
REMARK   10  A    between atoms: C14_17  and  O4_19 
REMARK   11  A    between atoms: C14_17  and  C16_21 
REMARK   12  A    between atoms: C20_25  and  O5_26 
ROOT
HETATM    1  C9  UNL     1     -52.366  22.875  30.531  1.00  0.00     0.102 C 
HETATM    2  C10 UNL     1     -52.641  23.956  29.454  1.00  0.00     0.034 C 
ENDROOT
BRANCH   1   3
HETATM    3  C7  UNL     1     -53.669  22.556  31.177  1.00  0.00    -0.062 C 
HETATM    4  C8  UNL     1     -54.085  23.445  32.279  1.00  0.00     0.045 C 
BRANCH   3   5
HETATM    5  C6  UNL     1     -54.744  22.206  30.265  1.00  0.00     0.004 C 
HETATM    6  C5  UNL     1     -55.691  21.341  30.248  1.00  0.00     0.001 C 
BRANCH   6   7
HETATM    7  C4  UNL     1     -56.099  20.318  31.166  1.00  0.00     0.002 C 
HETATM    8  C2  UNL     1     -57.210  19.587  30.951  1.00  0.00    -0.088 C 
HETATM    9  C1  UNL     1     -57.652  18.530  31.878  1.00  0.00     0.043 C 
HETATM   10  C3  UNL     1     -57.986  19.892  29.729  1.00  0.00     0.043 C 
ENDBRANCH   6   7
ENDBRANCH   3   5
ENDBRANCH   1   3
BRANCH   1  11
HETATM   11  C11 UNL     1     -51.489  23.538  31.528  1.00  0.00     0.169 C 
HETATM   12  O1  UNL     1     -51.044  24.657  31.242  1.00  0.00    -0.294 OA
BRANCH  11  13
HETATM   13  C12 UNL     1     -51.105  22.975  32.830  1.00  0.00     0.258 C 
BRANCH  13  14
HETATM   14  O2  UNL     1     -49.786  22.424  32.774  1.00  0.00    -0.312 OA
BRANCH  14  15
HETATM   15  C13 UNL     1     -49.490  21.256  33.454  1.00  0.00     0.294 C 
HETATM   16  O3  UNL     1     -50.002  21.084  34.572  1.00  0.00    -0.262 OA
BRANCH  15  17
HETATM   17  C14 UNL     1     -48.579  20.283  32.801  1.00  0.00     0.148 C 
HETATM   18  C15 UNL     1     -48.779  18.931  33.431  1.00  0.00     0.057 C 
BRANCH  17  19
HETATM   19  O4  UNL     1     -48.842  20.173  31.450  1.00  0.00    -0.379 OA
ATOM     20  H4  UNL     1     -49.157  19.305  31.227  1.00  0.00     0.211 HD
ENDBRANCH  17  19
BRANCH  17  21
HETATM   21  C16 UNL     1     -47.128  20.664  32.967  1.00  0.00    -0.011 C 
HETATM   22  C17 UNL     1     -46.328  19.373  32.950  1.00  0.00     0.018 C 
HETATM   23  C18 UNL     1     -46.891  21.394  34.277  1.00  0.00     0.018 C 
HETATM   24  C19 UNL     1     -46.622  21.549  31.863  1.00  0.00     0.018 C 
ENDBRANCH  17  21
ENDBRANCH  15  17
ENDBRANCH  14  15
ENDBRANCH  13  14
ENDBRANCH  11  13
ENDBRANCH   1  11
BRANCH   1  25
HETATM   25  C20 UNL     1     -51.615  21.807  29.852  1.00  0.00     0.209 A 
HETATM   26  C21 UNL     1     -51.904  21.609  28.417  1.00  0.00     0.048 A 
HETATM   27  C22 UNL     1     -51.968  20.304  28.222  1.00  0.00     0.083 A 
HETATM   28  C23 UNL     1     -51.738  19.598  29.473  1.00  0.00     0.285 A 
HETATM   29  O6  UNL     1     -51.730  18.333  29.618  1.00  0.00    -0.260 OA
HETATM   30  O7  UNL     1     -51.536  20.565  30.439  1.00  0.00    -0.275 OA
BRANCH  25  31
HETATM   31  O5  UNL     1     -50.252  22.282  29.840  1.00  0.00    -0.361 OA
ATOM     32  H5  UNL     1     -50.039  22.403  30.758  1.00  0.00     0.213 HD
ENDBRANCH  25  31
ENDBRANCH   1  25
TORSDOF 12
ENDMDL
MODEL 5
REMARK VINA RESULT: -6.542623327      3.991      6.485
REMARK  12 active torsions:
REMARK  status: ('A' for Active; 'I' for Inactive)
REMARK    1  A    between atoms: C4_4  and  C5_5 
REMARK    2  A    between atoms: C6_6  and  C7_7 
REMARK    3  A    between atoms: C7_7  and  C9_9 
REMARK    4  A    between atoms: C9_9  and  C11_11 
REMARK    5  A    between atoms: C9_9  and  C20_25 
REMARK    6  A    between atoms: C11_11  and  C12_13 
REMARK    7  A    between atoms: C12_13  and  O2_14 
REMARK    8  A    between atoms: O2_14  and  C13_15 
REMARK    9  A    between atoms: C13_15  and  C14_17 
REMARK   10  A    between atoms: C14_17  and  O4_19 
REMARK   11  A    between atoms: C14_17  and  C16_21 
REMARK   12  A    between atoms: C20_25  and  O5_26 
ROOT
HETATM    1  C9  UNL     1     -54.739  21.902  30.533  1.00  0.00     0.102 C 
HETATM    2  C10 UNL     1     -54.615  22.349  32.012  1.00  0.00     0.034 C 
ENDROOT
BRANCH   1   3
HETATM    3  C7  UNL     1     -55.420  20.578  30.530  1.00  0.00    -0.062 C 
HETATM    4  C8  UNL     1     -54.573  19.409  30.224  1.00  0.00     0.045 C 
BRANCH   3   5
HETATM    5  C6  UNL     1     -56.354  20.358  31.622  1.00  0.00     0.004 C 
HETATM    6  C5  UNL     1     -57.255  19.488  31.901  1.00  0.00     0.001 C 
BRANCH   6   7
HETATM    7  C4  UNL     1     -57.732  18.320  31.220  1.00  0.00     0.002 C 
HETATM    8  C2  UNL     1     -58.568  17.451  31.821  1.00  0.00    -0.088 C 
HETATM    9  C1  UNL     1     -59.072  16.243  31.145  1.00  0.00     0.043 C 
HETATM   10  C3  UNL     1     -58.966  17.760  33.212  1.00  0.00     0.043 C 
ENDBRANCH   6   7
ENDBRANCH   3   5
ENDBRANCH   1   3
BRANCH   1  11
HETATM   11  C11 UNL     1     -53.343  21.720  30.066  1.00  0.00     0.169 C 
HETATM   12  O1  UNL     1     -53.176  21.354  28.895  1.00  0.00    -0.294 OA
BRANCH  11  13
HETATM   13  C12 UNL     1     -52.138  21.940  30.879  1.00  0.00     0.258 C 
BRANCH  13  14
HETATM   14  O2  UNL     1     -51.086  22.493  30.085  1.00  0.00    -0.312 OA
BRANCH  14  15
HETATM   15  C13 UNL     1     -50.489  23.687  30.454  1.00  0.00     0.294 C 
HETATM   16  O3  UNL     1     -49.652  23.663  31.370  1.00  0.00    -0.262 OA
BRANCH  15  17
HETATM   17  C14 UNL     1     -50.890  24.918  29.729  1.00  0.00     0.148 C 
HETATM   18  C15 UNL     1     -49.654  25.598  29.206  1.00  0.00     0.057 C 
BRANCH  17  19
HETATM   19  O4  UNL     1     -51.710  24.628  28.656  1.00  0.00    -0.379 OA
ATOM     20  H4  UNL     1     -52.511  25.138  28.684  1.00  0.00     0.211 HD
ENDBRANCH  17  19
BRANCH  17  21
HETATM   21  C16 UNL     1     -51.616  25.894  30.624  1.00  0.00    -0.011 C 
HETATM   22  C17 UNL     1     -52.695  26.549  29.779  1.00  0.00     0.018 C 
HETATM   23  C18 UNL     1     -50.676  26.957  31.164  1.00  0.00     0.018 C 
HETATM   24  C19 UNL     1     -52.272  25.234  31.803  1.00  0.00     0.018 C 
ENDBRANCH  17  21
ENDBRANCH  15  17
ENDBRANCH  14  15
ENDBRANCH  13  14
ENDBRANCH  11  13
ENDBRANCH   1  11
BRANCH   1  25
HETATM   25  C20 UNL     1     -55.353  23.031  29.817  1.00  0.00     0.209 A 
HETATM   26  C21 UNL     1     -55.656  24.234  30.620  1.00  0.00     0.048 A 
HETATM   27  C22 UNL     1     -56.849  24.652  30.238  1.00  0.00     0.083 A 
HETATM   28  C23 UNL     1     -57.379  23.776  29.203  1.00  0.00     0.285 A 
HETATM   29  O6  UNL     1     -58.506  23.912  28.624  1.00  0.00    -0.260 OA
HETATM   30  O7  UNL     1     -56.427  22.798  28.989  1.00  0.00    -0.275 OA
BRANCH  25  31
HETATM   31  O5  UNL     1     -54.314  23.495  28.928  1.00  0.00    -0.361 OA
ATOM     32  H5  UNL     1     -54.498  23.057  28.105  1.00  0.00     0.213 HD
ENDBRANCH  25  31
ENDBRANCH   1  25
TORSDOF 12
ENDMDL
