MODEL 1
REMARK VINA RESULT: -6.471567707      0.000      0.000
REMARK  15 active torsions:
REMARK  status: ('A' for Active; 'I' for Inactive)
REMARK    1  A    between atoms: C2_2  and  C3_3 
REMARK    2  A    between atoms: C4_5  and  N1_6 
REMARK    3  A    between atoms: C5_9  and  C6_10 
REMARK    4  A    between atoms: C6_10  and  N2_11 
REMARK    5  A    between atoms: N2_11  and  N3_13 
REMARK    6  A    between atoms: C7_14  and  C8_15 
REMARK    7  A    between atoms: C8_15  and  N4_16 
REMARK    8  A    between atoms: C10_19  and  N5_20 
REMARK    9  A    between atoms: N5_20  and  C11_22 
REMARK   10  A    between atoms: C11_22  and  O3_23 
REMARK   11  A    between atoms: C11_22  and  C12_25 
REMARK   12  A    between atoms: C15_31  and  O4_32 
REMARK   13  A    between atoms: C15_31  and  C16_34 
REMARK   14  A    between atoms: C19_39  and  C20_40 
REMARK   15  A    between atoms: C23_45  and  O8_46 
ROOT
HETATM    1  C12 UNL     1      21.864 -16.246  -1.410  1.00  0.00     0.177 C 
HETATM    2  C13 UNL     1      21.553 -16.389  -2.854  1.00  0.00     0.063 C 
HETATM    3  N6  UNL     1      21.335 -16.504  -3.984  1.00  0.00    -0.197 NA
ENDROOT
BRANCH   1   4
HETATM    4  C11 UNL     1      23.082 -17.074  -1.154  1.00  0.00     0.232 C 
BRANCH   4   5
HETATM    5  N5  UNL     1      23.705 -16.833   0.124  1.00  0.00    -0.345 N 
ATOM      6  H5  UNL     1      23.250 -17.238   0.942  1.00  0.00     0.163 HD
BRANCH   5   7
HETATM    7  C10 UNL     1      24.877 -16.098   0.349  1.00  0.00     0.168 C 
HETATM    8  C9  UNL     1      24.851 -14.750   0.962  1.00  0.00     0.290 C 
HETATM    9  N4  UNL     1      26.090 -14.025   1.165  1.00  0.00    -0.297 N 
HETATM   10  O2  UNL     1      23.752 -14.253   1.300  1.00  0.00    -0.264 OA
HETATM   11  C15 UNL     1      27.230 -14.878   1.372  1.00  0.00     0.244 C 
HETATM   12  C14 UNL     1      27.250 -15.894   0.215  1.00  0.00     0.194 C 
HETATM   13  N7  UNL     1      26.014 -16.567   0.026  1.00  0.00    -0.367 N 
ATOM     14  H7  UNL     1      26.041 -17.494  -0.399  1.00  0.00     0.161 HD
BRANCH   9  15
HETATM   15  C8  UNL     1      25.996 -12.614   1.165  1.00  0.00     0.189 C 
BRANCH  15  16
HETATM   16  C7  UNL     1      25.903 -11.926  -0.142  1.00  0.00     0.052 A 
HETATM   17  N3  UNL     1      24.769 -11.413  -0.735  1.00  0.00    -0.254 N 
HETATM   18  C19 UNL     1      25.113 -10.850  -1.875  1.00  0.00     0.121 A 
HETATM   19  C18 UNL     1      26.496 -11.002  -2.029  1.00  0.00     0.039 A 
HETATM   20  C17 UNL     1      26.956 -11.670  -0.944  1.00  0.00     0.031 A 
BRANCH  17  21
HETATM   21  N2  UNL     1      23.488 -11.557  -0.147  1.00  0.00    -0.304 N 
ATOM     22  H2  UNL     1      23.014 -12.414  -0.431  1.00  0.00     0.186 HD
BRANCH  21  23
HETATM   23  C6  UNL     1      22.745 -10.797   0.720  1.00  0.00     0.124 C 
BRANCH  23  24
HETATM   24  C5  UNL     1      21.744 -11.003   1.518  1.00  0.00     0.040 A 
HETATM   25  C4  UNL     1      21.956 -11.718   2.715  1.00  0.00     0.154 A 
HETATM   26  O1  UNL     1      20.984 -11.969   3.543  1.00  0.00    -0.291 OA
HETATM   27  C3  UNL     1      19.733 -11.611   3.383  1.00  0.00     0.107 A 
HETATM   28  C23 UNL     1      19.426 -10.905   2.239  1.00  0.00     0.106 A 
HETATM   29  C21 UNL     1      20.464 -10.609   1.314  1.00  0.00    -0.010 A 
HETATM   30  C22 UNL     1      20.011  -9.808   0.158  1.00  0.00     0.052 C 
BRANCH  25  31
HETATM   31  N1  UNL     1      23.123 -12.155   3.046  1.00  0.00    -0.379 N 
ATOM     32  H12 UNL     1      23.257 -13.092   3.426  1.00  0.00     0.158 HD
ATOM     33  H11 UNL     1      23.906 -11.515   2.907  1.00  0.00     0.158 HD
ENDBRANCH  25  31
BRANCH  27  34
HETATM   34  C2  UNL     1      18.836 -11.931   4.302  1.00  0.00     0.009 C 
HETATM   35  C1  UNL     1      19.003 -11.879   5.753  1.00  0.00     0.039 C 
ENDBRANCH  27  34
BRANCH  28  36
HETATM   36  O8  UNL     1      18.124 -10.499   2.004  1.00  0.00    -0.357 OA
ATOM     37  H8  UNL     1      17.948  -9.614   1.705  1.00  0.00     0.217 HD
ENDBRANCH  28  36
ENDBRANCH  23  24
ENDBRANCH  21  23
ENDBRANCH  17  21
BRANCH  18  38
HETATM   38  C20 UNL     1      24.370 -10.158  -2.904  1.00  0.00     0.283 C 
HETATM   39  N8  UNL     1      25.061  -9.581  -4.045  1.00  0.00    -0.056 NA
HETATM   40  O7  UNL     1      23.153  -9.973  -2.963  1.00  0.00    -0.269 OA
ENDBRANCH  18  38
ENDBRANCH  15  16
ENDBRANCH   9  15
BRANCH  11  41
HETATM   41  O4  UNL     1      28.466 -14.228   1.300  1.00  0.00    -0.361 OA
ATOM     42  H4  UNL     1      29.220 -14.800   1.388  1.00  0.00     0.213 HD
ENDBRANCH  11  41
BRANCH  11  43
HETATM   43  C16 UNL     1      27.158 -15.667   2.638  1.00  0.00     0.233 C 
HETATM   44  O5  UNL     1      27.406 -16.878   2.767  1.00  0.00    -0.644 OA
HETATM   45  O6  UNL     1      26.774 -15.008   3.825  1.00  0.00    -0.644 OA
ENDBRANCH  11  43
ENDBRANCH   5   7
ENDBRANCH   4   5
BRANCH   4  46
HETATM   46  O3  UNL     1      24.041 -16.723  -2.128  1.00  0.00    -0.376 OA
ATOM     47  H3  UNL     1      23.570 -16.242  -2.798  1.00  0.00     0.212 HD
ENDBRANCH   4  46
ENDBRANCH   1   4
TORSDOF 15
ENDMDL
MODEL 2
REMARK VINA RESULT: -6.338635916      2.414      7.210
REMARK  15 active torsions:
REMARK  status: ('A' for Active; 'I' for Inactive)
REMARK    1  A    between atoms: C2_2  and  C3_3 
REMARK    2  A    between atoms: C4_5  and  N1_6 
REMARK    3  A    between atoms: C5_9  and  C6_10 
REMARK    4  A    between atoms: C6_10  and  N2_11 
REMARK    5  A    between atoms: N2_11  and  N3_13 
REMARK    6  A    between atoms: C7_14  and  C8_15 
REMARK    7  A    between atoms: C8_15  and  N4_16 
REMARK    8  A    between atoms: C10_19  and  N5_20 
REMARK    9  A    between atoms: N5_20  and  C11_22 
REMARK   10  A    between atoms: C11_22  and  O3_23 
REMARK   11  A    between atoms: C11_22  and  C12_25 
REMARK   12  A    between atoms: C15_31  and  O4_32 
REMARK   13  A    between atoms: C15_31  and  C16_34 
REMARK   14  A    between atoms: C19_39  and  C20_40 
REMARK   15  A    between atoms: C23_45  and  O8_46 
ROOT
HETATM    1  C12 UNL     1      27.309 -10.503  -2.838  1.00  0.00     0.177 C 
HETATM    2  C13 UNL     1      28.612  -9.987  -2.354  1.00  0.00     0.063 C 
HETATM    3  N6  UNL     1      29.620  -9.585  -1.951  1.00  0.00    -0.197 NA
ENDROOT
BRANCH   1   4
HETATM    4  C11 UNL     1      26.716 -11.286  -1.712  1.00  0.00     0.232 C 
BRANCH   4   5
HETATM    5  N5  UNL     1      25.384 -10.877  -1.340  1.00  0.00    -0.345 N 
ATOM      6  H5  UNL     1      25.053  -9.989  -1.716  1.00  0.00     0.163 HD
BRANCH   5   7
HETATM    7  C10 UNL     1      24.502 -11.584  -0.511  1.00  0.00     0.168 C 
HETATM    8  C9  UNL     1      24.573 -11.496   0.965  1.00  0.00     0.290 C 
HETATM    9  N4  UNL     1      23.643 -12.255   1.780  1.00  0.00    -0.297 N 
HETATM   10  O2  UNL     1      25.440 -10.762   1.494  1.00  0.00    -0.264 OA
HETATM   11  C15 UNL     1      22.375 -12.486   1.142  1.00  0.00     0.244 C 
HETATM   12  C14 UNL     1      22.669 -13.088  -0.245  1.00  0.00     0.194 C 
HETATM   13  N7  UNL     1      23.603 -12.335  -1.006  1.00  0.00    -0.367 N 
ATOM     14  H7  UNL     1      23.548 -12.403  -2.022  1.00  0.00     0.161 HD
BRANCH   9  15
HETATM   15  C8  UNL     1      24.095 -12.620   3.069  1.00  0.00     0.189 C 
BRANCH  15  16
HETATM   16  C7  UNL     1      25.138 -13.666   3.167  1.00  0.00     0.052 A 
HETATM   17  N3  UNL     1      25.033 -14.986   2.782  1.00  0.00    -0.254 N 
HETATM   18  C19 UNL     1      26.190 -15.576   3.001  1.00  0.00     0.121 A 
HETATM   19  C18 UNL     1      27.062 -14.625   3.541  1.00  0.00     0.039 A 
HETATM   20  C17 UNL     1      26.385 -13.456   3.633  1.00  0.00     0.031 A 
BRANCH  17  21
HETATM   21  N2  UNL     1      23.822 -15.524   2.281  1.00  0.00    -0.304 N 
ATOM     22  H2  UNL     1      23.001 -14.990   2.567  1.00  0.00     0.186 HD
BRANCH  21  23
HETATM   23  C6  UNL     1      23.510 -16.605   1.498  1.00  0.00     0.124 C 
BRANCH  23  24
HETATM   24  C5  UNL     1      23.039 -16.787   0.303  1.00  0.00     0.040 A 
HETATM   25  C4  UNL     1      23.921 -16.754  -0.796  1.00  0.00     0.154 A 
HETATM   26  O1  UNL     1      23.500 -16.912  -2.016  1.00  0.00    -0.291 OA
HETATM   27  C3  UNL     1      22.255 -17.110  -2.375  1.00  0.00     0.107 A 
HETATM   28  C23 UNL     1      21.314 -17.157  -1.367  1.00  0.00     0.106 A 
HETATM   29  C21 UNL     1      21.739 -16.994  -0.021  1.00  0.00    -0.010 A 
HETATM   30  C22 UNL     1      20.642 -17.114   0.962  1.00  0.00     0.052 C 
BRANCH  25  31
HETATM   31  N1  UNL     1      25.188 -16.569  -0.642  1.00  0.00    -0.379 N 
ATOM     32  H12 UNL     1      25.703 -15.892  -1.205  1.00  0.00     0.158 HD
ATOM     33  H11 UNL     1      25.649 -17.133   0.073  1.00  0.00     0.158 HD
ENDBRANCH  25  31
BRANCH  27  34
HETATM   34  C2  UNL     1      21.955 -17.253  -3.656  1.00  0.00     0.009 C 
HETATM   35  C1  UNL     1      21.417 -16.235  -4.555  1.00  0.00     0.039 C 
ENDBRANCH  27  34
BRANCH  28  36
HETATM   36  O8  UNL     1      19.979 -17.360  -1.674  1.00  0.00    -0.357 OA
ATOM     37  H8  UNL     1      19.400 -16.616  -1.790  1.00  0.00     0.217 HD
ENDBRANCH  28  36
ENDBRANCH  23  24
ENDBRANCH  21  23
ENDBRANCH  17  21
BRANCH  18  38
HETATM   38  C20 UNL     1      26.671 -16.924   2.793  1.00  0.00     0.283 C 
HETATM   39  N8  UNL     1      26.733 -17.859   3.903  1.00  0.00    -0.056 NA
HETATM   40  O7  UNL     1      27.060 -17.432   1.740  1.00  0.00    -0.269 OA
ENDBRANCH  18  38
ENDBRANCH  15  16
ENDBRANCH   9  15
BRANCH  11  41
HETATM   41  O4  UNL     1      21.566 -13.432   1.778  1.00  0.00    -0.361 OA
ATOM     42  H4  UNL     1      21.697 -14.327   1.487  1.00  0.00     0.213 HD
ENDBRANCH  11  41
BRANCH  11  43
HETATM   43  C16 UNL     1      21.590 -11.236   0.913  1.00  0.00     0.233 C 
HETATM   44  O5  UNL     1      21.371 -10.341   1.747  1.00  0.00    -0.644 OA
HETATM   45  O6  UNL     1      21.026 -11.015  -0.361  1.00  0.00    -0.644 OA
ENDBRANCH  11  43
ENDBRANCH   5   7
ENDBRANCH   4   5
BRANCH   4  46
HETATM   46  O3  UNL     1      27.524 -11.066  -0.575  1.00  0.00    -0.376 OA
ATOM     47  H3  UNL     1      27.986 -11.881  -0.420  1.00  0.00     0.212 HD
ENDBRANCH   4  46
ENDBRANCH   1   4
TORSDOF 15
ENDMDL
MODEL 3
REMARK VINA RESULT: -6.311498610      3.793      7.485
REMARK  15 active torsions:
REMARK  status: ('A' for Active; 'I' for Inactive)
REMARK    1  A    between atoms: C2_2  and  C3_3 
REMARK    2  A    between atoms: C4_5  and  N1_6 
REMARK    3  A    between atoms: C5_9  and  C6_10 
REMARK    4  A    between atoms: C6_10  and  N2_11 
REMARK    5  A    between atoms: N2_11  and  N3_13 
REMARK    6  A    between atoms: C7_14  and  C8_15 
REMARK    7  A    between atoms: C8_15  and  N4_16 
REMARK    8  A    between atoms: C10_19  and  N5_20 
REMARK    9  A    between atoms: N5_20  and  C11_22 
REMARK   10  A    between atoms: C11_22  and  O3_23 
REMARK   11  A    between atoms: C11_22  and  C12_25 
REMARK   12  A    between atoms: C15_31  and  O4_32 
REMARK   13  A    between atoms: C15_31  and  C16_34 
REMARK   14  A    between atoms: C19_39  and  C20_40 
REMARK   15  A    between atoms: C23_45  and  O8_46 
ROOT
HETATM    1  C12 UNL     1      26.816 -10.635   0.002  1.00  0.00     0.177 C 
HETATM    2  C13 UNL     1      27.846 -10.185  -0.966  1.00  0.00     0.063 C 
HETATM    3  N6  UNL     1      28.651  -9.858  -1.730  1.00  0.00    -0.197 NA
ENDROOT
BRANCH   1   4
HETATM    4  C11 UNL     1      26.168 -11.842  -0.596  1.00  0.00     0.232 C 
BRANCH   4   5
HETATM    5  N5  UNL     1      25.230 -12.506   0.274  1.00  0.00    -0.345 N 
ATOM      6  H5  UNL     1      24.278 -12.142   0.289  1.00  0.00     0.163 HD
BRANCH   5   7
HETATM    7  C10 UNL     1      25.502 -13.604   1.101  1.00  0.00     0.168 C 
HETATM    8  C9  UNL     1      24.952 -14.951   0.822  1.00  0.00     0.290 C 
HETATM    9  N4  UNL     1      25.254 -16.054   1.713  1.00  0.00    -0.297 N 
HETATM   10  O2  UNL     1      24.230 -15.120  -0.188  1.00  0.00    -0.264 OA
HETATM   11  C15 UNL     1      26.525 -15.929   2.374  1.00  0.00     0.244 C 
HETATM   12  C14 UNL     1      26.561 -14.534   3.026  1.00  0.00     0.194 C 
HETATM   13  N7  UNL     1      26.235 -13.480   2.133  1.00  0.00    -0.367 N 
ATOM     14  H7  UNL     1      26.616 -12.555   2.333  1.00  0.00     0.161 HD
BRANCH   9  15
HETATM   15  C8  UNL     1      24.291 -17.088   1.777  1.00  0.00     0.189 C 
BRANCH  15  16
HETATM   16  C7  UNL     1      24.614 -18.376   1.123  1.00  0.00     0.052 A 
HETATM   17  N3  UNL     1      24.353 -18.736  -0.183  1.00  0.00    -0.254 N 
HETATM   18  C19 UNL     1      24.828 -19.948  -0.383  1.00  0.00     0.121 A 
HETATM   19  C18 UNL     1      25.407 -20.386   0.814  1.00  0.00     0.039 A 
HETATM   20  C17 UNL     1      25.259 -19.395   1.725  1.00  0.00     0.031 A 
BRANCH  17  21
HETATM   21  N2  UNL     1      23.648 -17.882  -1.066  1.00  0.00    -0.304 N 
ATOM     22  H2  UNL     1      24.235 -17.151  -1.466  1.00  0.00     0.186 HD
BRANCH  21  23
HETATM   23  C6  UNL     1      22.349 -17.822  -1.502  1.00  0.00     0.124 C 
BRANCH  23  24
HETATM   24  C5  UNL     1      21.719 -17.255  -2.483  1.00  0.00     0.040 A 
HETATM   25  C4  UNL     1      21.244 -15.936  -2.324  1.00  0.00     0.154 A 
HETATM   26  O1  UNL     1      20.590 -15.327  -3.269  1.00  0.00    -0.291 OA
HETATM   27  C3  UNL     1      20.295 -15.831  -4.442  1.00  0.00     0.107 A 
HETATM   28  C23 UNL     1      20.719 -17.120  -4.693  1.00  0.00     0.106 A 
HETATM   29  C21 UNL     1      21.440 -17.815  -3.685  1.00  0.00    -0.010 A 
HETATM   30  C22 UNL     1      21.876 -19.165  -4.098  1.00  0.00     0.052 C 
BRANCH  25  31
HETATM   31  N1  UNL     1      21.437 -15.274  -1.235  1.00  0.00    -0.379 N 
ATOM     32  H12 UNL     1      21.080 -14.326  -1.114  1.00  0.00     0.158 HD
ATOM     33  H11 UNL     1      21.964 -15.746  -0.500  1.00  0.00     0.158 HD
ENDBRANCH  25  31
BRANCH  27  34
HETATM   34  C2  UNL     1      19.620 -15.104  -5.319  1.00  0.00     0.009 C 
HETATM   35  C1  UNL     1      20.173 -14.222  -6.344  1.00  0.00     0.039 C 
ENDBRANCH  27  34
BRANCH  28  36
HETATM   36  O8  UNL     1      20.438 -17.717  -5.910  1.00  0.00    -0.357 OA
ATOM     37  H8  UNL     1      20.287 -18.654  -5.957  1.00  0.00     0.217 HD
ENDBRANCH  28  36
ENDBRANCH  23  24
ENDBRANCH  21  23
ENDBRANCH  17  21
BRANCH  18  38
HETATM   38  C20 UNL     1      24.854 -20.826  -1.532  1.00  0.00     0.283 C 
HETATM   39  N8  UNL     1      23.642 -21.496  -1.969  1.00  0.00    -0.056 NA
HETATM   40  O7  UNL     1      25.818 -21.108  -2.245  1.00  0.00    -0.269 OA
ENDBRANCH  18  38
ENDBRANCH  15  16
ENDBRANCH   9  15
BRANCH  11  41
HETATM   41  O4  UNL     1      26.724 -16.823   3.431  1.00  0.00    -0.361 OA
ATOM     42  H4  UNL     1      27.395 -16.561   4.051  1.00  0.00     0.213 HD
ENDBRANCH  11  41
BRANCH  11  43
HETATM   43  C16 UNL     1      27.688 -15.999   1.440  1.00  0.00     0.233 C 
HETATM   44  O5  UNL     1      27.795 -16.745   0.452  1.00  0.00    -0.644 OA
HETATM   45  O6  UNL     1      28.792 -15.151   1.668  1.00  0.00    -0.644 OA
ENDBRANCH  11  43
ENDBRANCH   5   7
ENDBRANCH   4   5
BRANCH   4  46
HETATM   46  O3  UNL     1      27.189 -12.781  -0.859  1.00  0.00    -0.376 OA
ATOM     47  H3  UNL     1      27.999 -12.286  -0.890  1.00  0.00     0.212 HD
ENDBRANCH   4  46
ENDBRANCH   1   4
TORSDOF 15
ENDMDL
MODEL 4
REMARK VINA RESULT: -6.284460914      3.395      7.145
REMARK  15 active torsions:
REMARK  status: ('A' for Active; 'I' for Inactive)
REMARK    1  A    between atoms: C2_2  and  C3_3 
REMARK    2  A    between atoms: C4_5  and  N1_6 
REMARK    3  A    between atoms: C5_9  and  C6_10 
REMARK    4  A    between atoms: C6_10  and  N2_11 
REMARK    5  A    between atoms: N2_11  and  N3_13 
REMARK    6  A    between atoms: C7_14  and  C8_15 
REMARK    7  A    between atoms: C8_15  and  N4_16 
REMARK    8  A    between atoms: C10_19  and  N5_20 
REMARK    9  A    between atoms: N5_20  and  C11_22 
REMARK   10  A    between atoms: C11_22  and  O3_23 
REMARK   11  A    between atoms: C11_22  and  C12_25 
REMARK   12  A    between atoms: C15_31  and  O4_32 
REMARK   13  A    between atoms: C15_31  and  C16_34 
REMARK   14  A    between atoms: C19_39  and  C20_40 
REMARK   15  A    between atoms: C23_45  and  O8_46 
ROOT
HETATM    1  C12 UNL     1      27.080 -10.539  -0.136  1.00  0.00     0.177 C 
HETATM    2  C13 UNL     1      27.968 -10.124  -1.249  1.00  0.00     0.063 C 
HETATM    3  N6  UNL     1      28.662  -9.824  -2.125  1.00  0.00    -0.197 NA
ENDROOT
BRANCH   1   4
HETATM    4  C11 UNL     1      26.365 -11.769  -0.597  1.00  0.00     0.232 C 
BRANCH   4   5
HETATM    5  N5  UNL     1      25.449 -12.321   0.368  1.00  0.00    -0.345 N 
ATOM      6  H5  UNL     1      24.541 -11.865   0.455  1.00  0.00     0.163 HD
BRANCH   5   7
HETATM    7  C10 UNL     1      25.685 -13.425   1.198  1.00  0.00     0.168 C 
HETATM    8  C9  UNL     1      25.101 -14.757   0.917  1.00  0.00     0.290 C 
HETATM    9  N4  UNL     1      25.368 -15.866   1.813  1.00  0.00    -0.297 N 
HETATM   10  O2  UNL     1      24.381 -14.908  -0.097  1.00  0.00    -0.264 OA
HETATM   11  C15 UNL     1      26.638 -15.774   2.481  1.00  0.00     0.244 C 
HETATM   12  C14 UNL     1      26.706 -14.380   3.132  1.00  0.00     0.194 C 
HETATM   13  N7  UNL     1      26.414 -13.318   2.235  1.00  0.00    -0.367 N 
ATOM     14  H7  UNL     1      26.819 -12.404   2.437  1.00  0.00     0.161 HD
BRANCH   9  15
HETATM   15  C8  UNL     1      24.378 -16.875   1.871  1.00  0.00     0.189 C 
BRANCH  15  16
HETATM   16  C7  UNL     1      24.616 -18.124   1.115  1.00  0.00     0.052 A 
HETATM   17  N3  UNL     1      24.243 -18.397  -0.184  1.00  0.00    -0.254 N 
HETATM   18  C19 UNL     1      24.672 -19.603  -0.496  1.00  0.00     0.121 A 
HETATM   19  C18 UNL     1      25.333 -20.126   0.621  1.00  0.00     0.039 A 
HETATM   20  C17 UNL     1      25.282 -19.192   1.600  1.00  0.00     0.031 A 
BRANCH  17  21
HETATM   21  N2  UNL     1      23.491 -17.475  -0.954  1.00  0.00    -0.304 N 
ATOM     22  H2  UNL     1      24.024 -16.646  -1.214  1.00  0.00     0.186 HD
BRANCH  21  23
HETATM   23  C6  UNL     1      22.204 -17.453  -1.427  1.00  0.00     0.124 C 
BRANCH  23  24
HETATM   24  C5  UNL     1      21.553 -16.788  -2.330  1.00  0.00     0.040 A 
HETATM   25  C4  UNL     1      21.417 -17.336  -3.622  1.00  0.00     0.154 A 
HETATM   26  O1  UNL     1      20.790 -16.703  -4.570  1.00  0.00    -0.291 OA
HETATM   27  C3  UNL     1      20.228 -15.524  -4.460  1.00  0.00     0.107 A 
HETATM   28  C23 UNL     1      20.309 -14.906  -3.230  1.00  0.00     0.106 A 
HETATM   29  C21 UNL     1      20.983 -15.570  -2.169  1.00  0.00    -0.010 A 
HETATM   30  C22 UNL     1      20.954 -14.822  -0.895  1.00  0.00     0.052 C 
BRANCH  25  31
HETATM   31  N1  UNL     1      21.906 -18.491  -3.923  1.00  0.00    -0.379 N 
ATOM     32  H12 UNL     1      22.449 -18.636  -4.774  1.00  0.00     0.158 HD
ATOM     33  H11 UNL     1      21.723 -19.250  -3.267  1.00  0.00     0.158 HD
ENDBRANCH  25  31
BRANCH  27  34
HETATM   34  C2  UNL     1      19.621 -14.986  -5.505  1.00  0.00     0.009 C 
HETATM   35  C1  UNL     1      20.203 -14.084  -6.495  1.00  0.00     0.039 C 
ENDBRANCH  27  34
BRANCH  28  36
HETATM   36  O8  UNL     1      19.741 -13.657  -3.043  1.00  0.00    -0.357 OA
ATOM     37  H8  UNL     1      19.209 -13.487  -2.275  1.00  0.00     0.217 HD
ENDBRANCH  28  36
ENDBRANCH  23  24
ENDBRANCH  21  23
ENDBRANCH  17  21
BRANCH  18  38
HETATM   38  C20 UNL     1      24.586 -20.407  -1.695  1.00  0.00     0.283 C 
HETATM   39  N8  UNL     1      25.637 -21.356  -2.017  1.00  0.00    -0.056 NA
HETATM   40  O7  UNL     1      23.691 -20.407  -2.542  1.00  0.00    -0.269 OA
ENDBRANCH  18  38
ENDBRANCH  15  16
ENDBRANCH   9  15
BRANCH  11  41
HETATM   41  O4  UNL     1      26.806 -16.672   3.541  1.00  0.00    -0.361 OA
ATOM     42  H4  UNL     1      27.486 -17.321   3.406  1.00  0.00     0.213 HD
ENDBRANCH  11  41
BRANCH  11  43
HETATM   43  C16 UNL     1      27.805 -15.877   1.555  1.00  0.00     0.233 C 
HETATM   44  O5  UNL     1      27.877 -16.587   0.538  1.00  0.00    -0.644 OA
HETATM   45  O6  UNL     1      28.956 -15.108   1.828  1.00  0.00    -0.644 OA
ENDBRANCH  11  43
ENDBRANCH   5   7
ENDBRANCH   4   5
BRANCH   4  46
HETATM   46  O3  UNL     1      27.342 -12.763  -0.822  1.00  0.00    -0.376 OA
ATOM     47  H3  UNL     1      27.016 -13.294  -1.539  1.00  0.00     0.212 HD
ENDBRANCH   4  46
ENDBRANCH   1   4
TORSDOF 15
ENDMDL
MODEL 5
REMARK VINA RESULT: -6.265585838      2.939      5.526
REMARK  15 active torsions:
REMARK  status: ('A' for Active; 'I' for Inactive)
REMARK    1  A    between atoms: C2_2  and  C3_3 
REMARK    2  A    between atoms: C4_5  and  N1_6 
REMARK    3  A    between atoms: C5_9  and  C6_10 
REMARK    4  A    between atoms: C6_10  and  N2_11 
REMARK    5  A    between atoms: N2_11  and  N3_13 
REMARK    6  A    between atoms: C7_14  and  C8_15 
REMARK    7  A    between atoms: C8_15  and  N4_16 
REMARK    8  A    between atoms: C10_19  and  N5_20 
REMARK    9  A    between atoms: N5_20  and  C11_22 
REMARK   10  A    between atoms: C11_22  and  O3_23 
REMARK   11  A    between atoms: C11_22  and  C12_25 
REMARK   12  A    between atoms: C15_31  and  O4_32 
REMARK   13  A    between atoms: C15_31  and  C16_34 
REMARK   14  A    between atoms: C19_39  and  C20_40 
REMARK   15  A    between atoms: C23_45  and  O8_46 
ROOT
HETATM    1  C12 UNL     1      29.213 -17.086   6.372  1.00  0.00     0.177 C 
HETATM    2  C13 UNL     1      28.301 -17.813   7.288  1.00  0.00     0.063 C 
HETATM    3  N6  UNL     1      27.570 -18.376   7.986  1.00  0.00    -0.197 NA
ENDROOT
BRANCH   1   4
HETATM    4  C11 UNL     1      28.641 -17.229   4.999  1.00  0.00     0.232 C 
BRANCH   4   5
HETATM    5  N5  UNL     1      27.974 -16.049   4.507  1.00  0.00    -0.345 N 
ATOM      6  H5  UNL     1      28.072 -15.199   5.061  1.00  0.00     0.163 HD
BRANCH   5   7
HETATM    7  C10 UNL     1      27.203 -15.959   3.340  1.00  0.00     0.168 C 
HETATM    8  C9  UNL     1      27.515 -14.985   2.268  1.00  0.00     0.290 C 
HETATM    9  N4  UNL     1      26.681 -14.923   1.084  1.00  0.00    -0.297 N 
HETATM   10  O2  UNL     1      28.501 -14.224   2.401  1.00  0.00    -0.264 OA
HETATM   11  C15 UNL     1      26.067 -16.178   0.746  1.00  0.00     0.244 C 
HETATM   12  C14 UNL     1      25.360 -16.692   2.014  1.00  0.00     0.194 C 
HETATM   13  N7  UNL     1      26.197 -16.715   3.161  1.00  0.00    -0.367 N 
ATOM     14  H7  UNL     1      25.974 -17.388   3.895  1.00  0.00     0.161 HD
BRANCH   9  15
HETATM   15  C8  UNL     1      26.622 -13.672   0.425  1.00  0.00     0.189 C 
BRANCH  15  16
HETATM   16  C7  UNL     1      25.750 -12.626   1.004  1.00  0.00     0.052 A 
HETATM   17  N3  UNL     1      24.372 -12.581   0.980  1.00  0.00    -0.254 N 
HETATM   18  C19 UNL     1      23.978 -11.508   1.634  1.00  0.00     0.121 A 
HETATM   19  C18 UNL     1      25.121 -10.840   2.091  1.00  0.00     0.039 A 
HETATM   20  C17 UNL     1      26.199 -11.553   1.686  1.00  0.00     0.031 A 
BRANCH  17  21
HETATM   21  N2  UNL     1      23.605 -13.560   0.301  1.00  0.00    -0.304 N 
ATOM     22  H2  UNL     1      23.843 -14.512   0.575  1.00  0.00     0.186 HD
BRANCH  21  23
HETATM   23  C6  UNL     1      22.613 -13.508  -0.645  1.00  0.00     0.124 C 
BRANCH  23  24
HETATM   24  C5  UNL     1      21.596 -12.740  -0.889  1.00  0.00     0.040 A 
HETATM   25  C4  UNL     1      20.299 -13.198  -0.578  1.00  0.00     0.154 A 
HETATM   26  O1  UNL     1      19.244 -12.477  -0.819  1.00  0.00    -0.291 OA
HETATM   27  C3  UNL     1      19.242 -11.284  -1.361  1.00  0.00     0.107 A 
HETATM   28  C23 UNL     1      20.467 -10.749  -1.701  1.00  0.00     0.106 A 
HETATM   29  C21 UNL     1      21.642 -11.507  -1.448  1.00  0.00    -0.010 A 
HETATM   30  C22 UNL     1      22.888 -10.801  -1.814  1.00  0.00     0.052 C 
BRANCH  25  31
HETATM   31  N1  UNL     1      20.099 -14.352  -0.038  1.00  0.00    -0.379 N 
ATOM     32  H12 UNL     1      20.871 -14.922   0.307  1.00  0.00     0.158 HD
ATOM     33  H11 UNL     1      19.131 -14.665   0.026  1.00  0.00     0.158 HD
ENDBRANCH  25  31
BRANCH  27  34
HETATM   34  C2  UNL     1      18.094 -10.653  -1.556  1.00  0.00     0.009 C 
HETATM   35  C1  UNL     1      17.107 -10.921  -2.599  1.00  0.00     0.039 C 
ENDBRANCH  27  34
BRANCH  28  36
HETATM   36  O8  UNL     1      20.539  -9.494  -2.281  1.00  0.00    -0.357 OA
ATOM     37  H8  UNL     1      21.292  -9.256  -2.809  1.00  0.00     0.217 HD
ENDBRANCH  28  36
ENDBRANCH  23  24
ENDBRANCH  21  23
ENDBRANCH  17  21
BRANCH  18  38
HETATM   38  C20 UNL     1      22.678 -10.953   1.938  1.00  0.00     0.283 C 
HETATM   39  N8  UNL     1      21.660 -11.775   2.569  1.00  0.00    -0.056 NA
HETATM   40  O7  UNL     1      22.279  -9.806   1.729  1.00  0.00    -0.269 OA
ENDBRANCH  18  38
ENDBRANCH  15  16
ENDBRANCH   9  15
BRANCH  11  41
HETATM   41  O4  UNL     1      25.056 -16.093  -0.217  1.00  0.00    -0.361 OA
ATOM     42  H4  UNL     1      24.174 -16.076   0.135  1.00  0.00     0.213 HD
ENDBRANCH  11  41
BRANCH  11  43
HETATM   43  C16 UNL     1      27.048 -17.229   0.341  1.00  0.00     0.233 C 
HETATM   44  O5  UNL     1      27.011 -18.431   0.655  1.00  0.00    -0.644 OA
HETATM   45  O6  UNL     1      28.137 -16.860  -0.476  1.00  0.00    -0.644 OA
ENDBRANCH  11  43
ENDBRANCH   5   7
ENDBRANCH   4   5
BRANCH   4  46
HETATM   46  O3  UNL     1      27.655 -18.238   5.057  1.00  0.00    -0.376 OA
ATOM     47  H3  UNL     1      27.909 -18.812   5.770  1.00  0.00     0.212 HD
ENDBRANCH   4  46
ENDBRANCH   1   4
TORSDOF 15
ENDMDL
