MODEL 1
REMARK VINA RESULT: -8.165994176      0.000      0.000
REMARK  12 active torsions:
REMARK  status: ('A' for Active; 'I' for Inactive)
REMARK    1  A    between atoms: C5_9  and  C6_10 
REMARK    2  A    between atoms: C6_10  and  O3_11 
REMARK    3  A    between atoms: C6_10  and  N2_13 
REMARK    4  A    between atoms: N2_13  and  N3_14 
REMARK    5  A    between atoms: N3_14  and  C7_16 
REMARK    6  A    between atoms: C7_16  and  C8_17 
REMARK    7  A    between atoms: C9_18  and  C10_19 
REMARK       I    between atoms: C10_19  and  N4_21 
REMARK    8  A    between atoms: N4_21  and  N5_23 
REMARK    9  A    between atoms: N7_28  and  S1_29 
REMARK   10  A    between atoms: S1_29  and  C11_32 
REMARK   11  A    between atoms: C11_32  and  C12_33 
REMARK   12  A    between atoms: C15_36  and  C16_37 
ROOT
HETATM    1  C8  UNL     1      26.965 -15.299   2.142  1.00  0.00     0.086 A 
HETATM    2  C9  UNL     1      26.533 -15.696   0.896  1.00  0.00     0.136 A 
HETATM    3  N6  UNL     1      25.366 -15.033   0.719  1.00  0.00    -0.275 N 
ATOM      4  H6  UNL     1      24.787 -15.114  -0.117  1.00  0.00     0.188 HD
HETATM    5  N7  UNL     1      25.066 -14.271   1.751  1.00  0.00    -0.141 N 
HETATM    6  C18 UNL     1      26.033 -14.399   2.674  1.00  0.00     0.290 A 
HETATM    7  O7  UNL     1      26.131 -13.855   3.790  1.00  0.00    -0.264 OA
ENDROOT
BRANCH   1   8
HETATM    8  C7  UNL     1      28.176 -15.746   2.819  1.00  0.00     0.140 C 
BRANCH   8   9
HETATM    9  N3  UNL     1      28.199 -16.004   4.055  1.00  0.00    -0.243 N 
ATOM     10  H3  UNL     1      27.688 -15.312   4.603  1.00  0.00     0.201 HD
BRANCH   9  11
HETATM   11  N2  UNL     1      28.719 -16.941   4.804  1.00  0.00    -0.298 NA
BRANCH  11  12
HETATM   12  C6  UNL     1      29.263 -17.902   5.582  1.00  0.00     0.269 C 
BRANCH  12  13
HETATM   13  C5  UNL     1      28.602 -19.015   6.303  1.00  0.00     0.158 A 
HETATM   14  C4  UNL     1      27.975 -18.852   7.510  1.00  0.00     0.271 A 
HETATM   15  C3  UNL     1      27.397 -20.004   8.132  1.00  0.00     0.299 A 
HETATM   16  O2  UNL     1      27.864 -17.726   8.138  1.00  0.00    -0.280 OA
HETATM   17  N1  UNL     1      27.487 -21.183   7.521  1.00  0.00    -0.310 N 
HETATM   18  O1  UNL     1      26.824 -19.845   9.233  1.00  0.00    -0.264 OA
HETATM   19  C2  UNL     1      28.096 -21.345   6.337  1.00  0.00     0.080 A 
ATOM     20  H1  UNL     1      27.074 -21.999   7.973  1.00  0.00     0.170 HD
HETATM   21  C1  UNL     1      28.178 -22.650   5.663  1.00  0.00     0.089 C 
HETATM   22  N11 UNL     1      28.629 -20.264   5.774  1.00  0.00    -0.338 N 
ATOM     23  H11 UNL     1      29.094 -20.384   4.875  1.00  0.00     0.167 HD
ENDBRANCH  12  13
BRANCH  12  24
HETATM   24  O3  UNL     1      30.557 -17.927   5.779  1.00  0.00    -0.332 OA
ATOM     25  H3  UNL     1      30.939 -18.710   5.400  1.00  0.00     0.220 HD
ENDBRANCH  12  24
ENDBRANCH  11  12
ENDBRANCH   9  11
ENDBRANCH   8   9
ENDBRANCH   1   8
BRANCH   2  26
HETATM   26  C10 UNL     1      27.148 -16.598  -0.062  1.00  0.00     0.288 C 
HETATM   27  O4  UNL     1      27.663 -16.170  -1.112  1.00  0.00    -0.264 OA
HETATM   28  N4  UNL     1      27.156 -17.990   0.205  1.00  0.00    -0.271 N 
ATOM     29  H4  UNL     1      26.742 -18.364   1.059  1.00  0.00     0.189 HD
BRANCH  28  30
HETATM   30  N5  UNL     1      27.760 -18.849  -0.753  1.00  0.00    -0.342 N 
ATOM     31  H52 UNL     1      27.302 -19.018  -1.649  1.00  0.00     0.176 HD
ATOM     32  H51 UNL     1      28.652 -19.282  -0.512  1.00  0.00     0.176 HD
ENDBRANCH  28  30
ENDBRANCH   2  26
BRANCH   5  33
HETATM   33  S1  UNL     1      23.666 -13.293   1.832  1.00  0.00     0.257 S 
HETATM   34  O5  UNL     1      22.792 -13.683   3.005  1.00  0.00    -0.203 OA
HETATM   35  O6  UNL     1      22.840 -13.501   0.597  1.00  0.00    -0.203 OA
BRANCH  33  36
HETATM   36  C11 UNL     1      24.087 -11.554   1.891  1.00  0.00     0.205 C 
BRANCH  36  37
HETATM   37  C12 UNL     1      24.922 -11.338   0.653  1.00  0.00    -0.027 A 
HETATM   38  C13 UNL     1      26.286 -11.210   0.741  1.00  0.00     0.012 A 
HETATM   39  C14 UNL     1      26.976 -10.986  -0.430  1.00  0.00     0.033 A 
HETATM   40  C15 UNL     1      26.390 -10.881  -1.678  1.00  0.00     0.073 A 
HETATM   41  N10 UNL     1      25.043 -11.022  -1.684  1.00  0.00    -0.363 N 
HETATM   42  C17 UNL     1      24.323 -11.242  -0.571  1.00  0.00     0.096 A 
ATOM     43  H10 UNL     1      24.551 -10.957  -2.575  1.00  0.00     0.165 HD
BRANCH  40  44
HETATM   44  C16 UNL     1      27.131 -10.624  -2.911  1.00  0.00     0.137 C 
HETATM   45  N8  UNL     1      26.632  -9.867  -3.816  1.00  0.00    -0.386 N 
ATOM     46  H82 UNL     1      25.711  -9.454  -3.668  1.00  0.00     0.157 HD
ATOM     47  H81 UNL     1      27.149  -9.688  -4.677  1.00  0.00     0.157 HD
HETATM   48  N9  UNL     1      28.400 -11.193  -3.116  1.00  0.00    -0.081 NA
ENDBRANCH  40  44
ENDBRANCH  36  37
ENDBRANCH  33  36
ENDBRANCH   5  33
TORSDOF 12
ENDMDL
MODEL 2
REMARK VINA RESULT: -7.935845791      2.495      4.369
REMARK  12 active torsions:
REMARK  status: ('A' for Active; 'I' for Inactive)
REMARK    1  A    between atoms: C5_9  and  C6_10 
REMARK    2  A    between atoms: C6_10  and  O3_11 
REMARK    3  A    between atoms: C6_10  and  N2_13 
REMARK    4  A    between atoms: N2_13  and  N3_14 
REMARK    5  A    between atoms: N3_14  and  C7_16 
REMARK    6  A    between atoms: C7_16  and  C8_17 
REMARK    7  A    between atoms: C9_18  and  C10_19 
REMARK       I    between atoms: C10_19  and  N4_21 
REMARK    8  A    between atoms: N4_21  and  N5_23 
REMARK    9  A    between atoms: N7_28  and  S1_29 
REMARK   10  A    between atoms: S1_29  and  C11_32 
REMARK   11  A    between atoms: C11_32  and  C12_33 
REMARK   12  A    between atoms: C15_36  and  C16_37 
ROOT
HETATM    1  C8  UNL     1      27.116 -15.273   1.611  1.00  0.00     0.086 A 
HETATM    2  C9  UNL     1      28.161 -14.380   1.702  1.00  0.00     0.136 A 
HETATM    3  N6  UNL     1      27.662 -13.227   1.197  1.00  0.00    -0.275 N 
ATOM      4  H6  UNL     1      28.195 -12.361   1.121  1.00  0.00     0.188 HD
HETATM    5  N7  UNL     1      26.407 -13.354   0.815  1.00  0.00    -0.141 N 
HETATM    6  C18 UNL     1      26.013 -14.616   1.050  1.00  0.00     0.290 A 
HETATM    7  O7  UNL     1      24.908 -15.148   0.834  1.00  0.00    -0.264 OA
ENDROOT
BRANCH   1   8
HETATM    8  C7  UNL     1      27.142 -16.675   2.006  1.00  0.00     0.140 C 
BRANCH   8   9
HETATM    9  N3  UNL     1      26.839 -17.051   3.173  1.00  0.00    -0.243 N 
ATOM     10  H3  UNL     1      25.832 -17.152   3.296  1.00  0.00     0.201 HD
BRANCH   9  11
HETATM   11  N2  UNL     1      27.501 -17.342   4.262  1.00  0.00    -0.298 NA
BRANCH  11  12
HETATM   12  C6  UNL     1      28.179 -17.650   5.389  1.00  0.00     0.269 C 
BRANCH  12  13
HETATM   13  C5  UNL     1      28.130 -18.883   6.209  1.00  0.00     0.158 A 
HETATM   14  C4  UNL     1      27.937 -18.870   7.565  1.00  0.00     0.271 A 
HETATM   15  C3  UNL     1      27.940 -20.121   8.261  1.00  0.00     0.299 A 
HETATM   16  O2  UNL     1      27.750 -17.803   8.272  1.00  0.00    -0.280 OA
HETATM   17  N1  UNL     1      28.126 -21.243   7.572  1.00  0.00    -0.310 N 
HETATM   18  O1  UNL     1      27.759 -20.099   9.498  1.00  0.00    -0.264 OA
HETATM   19  C2  UNL     1      28.311 -21.261   6.243  1.00  0.00     0.080 A 
ATOM     20  H1  UNL     1      28.129 -22.130   8.076  1.00  0.00     0.170 HD
HETATM   21  C1  UNL     1      28.504 -22.509   5.488  1.00  0.00     0.089 C 
HETATM   22  N11 UNL     1      28.308 -20.090   5.613  1.00  0.00    -0.338 N 
ATOM     23  H11 UNL     1      28.450 -20.099   4.603  1.00  0.00     0.167 HD
ENDBRANCH  12  13
BRANCH  12  24
HETATM   24  O3  UNL     1      29.023 -16.789   5.899  1.00  0.00    -0.332 OA
ATOM     25  H3  UNL     1      28.870 -15.920   5.546  1.00  0.00     0.220 HD
ENDBRANCH  12  24
ENDBRANCH  11  12
ENDBRANCH   9  11
ENDBRANCH   8   9
ENDBRANCH   1   8
BRANCH   2  26
HETATM   26  C10 UNL     1      29.504 -14.563   2.225  1.00  0.00     0.288 C 
HETATM   27  O4  UNL     1      30.483 -14.004   1.697  1.00  0.00    -0.264 OA
HETATM   28  N4  UNL     1      29.698 -15.396   3.355  1.00  0.00    -0.271 N 
ATOM     29  H4  UNL     1      28.911 -15.862   3.805  1.00  0.00     0.189 HD
BRANCH  28  30
HETATM   30  N5  UNL     1      31.023 -15.560   3.842  1.00  0.00    -0.342 N 
ATOM     31  H52 UNL     1      31.252 -15.297   4.800  1.00  0.00     0.176 HD
ATOM     32  H51 UNL     1      31.722 -15.944   3.206  1.00  0.00     0.176 HD
ENDBRANCH  28  30
ENDBRANCH   2  26
BRANCH   5  33
HETATM   33  S1  UNL     1      25.484 -12.078   0.149  1.00  0.00     0.257 S 
HETATM   34  O5  UNL     1      24.241 -12.601  -0.539  1.00  0.00    -0.203 OA
HETATM   35  O6  UNL     1      26.290 -11.376  -0.903  1.00  0.00    -0.203 OA
BRANCH  33  36
HETATM   36  C11 UNL     1      25.069 -10.857   1.390  1.00  0.00     0.205 C 
BRANCH  36  37
HETATM   37  C12 UNL     1      23.796 -11.380   2.007  1.00  0.00    -0.027 A 
HETATM   38  C13 UNL     1      22.578 -10.846   1.663  1.00  0.00     0.012 A 
HETATM   39  C14 UNL     1      21.464 -11.357   2.291  1.00  0.00     0.033 A 
HETATM   40  C15 UNL     1      21.491 -12.364   3.238  1.00  0.00     0.073 A 
HETATM   41  N10 UNL     1      22.726 -12.842   3.523  1.00  0.00    -0.363 N 
HETATM   42  C17 UNL     1      23.844 -12.379   2.938  1.00  0.00     0.096 A 
ATOM     43  H10 UNL     1      22.812 -13.588   4.213  1.00  0.00     0.165 HD
BRANCH  40  44
HETATM   44  C16 UNL     1      20.303 -12.885   3.912  1.00  0.00     0.137 C 
HETATM   45  N8  UNL     1      20.209 -12.826   5.188  1.00  0.00    -0.386 N 
ATOM     46  H82 UNL     1      20.974 -12.418   5.726  1.00  0.00     0.157 HD
ATOM     47  H81 UNL     1      19.380 -13.190   5.659  1.00  0.00     0.157 HD
HETATM   48  N9  UNL     1      19.249 -13.448   3.171  1.00  0.00    -0.081 NA
ENDBRANCH  40  44
ENDBRANCH  36  37
ENDBRANCH  33  36
ENDBRANCH   5  33
TORSDOF 12
ENDMDL
MODEL 3
REMARK VINA RESULT: -7.844873497      3.574      6.501
REMARK  12 active torsions:
REMARK  status: ('A' for Active; 'I' for Inactive)
REMARK    1  A    between atoms: C5_9  and  C6_10 
REMARK    2  A    between atoms: C6_10  and  O3_11 
REMARK    3  A    between atoms: C6_10  and  N2_13 
REMARK    4  A    between atoms: N2_13  and  N3_14 
REMARK    5  A    between atoms: N3_14  and  C7_16 
REMARK    6  A    between atoms: C7_16  and  C8_17 
REMARK    7  A    between atoms: C9_18  and  C10_19 
REMARK       I    between atoms: C10_19  and  N4_21 
REMARK    8  A    between atoms: N4_21  and  N5_23 
REMARK    9  A    between atoms: N7_28  and  S1_29 
REMARK   10  A    between atoms: S1_29  and  C11_32 
REMARK   11  A    between atoms: C11_32  and  C12_33 
REMARK   12  A    between atoms: C15_36  and  C16_37 
ROOT
HETATM    1  C8  UNL     1      26.494 -15.685   0.941  1.00  0.00     0.086 A 
HETATM    2  C9  UNL     1      27.009 -15.097   2.075  1.00  0.00     0.136 A 
HETATM    3  N6  UNL     1      26.057 -14.215   2.458  1.00  0.00    -0.275 N 
ATOM      4  H6  UNL     1      26.137 -13.611   3.276  1.00  0.00     0.188 HD
HETATM    5  N7  UNL     1      25.015 -14.227   1.651  1.00  0.00    -0.141 N 
HETATM    6  C18 UNL     1      25.235 -15.129   0.681  1.00  0.00     0.290 A 
HETATM    7  O7  UNL     1      24.505 -15.447  -0.277  1.00  0.00    -0.264 OA
ENDROOT
BRANCH   1   8
HETATM    8  C7  UNL     1      27.145 -16.700   0.123  1.00  0.00     0.140 C 
BRANCH   8   9
HETATM    9  N3  UNL     1      26.781 -17.909   0.134  1.00  0.00    -0.243 N 
ATOM     10  H3  UNL     1      27.549 -18.540   0.363  1.00  0.00     0.201 HD
BRANCH   9  11
HETATM   11  N2  UNL     1      25.661 -18.550  -0.075  1.00  0.00    -0.298 NA
BRANCH  11  12
HETATM   12  C6  UNL     1      24.508 -19.220  -0.286  1.00  0.00     0.269 C 
BRANCH  12  13
HETATM   13  C5  UNL     1      23.515 -19.066  -1.375  1.00  0.00     0.158 A 
HETATM   14  C4  UNL     1      23.201 -20.076  -2.246  1.00  0.00     0.271 A 
HETATM   15  C3  UNL     1      22.251 -19.805  -3.280  1.00  0.00     0.299 A 
HETATM   16  O2  UNL     1      23.702 -21.269  -2.203  1.00  0.00    -0.280 OA
HETATM   17  N1  UNL     1      21.708 -18.593  -3.359  1.00  0.00    -0.310 N 
HETATM   18  O1  UNL     1      21.967 -20.735  -4.068  1.00  0.00    -0.264 OA
HETATM   19  C2  UNL     1      22.010 -17.603  -2.506  1.00  0.00     0.080 A 
ATOM     20  H1  UNL     1      21.033 -18.408  -4.102  1.00  0.00     0.170 HD
HETATM   21  C1  UNL     1      21.395 -16.269  -2.594  1.00  0.00     0.089 C 
HETATM   22  N11 UNL     1      22.896 -17.871  -1.552  1.00  0.00    -0.338 N 
ATOM     23  H11 UNL     1      23.130 -17.120  -0.903  1.00  0.00     0.167 HD
ENDBRANCH  12  13
BRANCH  12  24
HETATM   24  O3  UNL     1      24.139 -20.161   0.547  1.00  0.00    -0.332 OA
ATOM     25  H3  UNL     1      24.334 -19.912   1.442  1.00  0.00     0.220 HD
ENDBRANCH  12  24
ENDBRANCH  11  12
ENDBRANCH   9  11
ENDBRANCH   8   9
ENDBRANCH   1   8
BRANCH   2  26
HETATM   26  C10 UNL     1      28.266 -15.337   2.763  1.00  0.00     0.288 C 
HETATM   27  O4  UNL     1      28.392 -16.282   3.565  1.00  0.00    -0.264 OA
HETATM   28  N4  UNL     1      29.365 -14.477   2.517  1.00  0.00    -0.271 N 
ATOM     29  H4  UNL     1      29.286 -13.698   1.863  1.00  0.00     0.189 HD
BRANCH  28  30
HETATM   30  N5  UNL     1      30.580 -14.732   3.207  1.00  0.00    -0.342 N 
ATOM     31  H52 UNL     1      30.740 -15.643   3.640  1.00  0.00     0.176 HD
ATOM     32  H51 UNL     1      31.271 -13.984   3.253  1.00  0.00     0.176 HD
ENDBRANCH  28  30
ENDBRANCH   2  26
BRANCH   5  33
HETATM   33  S1  UNL     1      23.636 -13.240   1.868  1.00  0.00     0.257 S 
HETATM   34  O5  UNL     1      22.862 -13.644   3.106  1.00  0.00    -0.203 OA
HETATM   35  O6  UNL     1      22.705 -13.422   0.706  1.00  0.00    -0.203 OA
BRANCH  33  36
HETATM   36  C11 UNL     1      24.075 -11.506   1.918  1.00  0.00     0.205 C 
BRANCH  36  37
HETATM   37  C12 UNL     1      24.908 -11.304   0.676  1.00  0.00    -0.027 A 
HETATM   38  C13 UNL     1      26.269 -11.143   0.763  1.00  0.00     0.012 A 
HETATM   39  C14 UNL     1      26.957 -10.935  -0.412  1.00  0.00     0.033 A 
HETATM   40  C15 UNL     1      26.371 -10.876  -1.663  1.00  0.00     0.073 A 
HETATM   41  N10 UNL     1      25.027 -11.046  -1.668  1.00  0.00    -0.363 N 
HETATM   42  C17 UNL     1      24.310 -11.253  -0.551  1.00  0.00     0.096 A 
ATOM     43  H10 UNL     1      24.536 -11.016  -2.562  1.00  0.00     0.165 HD
BRANCH  40  44
HETATM   44  C16 UNL     1      27.109 -10.635  -2.902  1.00  0.00     0.137 C 
HETATM   45  N8  UNL     1      26.603  -9.897  -3.819  1.00  0.00    -0.386 N 
ATOM     46  H82 UNL     1      25.680  -9.487  -3.676  1.00  0.00     0.157 HD
ATOM     47  H81 UNL     1      27.118  -9.729  -4.683  1.00  0.00     0.157 HD
HETATM   48  N9  UNL     1      28.381 -11.199  -3.099  1.00  0.00    -0.081 NA
ENDBRANCH  40  44
ENDBRANCH  36  37
ENDBRANCH  33  36
ENDBRANCH   5  33
TORSDOF 12
ENDMDL
MODEL 4
REMARK VINA RESULT: -7.793816164      2.878      4.674
REMARK  12 active torsions:
REMARK  status: ('A' for Active; 'I' for Inactive)
REMARK    1  A    between atoms: C5_9  and  C6_10 
REMARK    2  A    between atoms: C6_10  and  O3_11 
REMARK    3  A    between atoms: C6_10  and  N2_13 
REMARK    4  A    between atoms: N2_13  and  N3_14 
REMARK    5  A    between atoms: N3_14  and  C7_16 
REMARK    6  A    between atoms: C7_16  and  C8_17 
REMARK    7  A    between atoms: C9_18  and  C10_19 
REMARK       I    between atoms: C10_19  and  N4_21 
REMARK    8  A    between atoms: N4_21  and  N5_23 
REMARK    9  A    between atoms: N7_28  and  S1_29 
REMARK   10  A    between atoms: S1_29  and  C11_32 
REMARK   11  A    between atoms: C11_32  and  C12_33 
REMARK   12  A    between atoms: C15_36  and  C16_37 
ROOT
HETATM    1  C8  UNL     1      26.692 -15.541   1.625  1.00  0.00     0.086 A 
HETATM    2  C9  UNL     1      27.825 -14.901   2.078  1.00  0.00     0.136 A 
HETATM    3  N6  UNL     1      27.720 -13.645   1.584  1.00  0.00    -0.275 N 
ATOM      4  H6  UNL     1      28.413 -12.913   1.741  1.00  0.00     0.188 HD
HETATM    5  N7  UNL     1      26.620 -13.479   0.877  1.00  0.00    -0.141 N 
HETATM    6  C18 UNL     1      25.938 -14.635   0.868  1.00  0.00     0.290 A 
HETATM    7  O7  UNL     1      24.854 -14.904   0.317  1.00  0.00    -0.264 OA
ENDROOT
BRANCH   1   8
HETATM    8  C7  UNL     1      26.332 -16.933   1.864  1.00  0.00     0.140 C 
BRANCH   8   9
HETATM    9  N3  UNL     1      25.965 -17.348   2.999  1.00  0.00    -0.243 N 
ATOM     10  H3  UNL     1      25.378 -16.670   3.485  1.00  0.00     0.201 HD
BRANCH   9  11
HETATM   11  N2  UNL     1      26.154 -18.433   3.703  1.00  0.00    -0.298 NA
BRANCH  11  12
HETATM   12  C6  UNL     1      26.339 -19.556   4.430  1.00  0.00     0.269 C 
BRANCH  12  13
HETATM   13  C5  UNL     1      27.029 -19.733   5.729  1.00  0.00     0.158 A 
HETATM   14  C4  UNL     1      27.989 -20.688   5.940  1.00  0.00     0.271 A 
HETATM   15  C3  UNL     1      28.566 -20.790   7.245  1.00  0.00     0.299 A 
HETATM   16  O2  UNL     1      28.416 -21.514   5.039  1.00  0.00    -0.280 OA
HETATM   17  N1  UNL     1      28.157 -19.960   8.200  1.00  0.00    -0.310 N 
HETATM   18  O1  UNL     1      29.444 -21.664   7.426  1.00  0.00    -0.264 OA
HETATM   19  C2  UNL     1      27.222 -19.020   7.996  1.00  0.00     0.080 A 
ATOM     20  H1  UNL     1      28.573 -20.041   9.128  1.00  0.00     0.170 HD
HETATM   21  C1  UNL     1      26.785 -18.097   9.056  1.00  0.00     0.089 C 
HETATM   22  N11 UNL     1      26.694 -18.940   6.779  1.00  0.00    -0.338 N 
ATOM     23  H11 UNL     1      25.981 -18.228   6.621  1.00  0.00     0.167 HD
ENDBRANCH  12  13
BRANCH  12  24
HETATM   24  O3  UNL     1      25.870 -20.698   3.996  1.00  0.00    -0.332 OA
ATOM     25  H3  UNL     1      25.068 -20.926   4.450  1.00  0.00     0.220 HD
ENDBRANCH  12  24
ENDBRANCH  11  12
ENDBRANCH   9  11
ENDBRANCH   8   9
ENDBRANCH   1   8
BRANCH   2  26
HETATM   26  C10 UNL     1      28.907 -15.396   2.910  1.00  0.00     0.288 C 
HETATM   27  O4  UNL     1      28.728 -16.330   3.713  1.00  0.00    -0.264 OA
HETATM   28  N4  UNL     1      30.189 -14.799   2.805  1.00  0.00    -0.271 N 
ATOM     29  H4  UNL     1      30.360 -14.033   2.154  1.00  0.00     0.189 HD
BRANCH  28  30
HETATM   30  N5  UNL     1      31.228 -15.300   3.635  1.00  0.00    -0.342 N 
ATOM     31  H52 UNL     1      31.145 -15.238   4.651  1.00  0.00     0.176 HD
ATOM     32  H51 UNL     1      32.042 -15.715   3.184  1.00  0.00     0.176 HD
ENDBRANCH  28  30
ENDBRANCH   2  26
BRANCH   5  33
HETATM   33  S1  UNL     1      26.186 -12.003   0.132  1.00  0.00     0.257 S 
HETATM   34  O5  UNL     1      25.063 -12.201  -0.864  1.00  0.00    -0.203 OA
HETATM   35  O6  UNL     1      27.355 -11.474  -0.645  1.00  0.00    -0.203 OA
BRANCH  33  36
HETATM   36  C11 UNL     1      25.761 -10.759   1.346  1.00  0.00     0.205 C 
BRANCH  36  37
HETATM   37  C12 UNL     1      24.505 -11.291   1.990  1.00  0.00    -0.027 A 
HETATM   38  C13 UNL     1      24.566 -12.308   2.912  1.00  0.00     0.012 A 
HETATM   39  C14 UNL     1      23.373 -12.760   3.434  1.00  0.00     0.033 A 
HETATM   40  C15 UNL     1      22.130 -12.261   3.093  1.00  0.00     0.073 A 
HETATM   41  N10 UNL     1      22.151 -11.259   2.181  1.00  0.00    -0.363 N 
HETATM   42  C17 UNL     1      23.286 -10.782   1.643  1.00  0.00     0.096 A 
ATOM     43  H10 UNL     1      21.264 -10.847   1.890  1.00  0.00     0.165 HD
BRANCH  40  44
HETATM   44  C16 UNL     1      20.870 -12.762   3.639  1.00  0.00     0.137 C 
HETATM   45  N8  UNL     1      20.632 -12.674   4.895  1.00  0.00    -0.386 N 
ATOM     46  H82 UNL     1      21.335 -12.257   5.507  1.00  0.00     0.157 HD
ATOM     47  H81 UNL     1      19.754 -13.024   5.276  1.00  0.00     0.157 HD
HETATM   48  N9  UNL     1      19.902 -13.337   2.797  1.00  0.00    -0.081 NA
ENDBRANCH  40  44
ENDBRANCH  36  37
ENDBRANCH  33  36
ENDBRANCH   5  33
TORSDOF 12
ENDMDL
MODEL 5
REMARK VINA RESULT: -7.787285603      3.578      5.692
REMARK  12 active torsions:
REMARK  status: ('A' for Active; 'I' for Inactive)
REMARK    1  A    between atoms: C5_9  and  C6_10 
REMARK    2  A    between atoms: C6_10  and  O3_11 
REMARK    3  A    between atoms: C6_10  and  N2_13 
REMARK    4  A    between atoms: N2_13  and  N3_14 
REMARK    5  A    between atoms: N3_14  and  C7_16 
REMARK    6  A    between atoms: C7_16  and  C8_17 
REMARK    7  A    between atoms: C9_18  and  C10_19 
REMARK       I    between atoms: C10_19  and  N4_21 
REMARK    8  A    between atoms: N4_21  and  N5_23 
REMARK    9  A    between atoms: N7_28  and  S1_29 
REMARK   10  A    between atoms: S1_29  and  C11_32 
REMARK   11  A    between atoms: C11_32  and  C12_33 
REMARK   12  A    between atoms: C15_36  and  C16_37 
ROOT
HETATM    1  C8  UNL     1      26.488 -15.281   0.942  1.00  0.00     0.086 A 
HETATM    2  C9  UNL     1      27.019 -14.850   2.138  1.00  0.00     0.136 A 
HETATM    3  N6  UNL     1      26.098 -13.983   2.620  1.00  0.00    -0.275 N 
ATOM      4  H6  UNL     1      26.195 -13.482   3.503  1.00  0.00     0.188 HD
HETATM    5  N7  UNL     1      25.060 -13.861   1.816  1.00  0.00    -0.141 N 
HETATM    6  C18 UNL     1      25.253 -14.652   0.747  1.00  0.00     0.290 A 
HETATM    7  O7  UNL     1      24.517 -14.828  -0.243  1.00  0.00    -0.264 OA
ENDROOT
BRANCH   1   8
HETATM    8  C7  UNL     1      27.106 -16.218   0.012  1.00  0.00     0.140 C 
BRANCH   8   9
HETATM    9  N3  UNL     1      26.438 -17.101  -0.597  1.00  0.00    -0.243 N 
ATOM     10  H3  UNL     1      26.086 -16.767  -1.494  1.00  0.00     0.201 HD
BRANCH   9  11
HETATM   11  N2  UNL     1      26.088 -18.337  -0.358  1.00  0.00    -0.298 NA
BRANCH  11  12
HETATM   12  C6  UNL     1      25.730 -19.618  -0.121  1.00  0.00     0.269 C 
BRANCH  12  13
HETATM   13  C5  UNL     1      24.484 -20.330  -0.487  1.00  0.00     0.158 A 
HETATM   14  C4  UNL     1      24.455 -21.379  -1.367  1.00  0.00     0.271 A 
HETATM   15  C3  UNL     1      23.189 -21.972  -1.672  1.00  0.00     0.299 A 
HETATM   16  O2  UNL     1      25.497 -21.880  -1.950  1.00  0.00    -0.280 OA
HETATM   17  N1  UNL     1      22.093 -21.489  -1.094  1.00  0.00    -0.310 N 
HETATM   18  O1  UNL     1      23.174 -22.931  -2.475  1.00  0.00    -0.264 OA
HETATM   19  C2  UNL     1      22.117 -20.465  -0.228  1.00  0.00     0.080 A 
ATOM     20  H1  UNL     1      21.194 -21.916  -1.319  1.00  0.00     0.170 HD
HETATM   21  C1  UNL     1      20.900 -19.946   0.417  1.00  0.00     0.089 C 
HETATM   22  N11 UNL     1      23.301 -19.924   0.043  1.00  0.00    -0.338 N 
ATOM     23  H11 UNL     1      23.324 -19.144   0.699  1.00  0.00     0.167 HD
ENDBRANCH  12  13
BRANCH  12  24
HETATM   24  O3  UNL     1      26.547 -20.415   0.519  1.00  0.00    -0.332 OA
ATOM     25  H3  UNL     1      27.451 -20.194   0.327  1.00  0.00     0.220 HD
ENDBRANCH  12  24
ENDBRANCH  11  12
ENDBRANCH   9  11
ENDBRANCH   8   9
ENDBRANCH   1   8
BRANCH   2  26
HETATM   26  C10 UNL     1      28.261 -15.216   2.795  1.00  0.00     0.288 C 
HETATM   27  O4  UNL     1      28.328 -16.211   3.539  1.00  0.00    -0.264 OA
HETATM   28  N4  UNL     1      29.415 -14.420   2.584  1.00  0.00    -0.271 N 
ATOM     29  H4  UNL     1      29.385 -13.601   1.977  1.00  0.00     0.189 HD
BRANCH  28  30
HETATM   30  N5  UNL     1      30.616 -14.799   3.243  1.00  0.00    -0.342 N 
ATOM     31  H52 UNL     1      30.618 -15.591   3.886  1.00  0.00     0.176 HD
ATOM     32  H51 UNL     1      31.458 -14.257   3.052  1.00  0.00     0.176 HD
ENDBRANCH  28  30
ENDBRANCH   2  26
BRANCH   5  33
HETATM   33  S1  UNL     1      23.718 -12.855   2.144  1.00  0.00     0.257 S 
HETATM   34  O5  UNL     1      23.116 -13.170   3.497  1.00  0.00    -0.203 OA
HETATM   35  O6  UNL     1      22.643 -13.112   1.130  1.00  0.00    -0.203 OA
BRANCH  33  36
HETATM   36  C11 UNL     1      24.153 -11.124   2.017  1.00  0.00     0.205 C 
BRANCH  36  37
HETATM   37  C12 UNL     1      24.974 -11.045   0.754  1.00  0.00    -0.027 A 
HETATM   38  C13 UNL     1      26.332 -10.848   0.811  1.00  0.00     0.012 A 
HETATM   39  C14 UNL     1      27.008 -10.758  -0.386  1.00  0.00     0.033 A 
HETATM   40  C15 UNL     1      26.413 -10.851  -1.631  1.00  0.00     0.073 A 
HETATM   41  N10 UNL     1      25.073 -11.048  -1.606  1.00  0.00    -0.363 N 
HETATM   42  C17 UNL     1      24.368 -11.144  -0.466  1.00  0.00     0.096 A 
ATOM     43  H10 UNL     1      24.576 -11.127  -2.493  1.00  0.00     0.165 HD
BRANCH  40  44
HETATM   44  C16 UNL     1      27.139 -10.734  -2.894  1.00  0.00     0.137 C 
HETATM   45  N8  UNL     1      26.708  -9.954  -3.815  1.00  0.00    -0.386 N 
ATOM     46  H82 UNL     1      25.852  -9.422  -3.656  1.00  0.00     0.157 HD
ATOM     47  H81 UNL     1      27.214  -9.873  -4.696  1.00  0.00     0.157 HD
HETATM   48  N9  UNL     1      28.319 -11.467  -3.113  1.00  0.00    -0.081 NA
ENDBRANCH  40  44
ENDBRANCH  36  37
ENDBRANCH  33  36
ENDBRANCH   5  33
TORSDOF 12
ENDMDL
