MODEL 1
REMARK VINA RESULT: -6.553788237      0.000      0.000
REMARK  13 active torsions:
REMARK  status: ('A' for Active; 'I' for Inactive)
REMARK    1  A    between atoms: O1_2  and  C2_3 
REMARK    2  A    between atoms: C5_8  and  O4_9 
REMARK    3  A    between atoms: C7_12  and  O5_13 
REMARK    4  A    between atoms: O5_13  and  C8_14 
REMARK    5  A    between atoms: C9_18  and  O6_19 
REMARK    6  A    between atoms: O6_19  and  C10_20 
REMARK    7  A    between atoms: C14_26  and  N3_27 
REMARK    8  A    between atoms: C15_31  and  N4_32 
REMARK    9  A    between atoms: C17_37  and  N5_38 
REMARK   10  A    between atoms: C18_42  and  O7_43 
REMARK   11  A    between atoms: O7_43  and  C19_44 
REMARK   12  A    between atoms: C23_48  and  C24_49 
REMARK   13  A    between atoms: C24_49  and  N6_50 
ROOT
HETATM    1  C8  UNL     1      23.640 -16.229   0.236  1.00  0.00     0.355 C 
HETATM    2  N1  UNL     1      22.766 -16.242  -0.920  1.00  0.00    -0.018 N 
ATOM      3  H11 UNL     1      22.809 -15.376  -1.457  1.00  0.00     0.283 HD
ATOM      4  H12 UNL     1      21.779 -16.199  -0.669  1.00  0.00     0.283 HD
HETATM    5  C9  UNL     1      23.091 -17.412  -1.718  1.00  0.00     0.355 C 
HETATM    6  C15 UNL     1      22.477 -18.659  -1.154  1.00  0.00     0.241 C 
HETATM    7  C16 UNL     1      22.657 -18.548   0.368  1.00  0.00     0.074 C 
HETATM    8  C17 UNL     1      23.831 -17.649   0.690  1.00  0.00     0.241 C 
ENDROOT
BRANCH   1   9
HETATM    9  O5  UNL     1      24.793 -15.563  -0.112  1.00  0.00    -0.349 OA
BRANCH   9  10
HETATM   10  C7  UNL     1      25.132 -14.515   0.755  1.00  0.00     0.169 C 
HETATM   11  C6  UNL     1      26.322 -14.917   1.515  1.00  0.00     0.104 C 
HETATM   12  C3  UNL     1      27.077 -13.688   2.049  1.00  0.00     0.160 C 
HETATM   13  C5  UNL     1      27.450 -15.540   0.752  1.00  0.00     0.266 C 
HETATM   14  O2  UNL     1      27.418 -12.980   0.940  1.00  0.00    -0.351 OA
HETATM   15  C4  UNL     1      28.350 -14.421   2.499  1.00  0.00     0.203 C 
HETATM   16  C2  UNL     1      26.443 -12.483   0.145  1.00  0.00     0.291 C 
HETATM   17  C18 UNL     1      25.140 -13.186   0.074  1.00  0.00     0.209 C 
HETATM   18  O3  UNL     1      28.505 -15.485   1.659  1.00  0.00    -0.358 OA
BRANCH  16  19
HETATM   19  O1  UNL     1      27.045 -12.352  -1.132  1.00  0.00    -0.363 OA
HETATM   20  C1  UNL     1      26.952 -11.070  -1.638  1.00  0.00     0.204 C 
ENDBRANCH  16  19
BRANCH  17  21
HETATM   21  O7  UNL     1      24.087 -12.487   0.595  1.00  0.00    -0.348 OA
BRANCH  21  22
HETATM   22  C19 UNL     1      23.938 -11.187   0.341  1.00  0.00     0.261 C 
HETATM   23  C20 UNL     1      23.365 -10.365   1.493  1.00  0.00     0.061 C 
HETATM   24  C21 UNL     1      21.877 -10.649   1.518  1.00  0.00     0.007 C 
HETATM   25  C22 UNL     1      21.291 -10.415   0.151  1.00  0.00     0.034 C 
HETATM   26  C23 UNL     1      22.005 -11.227  -0.911  1.00  0.00     0.150 C 
HETATM   27  O8  UNL     1      23.342 -10.835  -0.866  1.00  0.00    -0.354 OA
BRANCH  26  28
HETATM   28  C24 UNL     1      21.430 -10.961  -2.283  1.00  0.00     0.261 C 
BRANCH  28  29
HETATM   29  N6  UNL     1      22.117  -9.929  -2.987  1.00  0.00    -0.077 N 
ATOM     30  H63 UNL     1      22.027  -9.036  -2.502  1.00  0.00     0.274 HD
ATOM     31  H62 UNL     1      23.126 -10.054  -2.922  1.00  0.00     0.274 HD
ATOM     32  H61 UNL     1      21.823  -9.844  -3.961  1.00  0.00     0.274 HD
ENDBRANCH  28  29
ENDBRANCH  26  28
ENDBRANCH  21  22
ENDBRANCH  17  21
BRANCH  13  33
HETATM   33  O4  UNL     1      27.204 -16.859   0.445  1.00  0.00    -0.371 OA
ATOM     34  H4  UNL     1      26.591 -16.892  -0.280  1.00  0.00     0.212 HD
ENDBRANCH  13  33
ENDBRANCH   9  10
ENDBRANCH   1   9
BRANCH   8  35
HETATM   35  N5  UNL     1      23.986 -17.648   2.133  1.00  0.00    -0.071 N 
ATOM     36  H53 UNL     1      24.914 -17.345   2.429  1.00  0.00     0.274 HD
ATOM     37  H52 UNL     1      23.449 -16.908   2.585  1.00  0.00     0.274 HD
ATOM     38  H51 UNL     1      23.746 -18.576   2.480  1.00  0.00     0.274 HD
ENDBRANCH   8  35
BRANCH   5  39
HETATM   39  O6  UNL     1      22.788 -17.149  -3.019  1.00  0.00    -0.348 OA
BRANCH  39  40
HETATM   40  C10 UNL     1      21.481 -17.236  -3.387  1.00  0.00     0.172 C 
HETATM   41  C11 UNL     1      21.434 -18.210  -4.576  1.00  0.00     0.147 C 
HETATM   42  N2  UNL     1      20.282 -18.051  -5.379  1.00  0.00    -0.419 N 
HETATM   43  C12 UNL     1      20.140 -16.781  -6.013  1.00  0.00     0.116 C 
ATOM     44  H2  UNL     1      19.596 -18.796  -5.498  1.00  0.00     0.153 HD
HETATM   45  C13 UNL     1      21.044 -15.790  -5.305  1.00  0.00     0.054 C 
HETATM   46  C14 UNL     1      20.832 -15.978  -3.824  1.00  0.00     0.215 C 
BRANCH  46  47
HETATM   47  N3  UNL     1      19.386 -16.114  -3.609  1.00  0.00    -0.072 N 
ATOM     48  H33 UNL     1      18.836 -15.733  -4.379  1.00  0.00     0.274 HD
ATOM     49  H32 UNL     1      19.067 -17.080  -3.678  1.00  0.00     0.274 HD
ATOM     50  H31 UNL     1      19.158 -15.688  -2.711  1.00  0.00     0.274 HD
ENDBRANCH  46  47
ENDBRANCH  39  40
ENDBRANCH   5  39
BRANCH   6  51
HETATM   51  N4  UNL     1      23.184 -19.858  -1.563  1.00  0.00    -0.071 N 
ATOM     52  H43 UNL     1      24.132 -19.639  -1.867  1.00  0.00     0.274 HD
ATOM     53  H42 UNL     1      23.401 -20.448  -0.761  1.00  0.00     0.274 HD
ATOM     54  H41 UNL     1      22.679 -20.381  -2.279  1.00  0.00     0.274 HD
ENDBRANCH   6  51
TORSDOF 13
ENDMDL
MODEL 2
REMARK VINA RESULT: -6.427706576      1.309      1.907
REMARK  13 active torsions:
REMARK  status: ('A' for Active; 'I' for Inactive)
REMARK    1  A    between atoms: O1_2  and  C2_3 
REMARK    2  A    between atoms: C5_8  and  O4_9 
REMARK    3  A    between atoms: C7_12  and  O5_13 
REMARK    4  A    between atoms: O5_13  and  C8_14 
REMARK    5  A    between atoms: C9_18  and  O6_19 
REMARK    6  A    between atoms: O6_19  and  C10_20 
REMARK    7  A    between atoms: C14_26  and  N3_27 
REMARK    8  A    between atoms: C15_31  and  N4_32 
REMARK    9  A    between atoms: C17_37  and  N5_38 
REMARK   10  A    between atoms: C18_42  and  O7_43 
REMARK   11  A    between atoms: O7_43  and  C19_44 
REMARK   12  A    between atoms: C23_48  and  C24_49 
REMARK   13  A    between atoms: C24_49  and  N6_50 
ROOT
HETATM    1  C8  UNL     1      23.737 -16.154   0.304  1.00  0.00     0.355 C 
HETATM    2  N1  UNL     1      22.859 -16.167  -0.850  1.00  0.00    -0.018 N 
ATOM      3  H11 UNL     1      22.937 -15.321  -1.414  1.00  0.00     0.283 HD
ATOM      4  H12 UNL     1      21.875 -16.074  -0.598  1.00  0.00     0.283 HD
HETATM    5  C9  UNL     1      23.131 -17.375  -1.610  1.00  0.00     0.355 C 
HETATM    6  C15 UNL     1      22.466 -18.575  -1.005  1.00  0.00     0.241 C 
HETATM    7  C16 UNL     1      22.656 -18.424   0.512  1.00  0.00     0.074 C 
HETATM    8  C17 UNL     1      23.869 -17.566   0.802  1.00  0.00     0.241 C 
ENDROOT
BRANCH   1   9
HETATM    9  O5  UNL     1      24.915 -15.550  -0.069  1.00  0.00    -0.349 OA
BRANCH   9  10
HETATM   10  C7  UNL     1      25.350 -14.552   0.815  1.00  0.00     0.169 C 
HETATM   11  C6  UNL     1      26.575 -15.023   1.471  1.00  0.00     0.104 C 
HETATM   12  C3  UNL     1      27.408 -13.844   2.000  1.00  0.00     0.160 C 
HETATM   13  C5  UNL     1      27.626 -15.648   0.605  1.00  0.00     0.266 C 
HETATM   14  O2  UNL     1      27.695 -13.099   0.900  1.00  0.00    -0.351 OA
HETATM   15  C4  UNL     1      28.683 -14.635   2.328  1.00  0.00     0.203 C 
HETATM   16  C2  UNL     1      26.684 -12.537   0.198  1.00  0.00     0.291 C 
HETATM   17  C18 UNL     1      25.357 -13.195   0.191  1.00  0.00     0.209 C 
HETATM   18  O3  UNL     1      28.742 -15.666   1.437  1.00  0.00    -0.358 OA
BRANCH  16  19
HETATM   19  O1  UNL     1      27.200 -12.370  -1.112  1.00  0.00    -0.363 OA
HETATM   20  C1  UNL     1      26.825 -11.169  -1.685  1.00  0.00     0.204 C 
ENDBRANCH  16  19
BRANCH  17  21
HETATM   21  O7  UNL     1      24.366 -12.486   0.814  1.00  0.00    -0.348 OA
BRANCH  21  22
HETATM   22  C19 UNL     1      23.109 -12.540   0.375  1.00  0.00     0.261 C 
HETATM   23  C20 UNL     1      22.567 -11.231  -0.193  1.00  0.00     0.061 C 
HETATM   24  C21 UNL     1      22.235 -10.357   0.999  1.00  0.00     0.007 C 
HETATM   25  C22 UNL     1      21.347 -11.111   1.953  1.00  0.00     0.034 C 
HETATM   26  C23 UNL     1      21.967 -12.429   2.372  1.00  0.00     0.150 C 
HETATM   27  O8  UNL     1      22.170 -13.153   1.197  1.00  0.00    -0.354 OA
BRANCH  26  28
HETATM   28  C24 UNL     1      21.054 -13.192   3.303  1.00  0.00     0.261 C 
BRANCH  28  29
HETATM   29  N6  UNL     1      20.982 -12.621   4.609  1.00  0.00    -0.077 N 
ATOM     30  H63 UNL     1      21.906 -12.579   5.039  1.00  0.00     0.274 HD
ATOM     31  H62 UNL     1      20.775 -11.624   4.558  1.00  0.00     0.274 HD
ATOM     32  H61 UNL     1      20.319 -13.099   5.219  1.00  0.00     0.274 HD
ENDBRANCH  28  29
ENDBRANCH  26  28
ENDBRANCH  21  22
ENDBRANCH  17  21
BRANCH  13  33
HETATM   33  O4  UNL     1      27.313 -16.944   0.262  1.00  0.00    -0.371 OA
ATOM     34  H4  UNL     1      27.607 -17.521   0.957  1.00  0.00     0.212 HD
ENDBRANCH  13  33
ENDBRANCH   9  10
ENDBRANCH   1   9
BRANCH   8  35
HETATM   35  N5  UNL     1      24.028 -17.525   2.244  1.00  0.00    -0.071 N 
ATOM     36  H53 UNL     1      24.965 -17.240   2.528  1.00  0.00     0.274 HD
ATOM     37  H52 UNL     1      23.514 -16.757   2.675  1.00  0.00     0.274 HD
ATOM     38  H51 UNL     1      23.764 -18.436   2.619  1.00  0.00     0.274 HD
ENDBRANCH   8  35
BRANCH   5  39
HETATM   39  O6  UNL     1      22.834 -17.140  -2.919  1.00  0.00    -0.348 OA
BRANCH  39  40
HETATM   40  C10 UNL     1      21.532 -17.252  -3.294  1.00  0.00     0.172 C 
HETATM   41  C11 UNL     1      21.508 -18.236  -4.475  1.00  0.00     0.147 C 
HETATM   42  N2  UNL     1      20.359 -18.102  -5.288  1.00  0.00    -0.419 N 
HETATM   43  C12 UNL     1      20.201 -16.840  -5.933  1.00  0.00     0.116 C 
ATOM     44  H2  UNL     1      19.686 -18.859  -5.405  1.00  0.00     0.153 HD
HETATM   45  C13 UNL     1      21.085 -15.829  -5.228  1.00  0.00     0.054 C 
HETATM   46  C14 UNL     1      20.865 -16.008  -3.747  1.00  0.00     0.215 C 
BRANCH  46  47
HETATM   47  N3  UNL     1      19.420 -16.165  -3.540  1.00  0.00    -0.072 N 
ATOM     48  H33 UNL     1      18.907 -15.293  -3.670  1.00  0.00     0.274 HD
ATOM     49  H32 UNL     1      18.972 -16.699  -4.284  1.00  0.00     0.274 HD
ATOM     50  H31 UNL     1      19.275 -16.575  -2.618  1.00  0.00     0.274 HD
ENDBRANCH  46  47
ENDBRANCH  39  40
ENDBRANCH   5  39
BRANCH   6  51
HETATM   51  N4  UNL     1      23.119 -19.816  -1.378  1.00  0.00    -0.071 N 
ATOM     52  H43 UNL     1      23.461 -19.777  -2.338  1.00  0.00     0.274 HD
ATOM     53  H42 UNL     1      24.009 -19.923  -0.892  1.00  0.00     0.274 HD
ATOM     54  H41 UNL     1      22.521 -20.630  -1.233  1.00  0.00     0.274 HD
ENDBRANCH   6  51
TORSDOF 13
ENDMDL
MODEL 3
REMARK VINA RESULT: -6.254997966      5.261      9.748
REMARK  13 active torsions:
REMARK  status: ('A' for Active; 'I' for Inactive)
REMARK    1  A    between atoms: O1_2  and  C2_3 
REMARK    2  A    between atoms: C5_8  and  O4_9 
REMARK    3  A    between atoms: C7_12  and  O5_13 
REMARK    4  A    between atoms: O5_13  and  C8_14 
REMARK    5  A    between atoms: C9_18  and  O6_19 
REMARK    6  A    between atoms: O6_19  and  C10_20 
REMARK    7  A    between atoms: C14_26  and  N3_27 
REMARK    8  A    between atoms: C15_31  and  N4_32 
REMARK    9  A    between atoms: C17_37  and  N5_38 
REMARK   10  A    between atoms: C18_42  and  O7_43 
REMARK   11  A    between atoms: O7_43  and  C19_44 
REMARK   12  A    between atoms: C23_48  and  C24_49 
REMARK   13  A    between atoms: C24_49  and  N6_50 
ROOT
HETATM    1  C8  UNL     1      26.168 -16.935   1.523  1.00  0.00     0.355 C 
HETATM    2  N1  UNL     1      26.143 -16.492   2.903  1.00  0.00    -0.018 N 
ATOM      3  H11 UNL     1      25.720 -17.178   3.529  1.00  0.00     0.283 HD
ATOM      4  H12 UNL     1      25.480 -15.734   3.062  1.00  0.00     0.283 HD
HETATM    5  C9  UNL     1      27.499 -16.141   3.289  1.00  0.00     0.355 C 
HETATM    6  C15 UNL     1      27.886 -14.782   2.788  1.00  0.00     0.241 C 
HETATM    7  C16 UNL     1      27.323 -14.699   1.361  1.00  0.00     0.074 C 
HETATM    8  C17 UNL     1      27.165 -16.088   0.782  1.00  0.00     0.241 C 
ENDROOT
BRANCH   1   9
HETATM    9  O5  UNL     1      26.427 -18.287   1.517  1.00  0.00    -0.349 OA
BRANCH   9  10
HETATM   10  C7  UNL     1      25.277 -19.089   1.507  1.00  0.00     0.169 C 
HETATM   11  C6  UNL     1      25.068 -19.573   0.137  1.00  0.00     0.104 C 
HETATM   12  C3  UNL     1      24.215 -20.852   0.127  1.00  0.00     0.160 C 
HETATM   13  C5  UNL     1      26.259 -20.110  -0.595  1.00  0.00     0.266 C 
HETATM   14  O2  UNL     1      24.924 -21.749   0.862  1.00  0.00    -0.351 OA
HETATM   15  C4  UNL     1      24.443 -21.228  -1.345  1.00  0.00     0.203 C 
HETATM   16  C2  UNL     1      25.168 -21.491   2.167  1.00  0.00     0.291 C 
HETATM   17  C18 UNL     1      25.261 -20.083   2.621  1.00  0.00     0.209 C 
HETATM   18  O3  UNL     1      25.686 -20.773  -1.676  1.00  0.00    -0.358 OA
BRANCH  16  19
HETATM   19  O1  UNL     1      26.343 -22.225   2.471  1.00  0.00    -0.363 OA
HETATM   20  C1  UNL     1      26.288 -23.531   2.023  1.00  0.00     0.204 C 
ENDBRANCH  16  19
BRANCH  17  21
HETATM   21  O7  UNL     1      24.259 -19.690   3.466  1.00  0.00    -0.348 OA
BRANCH  21  22
HETATM   22  C19 UNL     1      23.522 -20.590   4.116  1.00  0.00     0.261 C 
HETATM   23  C20 UNL     1      22.014 -20.377   4.025  1.00  0.00     0.061 C 
HETATM   24  C21 UNL     1      21.686 -19.248   4.980  1.00  0.00     0.007 C 
HETATM   25  C22 UNL     1      22.255 -19.550   6.341  1.00  0.00     0.034 C 
HETATM   26  C23 UNL     1      23.744 -19.825   6.277  1.00  0.00     0.150 C 
HETATM   27  O8  UNL     1      23.902 -20.910   5.415  1.00  0.00    -0.354 OA
BRANCH  26  28
HETATM   28  C24 UNL     1      24.299 -20.159   7.642  1.00  0.00     0.261 C 
BRANCH  28  29
HETATM   29  N6  UNL     1      24.452 -19.015   8.480  1.00  0.00    -0.077 N 
ATOM     30  H63 UNL     1      24.679 -19.291   9.436  1.00  0.00     0.274 HD
ATOM     31  H62 UNL     1      25.303 -18.505   8.247  1.00  0.00     0.274 HD
ATOM     32  H61 UNL     1      23.641 -18.395   8.465  1.00  0.00     0.274 HD
ENDBRANCH  28  29
ENDBRANCH  26  28
ENDBRANCH  21  22
ENDBRANCH  17  21
BRANCH  13  33
HETATM   33  O4  UNL     1      27.070 -19.107  -1.075  1.00  0.00    -0.371 OA
ATOM     34  H4  UNL     1      27.781 -19.501  -1.567  1.00  0.00     0.212 HD
ENDBRANCH  13  33
ENDBRANCH   9  10
ENDBRANCH   1   9
BRANCH   8  35
HETATM   35  N5  UNL     1      26.700 -15.932  -0.584  1.00  0.00    -0.071 N 
ATOM     36  H53 UNL     1      26.962 -16.716  -1.182  1.00  0.00     0.274 HD
ATOM     37  H52 UNL     1      25.688 -16.027  -0.669  1.00  0.00     0.274 HD
ATOM     38  H51 UNL     1      27.041 -15.038  -0.937  1.00  0.00     0.274 HD
ENDBRANCH   8  35
BRANCH   5  39
HETATM   39  O6  UNL     1      27.630 -16.329   4.631  1.00  0.00    -0.348 OA
BRANCH  39  40
HETATM   40  C10 UNL     1      28.270 -17.455   5.046  1.00  0.00     0.172 C 
HETATM   41  C11 UNL     1      27.173 -18.501   5.305  1.00  0.00     0.147 C 
HETATM   42  N2  UNL     1      27.585 -19.531   6.181  1.00  0.00    -0.419 N 
HETATM   43  C12 UNL     1      27.937 -19.119   7.500  1.00  0.00     0.116 C 
ATOM     44  H2  UNL     1      27.627 -20.508   5.889  1.00  0.00     0.153 HD
HETATM   45  C13 UNL     1      28.191 -17.624   7.481  1.00  0.00     0.054 C 
HETATM   46  C14 UNL     1      29.070 -17.341   6.288  1.00  0.00     0.215 C 
BRANCH  46  47
HETATM   47  N3  UNL     1      30.106 -18.381   6.259  1.00  0.00    -0.072 N 
ATOM     48  H33 UNL     1      29.737 -19.310   6.464  1.00  0.00     0.274 HD
ATOM     49  H32 UNL     1      30.445 -18.573   5.317  1.00  0.00     0.274 HD
ATOM     50  H31 UNL     1      30.851 -18.102   6.897  1.00  0.00     0.274 HD
ENDBRANCH  46  47
ENDBRANCH  39  40
ENDBRANCH   5  39
BRANCH   6  51
HETATM   51  N4  UNL     1      29.324 -14.624   2.671  1.00  0.00    -0.071 N 
ATOM     52  H43 UNL     1      29.640 -13.777   3.143  1.00  0.00     0.274 HD
ATOM     53  H42 UNL     1      29.816 -15.317   3.233  1.00  0.00     0.274 HD
ATOM     54  H41 UNL     1      29.639 -14.645   1.701  1.00  0.00     0.274 HD
ENDBRANCH   6  51
TORSDOF 13
ENDMDL
MODEL 4
REMARK VINA RESULT: -6.240659556      2.245      3.157
REMARK  13 active torsions:
REMARK  status: ('A' for Active; 'I' for Inactive)
REMARK    1  A    between atoms: O1_2  and  C2_3 
REMARK    2  A    between atoms: C5_8  and  O4_9 
REMARK    3  A    between atoms: C7_12  and  O5_13 
REMARK    4  A    between atoms: O5_13  and  C8_14 
REMARK    5  A    between atoms: C9_18  and  O6_19 
REMARK    6  A    between atoms: O6_19  and  C10_20 
REMARK    7  A    between atoms: C14_26  and  N3_27 
REMARK    8  A    between atoms: C15_31  and  N4_32 
REMARK    9  A    between atoms: C17_37  and  N5_38 
REMARK   10  A    between atoms: C18_42  and  O7_43 
REMARK   11  A    between atoms: O7_43  and  C19_44 
REMARK   12  A    between atoms: C23_48  and  C24_49 
REMARK   13  A    between atoms: C24_49  and  N6_50 
ROOT
HETATM    1  C8  UNL     1      23.070 -15.071   0.133  1.00  0.00     0.355 C 
HETATM    2  N1  UNL     1      22.505 -16.019  -0.808  1.00  0.00    -0.018 N 
ATOM      3  H11 UNL     1      23.070 -16.120  -1.651  1.00  0.00     0.283 HD
ATOM      4  H12 UNL     1      21.655 -15.673  -1.252  1.00  0.00     0.283 HD
HETATM    5  C9  UNL     1      22.303 -17.278  -0.113  1.00  0.00     0.355 C 
HETATM    6  C15 UNL     1      21.058 -17.260   0.723  1.00  0.00     0.241 C 
HETATM    7  C16 UNL     1      21.031 -15.873   1.381  1.00  0.00     0.074 C 
HETATM    8  C17 UNL     1      22.433 -15.312   1.473  1.00  0.00     0.241 C 
ENDROOT
BRANCH   1   9
HETATM    9  O5  UNL     1      24.439 -15.208   0.101  1.00  0.00    -0.349 OA
BRANCH   9  10
HETATM   10  C7  UNL     1      25.123 -14.315   0.937  1.00  0.00     0.169 C 
HETATM   11  C6  UNL     1      26.323 -14.991   1.445  1.00  0.00     0.104 C 
HETATM   12  C3  UNL     1      27.387 -13.972   1.886  1.00  0.00     0.160 C 
HETATM   13  C5  UNL     1      27.157 -15.750   0.459  1.00  0.00     0.266 C 
HETATM   14  O2  UNL     1      27.665 -13.252   0.767  1.00  0.00    -0.351 OA
HETATM   15  C4  UNL     1      28.548 -14.963   2.059  1.00  0.00     0.203 C 
HETATM   16  C2  UNL     1      26.685 -12.520   0.189  1.00  0.00     0.291 C 
HETATM   17  C18 UNL     1      25.277 -12.960   0.328  1.00  0.00     0.209 C 
HETATM   18  O3  UNL     1      28.342 -15.966   1.157  1.00  0.00    -0.358 OA
BRANCH  16  19
HETATM   19  O1  UNL     1      27.072 -12.401  -1.170  1.00  0.00    -0.363 OA
HETATM   20  C1  UNL     1      27.011 -11.100  -1.630  1.00  0.00     0.204 C 
ENDBRANCH  16  19
BRANCH  17  21
HETATM   21  O7  UNL     1      24.488 -12.121   1.067  1.00  0.00    -0.348 OA
BRANCH  21  22
HETATM   22  C19 UNL     1      24.143 -10.922   0.600  1.00  0.00     0.261 C 
HETATM   23  C20 UNL     1      23.538  -9.976   1.633  1.00  0.00     0.061 C 
HETATM   24  C21 UNL     1      22.109 -10.433   1.842  1.00  0.00     0.007 C 
HETATM   25  C22 UNL     1      21.408 -10.536   0.513  1.00  0.00     0.034 C 
HETATM   26  C23 UNL     1      22.157 -11.438  -0.447  1.00  0.00     0.150 C 
HETATM   27  O8  UNL     1      23.427 -10.880  -0.592  1.00  0.00    -0.354 OA
BRANCH  26  28
HETATM   28  C24 UNL     1      21.463 -11.509  -1.787  1.00  0.00     0.261 C 
BRANCH  28  29
HETATM   29  N6  UNL     1      21.703 -10.365  -2.603  1.00  0.00    -0.077 N 
ATOM     30  H63 UNL     1      21.595  -9.505  -2.065  1.00  0.00     0.274 HD
ATOM     31  H62 UNL     1      22.691 -10.290  -2.842  1.00  0.00     0.274 HD
ATOM     32  H61 UNL     1      21.123 -10.342  -3.442  1.00  0.00     0.274 HD
ENDBRANCH  28  29
ENDBRANCH  26  28
ENDBRANCH  21  22
ENDBRANCH  17  21
BRANCH  13  33
HETATM   33  O4  UNL     1      26.605 -16.971   0.143  1.00  0.00    -0.371 OA
ATOM     34  H4  UNL     1      25.711 -16.833  -0.147  1.00  0.00     0.212 HD
ENDBRANCH  13  33
ENDBRANCH   9  10
ENDBRANCH   1   9
BRANCH   8  35
HETATM   35  N5  UNL     1      22.340 -14.040   2.166  1.00  0.00    -0.071 N 
ATOM     36  H53 UNL     1      21.576 -13.459   1.822  1.00  0.00     0.274 HD
ATOM     37  H52 UNL     1      22.016 -14.138   3.128  1.00  0.00     0.274 HD
ATOM     38  H51 UNL     1      23.246 -13.575   2.102  1.00  0.00     0.274 HD
ENDBRANCH   8  35
BRANCH   5  39
HETATM   39  O6  UNL     1      22.384 -18.292  -1.019  1.00  0.00    -0.348 OA
BRANCH  39  40
HETATM   40  C10 UNL     1      23.562 -18.968  -1.097  1.00  0.00     0.172 C 
HETATM   41  C11 UNL     1      23.323 -20.134  -2.072  1.00  0.00     0.147 C 
HETATM   42  N2  UNL     1      24.243 -21.194  -1.905  1.00  0.00    -0.419 N 
HETATM   43  C12 UNL     1      24.216 -21.842  -0.634  1.00  0.00     0.116 C 
ATOM     44  H2  UNL     1      24.884 -21.478  -2.645  1.00  0.00     0.153 HD
HETATM   45  C13 UNL     1      23.505 -20.934   0.350  1.00  0.00     0.054 C 
HETATM   46  C14 UNL     1      24.075 -19.550   0.165  1.00  0.00     0.215 C 
BRANCH  46  47
HETATM   47  N3  UNL     1      25.530 -19.695   0.040  1.00  0.00    -0.072 N 
ATOM     48  H33 UNL     1      25.891 -19.312  -0.834  1.00  0.00     0.274 HD
ATOM     49  H32 UNL     1      26.043 -19.087   0.678  1.00  0.00     0.274 HD
ATOM     50  H31 UNL     1      25.761 -20.681   0.164  1.00  0.00     0.274 HD
ENDBRANCH  46  47
ENDBRANCH  39  40
ENDBRANCH   5  39
BRANCH   6  51
HETATM   51  N4  UNL     1      21.103 -18.226   1.804  1.00  0.00    -0.071 N 
ATOM     52  H43 UNL     1      22.063 -18.500   2.012  1.00  0.00     0.274 HD
ATOM     53  H42 UNL     1      20.860 -17.793   2.695  1.00  0.00     0.274 HD
ATOM     54  H41 UNL     1      20.519 -19.043   1.621  1.00  0.00     0.274 HD
ENDBRANCH   6  51
TORSDOF 13
ENDMDL
MODEL 5
REMARK VINA RESULT: -6.176669785      1.898      2.599
REMARK  13 active torsions:
REMARK  status: ('A' for Active; 'I' for Inactive)
REMARK    1  A    between atoms: O1_2  and  C2_3 
REMARK    2  A    between atoms: C5_8  and  O4_9 
REMARK    3  A    between atoms: C7_12  and  O5_13 
REMARK    4  A    between atoms: O5_13  and  C8_14 
REMARK    5  A    between atoms: C9_18  and  O6_19 
REMARK    6  A    between atoms: O6_19  and  C10_20 
REMARK    7  A    between atoms: C14_26  and  N3_27 
REMARK    8  A    between atoms: C15_31  and  N4_32 
REMARK    9  A    between atoms: C17_37  and  N5_38 
REMARK   10  A    between atoms: C18_42  and  O7_43 
REMARK   11  A    between atoms: O7_43  and  C19_44 
REMARK   12  A    between atoms: C23_48  and  C24_49 
REMARK   13  A    between atoms: C24_49  and  N6_50 
ROOT
HETATM    1  C8  UNL     1      23.822 -16.329   0.605  1.00  0.00     0.355 C 
HETATM    2  N1  UNL     1      22.570 -15.911   0.004  1.00  0.00    -0.018 N 
ATOM      3  H11 UNL     1      22.519 -14.902  -0.137  1.00  0.00     0.283 HD
ATOM      4  H12 UNL     1      21.778 -16.001   0.639  1.00  0.00     0.283 HD
HETATM    5  C9  UNL     1      22.390 -16.659  -1.228  1.00  0.00     0.355 C 
HETATM    6  C15 UNL     1      21.881 -18.046  -0.968  1.00  0.00     0.241 C 
HETATM    7  C16 UNL     1      22.659 -18.540   0.262  1.00  0.00     0.074 C 
HETATM    8  C17 UNL     1      23.977 -17.806   0.374  1.00  0.00     0.241 C 
ENDROOT
BRANCH   1   9
HETATM    9  O5  UNL     1      24.824 -15.544   0.085  1.00  0.00    -0.349 OA
BRANCH   9  10
HETATM   10  C7  UNL     1      25.276 -14.542   0.954  1.00  0.00     0.169 C 
HETATM   11  C6  UNL     1      26.502 -15.018   1.605  1.00  0.00     0.104 C 
HETATM   12  C3  UNL     1      27.351 -13.842   2.116  1.00  0.00     0.160 C 
HETATM   13  C5  UNL     1      27.539 -15.662   0.737  1.00  0.00     0.266 C 
HETATM   14  O2  UNL     1      27.636 -13.111   1.006  1.00  0.00    -0.351 OA
HETATM   15  C4  UNL     1      28.620 -14.643   2.442  1.00  0.00     0.203 C 
HETATM   16  C2  UNL     1      26.626 -12.546   0.306  1.00  0.00     0.291 C 
HETATM   17  C18 UNL     1      25.291 -13.191   0.316  1.00  0.00     0.209 C 
HETATM   18  O3  UNL     1      28.662 -15.683   1.560  1.00  0.00    -0.358 OA
BRANCH  16  19
HETATM   19  O1  UNL     1      27.132 -12.397  -1.009  1.00  0.00    -0.363 OA
HETATM   20  C1  UNL     1      26.765 -11.198  -1.591  1.00  0.00     0.204 C 
ENDBRANCH  16  19
BRANCH  17  21
HETATM   21  O7  UNL     1      24.313 -12.466   0.941  1.00  0.00    -0.348 OA
BRANCH  21  22
HETATM   22  C19 UNL     1      23.063 -12.470   0.481  1.00  0.00     0.261 C 
HETATM   23  C20 UNL     1      22.561 -11.125  -0.038  1.00  0.00     0.061 C 
HETATM   24  C21 UNL     1      22.232 -10.294   1.184  1.00  0.00     0.007 C 
HETATM   25  C22 UNL     1      21.310 -11.066   2.091  1.00  0.00     0.034 C 
HETATM   26  C23 UNL     1      21.890 -12.416   2.463  1.00  0.00     0.150 C 
HETATM   27  O8  UNL     1      22.095 -13.094   1.261  1.00  0.00    -0.354 OA
BRANCH  26  28
HETATM   28  C24 UNL     1      20.944 -13.195   3.346  1.00  0.00     0.261 C 
BRANCH  28  29
HETATM   29  N6  UNL     1      20.855 -12.672   4.670  1.00  0.00    -0.077 N 
ATOM     30  H63 UNL     1      21.369 -11.795   4.750  1.00  0.00     0.274 HD
ATOM     31  H62 UNL     1      19.913 -12.332   4.863  1.00  0.00     0.274 HD
ATOM     32  H61 UNL     1      21.156 -13.335   5.384  1.00  0.00     0.274 HD
ENDBRANCH  28  29
ENDBRANCH  26  28
ENDBRANCH  21  22
ENDBRANCH  17  21
BRANCH  13  33
HETATM   33  O4  UNL     1      27.211 -16.958   0.409  1.00  0.00    -0.371 OA
ATOM     34  H4  UNL     1      27.627 -17.177  -0.416  1.00  0.00     0.212 HD
ENDBRANCH  13  33
ENDBRANCH   9  10
ENDBRANCH   1   9
BRANCH   8  35
HETATM   35  N5  UNL     1      24.685 -18.370   1.508  1.00  0.00    -0.071 N 
ATOM     36  H53 UNL     1      24.405 -19.330   1.710  1.00  0.00     0.274 HD
ATOM     37  H52 UNL     1      25.668 -18.554   1.307  1.00  0.00     0.274 HD
ATOM     38  H51 UNL     1      24.557 -17.748   2.306  1.00  0.00     0.274 HD
ENDBRANCH   8  35
BRANCH   5  39
HETATM   39  O6  UNL     1      21.639 -15.912  -2.084  1.00  0.00    -0.348 OA
BRANCH  39  40
HETATM   40  C10 UNL     1      20.563 -15.261  -1.567  1.00  0.00     0.172 C 
HETATM   41  C11 UNL     1      19.324 -15.887  -2.228  1.00  0.00     0.147 C 
HETATM   42  N2  UNL     1      18.190 -15.043  -2.194  1.00  0.00    -0.419 N 
HETATM   43  C12 UNL     1      18.320 -13.804  -2.889  1.00  0.00     0.116 C 
ATOM     44  H2  UNL     1      17.335 -15.302  -1.704  1.00  0.00     0.153 HD
HETATM   45  C13 UNL     1      19.796 -13.535  -3.114  1.00  0.00     0.054 C 
HETATM   46  C14 UNL     1      20.497 -13.800  -1.806  1.00  0.00     0.215 C 
BRANCH  46  47
HETATM   47  N3  UNL     1      19.675 -13.203  -0.746  1.00  0.00    -0.072 N 
ATOM     48  H33 UNL     1      18.773 -12.870  -1.087  1.00  0.00     0.274 HD
ATOM     49  H32 UNL     1      19.325 -13.893  -0.083  1.00  0.00     0.274 HD
ATOM     50  H31 UNL     1      20.223 -12.468  -0.298  1.00  0.00     0.274 HD
ENDBRANCH  46  47
ENDBRANCH  39  40
ENDBRANCH   5  39
BRANCH   6  51
HETATM   51  N4  UNL     1      22.197 -18.963  -2.047  1.00  0.00    -0.071 N 
ATOM     52  H43 UNL     1      22.142 -18.496  -2.953  1.00  0.00     0.274 HD
ATOM     53  H42 UNL     1      23.187 -19.203  -2.047  1.00  0.00     0.274 HD
ATOM     54  H41 UNL     1      21.614 -19.800  -2.029  1.00  0.00     0.274 HD
ENDBRANCH   6  51
TORSDOF 13
ENDMDL
