MODEL 1
REMARK VINA RESULT: -5.795381322      0.000      0.000
REMARK  11 active torsions:
REMARK  status: ('A' for Active; 'I' for Inactive)
REMARK    1  A    between atoms: O1_2  and  C2_3 
REMARK    2  A    between atoms: C2_3  and  C3_5 
REMARK       I    between atoms: N2_8  and  C4_9 
REMARK       I    between atoms: C4_9  and  N4_13 
REMARK    3  A    between atoms: C5_14  and  S1_15 
REMARK    4  A    between atoms: S1_15  and  N5_18 
REMARK    5  A    between atoms: N5_18  and  C6_20 
REMARK    6  A    between atoms: C11_25  and  N6_26 
REMARK    7  A    between atoms: C15_37  and  N9_38 
REMARK       I    between atoms: N9_38  and  C16_40 
REMARK    8  A    between atoms: C16_40  and  C17_42 
REMARK    9  A    between atoms: C17_42  and  N10_43 
REMARK   10  A    between atoms: C17_42  and  C18_47 
REMARK   11  A    between atoms: C18_47  and  O7_49 
ROOT
HETATM    1  C3  UNL     1      26.634 -16.467   2.897  1.00  0.00     0.157 A 
HETATM    2  N1  UNL     1      26.374 -15.179   3.157  1.00  0.00    -0.269 N 
ATOM      3  H1  UNL     1      26.460 -14.759   4.083  1.00  0.00     0.188 HD
HETATM    4  N2  UNL     1      25.993 -14.514   2.083  1.00  0.00    -0.045 N 
HETATM    5  C4  UNL     1      25.658 -13.127   2.064  1.00  0.00     0.709 C 
HETATM    6  N3  UNL     1      26.189 -12.347   2.968  1.00  0.00    -0.232 N 
ATOM      7  H31 UNL     1      25.950 -11.356   2.954  1.00  0.00     0.174 HD
ATOM      8  H32 UNL     1      26.820 -12.782   3.642  1.00  0.00     0.174 HD
HETATM    9  N4  UNL     1      24.786 -12.525   1.132  1.00  0.00    -0.117 N 
HETATM   10  C5  UNL     1      23.422 -12.467   1.331  1.00  0.00     0.174 A 
HETATM   11  C9  UNL     1      22.886 -11.812   0.245  1.00  0.00     0.064 A 
HETATM   12  C10 UNL     1      23.925 -11.465  -0.628  1.00  0.00     0.056 A 
HETATM   13  C11 UNL     1      23.987 -10.816  -1.836  1.00  0.00     0.114 A 
HETATM   14  N7  UNL     1      25.183 -10.637  -2.427  1.00  0.00    -0.338 N 
ATOM     15  H7  UNL     1      25.237 -10.155  -3.324  1.00  0.00     0.168 HD
HETATM   16  C12 UNL     1      26.320 -11.095  -1.838  1.00  0.00     0.183 A 
HETATM   17  N8  UNL     1      26.234 -11.726  -0.659  1.00  0.00    -0.337 N 
ATOM     18  H8  UNL     1      27.092 -12.066  -0.224  1.00  0.00     0.168 HD
HETATM   19  C13 UNL     1      25.066 -11.932  -0.024  1.00  0.00     0.145 A 
HETATM   20  C14 UNL     1      26.000 -15.391   1.073  1.00  0.00     0.311 A 
HETATM   21  O5  UNL     1      25.700 -15.166  -0.123  1.00  0.00    -0.263 OA
HETATM   22  C15 UNL     1      26.401 -16.636   1.554  1.00  0.00     0.140 A 
ENDROOT
BRANCH  10  23
HETATM   23  S1  UNL     1      22.552 -13.101   2.676  1.00  0.00     0.276 S 
HETATM   24  O3  UNL     1      23.230 -12.560   3.933  1.00  0.00    -0.199 OA
HETATM   25  O4  UNL     1      21.162 -12.473   2.717  1.00  0.00    -0.199 OA
BRANCH  23  26
HETATM   26  N5  UNL     1      22.460 -14.743   2.733  1.00  0.00    -0.310 N 
ATOM     27  H5  UNL     1      23.009 -15.244   3.430  1.00  0.00     0.172 HD
BRANCH  26  28
HETATM   28  C6  UNL     1      21.649 -15.472   1.853  1.00  0.00     0.085 C 
HETATM   29  C7  UNL     1      22.236 -15.777   0.515  1.00  0.00     0.032 C 
HETATM   30  C8  UNL     1      21.405 -16.853   2.522  1.00  0.00     0.032 C 
ENDBRANCH  26  28
ENDBRANCH  23  26
ENDBRANCH  10  23
BRANCH   1  31
HETATM   31  C2  UNL     1      27.079 -17.496   3.867  1.00  0.00     0.313 C 
HETATM   32  O2  UNL     1      26.389 -18.527   4.036  1.00  0.00    -0.257 OA
BRANCH  31  33
HETATM   33  O1  UNL     1      28.240 -17.341   4.590  1.00  0.00    -0.321 OA
HETATM   34  C1  UNL     1      28.511 -18.110   5.771  1.00  0.00     0.213 C 
ENDBRANCH  31  33
ENDBRANCH   1  31
BRANCH  22  35
HETATM   35  N9  UNL     1      26.553 -17.836   0.817  1.00  0.00    -0.319 N 
HETATM   36  C16 UNL     1      25.491 -18.754   0.659  1.00  0.00     0.255 C 
HETATM   37  O6  UNL     1      24.386 -18.477   1.196  1.00  0.00    -0.271 OA
ATOM     38  H9  UNL     1      27.455 -18.044   0.387  1.00  0.00     0.169 HD
BRANCH  36  39
HETATM   39  C17 UNL     1      25.568 -20.020  -0.087  1.00  0.00     0.302 C 
BRANCH  39  40
HETATM   40  N10 UNL     1      24.530 -20.216  -1.046  1.00  0.00    -0.064 N 
ATOM     41 3H10 UNL     1      24.224 -19.319  -1.424  1.00  0.00     0.275 HD
ATOM     42 2H10 UNL     1      24.907 -20.645  -1.891  1.00  0.00     0.275 HD
ATOM     43 1H10 UNL     1      23.728 -20.748  -0.709  1.00  0.00     0.275 HD
ENDBRANCH  39  40
BRANCH  39  44
HETATM   44  C18 UNL     1      25.699 -21.222   0.822  1.00  0.00     0.153 C 
HETATM   45  C19 UNL     1      24.436 -22.035   0.900  1.00  0.00     0.042 C 
BRANCH  44  46
HETATM   46  O7  UNL     1      26.064 -20.820   2.125  1.00  0.00    -0.393 OA
ATOM     47  H7  UNL     1      26.739 -21.392   2.473  1.00  0.00     0.210 HD
ENDBRANCH  44  46
ENDBRANCH  39  44
ENDBRANCH  36  39
ENDBRANCH  22  35
BRANCH  13  48
HETATM   48  N6  UNL     1      22.932 -10.366  -2.424  1.00  0.00    -0.385 N 
ATOM     49  H62 UNL     1      22.141 -10.067  -1.852  1.00  0.00     0.157 HD
ATOM     50  H61 UNL     1      22.865 -10.305  -3.440  1.00  0.00     0.157 HD
ENDBRANCH  13  48
TORSDOF 11
ENDMDL
MODEL 2
REMARK VINA RESULT: -5.790411610      1.373      1.577
REMARK  11 active torsions:
REMARK  status: ('A' for Active; 'I' for Inactive)
REMARK    1  A    between atoms: O1_2  and  C2_3 
REMARK    2  A    between atoms: C2_3  and  C3_5 
REMARK       I    between atoms: N2_8  and  C4_9 
REMARK       I    between atoms: C4_9  and  N4_13 
REMARK    3  A    between atoms: C5_14  and  S1_15 
REMARK    4  A    between atoms: S1_15  and  N5_18 
REMARK    5  A    between atoms: N5_18  and  C6_20 
REMARK    6  A    between atoms: C11_25  and  N6_26 
REMARK    7  A    between atoms: C15_37  and  N9_38 
REMARK       I    between atoms: N9_38  and  C16_40 
REMARK    8  A    between atoms: C16_40  and  C17_42 
REMARK    9  A    between atoms: C17_42  and  N10_43 
REMARK   10  A    between atoms: C17_42  and  C18_47 
REMARK   11  A    between atoms: C18_47  and  O7_49 
ROOT
HETATM    1  C3  UNL     1      26.640 -16.428   2.898  1.00  0.00     0.157 A 
HETATM    2  N1  UNL     1      26.389 -15.137   3.153  1.00  0.00    -0.269 N 
ATOM      3  H1  UNL     1      26.497 -14.710   4.073  1.00  0.00     0.188 HD
HETATM    4  N2  UNL     1      25.986 -14.480   2.082  1.00  0.00    -0.045 N 
HETATM    5  C4  UNL     1      25.654 -13.092   2.058  1.00  0.00     0.709 C 
HETATM    6  N3  UNL     1      26.208 -12.306   2.944  1.00  0.00    -0.232 N 
ATOM      7  H31 UNL     1      25.971 -11.314   2.927  1.00  0.00     0.174 HD
ATOM      8  H32 UNL     1      26.852 -12.737   3.607  1.00  0.00     0.174 HD
HETATM    9  N4  UNL     1      24.763 -12.495   1.141  1.00  0.00    -0.117 N 
HETATM   10  C5  UNL     1      23.404 -12.432   1.371  1.00  0.00     0.174 A 
HETATM   11  C9  UNL     1      22.846 -11.784   0.290  1.00  0.00     0.064 A 
HETATM   12  C10 UNL     1      23.866 -11.447  -0.609  1.00  0.00     0.056 A 
HETATM   13  C11 UNL     1      23.903 -10.809  -1.823  1.00  0.00     0.114 A 
HETATM   14  N7  UNL     1      25.085 -10.639  -2.442  1.00  0.00    -0.338 N 
ATOM     15  H7  UNL     1      25.120 -10.165  -3.344  1.00  0.00     0.168 HD
HETATM   16  C12 UNL     1      26.234 -11.095  -1.875  1.00  0.00     0.183 A 
HETATM   17  N8  UNL     1      26.173 -11.716  -0.689  1.00  0.00    -0.337 N 
ATOM     18  H8  UNL     1      27.039 -12.055  -0.270  1.00  0.00     0.168 HD
HETATM   19  C13 UNL     1      25.019 -11.913  -0.026  1.00  0.00     0.145 A 
HETATM   20  C14 UNL     1      25.967 -15.365   1.079  1.00  0.00     0.311 A 
HETATM   21  O5  UNL     1      25.641 -15.150  -0.112  1.00  0.00    -0.263 OA
HETATM   22  C15 UNL     1      26.376 -16.607   1.562  1.00  0.00     0.140 A 
ENDROOT
BRANCH  10  23
HETATM   23  S1  UNL     1      22.563 -13.051   2.739  1.00  0.00     0.276 S 
HETATM   24  O3  UNL     1      22.720 -14.570   2.702  1.00  0.00    -0.199 OA
HETATM   25  O4  UNL     1      23.301 -12.643   4.011  1.00  0.00    -0.199 OA
BRANCH  23  26
HETATM   26  N5  UNL     1      20.972 -12.640   2.823  1.00  0.00    -0.310 N 
ATOM     27  H5  UNL     1      20.422 -12.618   1.965  1.00  0.00     0.172 HD
BRANCH  26  28
HETATM   28  C6  UNL     1      20.350 -12.319   4.038  1.00  0.00     0.085 C 
HETATM   29  C7  UNL     1      19.094 -11.518   3.943  1.00  0.00     0.032 C 
HETATM   30  C8  UNL     1      19.934 -13.666   4.688  1.00  0.00     0.032 C 
ENDBRANCH  26  28
ENDBRANCH  23  26
ENDBRANCH  10  23
BRANCH   1  31
HETATM   31  C2  UNL     1      27.104 -17.450   3.866  1.00  0.00     0.313 C 
HETATM   32  O2  UNL     1      26.415 -18.478   4.058  1.00  0.00    -0.257 OA
BRANCH  31  33
HETATM   33  O1  UNL     1      28.280 -17.292   4.562  1.00  0.00    -0.321 OA
HETATM   34  C1  UNL     1      28.595 -18.084   5.717  1.00  0.00     0.213 C 
ENDBRANCH  31  33
ENDBRANCH   1  31
BRANCH  22  35
HETATM   35  N9  UNL     1      26.507 -17.814   0.831  1.00  0.00    -0.319 N 
HETATM   36  C16 UNL     1      25.433 -18.719   0.686  1.00  0.00     0.255 C 
HETATM   37  O6  UNL     1      24.335 -18.424   1.228  1.00  0.00    -0.271 OA
ATOM     38  H9  UNL     1      27.404 -18.036   0.398  1.00  0.00     0.169 HD
BRANCH  36  39
HETATM   39  C17 UNL     1      25.489 -19.990  -0.052  1.00  0.00     0.302 C 
BRANCH  39  40
HETATM   40  N10 UNL     1      24.423 -20.195  -0.979  1.00  0.00    -0.064 N 
ATOM     41 3H10 UNL     1      23.576 -20.478  -0.485  1.00  0.00     0.275 HD
ATOM     42 2H10 UNL     1      24.115 -19.303  -1.364  1.00  0.00     0.275 HD
ATOM     43 1H10 UNL     1      24.628 -20.852  -1.731  1.00  0.00     0.275 HD
ENDBRANCH  39  40
BRANCH  39  44
HETATM   44  C18 UNL     1      25.647 -21.186   0.862  1.00  0.00     0.153 C 
HETATM   45  C19 UNL     1      24.395 -22.012   0.966  1.00  0.00     0.042 C 
BRANCH  44  46
HETATM   46  O7  UNL     1      26.030 -20.772   2.157  1.00  0.00    -0.393 OA
ATOM     47  H7  UNL     1      26.284 -21.520   2.684  1.00  0.00     0.210 HD
ENDBRANCH  44  46
ENDBRANCH  39  44
ENDBRANCH  36  39
ENDBRANCH  22  35
BRANCH  13  48
HETATM   48  N6  UNL     1      22.835 -10.361  -2.391  1.00  0.00    -0.385 N 
ATOM     49  H62 UNL     1      22.901  -9.521  -2.966  1.00  0.00     0.157 HD
ATOM     50  H61 UNL     1      21.932 -10.820  -2.278  1.00  0.00     0.157 HD
ENDBRANCH  13  48
TORSDOF 11
ENDMDL
MODEL 3
REMARK VINA RESULT: -5.703390288      2.887      6.734
REMARK  11 active torsions:
REMARK  status: ('A' for Active; 'I' for Inactive)
REMARK    1  A    between atoms: O1_2  and  C2_3 
REMARK    2  A    between atoms: C2_3  and  C3_5 
REMARK       I    between atoms: N2_8  and  C4_9 
REMARK       I    between atoms: C4_9  and  N4_13 
REMARK    3  A    between atoms: C5_14  and  S1_15 
REMARK    4  A    between atoms: S1_15  and  N5_18 
REMARK    5  A    between atoms: N5_18  and  C6_20 
REMARK    6  A    between atoms: C11_25  and  N6_26 
REMARK    7  A    between atoms: C15_37  and  N9_38 
REMARK       I    between atoms: N9_38  and  C16_40 
REMARK    8  A    between atoms: C16_40  and  C17_42 
REMARK    9  A    between atoms: C17_42  and  N10_43 
REMARK   10  A    between atoms: C17_42  and  C18_47 
REMARK   11  A    between atoms: C18_47  and  O7_49 
ROOT
HETATM    1  C3  UNL     1      23.588 -19.215  -1.074  1.00  0.00     0.157 A 
HETATM    2  N1  UNL     1      23.461 -18.256  -0.147  1.00  0.00    -0.269 N 
ATOM      3  H1  UNL     1      22.719 -17.555  -0.154  1.00  0.00     0.188 HD
HETATM    4  N2  UNL     1      24.402 -18.317   0.775  1.00  0.00    -0.045 N 
HETATM    5  C4  UNL     1      24.511 -17.427   1.885  1.00  0.00     0.709 C 
HETATM    6  N3  UNL     1      23.425 -16.843   2.322  1.00  0.00    -0.232 N 
ATOM      7  H31 UNL     1      23.503 -16.207   3.115  1.00  0.00     0.174 HD
ATOM      8  H32 UNL     1      22.555 -17.063   1.837  1.00  0.00     0.174 HD
HETATM    9  N4  UNL     1      25.714 -17.123   2.556  1.00  0.00    -0.117 N 
HETATM   10  C5  UNL     1      26.552 -16.109   2.141  1.00  0.00     0.174 A 
HETATM   11  C9  UNL     1      27.615 -16.084   3.017  1.00  0.00     0.064 A 
HETATM   12  C10 UNL     1      27.431 -17.088   3.976  1.00  0.00     0.056 A 
HETATM   13  C11 UNL     1      28.147 -17.519   5.065  1.00  0.00     0.114 A 
HETATM   14  N7  UNL     1      27.674 -18.540   5.802  1.00  0.00    -0.338 N 
ATOM     15  H7  UNL     1      28.200 -18.864   6.613  1.00  0.00     0.168 HD
HETATM   16  C12 UNL     1      26.500 -19.143   5.475  1.00  0.00     0.183 A 
HETATM   17  N8  UNL     1      25.818 -18.705   4.407  1.00  0.00    -0.337 N 
ATOM     18  H8  UNL     1      24.939 -19.163   4.169  1.00  0.00     0.168 HD
HETATM   19  C13 UNL     1      26.244 -17.689   3.635  1.00  0.00     0.145 A 
HETATM   20  C14 UNL     1      25.183 -19.353   0.450  1.00  0.00     0.311 A 
HETATM   21  O5  UNL     1      26.197 -19.757   1.067  1.00  0.00    -0.263 OA
HETATM   22  C15 UNL     1      24.695 -19.943  -0.715  1.00  0.00     0.140 A 
ENDROOT
BRANCH  10  23
HETATM   23  S1  UNL     1      26.322 -15.076   0.782  1.00  0.00     0.276 S 
HETATM   24  O3  UNL     1      27.243 -15.589  -0.322  1.00  0.00    -0.199 OA
HETATM   25  O4  UNL     1      24.922 -15.295   0.215  1.00  0.00    -0.199 OA
BRANCH  23  26
HETATM   26  N5  UNL     1      26.599 -13.479   1.067  1.00  0.00    -0.310 N 
ATOM     27  H5  UNL     1      27.426 -13.042   0.662  1.00  0.00     0.172 HD
BRANCH  26  28
HETATM   28  C6  UNL     1      25.732 -12.702   1.848  1.00  0.00     0.085 C 
HETATM   29  C7  UNL     1      25.945 -12.761   3.324  1.00  0.00     0.032 C 
HETATM   30  C8  UNL     1      25.991 -11.223   1.452  1.00  0.00     0.032 C 
ENDBRANCH  26  28
ENDBRANCH  23  26
ENDBRANCH  10  23
BRANCH   1  31
HETATM   31  C2  UNL     1      22.710 -19.436  -2.248  1.00  0.00     0.313 C 
HETATM   32  O2  UNL     1      23.220 -19.659  -3.369  1.00  0.00    -0.257 OA
BRANCH  31  33
HETATM   33  O1  UNL     1      21.339 -19.400  -2.131  1.00  0.00    -0.321 OA
HETATM   34  C1  UNL     1      20.621 -20.321  -1.295  1.00  0.00     0.213 C 
ENDBRANCH  31  33
ENDBRANCH   1  31
BRANCH  22  35
HETATM   35  N9  UNL     1      25.219 -21.071  -1.394  1.00  0.00    -0.319 N 
HETATM   36  C16 UNL     1      24.637 -22.352  -1.272  1.00  0.00     0.255 C 
HETATM   37  O6  UNL     1      23.623 -22.472  -0.534  1.00  0.00    -0.271 OA
ATOM     38  H9  UNL     1      26.040 -20.954  -1.988  1.00  0.00     0.169 HD
BRANCH  36  39
HETATM   39  C17 UNL     1      25.121 -23.570  -1.939  1.00  0.00     0.302 C 
BRANCH  39  40
HETATM   40  N10 UNL     1      24.158 -24.228  -2.762  1.00  0.00    -0.064 N 
ATOM     41 3H10 UNL     1      23.377 -23.602  -2.960  1.00  0.00     0.275 HD
ATOM     42 2H10 UNL     1      24.528 -24.355  -3.704  1.00  0.00     0.275 HD
ATOM     43 1H10 UNL     1      23.814 -25.115  -2.395  1.00  0.00     0.275 HD
ENDBRANCH  39  40
BRANCH  39  44
HETATM   44  C18 UNL     1      25.764 -24.544  -0.976  1.00  0.00     0.153 C 
HETATM   45  C19 UNL     1      24.925 -25.768  -0.736  1.00  0.00     0.042 C 
BRANCH  44  46
HETATM   46  O7  UNL     1      26.022 -23.917   0.263  1.00  0.00    -0.393 OA
ATOM     47  H7  UNL     1      26.447 -24.521   0.860  1.00  0.00     0.210 HD
ENDBRANCH  44  46
ENDBRANCH  39  44
ENDBRANCH  36  39
ENDBRANCH  22  35
BRANCH  13  48
HETATM   48  N6  UNL     1      29.263 -16.971   5.407  1.00  0.00    -0.385 N 
ATOM     49  H62 UNL     1      29.240 -16.127   5.980  1.00  0.00     0.157 HD
ATOM     50  H61 UNL     1      30.162 -17.355   5.120  1.00  0.00     0.157 HD
ENDBRANCH  13  48
TORSDOF 11
ENDMDL
MODEL 4
REMARK VINA RESULT: -5.680497046      3.059      7.057
REMARK  11 active torsions:
REMARK  status: ('A' for Active; 'I' for Inactive)
REMARK    1  A    between atoms: O1_2  and  C2_3 
REMARK    2  A    between atoms: C2_3  and  C3_5 
REMARK       I    between atoms: N2_8  and  C4_9 
REMARK       I    between atoms: C4_9  and  N4_13 
REMARK    3  A    between atoms: C5_14  and  S1_15 
REMARK    4  A    between atoms: S1_15  and  N5_18 
REMARK    5  A    between atoms: N5_18  and  C6_20 
REMARK    6  A    between atoms: C11_25  and  N6_26 
REMARK    7  A    between atoms: C15_37  and  N9_38 
REMARK       I    between atoms: N9_38  and  C16_40 
REMARK    8  A    between atoms: C16_40  and  C17_42 
REMARK    9  A    between atoms: C17_42  and  N10_43 
REMARK   10  A    between atoms: C17_42  and  C18_47 
REMARK   11  A    between atoms: C18_47  and  O7_49 
ROOT
HETATM    1  C3  UNL     1      26.047 -16.371   2.296  1.00  0.00     0.157 A 
HETATM    2  N1  UNL     1      25.239 -17.437   2.215  1.00  0.00    -0.269 N 
ATOM      3  H1  UNL     1      25.219 -18.187   2.906  1.00  0.00     0.188 HD
HETATM    4  N2  UNL     1      24.472 -17.409   1.141  1.00  0.00    -0.045 N 
HETATM    5  C4  UNL     1      23.512 -18.410   0.803  1.00  0.00     0.709 C 
HETATM    6  N3  UNL     1      22.990 -19.121   1.768  1.00  0.00    -0.232 N 
ATOM      7  H31 UNL     1      22.305 -19.836   1.526  1.00  0.00     0.174 HD
ATOM      8  H32 UNL     1      23.304 -18.915   2.716  1.00  0.00     0.174 HD
HETATM    9  N4  UNL     1      23.078 -18.695  -0.509  1.00  0.00    -0.117 N 
HETATM   10  C5  UNL     1      23.741 -19.587  -1.326  1.00  0.00     0.174 A 
HETATM   11  C9  UNL     1      23.049 -19.629  -2.516  1.00  0.00     0.064 A 
HETATM   12  C10 UNL     1      21.955 -18.759  -2.432  1.00  0.00     0.056 A 
HETATM   13  C11 UNL     1      20.944 -18.403  -3.289  1.00  0.00     0.114 A 
HETATM   14  N7  UNL     1      20.021 -17.512  -2.883  1.00  0.00    -0.338 N 
ATOM     15  H7  UNL     1      19.266 -17.243  -3.515  1.00  0.00     0.168 HD
HETATM   16  C12 UNL     1      20.085 -16.968  -1.639  1.00  0.00     0.183 A 
HETATM   17  N8  UNL     1      21.082 -17.331  -0.820  1.00  0.00    -0.337 N 
ATOM     18  H8  UNL     1      21.122 -16.919   0.112  1.00  0.00     0.168 HD
HETATM   19  C13 UNL     1      22.031 -18.217  -1.173  1.00  0.00     0.145 A 
HETATM   20  C14 UNL     1      24.781 -16.286   0.485  1.00  0.00     0.311 A 
HETATM   21  O5  UNL     1      24.282 -15.878  -0.590  1.00  0.00    -0.263 OA
HETATM   22  C15 UNL     1      25.774 -15.606   1.189  1.00  0.00     0.140 A 
ENDROOT
BRANCH  10  23
HETATM   23  S1  UNL     1      25.166 -20.472  -0.938  1.00  0.00     0.276 S 
HETATM   24  O3  UNL     1      25.618 -21.164  -2.223  1.00  0.00    -0.199 OA
HETATM   25  O4  UNL     1      26.299 -19.495  -0.637  1.00  0.00    -0.199 OA
BRANCH  23  26
HETATM   26  N5  UNL     1      24.996 -21.569   0.276  1.00  0.00    -0.310 N 
ATOM     27  H5  UNL     1      24.967 -21.238   1.240  1.00  0.00     0.172 HD
BRANCH  26  28
HETATM   28  C6  UNL     1      24.887 -22.944   0.026  1.00  0.00     0.085 C 
HETATM   29  C7  UNL     1      25.287 -23.850   1.143  1.00  0.00     0.032 C 
HETATM   30  C8  UNL     1      23.380 -23.229  -0.218  1.00  0.00     0.032 C 
ENDBRANCH  26  28
ENDBRANCH  23  26
ENDBRANCH  10  23
BRANCH   1  31
HETATM   31  C2  UNL     1      27.034 -16.085   3.363  1.00  0.00     0.313 C 
HETATM   32  O2  UNL     1      27.058 -14.953   3.897  1.00  0.00    -0.257 OA
BRANCH  31  33
HETATM   33  O1  UNL     1      27.930 -17.042   3.782  1.00  0.00    -0.321 OA
HETATM   34  C1  UNL     1      28.462 -17.057   5.116  1.00  0.00     0.213 C 
ENDBRANCH  31  33
ENDBRANCH   1  31
BRANCH  22  35
HETATM   35  N9  UNL     1      26.379 -14.371   0.848  1.00  0.00    -0.319 N 
HETATM   36  C16 UNL     1      25.834 -13.134   1.260  1.00  0.00     0.255 C 
HETATM   37  O6  UNL     1      24.781 -13.154   1.951  1.00  0.00    -0.271 OA
ATOM     38  H9  UNL     1      27.232 -14.374   0.289  1.00  0.00     0.169 HD
BRANCH  36  39
HETATM   39  C17 UNL     1      26.398 -11.813   0.947  1.00  0.00     0.302 C 
BRANCH  39  40
HETATM   40  N10 UNL     1      25.822 -10.726   1.670  1.00  0.00    -0.064 N 
ATOM     41 3H10 UNL     1      25.658  -9.935   1.047  1.00  0.00     0.275 HD
ATOM     42 2H10 UNL     1      24.863 -10.948   1.934  1.00  0.00     0.275 HD
ATOM     43 1H10 UNL     1      26.352 -10.425   2.488  1.00  0.00     0.275 HD
ENDBRANCH  39  40
BRANCH  39  44
HETATM   44  C18 UNL     1      26.413 -11.525  -0.539  1.00  0.00     0.153 C 
HETATM   45  C19 UNL     1      25.034 -11.439  -1.131  1.00  0.00     0.042 C 
BRANCH  44  46
HETATM   46  O7  UNL     1      27.145 -12.518  -1.228  1.00  0.00    -0.393 OA
ATOM     47  H7  UNL     1      26.563 -13.195  -1.552  1.00  0.00     0.210 HD
ENDBRANCH  44  46
ENDBRANCH  39  44
ENDBRANCH  36  39
ENDBRANCH  22  35
BRANCH  13  48
HETATM   48  N6  UNL     1      20.849 -18.898  -4.475  1.00  0.00    -0.385 N 
ATOM     49  H62 UNL     1      21.148 -19.861  -4.630  1.00  0.00     0.157 HD
ATOM     50  H61 UNL     1      20.488 -18.355  -5.259  1.00  0.00     0.157 HD
ENDBRANCH  13  48
TORSDOF 11
ENDMDL
MODEL 5
REMARK VINA RESULT: -5.645496575      2.656      5.036
REMARK  11 active torsions:
REMARK  status: ('A' for Active; 'I' for Inactive)
REMARK    1  A    between atoms: O1_2  and  C2_3 
REMARK    2  A    between atoms: C2_3  and  C3_5 
REMARK       I    between atoms: N2_8  and  C4_9 
REMARK       I    between atoms: C4_9  and  N4_13 
REMARK    3  A    between atoms: C5_14  and  S1_15 
REMARK    4  A    between atoms: S1_15  and  N5_18 
REMARK    5  A    between atoms: N5_18  and  C6_20 
REMARK    6  A    between atoms: C11_25  and  N6_26 
REMARK    7  A    between atoms: C15_37  and  N9_38 
REMARK       I    between atoms: N9_38  and  C16_40 
REMARK    8  A    between atoms: C16_40  and  C17_42 
REMARK    9  A    between atoms: C17_42  and  N10_43 
REMARK   10  A    between atoms: C17_42  and  C18_47 
REMARK   11  A    between atoms: C18_47  and  O7_49 
ROOT
HETATM    1  C3  UNL     1      25.483 -18.176   0.640  1.00  0.00     0.157 A 
HETATM    2  N1  UNL     1      25.251 -16.899   0.306  1.00  0.00    -0.269 N 
ATOM      3  H1  UNL     1      25.752 -16.407  -0.434  1.00  0.00     0.188 HD
HETATM    4  N2  UNL     1      24.303 -16.350   1.041  1.00  0.00    -0.045 N 
HETATM    5  C4  UNL     1      23.844 -15.006   0.901  1.00  0.00     0.709 C 
HETATM    6  N3  UNL     1      23.970 -14.424  -0.263  1.00  0.00    -0.232 N 
ATOM      7  H31 UNL     1      23.643 -13.463  -0.363  1.00  0.00     0.174 HD
ATOM      8  H32 UNL     1      24.394 -14.973  -1.011  1.00  0.00     0.174 HD
HETATM    9  N4  UNL     1      23.258 -14.245   1.935  1.00  0.00    -0.117 N 
HETATM   10  C5  UNL     1      24.012 -13.500   2.818  1.00  0.00     0.174 A 
HETATM   11  C9  UNL     1      23.129 -12.887   3.679  1.00  0.00     0.064 A 
HETATM   12  C10 UNL     1      21.825 -13.256   3.325  1.00  0.00     0.056 A 
HETATM   13  C11 UNL     1      20.577 -12.959   3.813  1.00  0.00     0.114 A 
HETATM   14  N7  UNL     1      19.494 -13.496   3.221  1.00  0.00    -0.338 N 
ATOM     15  H7  UNL     1      18.564 -13.279   3.578  1.00  0.00     0.168 HD
HETATM   16  C12 UNL     1      19.630 -14.324   2.152  1.00  0.00     0.183 A 
HETATM   17  N8  UNL     1      20.859 -14.600   1.693  1.00  0.00    -0.337 N 
ATOM     18  H8  UNL     1      20.952 -15.223   0.891  1.00  0.00     0.168 HD
HETATM   19  C13 UNL     1      21.975 -14.092   2.246  1.00  0.00     0.145 A 
HETATM   20  C14 UNL     1      23.890 -17.293   1.894  1.00  0.00     0.311 A 
HETATM   21  O5  UNL     1      22.999 -17.183   2.768  1.00  0.00    -0.263 OA
HETATM   22  C15 UNL     1      24.616 -18.461   1.666  1.00  0.00     0.140 A 
ENDROOT
BRANCH  10  23
HETATM   23  S1  UNL     1      25.728 -13.368   2.848  1.00  0.00     0.276 S 
HETATM   24  O3  UNL     1      26.090 -12.618   4.127  1.00  0.00    -0.199 OA
HETATM   25  O4  UNL     1      26.336 -14.752   3.056  1.00  0.00    -0.199 OA
BRANCH  23  26
HETATM   26  N5  UNL     1      26.391 -12.624   1.538  1.00  0.00    -0.310 N 
ATOM     27  H5  UNL     1      27.295 -12.946   1.192  1.00  0.00     0.172 HD
BRANCH  26  28
HETATM   28  C6  UNL     1      25.752 -11.562   0.884  1.00  0.00     0.085 C 
HETATM   29  C7  UNL     1      25.559 -10.316   1.684  1.00  0.00     0.032 C 
HETATM   30  C8  UNL     1      26.673 -11.156  -0.299  1.00  0.00     0.032 C 
ENDBRANCH  26  28
ENDBRANCH  23  26
ENDBRANCH  10  23
BRANCH   1  31
HETATM   31  C2  UNL     1      26.477 -19.087   0.025  1.00  0.00     0.313 C 
HETATM   32  O2  UNL     1      27.616 -18.655  -0.266  1.00  0.00    -0.257 OA
BRANCH  31  33
HETATM   33  O1  UNL     1      26.173 -20.404  -0.235  1.00  0.00    -0.321 OA
HETATM   34  C1  UNL     1      25.119 -20.780  -1.133  1.00  0.00     0.213 C 
ENDBRANCH  31  33
ENDBRANCH   1  31
BRANCH  22  35
HETATM   35  N9  UNL     1      24.489 -19.700   2.342  1.00  0.00    -0.319 N 
HETATM   36  C16 UNL     1      25.311 -20.040   3.439  1.00  0.00     0.255 C 
HETATM   37  O6  UNL     1      26.175 -19.202   3.811  1.00  0.00    -0.271 OA
ATOM     38  H9  UNL     1      23.783 -20.366   2.027  1.00  0.00     0.169 HD
BRANCH  36  39
HETATM   39  C17 UNL     1      25.244 -21.303   4.190  1.00  0.00     0.302 C 
BRANCH  39  40
HETATM   40  N10 UNL     1      25.459 -21.179   5.595  1.00  0.00    -0.064 N 
ATOM     41 3H10 UNL     1      25.659 -20.209   5.837  1.00  0.00     0.275 HD
ATOM     42 2H10 UNL     1      24.582 -21.311   6.098  1.00  0.00     0.275 HD
ATOM     43 1H10 UNL     1      26.179 -21.793   5.976  1.00  0.00     0.275 HD
ENDBRANCH  39  40
BRANCH  39  44
HETATM   44  C18 UNL     1      26.131 -22.377   3.600  1.00  0.00     0.153 C 
HETATM   45  C19 UNL     1      27.309 -22.707   4.475  1.00  0.00     0.042 C 
BRANCH  44  46
HETATM   46  O7  UNL     1      26.603 -21.986   2.327  1.00  0.00    -0.393 OA
ATOM     47  H7  UNL     1      27.045 -22.710   1.899  1.00  0.00     0.210 HD
ENDBRANCH  44  46
ENDBRANCH  39  44
ENDBRANCH  36  39
ENDBRANCH  22  35
BRANCH  13  48
HETATM   48  N6  UNL     1      20.408 -12.176   4.823  1.00  0.00    -0.385 N 
ATOM     49  H62 UNL     1      21.071 -11.415   4.970  1.00  0.00     0.157 HD
ATOM     50  H61 UNL     1      19.636 -12.299   5.477  1.00  0.00     0.157 HD
ENDBRANCH  13  48
TORSDOF 11
ENDMDL
