MODEL 1
REMARK VINA RESULT: -7.475012788      0.000      0.000
REMARK  13 active torsions:
REMARK  status: ('A' for Active; 'I' for Inactive)
REMARK    1  A    between atoms: C2_2  and  C3_3 
REMARK    2  A    between atoms: C5_5  and  S1_6 
REMARK    3  A    between atoms: S1_6  and  N1_9 
REMARK    4  A    between atoms: N1_9  and  C6_11 
REMARK    5  A    between atoms: C7_14  and  O3_15 
REMARK    6  A    between atoms: C8_17  and  C9_18 
REMARK       I    between atoms: C9_18  and  N3_20 
REMARK    7  A    between atoms: N3_20  and  N4_22 
REMARK    8  A    between atoms: N4_22  and  C10_23 
REMARK    9  A    between atoms: C10_23  and  O5_24 
REMARK   10  A    between atoms: C10_23  and  C11_26 
REMARK   11  A    between atoms: C11_26  and  S2_27 
REMARK   12  A    between atoms: S2_27  and  C12_28 
REMARK   13  A    between atoms: C14_41  and  C15_42 
ROOT
HETATM    1  C6  UNL     1      27.025 -14.011   0.509  1.00  0.00     0.701 C 
HETATM    2  N2  UNL     1      26.705 -15.229   0.256  1.00  0.00    -0.196 N 
ATOM      3  H2  UNL     1      26.457 -15.436  -0.711  1.00  0.00     0.180 HD
HETATM    4  C7  UNL     1      26.653 -16.330   1.171  1.00  0.00     0.265 C 
HETATM    5  C8  UNL     1      26.743 -15.846   2.616  1.00  0.00     0.243 C 
HETATM    6  N9  UNL     1      27.867 -14.903   2.591  1.00  0.00    -0.107 NA
HETATM    7  N10 UNL     1      27.361 -13.791   1.924  1.00  0.00    -0.135 N 
ATOM      8  H10 UNL     1      27.234 -12.889   2.383  1.00  0.00     0.201 HD
ENDROOT
BRANCH   5   9
HETATM    9  C9  UNL     1      27.020 -17.005   3.510  1.00  0.00     0.272 C 
HETATM   10  O4  UNL     1      28.062 -17.111   4.188  1.00  0.00    -0.269 OA
HETATM   11  N3  UNL     1      26.018 -18.053   3.588  1.00  0.00    -0.199 N 
ATOM     12  H3  UNL     1      25.165 -17.862   3.062  1.00  0.00     0.205 HD
BRANCH  11  13
HETATM   13  N4  UNL     1      26.021 -19.210   4.223  1.00  0.00    -0.301 NA
BRANCH  13  14
HETATM   14  C10 UNL     1      26.133 -20.336   4.973  1.00  0.00     0.224 C 
BRANCH  14  15
HETATM   15  O5  UNL     1      26.703 -21.419   4.364  1.00  0.00    -0.337 OA
ATOM     16  H5  UNL     1      26.412 -22.274   4.660  1.00  0.00     0.220 HD
ENDBRANCH  14  15
BRANCH  14  17
HETATM   17  C11 UNL     1      25.774 -20.716   6.349  1.00  0.00     0.184 C 
BRANCH  17  18
HETATM   18  S2  UNL     1      26.826 -20.182   7.634  1.00  0.00    -0.082 SA
BRANCH  18  19
HETATM   19  C12 UNL     1      28.142 -19.076   7.177  1.00  0.00     0.176 A 
HETATM   20  N5  UNL     1      28.260 -17.810   7.448  1.00  0.00    -0.263 N 
HETATM   21  N6  UNL     1      29.284 -17.243   6.885  1.00  0.00    -0.226 N 
ATOM     22  H5  UNL     1      27.607 -17.307   8.050  1.00  0.00     0.190 HD
HETATM   23  N7  UNL     1      29.875 -18.173   6.207  1.00  0.00    -0.226 N 
ATOM     24  H6  UNL     1      29.565 -16.265   6.962  1.00  0.00     0.210 HD
HETATM   25  N8  UNL     1      29.228 -19.374   6.318  1.00  0.00    -0.263 N 
ATOM     26  H7  UNL     1      30.721 -18.028   5.655  1.00  0.00     0.210 HD
ATOM     27  H8  UNL     1      29.470 -20.267   5.888  1.00  0.00     0.190 HD
ENDBRANCH  18  19
ENDBRANCH  17  18
ENDBRANCH  14  17
ENDBRANCH  13  14
ENDBRANCH  11  13
ENDBRANCH   5   9
BRANCH   4  28
HETATM   28  O3  UNL     1      25.650 -17.185   0.881  1.00  0.00    -0.374 OA
ATOM     29  H3  UNL     1      25.950 -18.086   0.833  1.00  0.00     0.212 HD
ENDBRANCH   4  28
BRANCH   1  30
HETATM   30  N1  UNL     1      27.082 -12.935  -0.369  1.00  0.00    -0.112 N 
ATOM     31  H1  UNL     1      27.686 -13.031  -1.185  1.00  0.00     0.197 HD
BRANCH  30  32
HETATM   32  S1  UNL     1      26.235 -11.479  -0.203  1.00  0.00     0.276 S 
HETATM   33  O1  UNL     1      26.758 -10.615   0.883  1.00  0.00    -0.200 OA
HETATM   34  O2  UNL     1      26.553 -10.687  -1.520  1.00  0.00    -0.200 OA
BRANCH  32  35
HETATM   35  C5  UNL     1      24.492 -11.661  -0.202  1.00  0.00     0.081 A 
HETATM   36  C4  UNL     1      23.756 -11.016  -1.176  1.00  0.00     0.034 A 
HETATM   37  C3  UNL     1      22.404 -11.177  -1.154  1.00  0.00    -0.032 A 
HETATM   38  C18 UNL     1      21.769 -11.963  -0.180  1.00  0.00     0.063 A 
HETATM   39  C14 UNL     1      22.477 -12.608   0.790  1.00  0.00    -0.008 A 
HETATM   40  N11 UNL     1      20.355 -12.090  -0.216  1.00  0.00    -0.101 NA
HETATM   41  C13 UNL     1      23.878 -12.412   0.724  1.00  0.00     0.038 A 
BRANCH  37  42
HETATM   42  C2  UNL     1      21.467 -10.659  -2.222  1.00  0.00     0.036 C 
HETATM   43  C1  UNL     1      22.322  -9.830  -3.204  1.00  0.00     0.010 C 
ENDBRANCH  37  42
BRANCH  39  44
HETATM   44  C15 UNL     1      21.894 -13.341   1.907  1.00  0.00    -0.075 C 
HETATM   45  C16 UNL     1      22.207 -12.587   3.239  1.00  0.00     0.044 C 
HETATM   46  C17 UNL     1      21.891 -14.778   1.978  1.00  0.00     0.044 C 
ENDBRANCH  39  44
ENDBRANCH  32  35
ENDBRANCH  30  32
ENDBRANCH   1  30
TORSDOF 13
ENDMDL
MODEL 2
REMARK VINA RESULT: -7.448876847      1.130      1.288
REMARK  13 active torsions:
REMARK  status: ('A' for Active; 'I' for Inactive)
REMARK    1  A    between atoms: C2_2  and  C3_3 
REMARK    2  A    between atoms: C5_5  and  S1_6 
REMARK    3  A    between atoms: S1_6  and  N1_9 
REMARK    4  A    between atoms: N1_9  and  C6_11 
REMARK    5  A    between atoms: C7_14  and  O3_15 
REMARK    6  A    between atoms: C8_17  and  C9_18 
REMARK       I    between atoms: C9_18  and  N3_20 
REMARK    7  A    between atoms: N3_20  and  N4_22 
REMARK    8  A    between atoms: N4_22  and  C10_23 
REMARK    9  A    between atoms: C10_23  and  O5_24 
REMARK   10  A    between atoms: C10_23  and  C11_26 
REMARK   11  A    between atoms: C11_26  and  S2_27 
REMARK   12  A    between atoms: S2_27  and  C12_28 
REMARK   13  A    between atoms: C14_41  and  C15_42 
ROOT
HETATM    1  C6  UNL     1      26.868 -13.289   1.950  1.00  0.00     0.701 C 
HETATM    2  N2  UNL     1      27.614 -14.222   1.477  1.00  0.00    -0.196 N 
ATOM      3  H2  UNL     1      28.156 -13.985   0.646  1.00  0.00     0.180 HD
HETATM    4  C7  UNL     1      27.773 -15.555   1.976  1.00  0.00     0.265 C 
HETATM    5  C8  UNL     1      26.703 -15.882   3.015  1.00  0.00     0.243 C 
HETATM    6  N9  UNL     1      26.714 -14.710   3.898  1.00  0.00    -0.107 NA
HETATM    7  N10 UNL     1      26.113 -13.709   3.140  1.00  0.00    -0.135 N 
ATOM      8  H10 UNL     1      25.214 -13.297   3.392  1.00  0.00     0.201 HD
ENDROOT
BRANCH   5   9
HETATM    9  C9  UNL     1      27.085 -17.122   3.746  1.00  0.00     0.272 C 
HETATM   10  O4  UNL     1      28.201 -17.285   4.279  1.00  0.00    -0.269 OA
HETATM   11  N3  UNL     1      26.098 -18.184   3.837  1.00  0.00    -0.199 N 
ATOM     12  H3  UNL     1      25.188 -17.950   3.439  1.00  0.00     0.205 HD
BRANCH  11  13
HETATM   13  N4  UNL     1      26.176 -19.399   4.345  1.00  0.00    -0.301 NA
BRANCH  13  14
HETATM   14  C10 UNL     1      26.262 -20.703   4.718  1.00  0.00     0.224 C 
BRANCH  14  15
HETATM   15  O5  UNL     1      26.191 -21.629   3.714  1.00  0.00    -0.337 OA
ATOM     16  H5  UNL     1      25.597 -21.434   2.999  1.00  0.00     0.220 HD
ENDBRANCH  14  15
BRANCH  14  17
HETATM   17  C11 UNL     1      26.412 -21.416   5.995  1.00  0.00     0.184 C 
BRANCH  17  18
HETATM   18  S2  UNL     1      26.897 -20.485   7.388  1.00  0.00    -0.082 SA
BRANCH  18  19
HETATM   19  C12 UNL     1      28.145 -19.246   7.119  1.00  0.00     0.176 A 
HETATM   20  N5  UNL     1      28.128 -17.996   7.476  1.00  0.00    -0.263 N 
HETATM   21  N6  UNL     1      29.142 -17.310   7.044  1.00  0.00    -0.226 N 
ATOM     22  H5  UNL     1      27.384 -17.590   8.045  1.00  0.00     0.190 HD
HETATM   23  N7  UNL     1      29.869 -18.140   6.367  1.00  0.00    -0.226 N 
ATOM     24  H6  UNL     1      29.329 -16.319   7.204  1.00  0.00     0.210 HD
HETATM   25  N8  UNL     1      29.323 -19.395   6.347  1.00  0.00    -0.263 N 
ATOM     26  H7  UNL     1      30.743 -17.889   5.905  1.00  0.00     0.210 HD
ATOM     27  H8  UNL     1      29.678 -20.234   5.888  1.00  0.00     0.190 HD
ENDBRANCH  18  19
ENDBRANCH  17  18
ENDBRANCH  14  17
ENDBRANCH  13  14
ENDBRANCH  11  13
ENDBRANCH   5   9
BRANCH   4  28
HETATM   28  O3  UNL     1      27.947 -16.452   0.983  1.00  0.00    -0.374 OA
ATOM     29  H3  UNL     1      28.443 -16.093   0.258  1.00  0.00     0.212 HD
ENDBRANCH   4  28
BRANCH   1  30
HETATM   30  N1  UNL     1      26.706 -11.992   1.476  1.00  0.00    -0.112 N 
ATOM     31  H1  UNL     1      26.724 -11.239   2.165  1.00  0.00     0.197 HD
BRANCH  30  32
HETATM   32  S1  UNL     1      26.483 -11.551  -0.143  1.00  0.00     0.276 S 
HETATM   33  O1  UNL     1      27.272 -10.360  -0.542  1.00  0.00    -0.200 OA
HETATM   34  O2  UNL     1      27.112 -12.731  -0.962  1.00  0.00    -0.200 OA
BRANCH  32  35
HETATM   35  C5  UNL     1      24.804 -11.503  -0.645  1.00  0.00     0.081 A 
HETATM   36  C4  UNL     1      24.442 -10.654  -1.673  1.00  0.00     0.034 A 
HETATM   37  C3  UNL     1      23.133 -10.639  -2.046  1.00  0.00    -0.032 A 
HETATM   38  C18 UNL     1      22.175 -11.447  -1.415  1.00  0.00     0.063 A 
HETATM   39  C14 UNL     1      22.511 -12.293  -0.399  1.00  0.00    -0.008 A 
HETATM   40  N11 UNL     1      20.827 -11.383  -1.855  1.00  0.00    -0.101 NA
HETATM   41  C13 UNL     1      23.883 -12.274  -0.049  1.00  0.00     0.038 A 
BRANCH  37  42
HETATM   42  C2  UNL     1      22.596  -9.878  -3.237  1.00  0.00     0.036 C 
HETATM   43  C1  UNL     1      23.817  -9.393  -4.047  1.00  0.00     0.010 C 
ENDBRANCH  37  42
BRANCH  39  44
HETATM   44  C15 UNL     1      21.567 -13.072   0.390  1.00  0.00    -0.075 C 
HETATM   45  C16 UNL     1      21.745 -12.725   1.902  1.00  0.00     0.044 C 
HETATM   46  C17 UNL     1      21.246 -14.443   0.088  1.00  0.00     0.044 C 
ENDBRANCH  39  44
ENDBRANCH  32  35
ENDBRANCH  30  32
ENDBRANCH   1  30
TORSDOF 13
ENDMDL
MODEL 3
REMARK VINA RESULT: -7.310840919      0.998      2.667
REMARK  13 active torsions:
REMARK  status: ('A' for Active; 'I' for Inactive)
REMARK    1  A    between atoms: C2_2  and  C3_3 
REMARK    2  A    between atoms: C5_5  and  S1_6 
REMARK    3  A    between atoms: S1_6  and  N1_9 
REMARK    4  A    between atoms: N1_9  and  C6_11 
REMARK    5  A    between atoms: C7_14  and  O3_15 
REMARK    6  A    between atoms: C8_17  and  C9_18 
REMARK       I    between atoms: C9_18  and  N3_20 
REMARK    7  A    between atoms: N3_20  and  N4_22 
REMARK    8  A    between atoms: N4_22  and  C10_23 
REMARK    9  A    between atoms: C10_23  and  O5_24 
REMARK   10  A    between atoms: C10_23  and  C11_26 
REMARK   11  A    between atoms: C11_26  and  S2_27 
REMARK   12  A    between atoms: S2_27  and  C12_28 
REMARK   13  A    between atoms: C14_41  and  C15_42 
ROOT
HETATM    1  C6  UNL     1      27.035 -13.833   0.468  1.00  0.00     0.701 C 
HETATM    2  N2  UNL     1      27.894 -13.841   1.423  1.00  0.00    -0.196 N 
ATOM      3  H2  UNL     1      28.555 -13.065   1.438  1.00  0.00     0.180 HD
HETATM    4  C7  UNL     1      28.033 -14.809   2.470  1.00  0.00     0.265 C 
HETATM    5  C8  UNL     1      27.205 -16.058   2.174  1.00  0.00     0.243 C 
HETATM    6  N9  UNL     1      25.900 -15.516   1.779  1.00  0.00    -0.107 NA
HETATM    7  N10 UNL     1      26.122 -14.986   0.511  1.00  0.00    -0.135 N 
ATOM      8  H10 UNL     1      25.684 -15.369  -0.327  1.00  0.00     0.201 HD
ENDROOT
BRANCH   5   9
HETATM    9  C9  UNL     1      27.103 -16.888   3.406  1.00  0.00     0.272 C 
HETATM   10  O4  UNL     1      27.780 -16.675   4.432  1.00  0.00    -0.269 OA
HETATM   11  N3  UNL     1      26.162 -17.995   3.399  1.00  0.00    -0.199 N 
ATOM     12  H3  UNL     1      25.596 -18.062   2.553  1.00  0.00     0.205 HD
BRANCH  11  13
HETATM   13  N4  UNL     1      25.915 -18.928   4.298  1.00  0.00    -0.301 NA
BRANCH  13  14
HETATM   14  C10 UNL     1      25.739 -19.989   5.128  1.00  0.00     0.224 C 
BRANCH  14  15
HETATM   15  O5  UNL     1      25.862 -21.229   4.565  1.00  0.00    -0.337 OA
ATOM     16  H5  UNL     1      25.639 -21.969   5.119  1.00  0.00     0.220 HD
ENDBRANCH  14  15
BRANCH  14  17
HETATM   17  C11 UNL     1      25.428 -20.158   6.556  1.00  0.00     0.184 C 
BRANCH  17  18
HETATM   18  S2  UNL     1      26.728 -19.938   7.698  1.00  0.00    -0.082 SA
BRANCH  18  19
HETATM   19  C12 UNL     1      28.089 -18.924   7.165  1.00  0.00     0.176 A 
HETATM   20  N5  UNL     1      28.340 -17.687   7.474  1.00  0.00    -0.263 N 
HETATM   21  N6  UNL     1      29.356 -17.181   6.843  1.00  0.00    -0.226 N 
ATOM     22  H5  UNL     1      27.789 -17.160   8.152  1.00  0.00     0.190 HD
HETATM   23  N7  UNL     1      29.802 -18.124   6.077  1.00  0.00    -0.226 N 
ATOM     24  H6  UNL     1      29.727 -16.234   6.932  1.00  0.00     0.210 HD
HETATM   25  N8  UNL     1      29.067 -19.271   6.200  1.00  0.00    -0.263 N 
ATOM     26  H7  UNL     1      30.606 -18.024   5.457  1.00  0.00     0.210 HD
ATOM     27  H8  UNL     1      29.191 -20.160   5.715  1.00  0.00     0.190 HD
ENDBRANCH  18  19
ENDBRANCH  17  18
ENDBRANCH  14  17
ENDBRANCH  13  14
ENDBRANCH  11  13
ENDBRANCH   5   9
BRANCH   4  28
HETATM   28  O3  UNL     1      29.323 -15.007   2.811  1.00  0.00    -0.374 OA
ATOM     29  H3  UNL     1      29.552 -15.929   2.826  1.00  0.00     0.212 HD
ENDBRANCH   4  28
BRANCH   1  30
HETATM   30  N1  UNL     1      26.887 -12.899  -0.551  1.00  0.00    -0.112 N 
ATOM     31  H1  UNL     1      27.235 -13.158  -1.474  1.00  0.00     0.197 HD
BRANCH  30  32
HETATM   32  S1  UNL     1      26.181 -11.368  -0.394  1.00  0.00     0.276 S 
HETATM   33  O1  UNL     1      26.960 -10.448   0.470  1.00  0.00    -0.200 OA
HETATM   34  O2  UNL     1      26.283 -10.740  -1.828  1.00  0.00    -0.200 OA
BRANCH  32  35
HETATM   35  C5  UNL     1      24.465 -11.405  -0.042  1.00  0.00     0.081 A 
HETATM   36  C4  UNL     1      24.054 -11.783   1.221  1.00  0.00     0.034 A 
HETATM   37  C3  UNL     1      22.715 -11.800   1.469  1.00  0.00    -0.032 A 
HETATM   38  C18 UNL     1      21.777 -11.455   0.485  1.00  0.00     0.063 A 
HETATM   39  C14 UNL     1      22.161 -11.079  -0.769  1.00  0.00    -0.008 A 
HETATM   40  N11 UNL     1      20.395 -11.493   0.811  1.00  0.00    -0.101 NA
HETATM   41  C13 UNL     1      23.561 -11.075  -0.977  1.00  0.00     0.038 A 
BRANCH  37  42
HETATM   42  C2  UNL     1      22.104 -12.051   2.829  1.00  0.00     0.036 C 
HETATM   43  C1  UNL     1      22.264 -13.558   3.121  1.00  0.00     0.010 C 
ENDBRANCH  37  42
BRANCH  39  44
HETATM   44  C15 UNL     1      21.257 -10.824  -1.882  1.00  0.00    -0.075 C 
HETATM   45  C16 UNL     1      20.576 -12.163  -2.312  1.00  0.00     0.044 C 
HETATM   46  C17 UNL     1      21.569  -9.903  -2.943  1.00  0.00     0.044 C 
ENDBRANCH  39  44
ENDBRANCH  32  35
ENDBRANCH  30  32
ENDBRANCH   1  30
TORSDOF 13
ENDMDL
MODEL 4
REMARK VINA RESULT: -7.235704834      0.704      2.523
REMARK  13 active torsions:
REMARK  status: ('A' for Active; 'I' for Inactive)
REMARK    1  A    between atoms: C2_2  and  C3_3 
REMARK    2  A    between atoms: C5_5  and  S1_6 
REMARK    3  A    between atoms: S1_6  and  N1_9 
REMARK    4  A    between atoms: N1_9  and  C6_11 
REMARK    5  A    between atoms: C7_14  and  O3_15 
REMARK    6  A    between atoms: C8_17  and  C9_18 
REMARK       I    between atoms: C9_18  and  N3_20 
REMARK    7  A    between atoms: N3_20  and  N4_22 
REMARK    8  A    between atoms: N4_22  and  C10_23 
REMARK    9  A    between atoms: C10_23  and  O5_24 
REMARK   10  A    between atoms: C10_23  and  C11_26 
REMARK   11  A    between atoms: C11_26  and  S2_27 
REMARK   12  A    between atoms: S2_27  and  C12_28 
REMARK   13  A    between atoms: C14_41  and  C15_42 
ROOT
HETATM    1  C6  UNL     1      26.982 -13.915   0.394  1.00  0.00     0.701 C 
HETATM    2  N2  UNL     1      26.118 -14.861   0.484  1.00  0.00    -0.196 N 
ATOM      3  H2  UNL     1      25.395 -14.879  -0.235  1.00  0.00     0.180 HD
HETATM    4  C7  UNL     1      26.049 -15.894   1.473  1.00  0.00     0.265 C 
HETATM    5  C8  UNL     1      26.979 -15.592   2.647  1.00  0.00     0.243 C 
HETATM    6  N9  UNL     1      28.239 -15.216   1.996  1.00  0.00    -0.107 NA
HETATM    7  N10 UNL     1      27.985 -13.953   1.469  1.00  0.00    -0.135 N 
ATOM      8  H10 UNL     1      28.461 -13.115   1.805  1.00  0.00     0.201 HD
ENDROOT
BRANCH   5   9
HETATM    9  C9  UNL     1      27.137 -16.815   3.482  1.00  0.00     0.272 C 
HETATM   10  O4  UNL     1      28.161 -17.056   4.153  1.00  0.00    -0.269 OA
HETATM   11  N3  UNL     1      26.037 -17.763   3.507  1.00  0.00    -0.199 N 
ATOM     12  H3  UNL     1      25.209 -17.463   2.991  1.00  0.00     0.205 HD
BRANCH  11  13
HETATM   13  N4  UNL     1      25.924 -18.945   4.083  1.00  0.00    -0.301 NA
BRANCH  13  14
HETATM   14  C10 UNL     1      25.964 -20.179   4.649  1.00  0.00     0.224 C 
BRANCH  14  15
HETATM   15  O5  UNL     1      26.268 -21.220   3.818  1.00  0.00    -0.337 OA
ATOM     16  H5  UNL     1      26.080 -22.092   4.145  1.00  0.00     0.220 HD
ENDBRANCH  14  15
BRANCH  14  17
HETATM   17  C11 UNL     1      25.745 -20.716   6.001  1.00  0.00     0.184 C 
BRANCH  17  18
HETATM   18  S2  UNL     1      27.013 -20.484   7.177  1.00  0.00    -0.082 SA
BRANCH  18  19
HETATM   19  C12 UNL     1      28.192 -19.197   6.831  1.00  0.00     0.176 A 
HETATM   20  N5  UNL     1      29.280 -19.272   6.125  1.00  0.00    -0.263 N 
HETATM   21  N6  UNL     1      29.994 -18.187   6.140  1.00  0.00    -0.226 N 
ATOM     22  H5  UNL     1      29.550 -20.107   5.605  1.00  0.00     0.190 HD
HETATM   23  N7  UNL     1      29.352 -17.351   6.892  1.00  0.00    -0.226 N 
ATOM     24  H6  UNL     1      30.879 -18.026   5.659  1.00  0.00     0.210 HD
HETATM   25  N8  UNL     1      28.197 -17.894   7.386  1.00  0.00    -0.263 N 
ATOM     26  H7  UNL     1      29.669 -16.402   7.091  1.00  0.00     0.210 HD
ATOM     27  H8  UNL     1      27.509 -17.465   8.004  1.00  0.00     0.190 HD
ENDBRANCH  18  19
ENDBRANCH  17  18
ENDBRANCH  14  17
ENDBRANCH  13  14
ENDBRANCH  11  13
ENDBRANCH   5   9
BRANCH   4  28
HETATM   28  O3  UNL     1      24.776 -16.221   1.780  1.00  0.00    -0.374 OA
ATOM     29  H3  UNL     1      24.148 -15.638   1.370  1.00  0.00     0.212 HD
ENDBRANCH   4  28
BRANCH   1  30
HETATM   30  N1  UNL     1      27.062 -12.908  -0.562  1.00  0.00    -0.112 N 
ATOM     31  H1  UNL     1      27.598 -13.110  -1.406  1.00  0.00     0.197 HD
BRANCH  30  32
HETATM   32  S1  UNL     1      26.347 -11.379  -0.448  1.00  0.00     0.276 S 
HETATM   33  O1  UNL     1      27.130 -10.423   0.372  1.00  0.00    -0.200 OA
HETATM   34  O2  UNL     1      26.424 -10.799  -1.904  1.00  0.00    -0.200 OA
BRANCH  32  35
HETATM   35  C5  UNL     1      24.635 -11.416  -0.072  1.00  0.00     0.081 A 
HETATM   36  C4  UNL     1      24.242 -11.796   1.196  1.00  0.00     0.034 A 
HETATM   37  C3  UNL     1      22.907 -11.814   1.464  1.00  0.00    -0.032 A 
HETATM   38  C18 UNL     1      21.955 -11.465   0.494  1.00  0.00     0.063 A 
HETATM   39  C14 UNL     1      22.322 -11.086  -0.764  1.00  0.00    -0.008 A 
HETATM   40  N11 UNL     1      20.578 -11.502   0.840  1.00  0.00    -0.101 NA
HETATM   41  C13 UNL     1      23.718 -11.082  -0.992  1.00  0.00     0.038 A 
BRANCH  37  42
HETATM   42  C2  UNL     1      22.316 -12.068   2.832  1.00  0.00     0.036 C 
HETATM   43  C1  UNL     1      22.458 -13.581   3.107  1.00  0.00     0.010 C 
ENDBRANCH  37  42
BRANCH  39  44
HETATM   44  C15 UNL     1      21.401 -10.826  -1.863  1.00  0.00    -0.075 C 
HETATM   45  C16 UNL     1      20.670 -12.152  -2.249  1.00  0.00     0.044 C 
HETATM   46  C17 UNL     1      21.718  -9.938  -2.950  1.00  0.00     0.044 C 
ENDBRANCH  39  44
ENDBRANCH  32  35
ENDBRANCH  30  32
ENDBRANCH   1  30
TORSDOF 13
ENDMDL
MODEL 5
REMARK VINA RESULT: -7.147473118      1.741      2.403
REMARK  13 active torsions:
REMARK  status: ('A' for Active; 'I' for Inactive)
REMARK    1  A    between atoms: C2_2  and  C3_3 
REMARK    2  A    between atoms: C5_5  and  S1_6 
REMARK    3  A    between atoms: S1_6  and  N1_9 
REMARK    4  A    between atoms: N1_9  and  C6_11 
REMARK    5  A    between atoms: C7_14  and  O3_15 
REMARK    6  A    between atoms: C8_17  and  C9_18 
REMARK       I    between atoms: C9_18  and  N3_20 
REMARK    7  A    between atoms: N3_20  and  N4_22 
REMARK    8  A    between atoms: N4_22  and  C10_23 
REMARK    9  A    between atoms: C10_23  and  O5_24 
REMARK   10  A    between atoms: C10_23  and  C11_26 
REMARK   11  A    between atoms: C11_26  and  S2_27 
REMARK   12  A    between atoms: S2_27  and  C12_28 
REMARK   13  A    between atoms: C14_41  and  C15_42 
ROOT
HETATM    1  C6  UNL     1      27.067 -13.749   0.258  1.00  0.00     0.701 C 
HETATM    2  N2  UNL     1      26.743 -14.977   0.065  1.00  0.00    -0.196 N 
ATOM      3  H2  UNL     1      26.464 -15.224  -0.884  1.00  0.00     0.180 HD
HETATM    4  C7  UNL     1      26.726 -16.041   1.025  1.00  0.00     0.265 C 
HETATM    5  C8  UNL     1      26.861 -15.499   2.446  1.00  0.00     0.243 C 
HETATM    6  N9  UNL     1      27.979 -14.555   2.346  1.00  0.00    -0.107 NA
HETATM    7  N10 UNL     1      27.448 -13.471   1.652  1.00  0.00    -0.135 N 
ATOM      8  H10 UNL     1      27.332 -12.552   2.078  1.00  0.00     0.201 HD
ENDROOT
BRANCH   5   9
HETATM    9  C9  UNL     1      27.172 -16.619   3.377  1.00  0.00     0.272 C 
HETATM   10  O4  UNL     1      26.502 -17.670   3.429  1.00  0.00    -0.269 OA
HETATM   11  N3  UNL     1      28.316 -16.467   4.258  1.00  0.00    -0.199 N 
ATOM     12  H3  UNL     1      28.854 -15.614   4.108  1.00  0.00     0.205 HD
BRANCH  11  13
HETATM   13  N4  UNL     1      28.779 -17.243   5.220  1.00  0.00    -0.301 NA
BRANCH  13  14
HETATM   14  C10 UNL     1      29.219 -18.165   6.115  1.00  0.00     0.224 C 
BRANCH  14  15
HETATM   15  O5  UNL     1      30.574 -18.299   6.236  1.00  0.00    -0.337 OA
ATOM     16  H5  UNL     1      31.092 -17.519   6.071  1.00  0.00     0.220 HD
ENDBRANCH  14  15
BRANCH  14  17
HETATM   17  C11 UNL     1      28.577 -19.116   7.036  1.00  0.00     0.184 C 
BRANCH  17  18
HETATM   18  S2  UNL     1      27.735 -20.475   6.337  1.00  0.00    -0.082 SA
BRANCH  18  19
HETATM   19  C12 UNL     1      28.606 -22.025   6.319  1.00  0.00     0.176 A 
HETATM   20  N5  UNL     1      29.312 -22.562   7.269  1.00  0.00    -0.263 N 
HETATM   21  N6  UNL     1      29.918 -23.658   6.921  1.00  0.00    -0.226 N 
ATOM     22  H5  UNL     1      29.385 -22.160   8.203  1.00  0.00     0.190 HD
HETATM   23  N7  UNL     1      29.601 -23.860   5.683  1.00  0.00    -0.226 N 
ATOM     24  H6  UNL     1      30.520 -24.240   7.504  1.00  0.00     0.210 HD
HETATM   25  N8  UNL     1      28.776 -22.879   5.201  1.00  0.00    -0.263 N 
ATOM     26  H7  UNL     1      29.926 -24.654   5.132  1.00  0.00     0.210 HD
ATOM     27  H8  UNL     1      28.381 -22.785   4.265  1.00  0.00     0.190 HD
ENDBRANCH  18  19
ENDBRANCH  17  18
ENDBRANCH  14  17
ENDBRANCH  13  14
ENDBRANCH  11  13
ENDBRANCH   5   9
BRANCH   4  28
HETATM   28  O3  UNL     1      25.717 -16.910   0.803  1.00  0.00    -0.374 OA
ATOM     29  H3  UNL     1      25.441 -17.348   1.599  1.00  0.00     0.212 HD
ENDBRANCH   4  28
BRANCH   1  30
HETATM   30  N1  UNL     1      27.090 -12.709  -0.664  1.00  0.00    -0.112 N 
ATOM     31  H1  UNL     1      27.739 -12.795  -1.446  1.00  0.00     0.197 HD
BRANCH  30  32
HETATM   32  S1  UNL     1      26.136 -11.313  -0.602  1.00  0.00     0.276 S 
HETATM   33  O1  UNL     1      26.705 -10.249   0.260  1.00  0.00    -0.200 OA
HETATM   34  O2  UNL     1      26.210 -10.722  -2.054  1.00  0.00    -0.200 OA
BRANCH  32  35
HETATM   35  C5  UNL     1      24.431 -11.622  -0.332  1.00  0.00     0.081 A 
HETATM   36  C4  UNL     1      23.509 -11.047  -1.184  1.00  0.00     0.034 A 
HETATM   37  C3  UNL     1      22.192 -11.306  -0.954  1.00  0.00    -0.032 A 
HETATM   38  C18 UNL     1      21.774 -12.122   0.108  1.00  0.00     0.063 A 
HETATM   39  C14 UNL     1      22.669 -12.699   0.961  1.00  0.00    -0.008 A 
HETATM   40  N11 UNL     1      20.385 -12.353   0.290  1.00  0.00    -0.101 NA
HETATM   41  C13 UNL     1      24.024 -12.402   0.680  1.00  0.00     0.038 A 
BRANCH  37  42
HETATM   42  C2  UNL     1      21.067 -10.875  -1.868  1.00  0.00     0.036 C 
HETATM   43  C1  UNL     1      21.691  -9.964  -2.947  1.00  0.00     0.010 C 
ENDBRANCH  37  42
BRANCH  39  44
HETATM   44  C15 UNL     1      22.319 -13.455   2.156  1.00  0.00    -0.075 C 
HETATM   45  C16 UNL     1      22.314 -12.498   3.390  1.00  0.00     0.044 C 
HETATM   46  C17 UNL     1      22.791 -14.794   2.395  1.00  0.00     0.044 C 
ENDBRANCH  39  44
ENDBRANCH  32  35
ENDBRANCH  30  32
ENDBRANCH   1  30
TORSDOF 13
ENDMDL
