MODEL 1
REMARK VINA RESULT: -5.989299049      0.000      0.000
REMARK  16 active torsions:
REMARK  status: ('A' for Active; 'I' for Inactive)
REMARK    1  A    between atoms: N1_1  and  C1_5 
REMARK    2  A    between atoms: C1_5  and  C2_6 
REMARK    3  A    between atoms: C3_8  and  O2_9 
REMARK    4  A    between atoms: O2_9  and  C4_10 
REMARK    5  A    between atoms: C5_11  and  O3_12 
REMARK    6  A    between atoms: O3_12  and  C6_13 
REMARK    7  A    between atoms: C8_15  and  N2_16 
REMARK    8  A    between atoms: C10_21  and  N3_22 
REMARK    9  A    between atoms: C11_26  and  O4_27 
REMARK   10  A    between atoms: O4_27  and  C12_28 
REMARK   11  A    between atoms: C19_36  and  N4_37 
REMARK   12  A    between atoms: C20_41  and  C21_42 
REMARK   13  A    between atoms: C21_42  and  N5_43 
REMARK   14  A    between atoms: C22_47  and  O6_48 
REMARK   15  A    between atoms: C23_50  and  N6_51 
REMARK   16  A    between atoms: C24_55  and  O7_56 
ROOT
HETATM    1  C4  UNL     1      26.311 -17.759   1.695  1.00  0.00     0.190 C 
HETATM    2  C5  UNL     1      25.206 -16.836   1.327  1.00  0.00     0.292 C 
HETATM    3  O5  UNL     1      24.267 -17.660   0.663  1.00  0.00    -0.326 OA
HETATM    4  C19 UNL     1      25.040 -18.492  -0.143  1.00  0.00     0.329 C 
HETATM    5  C20 UNL     1      26.458 -18.475   0.310  1.00  0.00     0.101 C 
ENDROOT
BRANCH   2   6
HETATM    6  O3  UNL     1      24.687 -16.003   2.250  1.00  0.00    -0.351 OA
BRANCH   6   7
HETATM    7  C6  UNL     1      25.346 -14.784   2.300  1.00  0.00     0.157 C 
HETATM    8  C7  UNL     1      25.822 -14.369   0.926  1.00  0.00     0.067 C 
HETATM    9  C8  UNL     1      25.730 -12.902   0.681  1.00  0.00     0.188 C 
HETATM   10  C9  UNL     1      25.982 -12.032   1.871  1.00  0.00     0.068 C 
HETATM   11  C10 UNL     1      25.443 -12.548   3.162  1.00  0.00     0.216 C 
HETATM   12  C11 UNL     1      24.493 -13.748   2.948  1.00  0.00     0.181 C 
BRANCH   9  13
HETATM   13  N2  UNL     1      26.783 -12.577  -0.301  1.00  0.00    -0.075 N 
ATOM     14  H23 UNL     1      27.722 -12.805   0.023  1.00  0.00     0.274 HD
ATOM     15  H22 UNL     1      26.778 -13.189  -1.117  1.00  0.00     0.274 HD
ATOM     16  H21 UNL     1      26.664 -11.591  -0.534  1.00  0.00     0.274 HD
ENDBRANCH   9  13
BRANCH  11  17
HETATM   17  N3  UNL     1      26.547 -13.066   3.948  1.00  0.00    -0.072 N 
ATOM     18  H33 UNL     1      27.106 -13.747   3.436  1.00  0.00     0.274 HD
ATOM     19  H32 UNL     1      27.278 -12.372   4.102  1.00  0.00     0.274 HD
ATOM     20  H31 UNL     1      26.175 -13.441   4.821  1.00  0.00     0.274 HD
ENDBRANCH  11  17
BRANCH  12  21
HETATM   21  O4  UNL     1      23.468 -13.379   2.098  1.00  0.00    -0.376 OA
BRANCH  21  22
HETATM   22  C12 UNL     1      22.438 -12.724   2.692  1.00  0.00     0.122 C 
HETATM   23  C13 UNL     1      21.425 -13.506   3.435  1.00  0.00     0.032 C 
HETATM   24  C14 UNL     1      20.756 -12.531   4.416  1.00  0.00     0.002 C 
HETATM   25  C15 UNL     1      19.461 -11.991   3.910  1.00  0.00     0.000 C 
HETATM   26  C16 UNL     1      19.514 -11.346   2.560  1.00  0.00     0.000 C 
HETATM   27  C17 UNL     1      20.899 -10.920   2.130  1.00  0.00     0.002 C 
HETATM   28  C18 UNL     1      21.670 -12.051   1.526  1.00  0.00     0.032 C 
ENDBRANCH  21  22
ENDBRANCH  12  21
ENDBRANCH   6   7
ENDBRANCH   2   6
BRANCH   1  29
HETATM   29  O2  UNL     1      25.976 -18.801   2.544  1.00  0.00    -0.348 OA
BRANCH  29  30
HETATM   30  C3  UNL     1      25.883 -18.423   3.898  1.00  0.00     0.291 C 
HETATM   31  O1  UNL     1      27.060 -17.945   4.381  1.00  0.00    -0.349 OA
HETATM   32  C2  UNL     1      27.746 -18.576   5.342  1.00  0.00     0.181 C 
HETATM   33  C24 UNL     1      26.894 -19.281   6.376  1.00  0.00     0.182 C 
HETATM   34  C23 UNL     1      25.931 -20.217   5.692  1.00  0.00     0.247 C 
HETATM   35  C22 UNL     1      25.155 -19.441   4.680  1.00  0.00     0.206 C 
BRANCH  32  36
HETATM   36  C1  UNL     1      28.531 -17.516   6.133  1.00  0.00     0.264 C 
BRANCH  36  37
HETATM   37  N1  UNL     1      29.874 -18.014   6.282  1.00  0.00    -0.077 N 
ATOM     38  H13 UNL     1      29.929 -18.853   6.859  1.00  0.00     0.274 HD
ATOM     39  H12 UNL     1      30.249 -18.421   5.425  1.00  0.00     0.274 HD
ATOM     40  H11 UNL     1      30.438 -17.244   6.640  1.00  0.00     0.274 HD
ENDBRANCH  36  37
ENDBRANCH  32  36
BRANCH  33  41
HETATM   41  O7  UNL     1      27.752 -20.056   7.157  1.00  0.00    -0.391 OA
ATOM     42  H7  UNL     1      27.208 -20.603   7.712  1.00  0.00     0.210 HD
ENDBRANCH  33  41
BRANCH  34  43
HETATM   43  N6  UNL     1      26.718 -21.272   5.079  1.00  0.00    -0.070 N 
ATOM     44  H63 UNL     1      27.431 -20.891   4.458  1.00  0.00     0.274 HD
ATOM     45  H62 UNL     1      27.326 -21.726   5.761  1.00  0.00     0.274 HD
ATOM     46  H61 UNL     1      26.131 -21.952   4.595  1.00  0.00     0.274 HD
ENDBRANCH  34  43
BRANCH  35  47
HETATM   47  O6  UNL     1      24.509 -20.326   3.796  1.00  0.00    -0.388 OA
ATOM     48  H6  UNL     1      23.634 -20.505   4.120  1.00  0.00     0.210 HD
ENDBRANCH  35  47
ENDBRANCH  29  30
ENDBRANCH   1  29
BRANCH   5  49
HETATM   49  C21 UNL     1      27.396 -17.713  -0.578  1.00  0.00     0.241 C 
BRANCH  49  50
HETATM   50  N5  UNL     1      28.378 -18.687  -1.060  1.00  0.00    -0.079 N 
ATOM     51  H53 UNL     1      28.922 -19.119  -0.313  1.00  0.00     0.274 HD
ATOM     52  H52 UNL     1      27.958 -19.545  -1.418  1.00  0.00     0.274 HD
ATOM     53  H51 UNL     1      28.950 -18.196  -1.747  1.00  0.00     0.274 HD
ENDBRANCH  49  50
ENDBRANCH   5  49
BRANCH   4  54
HETATM   54  N4  UNL     1      24.452 -19.815  -0.200  1.00  0.00    -0.052 N 
ATOM     55  H43 UNL     1      23.610 -19.884   0.371  1.00  0.00     0.277 HD
ATOM     56  H42 UNL     1      24.032 -20.007  -1.109  1.00  0.00     0.277 HD
ATOM     57  H41 UNL     1      25.146 -20.518   0.056  1.00  0.00     0.277 HD
ENDBRANCH   4  54
TORSDOF 16
ENDMDL
MODEL 2
REMARK VINA RESULT: -5.840242884      3.887      6.616
REMARK  16 active torsions:
REMARK  status: ('A' for Active; 'I' for Inactive)
REMARK    1  A    between atoms: N1_1  and  C1_5 
REMARK    2  A    between atoms: C1_5  and  C2_6 
REMARK    3  A    between atoms: C3_8  and  O2_9 
REMARK    4  A    between atoms: O2_9  and  C4_10 
REMARK    5  A    between atoms: C5_11  and  O3_12 
REMARK    6  A    between atoms: O3_12  and  C6_13 
REMARK    7  A    between atoms: C8_15  and  N2_16 
REMARK    8  A    between atoms: C10_21  and  N3_22 
REMARK    9  A    between atoms: C11_26  and  O4_27 
REMARK   10  A    between atoms: O4_27  and  C12_28 
REMARK   11  A    between atoms: C19_36  and  N4_37 
REMARK   12  A    between atoms: C20_41  and  C21_42 
REMARK   13  A    between atoms: C21_42  and  N5_43 
REMARK   14  A    between atoms: C22_47  and  O6_48 
REMARK   15  A    between atoms: C23_50  and  N6_51 
REMARK   16  A    between atoms: C24_55  and  O7_56 
ROOT
HETATM    1  C4  UNL     1      24.306 -12.211   0.373  1.00  0.00     0.190 C 
HETATM    2  C5  UNL     1      23.817 -11.227  -0.627  1.00  0.00     0.292 C 
HETATM    3  O5  UNL     1      24.832 -11.193  -1.612  1.00  0.00    -0.326 OA
HETATM    4  C19 UNL     1      26.022 -11.212  -0.889  1.00  0.00     0.329 C 
HETATM    5  C20 UNL     1      25.768 -11.665   0.506  1.00  0.00     0.101 C 
ENDROOT
BRANCH   2   6
HETATM    6  O3  UNL     1      22.559 -11.317  -1.103  1.00  0.00    -0.351 OA
BRANCH   6   7
HETATM    7  C6  UNL     1      21.640 -11.658  -0.121  1.00  0.00     0.157 C 
HETATM    8  C7  UNL     1      21.108 -10.425   0.574  1.00  0.00     0.067 C 
HETATM    9  C8  UNL     1      19.667 -10.521   0.939  1.00  0.00     0.188 C 
HETATM   10  C9  UNL     1      19.190 -11.884   1.330  1.00  0.00     0.068 C 
HETATM   11  C10 UNL     1      19.779 -13.012   0.552  1.00  0.00     0.216 C 
HETATM   12  C11 UNL     1      20.556 -12.510  -0.686  1.00  0.00     0.181 C 
BRANCH   9  13
HETATM   13  N2  UNL     1      19.478  -9.660   2.123  1.00  0.00    -0.075 N 
ATOM     14  H23 UNL     1      18.508  -9.605   2.431  1.00  0.00     0.274 HD
ATOM     15  H22 UNL     1      19.861 -10.061   2.979  1.00  0.00     0.274 HD
ATOM     16  H21 UNL     1      19.879  -8.752   1.885  1.00  0.00     0.274 HD
ENDBRANCH   9  13
BRANCH  11  17
HETATM   17  N3  UNL     1      20.764 -13.679   1.382  1.00  0.00    -0.072 N 
ATOM     18  H33 UNL     1      21.555 -13.076   1.612  1.00  0.00     0.274 HD
ATOM     19  H32 UNL     1      20.432 -13.840   2.332  1.00  0.00     0.274 HD
ATOM     20  H31 UNL     1      21.051 -14.540   0.916  1.00  0.00     0.274 HD
ENDBRANCH  11  17
BRANCH  12  21
HETATM   21  O4  UNL     1      19.718 -11.749  -1.478  1.00  0.00    -0.376 OA
BRANCH  21  22
HETATM   22  C12 UNL     1      19.390 -12.309  -2.670  1.00  0.00     0.122 C 
HETATM   23  C13 UNL     1      20.003 -13.602  -3.048  1.00  0.00     0.032 C 
HETATM   24  C14 UNL     1      19.077 -14.232  -4.099  1.00  0.00     0.002 C 
HETATM   25  C15 UNL     1      19.539 -14.002  -5.498  1.00  0.00     0.000 C 
HETATM   26  C16 UNL     1      19.778 -12.572  -5.871  1.00  0.00     0.000 C 
HETATM   27  C17 UNL     1      19.087 -11.572  -4.973  1.00  0.00     0.002 C 
HETATM   28  C18 UNL     1      19.877 -11.292  -3.734  1.00  0.00     0.032 C 
ENDBRANCH  21  22
ENDBRANCH  12  21
ENDBRANCH   6   7
ENDBRANCH   2   6
BRANCH   1  29
HETATM   29  O2  UNL     1      24.502 -13.501  -0.089  1.00  0.00    -0.348 OA
BRANCH  29  30
HETATM   30  C3  UNL     1      24.439 -14.481   0.922  1.00  0.00     0.291 C 
HETATM   31  O1  UNL     1      25.425 -14.333   1.845  1.00  0.00    -0.349 OA
HETATM   32  C2  UNL     1      26.392 -15.245   2.011  1.00  0.00     0.181 C 
HETATM   33  C24 UNL     1      25.959 -16.679   1.792  1.00  0.00     0.182 C 
HETATM   34  C23 UNL     1      25.308 -16.816   0.441  1.00  0.00     0.247 C 
HETATM   35  C22 UNL     1      24.202 -15.818   0.344  1.00  0.00     0.206 C 
BRANCH  32  36
HETATM   36  C1  UNL     1      26.846 -15.188   3.478  1.00  0.00     0.264 C 
BRANCH  36  37
HETATM   37  N1  UNL     1      28.263 -15.448   3.488  1.00  0.00    -0.077 N 
ATOM     38  H13 UNL     1      28.695 -15.356   2.569  1.00  0.00     0.274 HD
ATOM     39  H12 UNL     1      28.802 -14.719   3.957  1.00  0.00     0.274 HD
ATOM     40  H11 UNL     1      28.393 -16.371   3.902  1.00  0.00     0.274 HD
ENDBRANCH  36  37
ENDBRANCH  32  36
BRANCH  33  41
HETATM   41  O7  UNL     1      27.115 -17.461   1.784  1.00  0.00    -0.391 OA
ATOM     42  H7  UNL     1      26.841 -18.364   1.674  1.00  0.00     0.210 HD
ENDBRANCH  33  41
BRANCH  34  43
HETATM   43  N6  UNL     1      26.336 -16.584  -0.559  1.00  0.00    -0.070 N 
ATOM     44  H63 UNL     1      25.930 -16.465  -1.488  1.00  0.00     0.274 HD
ATOM     45  H62 UNL     1      26.758 -15.661  -0.450  1.00  0.00     0.274 HD
ATOM     46  H61 UNL     1      27.044 -17.319  -0.555  1.00  0.00     0.274 HD
ENDBRANCH  34  43
BRANCH  35  47
HETATM   47  O6  UNL     1      23.806 -15.677  -0.999  1.00  0.00    -0.388 OA
ATOM     48  H6  UNL     1      24.403 -16.166  -1.553  1.00  0.00     0.210 HD
ENDBRANCH  35  47
ENDBRANCH  29  30
ENDBRANCH   1  29
BRANCH   5  49
HETATM   49  C21 UNL     1      25.834 -10.584   1.544  1.00  0.00     0.241 C 
BRANCH  49  50
HETATM   50  N5  UNL     1      25.464 -11.217   2.811  1.00  0.00    -0.079 N 
ATOM     51  H53 UNL     1      24.590 -10.865   3.202  1.00  0.00     0.274 HD
ATOM     52  H52 UNL     1      25.171 -12.189   2.711  1.00  0.00     0.274 HD
ATOM     53  H51 UNL     1      26.264 -11.095   3.432  1.00  0.00     0.274 HD
ENDBRANCH  49  50
ENDBRANCH   5  49
BRANCH   4  54
HETATM   54  N4  UNL     1      27.019 -11.991  -1.594  1.00  0.00    -0.052 N 
ATOM     55  H43 UNL     1      26.812 -12.067  -2.590  1.00  0.00     0.277 HD
ATOM     56  H42 UNL     1      27.909 -11.499  -1.663  1.00  0.00     0.277 HD
ATOM     57  H41 UNL     1      27.123 -12.907  -1.154  1.00  0.00     0.277 HD
ENDBRANCH   4  54
TORSDOF 16
ENDMDL
MODEL 3
REMARK VINA RESULT: -5.688587919      2.780      5.937
REMARK  16 active torsions:
REMARK  status: ('A' for Active; 'I' for Inactive)
REMARK    1  A    between atoms: N1_1  and  C1_5 
REMARK    2  A    between atoms: C1_5  and  C2_6 
REMARK    3  A    between atoms: C3_8  and  O2_9 
REMARK    4  A    between atoms: O2_9  and  C4_10 
REMARK    5  A    between atoms: C5_11  and  O3_12 
REMARK    6  A    between atoms: O3_12  and  C6_13 
REMARK    7  A    between atoms: C8_15  and  N2_16 
REMARK    8  A    between atoms: C10_21  and  N3_22 
REMARK    9  A    between atoms: C11_26  and  O4_27 
REMARK   10  A    between atoms: O4_27  and  C12_28 
REMARK   11  A    between atoms: C19_36  and  N4_37 
REMARK   12  A    between atoms: C20_41  and  C21_42 
REMARK   13  A    between atoms: C21_42  and  N5_43 
REMARK   14  A    between atoms: C22_47  and  O6_48 
REMARK   15  A    between atoms: C23_50  and  N6_51 
REMARK   16  A    between atoms: C24_55  and  O7_56 
ROOT
HETATM    1  C4  UNL     1      24.931 -12.267   2.440  1.00  0.00     0.190 C 
HETATM    2  C5  UNL     1      23.448 -12.212   2.507  1.00  0.00     0.292 C 
HETATM    3  O5  UNL     1      23.043 -12.005   1.168  1.00  0.00    -0.326 OA
HETATM    4  C19 UNL     1      23.948 -11.071   0.669  1.00  0.00     0.329 C 
HETATM    5  C20 UNL     1      25.148 -10.999   1.547  1.00  0.00     0.101 C 
ENDROOT
BRANCH   2   6
HETATM    6  O3  UNL     1      22.767 -13.167   3.171  1.00  0.00    -0.351 OA
BRANCH   6   7
HETATM    7  C6  UNL     1      21.639 -13.593   2.484  1.00  0.00     0.157 C 
HETATM    8  C7  UNL     1      21.391 -15.067   2.714  1.00  0.00     0.067 C 
HETATM    9  C8  UNL     1      19.947 -15.421   2.806  1.00  0.00     0.188 C 
HETATM   10  C9  UNL     1      19.029 -14.617   1.941  1.00  0.00     0.068 C 
HETATM   11  C10 UNL     1      19.376 -13.173   1.814  1.00  0.00     0.216 C 
HETATM   12  C11 UNL     1      20.460 -12.752   2.832  1.00  0.00     0.181 C 
BRANCH   9  13
HETATM   13  N2  UNL     1      19.829 -16.819   2.350  1.00  0.00    -0.075 N 
ATOM     14  H23 UNL     1      18.868 -17.159   2.332  1.00  0.00     0.274 HD
ATOM     15  H22 UNL     1      20.024 -16.937   1.355  1.00  0.00     0.274 HD
ATOM     16  H21 UNL     1      20.442 -17.371   2.951  1.00  0.00     0.274 HD
ENDBRANCH   9  13
BRANCH  11  17
HETATM   17  N3  UNL     1      19.968 -12.954   0.508  1.00  0.00    -0.072 N 
ATOM     18  H33 UNL     1      20.727 -12.274   0.531  1.00  0.00     0.274 HD
ATOM     19  H32 UNL     1      20.508 -13.756   0.184  1.00  0.00     0.274 HD
ATOM     20  H31 UNL     1      19.227 -12.692  -0.144  1.00  0.00     0.274 HD
ENDBRANCH  11  17
BRANCH  12  21
HETATM   21  O4  UNL     1      20.029 -13.045   4.112  1.00  0.00    -0.376 OA
BRANCH  21  22
HETATM   22  C12 UNL     1      19.065 -12.221   4.596  1.00  0.00     0.122 C 
HETATM   23  C13 UNL     1      19.398 -11.306   5.711  1.00  0.00     0.032 C 
HETATM   24  C14 UNL     1      18.365 -10.171   5.665  1.00  0.00     0.002 C 
HETATM   25  C15 UNL     1      17.239 -10.366   6.623  1.00  0.00     0.000 C 
HETATM   26  C16 UNL     1      16.516 -11.672   6.510  1.00  0.00     0.000 C 
HETATM   27  C17 UNL     1      16.706 -12.374   5.186  1.00  0.00     0.002 C 
HETATM   28  C18 UNL     1      17.972 -13.170   5.150  1.00  0.00     0.032 C 
ENDBRANCH  21  22
ENDBRANCH  12  21
ENDBRANCH   6   7
ENDBRANCH   2   6
BRANCH   1  29
HETATM   29  O2  UNL     1      25.468 -13.282   1.665  1.00  0.00    -0.348 OA
BRANCH  29  30
HETATM   30  C3  UNL     1      25.123 -14.575   2.105  1.00  0.00     0.291 C 
HETATM   31  O1  UNL     1      26.080 -15.121   2.901  1.00  0.00    -0.349 OA
HETATM   32  C2  UNL     1      26.779 -16.204   2.538  1.00  0.00     0.181 C 
HETATM   33  C24 UNL     1      26.007 -17.214   1.717  1.00  0.00     0.182 C 
HETATM   34  C23 UNL     1      25.392 -16.538   0.520  1.00  0.00     0.247 C 
HETATM   35  C22 UNL     1      24.578 -15.380   0.996  1.00  0.00     0.206 C 
BRANCH  32  36
HETATM   36  C1  UNL     1      27.179 -16.956   3.817  1.00  0.00     0.264 C 
BRANCH  36  37
HETATM   37  N1  UNL     1      28.264 -16.219   4.415  1.00  0.00    -0.077 N 
ATOM     38  H13 UNL     1      28.001 -15.752   5.283  1.00  0.00     0.274 HD
ATOM     39  H12 UNL     1      28.989 -16.820   4.806  1.00  0.00     0.274 HD
ATOM     40  H11 UNL     1      28.614 -15.578   3.704  1.00  0.00     0.274 HD
ENDBRANCH  36  37
ENDBRANCH  32  36
BRANCH  33  41
HETATM   41  O7  UNL     1      26.928 -18.150   1.245  1.00  0.00    -0.391 OA
ATOM     42  H7  UNL     1      26.663 -18.998   1.581  1.00  0.00     0.210 HD
ENDBRANCH  33  41
BRANCH  34  43
HETATM   43  N6  UNL     1      26.481 -16.115  -0.343  1.00  0.00    -0.070 N 
ATOM     44  H63 UNL     1      27.060 -16.906  -0.626  1.00  0.00     0.274 HD
ATOM     45  H62 UNL     1      26.138 -15.831  -1.262  1.00  0.00     0.274 HD
ATOM     46  H61 UNL     1      27.043 -15.379   0.086  1.00  0.00     0.274 HD
ENDBRANCH  34  43
BRANCH  35  47
HETATM   47  O6  UNL     1      24.280 -14.532  -0.087  1.00  0.00    -0.388 OA
ATOM     48  H6  UNL     1      24.037 -15.061  -0.839  1.00  0.00     0.210 HD
ENDBRANCH  35  47
ENDBRANCH  29  30
ENDBRANCH   1  29
BRANCH   5  49
HETATM   49  C21 UNL     1      25.237  -9.766   2.397  1.00  0.00     0.241 C 
BRANCH  49  50
HETATM   50  N5  UNL     1      24.026  -8.992   2.115  1.00  0.00    -0.079 N 
ATOM     51  H53 UNL     1      23.613  -9.199   1.206  1.00  0.00     0.274 HD
ATOM     52  H52 UNL     1      23.225  -9.271   2.681  1.00  0.00     0.274 HD
ATOM     53  H51 UNL     1      24.284  -8.012   2.230  1.00  0.00     0.274 HD
ENDBRANCH  49  50
ENDBRANCH   5  49
BRANCH   4  54
HETATM   54  N4  UNL     1      24.245 -11.358  -0.719  1.00  0.00    -0.052 N 
ATOM     55  H43 UNL     1      25.083 -11.932  -0.819  1.00  0.00     0.277 HD
ATOM     56  H42 UNL     1      23.572 -12.006  -1.127  1.00  0.00     0.277 HD
ATOM     57  H41 UNL     1      24.311 -10.490  -1.251  1.00  0.00     0.277 HD
ENDBRANCH   4  54
TORSDOF 16
ENDMDL
MODEL 4
REMARK VINA RESULT: -5.684019498      2.639      8.574
REMARK  16 active torsions:
REMARK  status: ('A' for Active; 'I' for Inactive)
REMARK    1  A    between atoms: N1_1  and  C1_5 
REMARK    2  A    between atoms: C1_5  and  C2_6 
REMARK    3  A    between atoms: C3_8  and  O2_9 
REMARK    4  A    between atoms: O2_9  and  C4_10 
REMARK    5  A    between atoms: C5_11  and  O3_12 
REMARK    6  A    between atoms: O3_12  and  C6_13 
REMARK    7  A    between atoms: C8_15  and  N2_16 
REMARK    8  A    between atoms: C10_21  and  N3_22 
REMARK    9  A    between atoms: C11_26  and  O4_27 
REMARK   10  A    between atoms: O4_27  and  C12_28 
REMARK   11  A    between atoms: C19_36  and  N4_37 
REMARK   12  A    between atoms: C20_41  and  C21_42 
REMARK   13  A    between atoms: C21_42  and  N5_43 
REMARK   14  A    between atoms: C22_47  and  O6_48 
REMARK   15  A    between atoms: C23_50  and  N6_51 
REMARK   16  A    between atoms: C24_55  and  O7_56 
ROOT
HETATM    1  C4  UNL     1      25.722 -16.533   1.694  1.00  0.00     0.190 C 
HETATM    2  C5  UNL     1      25.956 -17.974   1.971  1.00  0.00     0.292 C 
HETATM    3  O5  UNL     1      26.989 -18.340   1.077  1.00  0.00    -0.326 OA
HETATM    4  C19 UNL     1      26.660 -17.705  -0.118  1.00  0.00     0.329 C 
HETATM    5  C20 UNL     1      25.663 -16.627   0.132  1.00  0.00     0.101 C 
ENDROOT
BRANCH   2   6
HETATM    6  O3  UNL     1      26.119 -18.399   3.240  1.00  0.00    -0.351 OA
BRANCH   6   7
HETATM    7  C6  UNL     1      25.104 -19.250   3.652  1.00  0.00     0.157 C 
HETATM    8  C7  UNL     1      24.453 -19.928   2.468  1.00  0.00     0.067 C 
HETATM    9  C8  UNL     1      24.054 -21.339   2.734  1.00  0.00     0.188 C 
HETATM   10  C9  UNL     1      23.593 -21.627   4.127  1.00  0.00     0.068 C 
HETATM   11  C10 UNL     1      24.333 -20.908   5.204  1.00  0.00     0.216 C 
HETATM   12  C11 UNL     1      25.608 -20.222   4.663  1.00  0.00     0.181 C 
BRANCH   9  13
HETATM   13  N2  UNL     1      22.906 -21.621   1.851  1.00  0.00    -0.075 N 
ATOM     14  H23 UNL     1      22.894 -21.048   1.008  1.00  0.00     0.274 HD
ATOM     15  H22 UNL     1      22.966 -22.528   1.387  1.00  0.00     0.274 HD
ATOM     16  H21 UNL     1      22.068 -21.515   2.424  1.00  0.00     0.274 HD
ENDBRANCH   9  13
BRANCH  11  17
HETATM   17  N3  UNL     1      23.496 -19.831   5.697  1.00  0.00    -0.072 N 
ATOM     18  H33 UNL     1      23.801 -19.482   6.606  1.00  0.00     0.274 HD
ATOM     19  H32 UNL     1      23.617 -18.967   5.169  1.00  0.00     0.274 HD
ATOM     20  H31 UNL     1      22.527 -20.151   5.706  1.00  0.00     0.274 HD
ENDBRANCH  11  17
BRANCH  12  21
HETATM   21  O4  UNL     1      26.415 -21.164   4.055  1.00  0.00    -0.376 OA
BRANCH  21  22
HETATM   22  C12 UNL     1      27.066 -21.997   4.906  1.00  0.00     0.122 C 
HETATM   23  C13 UNL     1      28.120 -21.444   5.786  1.00  0.00     0.032 C 
HETATM   24  C14 UNL     1      28.264 -22.422   6.960  1.00  0.00     0.002 C 
HETATM   25  C15 UNL     1      29.396 -23.377   6.789  1.00  0.00     0.000 C 
HETATM   26  C16 UNL     1      29.392 -24.162   5.515  1.00  0.00     0.000 C 
HETATM   27  C17 UNL     1      28.045 -24.227   4.831  1.00  0.00     0.002 C 
HETATM   28  C18 UNL     1      27.786 -23.019   3.989  1.00  0.00     0.032 C 
ENDBRANCH  21  22
ENDBRANCH  12  21
ENDBRANCH   6   7
ENDBRANCH   2   6
BRANCH   1  29
HETATM   29  O2  UNL     1      26.799 -15.689   1.909  1.00  0.00    -0.348 OA
BRANCH  29  30
HETATM   30  C3  UNL     1      26.449 -14.468   2.519  1.00  0.00     0.291 C 
HETATM   31  O1  UNL     1      25.118 -14.383   2.777  1.00  0.00    -0.349 OA
HETATM   32  C2  UNL     1      24.328 -13.487   2.171  1.00  0.00     0.181 C 
HETATM   33  C24 UNL     1      24.987 -12.157   1.872  1.00  0.00     0.182 C 
HETATM   34  C23 UNL     1      26.256 -12.379   1.092  1.00  0.00     0.247 C 
HETATM   35  C22 UNL     1      27.116 -13.335   1.849  1.00  0.00     0.206 C 
BRANCH  32  36
HETATM   36  C1  UNL     1      23.175 -13.151   3.131  1.00  0.00     0.264 C 
BRANCH  36  37
HETATM   37  N1  UNL     1      21.963 -13.170   2.352  1.00  0.00    -0.077 N 
ATOM     38  H13 UNL     1      21.914 -12.416   1.667  1.00  0.00     0.274 HD
ATOM     39  H12 UNL     1      21.922 -13.947   1.692  1.00  0.00     0.274 HD
ATOM     40  H11 UNL     1      21.186 -13.163   3.013  1.00  0.00     0.274 HD
ENDBRANCH  36  37
ENDBRANCH  32  36
BRANCH  33  41
HETATM   41  O7  UNL     1      24.110 -11.439   1.057  1.00  0.00    -0.391 OA
ATOM     42  H7  UNL     1      24.019 -11.927   0.246  1.00  0.00     0.210 HD
ENDBRANCH  33  41
BRANCH  34  43
HETATM   43  N6  UNL     1      25.877 -12.904  -0.208  1.00  0.00    -0.070 N 
ATOM     44  H63 UNL     1      25.685 -13.905  -0.162  1.00  0.00     0.274 HD
ATOM     45  H62 UNL     1      24.951 -12.577  -0.485  1.00  0.00     0.274 HD
ATOM     46  H61 UNL     1      26.574 -12.693  -0.922  1.00  0.00     0.274 HD
ENDBRANCH  34  43
BRANCH  35  47
HETATM   47  O6  UNL     1      28.131 -13.829   1.008  1.00  0.00    -0.388 OA
ATOM     48  H6  UNL     1      28.909 -13.293   1.111  1.00  0.00     0.210 HD
ENDBRANCH  35  47
ENDBRANCH  29  30
ENDBRANCH   1  29
BRANCH   5  49
HETATM   49  C21 UNL     1      24.269 -16.937  -0.324  1.00  0.00     0.241 C 
BRANCH  49  50
HETATM   50  N5  UNL     1      23.663 -15.652  -0.679  1.00  0.00    -0.079 N 
ATOM     51  H53 UNL     1      22.675 -15.587  -0.436  1.00  0.00     0.274 HD
ATOM     52  H52 UNL     1      23.984 -14.877  -0.097  1.00  0.00     0.274 HD
ATOM     53  H51 UNL     1      23.847 -15.518  -1.673  1.00  0.00     0.274 HD
ENDBRANCH  49  50
ENDBRANCH   5  49
BRANCH   4  54
HETATM   54  N4  UNL     1      27.861 -17.257  -0.791  1.00  0.00    -0.052 N 
ATOM     55  H43 UNL     1      27.683 -17.004  -1.763  1.00  0.00     0.277 HD
ATOM     56  H42 UNL     1      28.170 -16.346  -0.454  1.00  0.00     0.277 HD
ATOM     57  H41 UNL     1      28.593 -17.963  -0.708  1.00  0.00     0.277 HD
ENDBRANCH   4  54
TORSDOF 16
ENDMDL
MODEL 5
REMARK VINA RESULT: -5.640804650      4.630      9.057
REMARK  16 active torsions:
REMARK  status: ('A' for Active; 'I' for Inactive)
REMARK    1  A    between atoms: N1_1  and  C1_5 
REMARK    2  A    between atoms: C1_5  and  C2_6 
REMARK    3  A    between atoms: C3_8  and  O2_9 
REMARK    4  A    between atoms: O2_9  and  C4_10 
REMARK    5  A    between atoms: C5_11  and  O3_12 
REMARK    6  A    between atoms: O3_12  and  C6_13 
REMARK    7  A    between atoms: C8_15  and  N2_16 
REMARK    8  A    between atoms: C10_21  and  N3_22 
REMARK    9  A    between atoms: C11_26  and  O4_27 
REMARK   10  A    between atoms: O4_27  and  C12_28 
REMARK   11  A    between atoms: C19_36  and  N4_37 
REMARK   12  A    between atoms: C20_41  and  C21_42 
REMARK   13  A    between atoms: C21_42  and  N5_43 
REMARK   14  A    between atoms: C22_47  and  O6_48 
REMARK   15  A    between atoms: C23_50  and  N6_51 
REMARK   16  A    between atoms: C24_55  and  O7_56 
ROOT
HETATM    1  C4  UNL     1      20.435 -11.282  -0.173  1.00  0.00     0.190 C 
HETATM    2  C5  UNL     1      21.709 -11.966  -0.511  1.00  0.00     0.292 C 
HETATM    3  O5  UNL     1      22.266 -11.179  -1.547  1.00  0.00    -0.326 OA
HETATM    4  C19 UNL     1      21.183 -10.857  -2.362  1.00  0.00     0.329 C 
HETATM    5  C20 UNL     1      19.906 -11.089  -1.634  1.00  0.00     0.101 C 
ENDROOT
BRANCH   2   6
HETATM    6  O3  UNL     1      22.568 -12.316   0.467  1.00  0.00    -0.351 OA
BRANCH   6   7
HETATM    7  C6  UNL     1      23.777 -11.641   0.383  1.00  0.00     0.157 C 
HETATM    8  C7  UNL     1      23.844 -10.524   1.400  1.00  0.00     0.067 C 
HETATM    9  C8  UNL     1      25.200 -10.336   1.989  1.00  0.00     0.188 C 
HETATM   10  C9  UNL     1      26.347 -10.599   1.067  1.00  0.00     0.068 C 
HETATM   11  C10 UNL     1      26.159 -11.742   0.128  1.00  0.00     0.216 C 
HETATM   12  C11 UNL     1      24.920 -12.589   0.496  1.00  0.00     0.181 C 
BRANCH   9  13
HETATM   13  N2  UNL     1      25.294  -8.914   2.373  1.00  0.00    -0.075 N 
ATOM     14  H23 UNL     1      24.508  -8.354   2.046  1.00  0.00     0.274 HD
ATOM     15  H22 UNL     1      25.156  -8.755   3.372  1.00  0.00     0.274 HD
ATOM     16  H21 UNL     1      26.197  -8.582   2.032  1.00  0.00     0.274 HD
ENDBRANCH   9  13
BRANCH  11  17
HETATM   17  N3  UNL     1      25.884 -11.211  -1.194  1.00  0.00    -0.072 N 
ATOM     18  H33 UNL     1      26.075 -10.211  -1.262  1.00  0.00     0.274 HD
ATOM     19  H32 UNL     1      26.556 -11.529  -1.892  1.00  0.00     0.274 HD
ATOM     20  H31 UNL     1      24.922 -11.444  -1.443  1.00  0.00     0.274 HD
ENDBRANCH  11  17
BRANCH  12  21
HETATM   21  O4  UNL     1      25.039 -13.036   1.798  1.00  0.00    -0.376 OA
BRANCH  21  22
HETATM   22  C12 UNL     1      25.678 -14.225   1.942  1.00  0.00     0.122 C 
HETATM   23  C13 UNL     1      24.901 -15.409   2.373  1.00  0.00     0.032 C 
HETATM   24  C14 UNL     1      25.698 -16.641   1.921  1.00  0.00     0.002 C 
HETATM   25  C15 UNL     1      26.535 -17.227   3.006  1.00  0.00     0.000 C 
HETATM   26  C16 UNL     1      27.473 -16.277   3.683  1.00  0.00     0.000 C 
HETATM   27  C17 UNL     1      27.775 -15.030   2.885  1.00  0.00     0.002 C 
HETATM   28  C18 UNL     1      26.722 -13.982   3.061  1.00  0.00     0.032 C 
ENDBRANCH  21  22
ENDBRANCH  12  21
ENDBRANCH   6   7
ENDBRANCH   2   6
BRANCH   1  29
HETATM   29  O2  UNL     1      20.545  -9.981   0.287  1.00  0.00    -0.348 OA
BRANCH  29  30
HETATM   30  C3  UNL     1      20.362  -9.852   1.678  1.00  0.00     0.291 C 
HETATM   31  O1  UNL     1      20.193 -11.054   2.288  1.00  0.00    -0.349 OA
HETATM   32  C2  UNL     1      19.045 -11.396   2.887  1.00  0.00     0.181 C 
HETATM   33  C24 UNL     1      18.311 -10.254   3.556  1.00  0.00     0.182 C 
HETATM   34  C23 UNL     1      18.097  -9.136   2.569  1.00  0.00     0.247 C 
HETATM   35  C22 UNL     1      19.419  -8.761   1.986  1.00  0.00     0.206 C 
BRANCH  32  36
HETATM   36  C1  UNL     1      19.382 -12.372   4.027  1.00  0.00     0.264 C 
BRANCH  36  37
HETATM   37  N1  UNL     1      19.598 -11.577   5.209  1.00  0.00    -0.077 N 
ATOM     38  H13 UNL     1      20.584 -11.463   5.441  1.00  0.00     0.274 HD
ATOM     39  H12 UNL     1      19.381 -10.589   5.073  1.00  0.00     0.274 HD
ATOM     40  H11 UNL     1      19.056 -12.006   5.958  1.00  0.00     0.274 HD
ENDBRANCH  36  37
ENDBRANCH  32  36
BRANCH  33  41
HETATM   41  O7  UNL     1      17.054 -10.735   3.927  1.00  0.00    -0.391 OA
ATOM     42  H7  UNL     1      16.823 -10.311   4.746  1.00  0.00     0.210 HD
ENDBRANCH  33  41
BRANCH  34  43
HETATM   43  N6  UNL     1      17.177  -9.625   1.557  1.00  0.00    -0.070 N 
ATOM     44  H63 UNL     1      16.277  -9.148   1.612  1.00  0.00     0.274 HD
ATOM     45  H62 UNL     1      17.459  -9.325   0.623  1.00  0.00     0.274 HD
ATOM     46  H61 UNL     1      17.064 -10.638   1.602  1.00  0.00     0.274 HD
ENDBRANCH  34  43
BRANCH  35  47
HETATM   47  O6  UNL     1      19.223  -7.980   0.831  1.00  0.00    -0.388 OA
ATOM     48  H6  UNL     1      19.576  -7.110   0.979  1.00  0.00     0.210 HD
ENDBRANCH  35  47
ENDBRANCH  29  30
ENDBRANCH   1  29
BRANCH   5  49
HETATM   49  C21 UNL     1      19.135 -12.296  -2.079  1.00  0.00     0.241 C 
BRANCH  49  50
HETATM   50  N5  UNL     1      19.839 -12.817  -3.252  1.00  0.00    -0.079 N 
ATOM     51  H53 UNL     1      20.812 -13.062  -3.068  1.00  0.00     0.274 HD
ATOM     52  H52 UNL     1      19.529 -13.747  -3.533  1.00  0.00     0.274 HD
ATOM     53  H51 UNL     1      19.729 -12.113  -3.983  1.00  0.00     0.274 HD
ENDBRANCH  49  50
ENDBRANCH   5  49
BRANCH   4  54
HETATM   54  N4  UNL     1      21.334  -9.514  -2.882  1.00  0.00    -0.052 N 
ATOM     55  H43 UNL     1      20.843  -8.826  -2.310  1.00  0.00     0.277 HD
ATOM     56  H42 UNL     1      22.283  -9.161  -2.758  1.00  0.00     0.277 HD
ATOM     57  H41 UNL     1      21.038  -9.480  -3.858  1.00  0.00     0.277 HD
ENDBRANCH   4  54
TORSDOF 16
ENDMDL
