MODEL 1
REMARK VINA RESULT: -8.710532314      0.000      0.000
REMARK  6 active torsions:
REMARK  status: ('A' for Active; 'I' for Inactive)
REMARK    1  A    between atoms: C2_2  and  N1_5 
REMARK    2  A    between atoms: C5_12  and  C6_13 
REMARK    3  A    between atoms: C6_13  and  N5_14 
REMARK    4  A    between atoms: C6_13  and  C12_28 
REMARK    5  A    between atoms: N5_14  and  N6_16 
REMARK       I    between atoms: N6_16  and  C7_18 
REMARK    6  A    between atoms: C7_18  and  C8_20 
ROOT
HETATM    1  C6  UNL     1      -0.324 -11.772  24.558  1.00  0.00     0.219 C 
ENDROOT
BRANCH   1   2
HETATM    2  C5  UNL     1      -0.708 -13.127  25.006  1.00  0.00     0.146 A 
HETATM    3  N1  UNL     1      -1.535 -13.998  24.415  1.00  0.00    -0.252 N 
HETATM    4  N2  UNL     1      -1.535 -15.044  25.262  1.00  0.00    -0.224 N 
HETATM    5  N3  UNL     1      -0.769 -14.839  26.292  1.00  0.00    -0.227 N 
ATOM      6  H2  UNL     1      -2.073 -15.898  25.114  1.00  0.00     0.210 HD
HETATM    7  N4  UNL     1      -0.245 -13.656  26.156  1.00  0.00    -0.270 N 
ATOM      8  H3  UNL     1      -0.609 -15.486  27.064  1.00  0.00     0.210 HD
ATOM      9  H4  UNL     1       0.402 -13.209  26.806  1.00  0.00     0.190 HD
BRANCH   3  10
HETATM   10  C2  UNL     1      -2.257 -13.929  23.186  1.00  0.00     0.046 C 
HETATM   11  C1  UNL     1      -1.332 -13.986  21.965  1.00  0.00     0.040 C 
HETATM   12  C3  UNL     1      -3.272 -12.840  23.067  1.00  0.00     0.040 C 
HETATM   13  C4  UNL     1      -3.058 -15.240  23.032  1.00  0.00     0.040 C 
ENDBRANCH   3  10
ENDBRANCH   1   2
BRANCH   1  14
HETATM   14  N5  UNL     1       1.069 -11.497  24.764  1.00  0.00    -0.316 N 
ATOM     15  H5  UNL     1       1.453 -11.467  25.709  1.00  0.00     0.181 HD
BRANCH  14  16
HETATM   16  N6  UNL     1       1.870 -11.279  23.697  1.00  0.00    -0.268 N 
HETATM   17  C7  UNL     1       3.277 -11.429  23.845  1.00  0.00     0.287 C 
HETATM   18  O1  UNL     1       3.764 -11.773  24.988  1.00  0.00    -0.264 OA
ATOM     19  H6  UNL     1       1.471 -11.011  22.798  1.00  0.00     0.190 HD
BRANCH  17  20
HETATM   20  C8  UNL     1       4.256 -11.221  22.788  1.00  0.00     0.117 A 
HETATM   21  C9  UNL     1       3.968 -10.320  21.791  1.00  0.00     0.122 A 
HETATM   22  N7  UNL     1       4.900 -10.143  20.812  1.00  0.00    -0.372 N 
HETATM   23  C10 UNL     1       6.056 -10.835  20.834  1.00  0.00     0.104 A 
ATOM     24  H7  UNL     1       4.720  -9.481  20.058  1.00  0.00     0.164 HD
HETATM   25  C11 UNL     1       6.330 -11.734  21.837  1.00  0.00     0.105 A 
HETATM   26  N8  UNL     1       5.429 -11.920  22.804  1.00  0.00    -0.359 N 
ATOM     27  H8  UNL     1       5.618 -12.584  23.556  1.00  0.00     0.165 HD
ENDBRANCH  17  20
ENDBRANCH  14  16
ENDBRANCH   1  14
BRANCH   1  28
HETATM   28  C12 UNL     1      -1.088 -10.685  25.228  1.00  0.00     0.041 A 
HETATM   29  C13 UNL     1      -1.673  -9.650  24.530  1.00  0.00     0.027 A 
HETATM   30  C14 UNL     1      -2.377  -8.676  25.204  1.00  0.00     0.003 A 
HETATM   31  C15 UNL     1      -2.512  -8.712  26.574  1.00  0.00     0.017 A 
HETATM   32  C16 UNL     1      -1.920  -9.756  27.260  1.00  0.00     0.088 A 
HETATM   33  N9  UNL     1      -1.248 -10.675  26.556  1.00  0.00    -0.367 N 
ATOM     34  H9  UNL     1      -0.819 -11.438  27.080  1.00  0.00     0.165 HD
ENDBRANCH   1  28
TORSDOF 6
ENDMDL
MODEL 2
REMARK VINA RESULT: -8.681962303      1.056      1.481
REMARK  6 active torsions:
REMARK  status: ('A' for Active; 'I' for Inactive)
REMARK    1  A    between atoms: C2_2  and  N1_5 
REMARK    2  A    between atoms: C5_12  and  C6_13 
REMARK    3  A    between atoms: C6_13  and  N5_14 
REMARK    4  A    between atoms: C6_13  and  C12_28 
REMARK    5  A    between atoms: N5_14  and  N6_16 
REMARK       I    between atoms: N6_16  and  C7_18 
REMARK    6  A    between atoms: C7_18  and  C8_20 
ROOT
HETATM    1  C6  UNL     1       0.012 -11.921  23.858  1.00  0.00     0.219 C 
ENDROOT
BRANCH   1   2
HETATM    2  C5  UNL     1      -0.428 -13.029  24.732  1.00  0.00     0.146 A 
HETATM    3  N1  UNL     1      -1.386 -13.938  24.509  1.00  0.00    -0.252 N 
HETATM    4  N2  UNL     1      -1.376 -14.676  25.634  1.00  0.00    -0.224 N 
HETATM    5  N3  UNL     1      -0.484 -14.261  26.483  1.00  0.00    -0.227 N 
ATOM      6  H2  UNL     1      -1.995 -15.469  25.801  1.00  0.00     0.210 HD
HETATM    7  N4  UNL     1       0.117 -13.240  25.947  1.00  0.00    -0.270 N 
ATOM      8  H3  UNL     1      -0.291 -14.661  27.401  1.00  0.00     0.210 HD
ATOM      9  H4  UNL     1       0.868 -12.694  26.371  1.00  0.00     0.190 HD
BRANCH   3  10
HETATM   10  C2  UNL     1      -2.234 -14.158  23.383  1.00  0.00     0.046 C 
HETATM   11  C1  UNL     1      -1.452 -14.194  22.065  1.00  0.00     0.040 C 
HETATM   12  C3  UNL     1      -3.451 -13.298  23.285  1.00  0.00     0.040 C 
HETATM   13  C4  UNL     1      -2.771 -15.602  23.468  1.00  0.00     0.040 C 
ENDBRANCH   3  10
ENDBRANCH   1   2
BRANCH   1  14
HETATM   14  N5  UNL     1       1.285 -11.384  24.249  1.00  0.00    -0.316 N 
ATOM     15  H5  UNL     1       1.469 -11.160  25.227  1.00  0.00     0.181 HD
BRANCH  14  16
HETATM   16  N6  UNL     1       2.237 -11.177  23.311  1.00  0.00    -0.268 N 
HETATM   17  C7  UNL     1       3.604 -11.343  23.665  1.00  0.00     0.287 C 
HETATM   18  O1  UNL     1       3.914 -11.691  24.868  1.00  0.00    -0.264 OA
ATOM     19  H6  UNL     1       1.978 -10.906  22.363  1.00  0.00     0.190 HD
BRANCH  17  20
HETATM   20  C8  UNL     1       4.731 -11.149  22.763  1.00  0.00     0.117 A 
HETATM   21  C9  UNL     1       4.504 -10.559  21.543  1.00  0.00     0.122 A 
HETATM   22  N7  UNL     1       5.574 -10.388  20.716  1.00  0.00    -0.372 N 
HETATM   23  C10 UNL     1       6.803 -10.789  21.095  1.00  0.00     0.104 A 
ATOM     24  H7  UNL     1       5.443  -9.953  19.804  1.00  0.00     0.164 HD
HETATM   25  C11 UNL     1       7.015 -11.379  22.319  1.00  0.00     0.105 A 
HETATM   26  N8  UNL     1       5.979 -11.553  23.142  1.00  0.00    -0.359 N 
ATOM     27  H8  UNL     1       6.120 -11.989  24.055  1.00  0.00     0.165 HD
ENDBRANCH  17  20
ENDBRANCH  14  16
ENDBRANCH   1  14
BRANCH   1  28
HETATM   28  C12 UNL     1      -0.946 -10.784  23.808  1.00  0.00     0.041 A 
HETATM   29  C13 UNL     1      -1.353 -10.106  24.937  1.00  0.00     0.027 A 
HETATM   30  C14 UNL     1      -2.235  -9.053  24.828  1.00  0.00     0.003 A 
HETATM   31  C15 UNL     1      -2.726  -8.658  23.603  1.00  0.00     0.017 A 
HETATM   32  C16 UNL     1      -2.308  -9.347  22.480  1.00  0.00     0.088 A 
HETATM   33  N9  UNL     1      -1.450 -10.362  22.643  1.00  0.00    -0.367 N 
ATOM     34  H9  UNL     1      -1.153 -10.857  21.802  1.00  0.00     0.165 HD
ENDBRANCH   1  28
TORSDOF 6
ENDMDL
MODEL 3
REMARK VINA RESULT: -8.263053994      3.185      6.424
REMARK  6 active torsions:
REMARK  status: ('A' for Active; 'I' for Inactive)
REMARK    1  A    between atoms: C2_2  and  N1_5 
REMARK    2  A    between atoms: C5_12  and  C6_13 
REMARK    3  A    between atoms: C6_13  and  N5_14 
REMARK    4  A    between atoms: C6_13  and  C12_28 
REMARK    5  A    between atoms: N5_14  and  N6_16 
REMARK       I    between atoms: N6_16  and  C7_18 
REMARK    6  A    between atoms: C7_18  and  C8_20 
ROOT
HETATM    1  C6  UNL     1      -1.169 -12.114  25.337  1.00  0.00     0.219 C 
ENDROOT
BRANCH   1   2
HETATM    2  C5  UNL     1       0.161 -12.352  24.737  1.00  0.00     0.146 A 
HETATM    3  N1  UNL     1       0.458 -12.960  23.582  1.00  0.00    -0.252 N 
HETATM    4  N2  UNL     1       1.803 -12.919  23.551  1.00  0.00    -0.224 N 
HETATM    5  N3  UNL     1       2.298 -12.332  24.599  1.00  0.00    -0.227 N 
ATOM      6  H2  UNL     1       2.367 -13.303  22.793  1.00  0.00     0.210 HD
HETATM    7  N4  UNL     1       1.300 -11.971  25.350  1.00  0.00    -0.270 N 
ATOM      8  H3  UNL     1       3.287 -12.181  24.796  1.00  0.00     0.210 HD
ATOM      9  H4  UNL     1       1.367 -11.486  26.245  1.00  0.00     0.190 HD
BRANCH   3  10
HETATM   10  C2  UNL     1      -0.376 -13.518  22.567  1.00  0.00     0.046 C 
HETATM   11  C1  UNL     1      -1.251 -12.459  21.887  1.00  0.00     0.040 C 
HETATM   12  C3  UNL     1      -1.160 -14.734  22.939  1.00  0.00     0.040 C 
HETATM   13  C4  UNL     1       0.531 -13.969  21.402  1.00  0.00     0.040 C 
ENDBRANCH   3  10
ENDBRANCH   1   2
BRANCH   1  14
HETATM   14  N5  UNL     1      -1.178 -10.989  26.228  1.00  0.00    -0.316 N 
ATOM     15  H5  UNL     1      -0.740 -11.058  27.147  1.00  0.00     0.181 HD
BRANCH  14  16
HETATM   16  N6  UNL     1      -1.770  -9.837  25.841  1.00  0.00    -0.268 N 
HETATM   17  C7  UNL     1      -2.136  -8.881  26.828  1.00  0.00     0.287 C 
HETATM   18  O1  UNL     1      -1.895  -9.124  28.072  1.00  0.00    -0.264 OA
ATOM     19  H6  UNL     1      -1.952  -9.656  24.854  1.00  0.00     0.190 HD
BRANCH  17  20
HETATM   20  C8  UNL     1      -2.784  -7.606  26.558  1.00  0.00     0.117 A 
HETATM   21  C9  UNL     1      -3.312  -6.899  27.611  1.00  0.00     0.122 A 
HETATM   22  N7  UNL     1      -3.913  -5.708  27.333  1.00  0.00    -0.372 N 
HETATM   23  C10 UNL     1      -3.982  -5.254  26.066  1.00  0.00     0.104 A 
ATOM     24  H7  UNL     1      -4.315  -5.156  28.090  1.00  0.00     0.164 HD
HETATM   25  C11 UNL     1      -3.450  -5.972  25.022  1.00  0.00     0.105 A 
HETATM   26  N8  UNL     1      -2.856  -7.141  25.275  1.00  0.00    -0.359 N 
ATOM     27  H8  UNL     1      -2.456  -7.687  24.511  1.00  0.00     0.165 HD
ENDBRANCH  17  20
ENDBRANCH  14  16
ENDBRANCH   1  14
BRANCH   1  28
HETATM   28  C12 UNL     1      -1.696 -13.279  26.098  1.00  0.00     0.041 A 
HETATM   29  C13 UNL     1      -3.040 -13.458  26.346  1.00  0.00     0.027 A 
HETATM   30  C14 UNL     1      -3.471 -14.562  27.048  1.00  0.00     0.003 A 
HETATM   31  C15 UNL     1      -2.580 -15.503  27.515  1.00  0.00     0.017 A 
HETATM   32  C16 UNL     1      -1.235 -15.310  27.259  1.00  0.00     0.088 A 
HETATM   33  N9  UNL     1      -0.871 -14.220  26.572  1.00  0.00    -0.367 N 
ATOM     34  H9  UNL     1       0.126 -14.096  26.392  1.00  0.00     0.165 HD
ENDBRANCH   1  28
TORSDOF 6
ENDMDL
MODEL 4
REMARK VINA RESULT: -8.109439142      1.556      1.738
REMARK  6 active torsions:
REMARK  status: ('A' for Active; 'I' for Inactive)
REMARK    1  A    between atoms: C2_2  and  N1_5 
REMARK    2  A    between atoms: C5_12  and  C6_13 
REMARK    3  A    between atoms: C6_13  and  N5_14 
REMARK    4  A    between atoms: C6_13  and  C12_28 
REMARK    5  A    between atoms: N5_14  and  N6_16 
REMARK       I    between atoms: N6_16  and  C7_18 
REMARK    6  A    between atoms: C7_18  and  C8_20 
ROOT
HETATM    1  C6  UNL     1      -1.731 -11.183  24.125  1.00  0.00     0.219 C 
ENDROOT
BRANCH   1   2
HETATM    2  C5  UNL     1      -1.091 -12.302  24.848  1.00  0.00     0.146 A 
HETATM    3  N1  UNL     1      -1.377 -13.608  24.785  1.00  0.00    -0.252 N 
HETATM    4  N2  UNL     1      -0.512 -14.154  25.660  1.00  0.00    -0.224 N 
HETATM    5  N3  UNL     1       0.249 -13.260  26.217  1.00  0.00    -0.227 N 
ATOM      6  H2  UNL     1      -0.459 -15.153  25.862  1.00  0.00     0.210 HD
HETATM    7  N4  UNL     1      -0.091 -12.103  25.730  1.00  0.00    -0.270 N 
ATOM      8  H3  UNL     1       0.979 -13.434  26.908  1.00  0.00     0.210 HD
ATOM      9  H4  UNL     1       0.326 -11.204  25.973  1.00  0.00     0.190 HD
BRANCH   3  10
HETATM   10  C2  UNL     1      -2.326 -14.330  24.001  1.00  0.00     0.046 C 
HETATM   11  C1  UNL     1      -1.984 -14.302  22.507  1.00  0.00     0.040 C 
HETATM   12  C3  UNL     1      -3.767 -14.028  24.249  1.00  0.00     0.040 C 
HETATM   13  C4  UNL     1      -2.169 -15.831  24.329  1.00  0.00     0.040 C 
ENDBRANCH   3  10
ENDBRANCH   1   2
BRANCH   1  14
HETATM   14  N5  UNL     1      -0.943 -10.718  23.020  1.00  0.00    -0.316 N 
ATOM     15  H5  UNL     1      -1.379 -10.552  22.112  1.00  0.00     0.181 HD
BRANCH  14  16
HETATM   16  N6  UNL     1       0.381 -10.501  23.190  1.00  0.00    -0.268 N 
HETATM   17  C7  UNL     1       1.311 -11.359  22.541  1.00  0.00     0.287 C 
HETATM   18  O1  UNL     1       0.880 -12.323  21.800  1.00  0.00    -0.264 OA
ATOM     19  H6  UNL     1       0.708  -9.733  23.775  1.00  0.00     0.190 HD
BRANCH  17  20
HETATM   20  C8  UNL     1       2.760 -11.248  22.638  1.00  0.00     0.117 A 
HETATM   21  C9  UNL     1       3.402 -10.314  21.861  1.00  0.00     0.122 A 
HETATM   22  N7  UNL     1       4.758 -10.229  21.969  1.00  0.00    -0.372 N 
HETATM   23  C10 UNL     1       5.431 -11.039  22.811  1.00  0.00     0.104 A 
ATOM     24  H7  UNL     1       5.268  -9.546  21.409  1.00  0.00     0.164 HD
HETATM   25  C11 UNL     1       4.774 -11.969  23.581  1.00  0.00     0.105 A 
HETATM   26  N8  UNL     1       3.446 -12.066  23.489  1.00  0.00    -0.359 N 
ATOM     27  H8  UNL     1       2.944 -12.752  24.054  1.00  0.00     0.165 HD
ENDBRANCH  17  20
ENDBRANCH  14  16
ENDBRANCH   1  14
BRANCH   1  28
HETATM   28  C12 UNL     1      -2.016 -10.003  24.986  1.00  0.00     0.041 A 
HETATM   29  C13 UNL     1      -2.262  -8.749  24.469  1.00  0.00     0.027 A 
HETATM   30  C14 UNL     1      -2.530  -7.696  25.315  1.00  0.00     0.003 A 
HETATM   31  C15 UNL     1      -2.560  -7.867  26.682  1.00  0.00     0.017 A 
HETATM   32  C16 UNL     1      -2.312  -9.131  27.185  1.00  0.00     0.088 A 
HETATM   33  N9  UNL     1      -2.057 -10.119  26.318  1.00  0.00    -0.367 N 
ATOM     34  H9  UNL     1      -1.878 -11.044  26.709  1.00  0.00     0.165 HD
ENDBRANCH   1  28
TORSDOF 6
ENDMDL
MODEL 5
REMARK VINA RESULT: -8.098198919      1.720      1.967
REMARK  6 active torsions:
REMARK  status: ('A' for Active; 'I' for Inactive)
REMARK    1  A    between atoms: C2_2  and  N1_5 
REMARK    2  A    between atoms: C5_12  and  C6_13 
REMARK    3  A    between atoms: C6_13  and  N5_14 
REMARK    4  A    between atoms: C6_13  and  C12_28 
REMARK    5  A    between atoms: N5_14  and  N6_16 
REMARK       I    between atoms: N6_16  and  C7_18 
REMARK    6  A    between atoms: C7_18  and  C8_20 
ROOT
HETATM    1  C6  UNL     1      -1.600 -11.758  25.475  1.00  0.00     0.219 C 
ENDROOT
BRANCH   1   2
HETATM    2  C5  UNL     1      -2.617 -12.742  25.903  1.00  0.00     0.146 A 
HETATM    3  N1  UNL     1      -3.085 -13.803  25.234  1.00  0.00    -0.252 N 
HETATM    4  N2  UNL     1      -4.000 -14.317  26.076  1.00  0.00    -0.224 N 
HETATM    5  N3  UNL     1      -4.089 -13.634  27.177  1.00  0.00    -0.227 N 
ATOM      6  H2  UNL     1      -4.558 -15.147  25.874  1.00  0.00     0.210 HD
HETATM    7  N4  UNL     1      -3.242 -12.651  27.094  1.00  0.00    -0.270 N 
ATOM      8  H3  UNL     1      -4.710 -13.831  27.963  1.00  0.00     0.210 HD
ATOM      9  H4  UNL     1      -3.079 -11.937  27.805  1.00  0.00     0.190 HD
BRANCH   3  10
HETATM   10  C2  UNL     1      -2.742 -14.340  23.957  1.00  0.00     0.046 C 
HETATM   11  C1  UNL     1      -1.519 -15.262  24.025  1.00  0.00     0.040 C 
HETATM   12  C3  UNL     1      -2.646 -13.369  22.827  1.00  0.00     0.040 C 
HETATM   13  C4  UNL     1      -3.854 -15.327  23.542  1.00  0.00     0.040 C 
ENDBRANCH   3  10
ENDBRANCH   1   2
BRANCH   1  14
HETATM   14  N5  UNL     1      -0.295 -12.055  25.993  1.00  0.00    -0.316 N 
ATOM     15  H5  UNL     1      -0.188 -12.688  26.785  1.00  0.00     0.181 HD
BRANCH  14  16
HETATM   16  N6  UNL     1       0.793 -11.489  25.422  1.00  0.00    -0.268 N 
HETATM   17  C7  UNL     1       1.485 -12.195  24.401  1.00  0.00     0.287 C 
HETATM   18  O1  UNL     1       1.065 -13.358  24.033  1.00  0.00    -0.264 OA
ATOM     19  H6  UNL     1       1.112 -10.567  25.720  1.00  0.00     0.190 HD
BRANCH  17  20
HETATM   20  C8  UNL     1       2.669 -11.713  23.705  1.00  0.00     0.117 A 
HETATM   21  C9  UNL     1       2.511 -10.796  22.693  1.00  0.00     0.122 A 
HETATM   22  N7  UNL     1       3.634 -10.359  22.056  1.00  0.00    -0.372 N 
HETATM   23  C10 UNL     1       4.848 -10.820  22.416  1.00  0.00     0.104 A 
ATOM     24  H7  UNL     1       3.554  -9.678  21.302  1.00  0.00     0.164 HD
HETATM   25  C11 UNL     1       4.991 -11.737  23.430  1.00  0.00     0.105 A 
HETATM   26  N8  UNL     1       3.903 -12.176  24.065  1.00  0.00    -0.359 N 
ATOM     27  H8  UNL     1       3.992 -12.857  24.820  1.00  0.00     0.165 HD
ENDBRANCH  17  20
ENDBRANCH  14  16
ENDBRANCH   1  14
BRANCH   1  28
HETATM   28  C12 UNL     1      -1.920 -10.360  25.871  1.00  0.00     0.041 A 
HETATM   29  C13 UNL     1      -2.313  -9.402  24.961  1.00  0.00     0.027 A 
HETATM   30  C14 UNL     1      -2.606  -8.126  25.387  1.00  0.00     0.003 A 
HETATM   31  C15 UNL     1      -2.515  -7.779  26.717  1.00  0.00     0.017 A 
HETATM   32  C16 UNL     1      -2.121  -8.751  27.618  1.00  0.00     0.088 A 
HETATM   33  N9  UNL     1      -1.848  -9.975  27.150  1.00  0.00    -0.367 N 
ATOM     34  H9  UNL     1      -1.559 -10.678  27.831  1.00  0.00     0.165 HD
ENDBRANCH   1  28
TORSDOF 6
ENDMDL
