MODEL 1
REMARK VINA RESULT: -8.628836639      0.000      0.000
REMARK  5 active torsions:
REMARK  status: ('A' for Active; 'I' for Inactive)
REMARK    1  A    between atoms: N1_1  and  N2_4 
REMARK       I    between atoms: N2_4  and  C1_6 
REMARK    2  A    between atoms: C1_6  and  C2_8 
REMARK    3  A    between atoms: C5_11  and  N3_12 
REMARK    4  A    between atoms: C8_17  and  N5_18 
REMARK    5  A    between atoms: C12_26  and  N7_27 
ROOT
HETATM    1  C2  UNL     1      -2.586  -7.801  26.220  1.00  0.00     0.036 A 
HETATM    2  C3  UNL     1      -2.364  -8.464  27.406  1.00  0.00     0.019 A 
HETATM    3  C4  UNL     1      -1.936  -9.775  27.323  1.00  0.00     0.035 A 
HETATM    4  C5  UNL     1      -1.726 -10.433  26.130  1.00  0.00     0.089 A 
HETATM    5  C12 UNL     1      -1.947  -9.779  24.936  1.00  0.00     0.132 A 
HETATM    6  C13 UNL     1      -2.373  -8.472  25.010  1.00  0.00     0.055 A 
ENDROOT
BRANCH   4   7
HETATM    7  N3  UNL     1      -1.283 -11.787  26.119  1.00  0.00    -0.254 N 
HETATM    8  N4  UNL     1      -0.076 -12.262  25.877  1.00  0.00    -0.303 N 
HETATM    9  C6  UNL     1      -0.059 -13.600  25.961  1.00  0.00     0.125 A 
ATOM     10  H4  UNL     1       0.737 -11.687  25.654  1.00  0.00     0.186 HD
HETATM   11  C7  UNL     1      -1.339 -14.017  26.279  1.00  0.00     0.060 A 
HETATM   12  C8  UNL     1      -1.920 -15.253  26.491  1.00  0.00     0.187 A 
HETATM   13  C11 UNL     1      -2.097 -12.854  26.373  1.00  0.00     0.073 A 
HETATM   14  N6  UNL     1      -3.225 -15.313  26.789  1.00  0.00    -0.347 N 
HETATM   15  C9  UNL     1      -3.985 -14.187  26.888  1.00  0.00     0.092 A 
ATOM     16  H6  UNL     1      -3.660 -16.223  26.946  1.00  0.00     0.167 HD
HETATM   17  C10 UNL     1      -3.433 -12.966  26.682  1.00  0.00     0.050 A 
BRANCH  12  18
HETATM   18  N5  UNL     1      -1.132 -16.420  26.389  1.00  0.00    -0.097 N 
HETATM   19  O2  UNL     1      -0.386 -16.853  27.303  1.00  0.00    -0.530 OA
HETATM   20  O3  UNL     1      -1.127 -17.194  25.234  1.00  0.00    -0.530 OA
ENDBRANCH  12  18
ENDBRANCH   4   7
BRANCH   5  21
HETATM   21  N7  UNL     1      -1.754 -10.391  23.667  1.00  0.00    -0.113 N 
HETATM   22  O4  UNL     1      -2.656 -10.796  22.925  1.00  0.00    -0.532 OA
HETATM   23  O5  UNL     1      -0.457 -10.542  23.239  1.00  0.00    -0.532 OA
ENDBRANCH   5  21
BRANCH   1  24
HETATM   24  C1  UNL     1      -3.035  -6.430  26.192  1.00  0.00     0.269 C 
HETATM   25  N2  UNL     1      -2.929  -5.625  25.037  1.00  0.00    -0.272 N 
ATOM     26  H2  UNL     1      -2.525  -5.999  24.179  1.00  0.00     0.189 HD
HETATM   27  O1  UNL     1      -3.541  -5.932  27.230  1.00  0.00    -0.266 OA
BRANCH  25  28
HETATM   28  N1  UNL     1      -3.390  -4.303  25.092  1.00  0.00    -0.342 N 
ATOM     29  H12 UNL     1      -2.945  -3.639  25.726  1.00  0.00     0.176 HD
ATOM     30  H11 UNL     1      -4.167  -4.029  24.491  1.00  0.00     0.176 HD
ENDBRANCH  25  28
ENDBRANCH   1  24
TORSDOF 5
ENDMDL
MODEL 2
REMARK VINA RESULT: -8.464625810      0.825      1.048
REMARK  5 active torsions:
REMARK  status: ('A' for Active; 'I' for Inactive)
REMARK    1  A    between atoms: N1_1  and  N2_4 
REMARK       I    between atoms: N2_4  and  C1_6 
REMARK    2  A    between atoms: C1_6  and  C2_8 
REMARK    3  A    between atoms: C5_11  and  N3_12 
REMARK    4  A    between atoms: C8_17  and  N5_18 
REMARK    5  A    between atoms: C12_26  and  N7_27 
ROOT
HETATM    1  C2  UNL     1      -2.666  -7.884  25.227  1.00  0.00     0.036 A 
HETATM    2  C3  UNL     1      -2.447  -8.304  26.521  1.00  0.00     0.019 A 
HETATM    3  C4  UNL     1      -2.010  -9.604  26.694  1.00  0.00     0.035 A 
HETATM    4  C5  UNL     1      -1.789 -10.478  25.651  1.00  0.00     0.089 A 
HETATM    5  C12 UNL     1      -2.005 -10.067  24.352  1.00  0.00     0.132 A 
HETATM    6  C13 UNL     1      -2.440  -8.774  24.171  1.00  0.00     0.055 A 
ENDROOT
BRANCH   4   7
HETATM    7  N3  UNL     1      -1.336 -11.805  25.903  1.00  0.00    -0.254 N 
HETATM    8  N4  UNL     1      -0.120 -12.302  25.785  1.00  0.00    -0.303 N 
HETATM    9  C6  UNL     1      -0.097 -13.602  26.118  1.00  0.00     0.125 A 
ATOM     10  H4  UNL     1       0.695 -11.770  25.481  1.00  0.00     0.186 HD
HETATM   11  C7  UNL     1      -1.383 -13.967  26.474  1.00  0.00     0.060 A 
HETATM   12  C8  UNL     1      -1.962 -15.149  26.898  1.00  0.00     0.187 A 
HETATM   13  C11 UNL     1      -2.150 -12.815  26.331  1.00  0.00     0.073 A 
HETATM   14  N6  UNL     1      -3.274 -15.167  27.168  1.00  0.00    -0.347 N 
HETATM   15  C9  UNL     1      -4.043 -14.051  27.036  1.00  0.00     0.092 A 
ATOM     16  H6  UNL     1      -3.707 -16.037  27.481  1.00  0.00     0.167 HD
HETATM   17  C10 UNL     1      -3.494 -12.883  26.621  1.00  0.00     0.050 A 
BRANCH  12  18
HETATM   18  N5  UNL     1      -1.163 -16.305  27.035  1.00  0.00    -0.097 N 
HETATM   19  O2  UNL     1      -0.810 -17.040  26.078  1.00  0.00    -0.530 OA
HETATM   20  O3  UNL     1      -0.698 -16.722  28.277  1.00  0.00    -0.530 OA
ENDBRANCH  12  18
ENDBRANCH   4   7
BRANCH   5  21
HETATM   21  N7  UNL     1      -1.799 -10.911  23.227  1.00  0.00    -0.113 N 
HETATM   22  O4  UNL     1      -2.683 -11.539  22.634  1.00  0.00    -0.532 OA
HETATM   23  O5  UNL     1      -0.510 -11.034  22.767  1.00  0.00    -0.532 OA
ENDBRANCH   5  21
BRANCH   1  24
HETATM   24  C1  UNL     1      -3.124  -6.547  24.933  1.00  0.00     0.269 C 
HETATM   25  N2  UNL     1      -3.589  -6.175  23.653  1.00  0.00    -0.272 N 
ATOM     26  H2  UNL     1      -3.613  -6.852  22.892  1.00  0.00     0.189 HD
HETATM   27  O1  UNL     1      -3.111  -5.683  25.847  1.00  0.00    -0.266 OA
BRANCH  25  28
HETATM   28  N1  UNL     1      -4.017  -4.856  23.449  1.00  0.00    -0.342 N 
ATOM     29  H12 UNL     1      -3.733  -4.126  24.103  1.00  0.00     0.176 HD
ATOM     30  H11 UNL     1      -4.609  -4.651  22.645  1.00  0.00     0.176 HD
ENDBRANCH  25  28
ENDBRANCH   1  24
TORSDOF 5
ENDMDL
MODEL 3
REMARK VINA RESULT: -8.270541423      3.519      4.492
REMARK  5 active torsions:
REMARK  status: ('A' for Active; 'I' for Inactive)
REMARK    1  A    between atoms: N1_1  and  N2_4 
REMARK       I    between atoms: N2_4  and  C1_6 
REMARK    2  A    between atoms: C1_6  and  C2_8 
REMARK    3  A    between atoms: C5_11  and  N3_12 
REMARK    4  A    between atoms: C8_17  and  N5_18 
REMARK    5  A    between atoms: C12_26  and  N7_27 
ROOT
HETATM    1  C2  UNL     1      -2.336  -8.784  25.656  1.00  0.00     0.036 A 
HETATM    2  C3  UNL     1      -2.473  -8.692  24.288  1.00  0.00     0.019 A 
HETATM    3  C4  UNL     1      -2.263  -9.847  23.557  1.00  0.00     0.035 A 
HETATM    4  C5  UNL     1      -1.930 -11.058  24.125  1.00  0.00     0.089 A 
HETATM    5  C12 UNL     1      -1.790 -11.160  25.493  1.00  0.00     0.132 A 
HETATM    6  C13 UNL     1      -1.998 -10.016  26.229  1.00  0.00     0.055 A 
ENDROOT
BRANCH   4   7
HETATM    7  N3  UNL     1      -1.730 -12.208  23.309  1.00  0.00    -0.254 N 
HETATM    8  N4  UNL     1      -2.580 -13.172  23.012  1.00  0.00    -0.303 N 
HETATM    9  C6  UNL     1      -2.013 -14.085  22.209  1.00  0.00     0.125 A 
ATOM     10  H4  UNL     1      -3.542 -13.218  23.348  1.00  0.00     0.186 HD
HETATM   11  C7  UNL     1      -0.710 -13.684  21.972  1.00  0.00     0.060 A 
HETATM   12  C8  UNL     1       0.337 -14.209  21.238  1.00  0.00     0.187 A 
HETATM   13  C11 UNL     1      -0.553 -12.494  22.678  1.00  0.00     0.073 A 
HETATM   14  N6  UNL     1       1.506 -13.554  21.216  1.00  0.00    -0.347 N 
HETATM   15  C9  UNL     1       1.681 -12.388  21.898  1.00  0.00     0.092 A 
ATOM     16  H6  UNL     1       2.282 -13.937  20.676  1.00  0.00     0.167 HD
HETATM   17  C10 UNL     1       0.666 -11.858  22.625  1.00  0.00     0.050 A 
BRANCH  12  18
HETATM   18  N5  UNL     1       0.154 -15.417  20.531  1.00  0.00    -0.097 N 
HETATM   19  O2  UNL     1       0.677 -16.514  20.855  1.00  0.00    -0.530 OA
HETATM   20  O3  UNL     1      -0.643 -15.479  19.393  1.00  0.00    -0.530 OA
ENDBRANCH  12  18
ENDBRANCH   4   7
BRANCH   5  21
HETATM   21  N7  UNL     1      -1.448 -12.374  26.150  1.00  0.00    -0.113 N 
HETATM   22  O4  UNL     1      -0.338 -12.916  26.116  1.00  0.00    -0.532 OA
HETATM   23  O5  UNL     1      -2.439 -12.988  26.879  1.00  0.00    -0.532 OA
ENDBRANCH   5  21
BRANCH   1  24
HETATM   24  C1  UNL     1      -2.531  -7.641  26.514  1.00  0.00     0.269 C 
HETATM   25  N2  UNL     1      -2.525  -7.745  27.922  1.00  0.00    -0.272 N 
ATOM     26  H2  UNL     1      -2.380  -8.647  28.375  1.00  0.00     0.189 HD
HETATM   27  O1  UNL     1      -2.711  -6.511  25.993  1.00  0.00    -0.266 OA
BRANCH  25  28
HETATM   28  N1  UNL     1      -2.722  -6.586  28.685  1.00  0.00    -0.342 N 
ATOM     29  H12 UNL     1      -3.552  -6.502  29.271  1.00  0.00     0.176 HD
ATOM     30  H11 UNL     1      -2.024  -5.844  28.638  1.00  0.00     0.176 HD
ENDBRANCH  25  28
ENDBRANCH   1  24
TORSDOF 5
ENDMDL
MODEL 4
REMARK VINA RESULT: -8.221626151      3.754      5.071
REMARK  5 active torsions:
REMARK  status: ('A' for Active; 'I' for Inactive)
REMARK    1  A    between atoms: N1_1  and  N2_4 
REMARK       I    between atoms: N2_4  and  C1_6 
REMARK    2  A    between atoms: C1_6  and  C2_8 
REMARK    3  A    between atoms: C5_11  and  N3_12 
REMARK    4  A    between atoms: C8_17  and  N5_18 
REMARK    5  A    between atoms: C12_26  and  N7_27 
ROOT
HETATM    1  C2  UNL     1      -1.933  -9.831  26.050  1.00  0.00     0.036 A 
HETATM    2  C3  UNL     1      -1.845  -9.366  24.757  1.00  0.00     0.019 A 
HETATM    3  C4  UNL     1      -1.481 -10.278  23.784  1.00  0.00     0.035 A 
HETATM    4  C5  UNL     1      -1.209 -11.603  24.048  1.00  0.00     0.089 A 
HETATM    5  C12 UNL     1      -1.293 -12.079  25.340  1.00  0.00     0.132 A 
HETATM    6  C13 UNL     1      -1.655 -11.177  26.314  1.00  0.00     0.055 A 
ENDROOT
BRANCH   4   7
HETATM    7  N3  UNL     1      -0.841 -12.489  22.995  1.00  0.00    -0.254 N 
HETATM    8  N4  UNL     1      -1.613 -13.248  22.241  1.00  0.00    -0.303 N 
HETATM    9  C6  UNL     1      -0.887 -13.944  21.354  1.00  0.00     0.125 A 
ATOM     10  H4  UNL     1      -2.628 -13.299  22.323  1.00  0.00     0.186 HD
HETATM   11  C7  UNL     1       0.442 -13.613  21.547  1.00  0.00     0.060 A 
HETATM   12  C8  UNL     1       1.625 -14.002  20.946  1.00  0.00     0.187 A 
HETATM   13  C11 UNL     1       0.449 -12.691  22.590  1.00  0.00     0.073 A 
HETATM   14  N6  UNL     1       2.778 -13.478  21.384  1.00  0.00    -0.347 N 
HETATM   15  C9  UNL     1       2.806 -12.574  22.402  1.00  0.00     0.092 A 
ATOM     16  H6  UNL     1       3.654 -13.762  20.945  1.00  0.00     0.167 HD
HETATM   17  C10 UNL     1       1.657 -12.180  23.005  1.00  0.00     0.050 A 
BRANCH  12  18
HETATM   18  N5  UNL     1       1.594 -14.939  19.891  1.00  0.00    -0.097 N 
HETATM   19  O2  UNL     1       1.929 -14.683  18.706  1.00  0.00    -0.530 OA
HETATM   20  O3  UNL     1       1.177 -16.250  20.095  1.00  0.00    -0.530 OA
ENDBRANCH  12  18
ENDBRANCH   4   7
BRANCH   5  21
HETATM   21  N7  UNL     1      -1.026 -13.431  25.688  1.00  0.00    -0.113 N 
HETATM   22  O4  UNL     1       0.092 -13.899  25.929  1.00  0.00    -0.532 OA
HETATM   23  O5  UNL     1      -2.104 -14.281  25.762  1.00  0.00    -0.532 OA
ENDBRANCH   5  21
BRANCH   1  24
HETATM   24  C1  UNL     1      -2.303  -8.963  27.143  1.00  0.00     0.269 C 
HETATM   25  N2  UNL     1      -2.882  -7.692  26.933  1.00  0.00    -0.272 N 
ATOM     26  H2  UNL     1      -3.055  -7.350  25.989  1.00  0.00     0.189 HD
HETATM   27  O1  UNL     1      -2.107  -9.351  28.323  1.00  0.00    -0.266 OA
BRANCH  25  28
HETATM   28  N1  UNL     1      -3.214  -6.911  28.048  1.00  0.00    -0.342 N 
ATOM     29  H12 UNL     1      -3.700  -7.338  28.837  1.00  0.00     0.176 HD
ATOM     30  H11 UNL     1      -2.960  -5.924  28.048  1.00  0.00     0.176 HD
ENDBRANCH  25  28
ENDBRANCH   1  24
TORSDOF 5
ENDMDL
MODEL 5
REMARK VINA RESULT: -8.200222381      1.557      1.864
REMARK  5 active torsions:
REMARK  status: ('A' for Active; 'I' for Inactive)
REMARK    1  A    between atoms: N1_1  and  N2_4 
REMARK       I    between atoms: N2_4  and  C1_6 
REMARK    2  A    between atoms: C1_6  and  C2_8 
REMARK    3  A    between atoms: C5_11  and  N3_12 
REMARK    4  A    between atoms: C8_17  and  N5_18 
REMARK    5  A    between atoms: C12_26  and  N7_27 
ROOT
HETATM    1  C2  UNL     1      -2.698  -8.211  23.937  1.00  0.00     0.036 A 
HETATM    2  C3  UNL     1      -2.503  -8.334  25.295  1.00  0.00     0.019 A 
HETATM    3  C4  UNL     1      -2.036  -9.551  25.755  1.00  0.00     0.035 A 
HETATM    4  C5  UNL     1      -1.764 -10.623  24.932  1.00  0.00     0.089 A 
HETATM    5  C12 UNL     1      -1.956 -10.510  23.570  1.00  0.00     0.132 A 
HETATM    6  C13 UNL     1      -2.421  -9.301  23.104  1.00  0.00     0.055 A 
ENDROOT
BRANCH   4   7
HETATM    7  N3  UNL     1      -1.283 -11.848  25.475  1.00  0.00    -0.254 N 
HETATM    8  N4  UNL     1      -0.047 -12.307  25.521  1.00  0.00    -0.303 N 
HETATM    9  C6  UNL     1       0.000 -13.507  26.117  1.00  0.00     0.125 A 
ATOM     10  H4  UNL     1       0.766 -11.813  25.153  1.00  0.00     0.186 HD
HETATM   11  C7  UNL     1      -1.291 -13.847  26.479  1.00  0.00     0.060 A 
HETATM   12  C8  UNL     1      -1.854 -14.941  27.111  1.00  0.00     0.187 A 
HETATM   13  C11 UNL     1      -2.087 -12.784  26.064  1.00  0.00     0.073 A 
HETATM   14  N6  UNL     1      -3.178 -14.960  27.316  1.00  0.00    -0.347 N 
HETATM   15  C9  UNL     1      -3.974 -13.929  26.919  1.00  0.00     0.092 A 
ATOM     16  H6  UNL     1      -3.599 -15.765  27.781  1.00  0.00     0.167 HD
HETATM   17  C10 UNL     1      -3.442 -12.848  26.297  1.00  0.00     0.050 A 
BRANCH  12  18
HETATM   18  N5  UNL     1      -1.028 -16.008  27.523  1.00  0.00    -0.097 N 
HETATM   19  O2  UNL     1      -0.489 -16.831  26.740  1.00  0.00    -0.530 OA
HETATM   20  O3  UNL     1      -0.743 -16.229  28.866  1.00  0.00    -0.530 OA
ENDBRANCH  12  18
ENDBRANCH   4   7
BRANCH   5  21
HETATM   21  N7  UNL     1      -1.699 -11.571  22.660  1.00  0.00    -0.113 N 
HETATM   22  O4  UNL     1      -2.544 -12.361  22.227  1.00  0.00    -0.532 OA
HETATM   23  O5  UNL     1      -0.402 -11.722  22.231  1.00  0.00    -0.532 OA
ENDBRANCH   5  21
BRANCH   1  24
HETATM   24  C1  UNL     1      -3.183  -6.985  23.351  1.00  0.00     0.269 C 
HETATM   25  N2  UNL     1      -3.677  -5.918  24.133  1.00  0.00    -0.272 N 
ATOM     26  H2  UNL     1      -3.704  -5.990  25.150  1.00  0.00     0.189 HD
HETATM   27  O1  UNL     1      -3.165  -6.859  22.100  1.00  0.00    -0.266 OA
BRANCH  25  28
HETATM   28  N1  UNL     1      -4.129  -4.761  23.486  1.00  0.00    -0.342 N 
ATOM     29  H12 UNL     1      -4.679  -4.075  24.004  1.00  0.00     0.176 HD
ATOM     30  H11 UNL     1      -3.898  -4.627  22.502  1.00  0.00     0.176 HD
ENDBRANCH  25  28
ENDBRANCH   1  24
TORSDOF 5
ENDMDL
