MODEL 1
REMARK VINA RESULT: -8.217988340      0.000      0.000
REMARK  5 active torsions:
REMARK  status: ('A' for Active; 'I' for Inactive)
REMARK    1  A    between atoms: O1_2  and  C2_3 
REMARK    2  A    between atoms: C2_3  and  C3_5 
REMARK    3  A    between atoms: C5_10  and  S1_11 
REMARK    4  A    between atoms: S1_11  and  C6_14 
REMARK    5  A    between atoms: C12_20  and  N3_21 
ROOT
HETATM    1  C3  UNL     1      -2.553  -8.296  26.192  1.00  0.00     0.136 A 
HETATM    2  N1  UNL     1      -2.719  -7.808  24.957  1.00  0.00    -0.337 N 
ATOM      3  H1  UNL     1      -2.974  -6.826  24.847  1.00  0.00     0.167 HD
HETATM    4  C4  UNL     1      -2.563  -8.564  23.853  1.00  0.00     0.141 A 
HETATM    5  N2  UNL     1      -2.758  -7.972  22.580  1.00  0.00    -0.081 NA
HETATM    6  C5  UNL     1      -2.212  -9.917  23.943  1.00  0.00     0.140 A 
HETATM    7  C12 UNL     1      -2.036 -10.449  25.180  1.00  0.00     0.154 A 
HETATM    8  C13 UNL     1      -2.211  -9.620  26.308  1.00  0.00     0.114 A 
HETATM    9  N4  UNL     1      -2.035 -10.127  27.618  1.00  0.00    -0.097 NA
ENDROOT
BRANCH   6  10
HETATM   10  S1  UNL     1      -1.989 -10.869  22.510  1.00  0.00     0.212 S 
HETATM   11  O3  UNL     1      -2.123  -9.944  21.303  1.00  0.00    -0.217 OA
HETATM   12  O4  UNL     1      -2.983 -11.957  22.428  1.00  0.00    -0.217 OA
BRANCH  10  13
HETATM   13  C6  UNL     1      -0.398 -11.578  22.412  1.00  0.00     0.064 A 
HETATM   14  C7  UNL     1      -0.177 -12.895  22.070  1.00  0.00     0.024 A 
HETATM   15  C8  UNL     1       1.121 -13.390  22.010  1.00  0.00     0.002 A 
HETATM   16  C9  UNL     1       2.210 -12.596  22.288  1.00  0.00     0.000 A 
HETATM   17  C10 UNL     1       2.011 -11.285  22.631  1.00  0.00     0.002 A 
HETATM   18  C11 UNL     1       0.697 -10.804  22.685  1.00  0.00     0.024 A 
ENDBRANCH  10  13
ENDBRANCH   6  10
BRANCH   7  19
HETATM   19  N3  UNL     1      -1.677 -11.781  25.487  1.00  0.00    -0.112 N 
HETATM   20  O5  UNL     1      -2.556 -12.648  25.543  1.00  0.00    -0.532 OA
HETATM   21  O6  UNL     1      -0.349 -12.045  25.742  1.00  0.00    -0.532 OA
ENDBRANCH   7  19
BRANCH   1  22
HETATM   22  C2  UNL     1      -2.727  -7.459  27.366  1.00  0.00     0.311 C 
HETATM   23  O2  UNL     1      -1.747  -7.070  28.046  1.00  0.00    -0.258 OA
BRANCH  22  24
HETATM   24  O1  UNL     1      -3.979  -7.047  27.794  1.00  0.00    -0.321 OA
HETATM   25  C1  UNL     1      -4.588  -5.842  27.371  1.00  0.00     0.213 C 
ENDBRANCH  22  24
ENDBRANCH   1  22
TORSDOF 5
ENDMDL
MODEL 2
REMARK VINA RESULT: -7.941234019      1.356      1.635
REMARK  5 active torsions:
REMARK  status: ('A' for Active; 'I' for Inactive)
REMARK    1  A    between atoms: O1_2  and  C2_3 
REMARK    2  A    between atoms: C2_3  and  C3_5 
REMARK    3  A    between atoms: C5_10  and  S1_11 
REMARK    4  A    between atoms: S1_11  and  C6_14 
REMARK    5  A    between atoms: C12_20  and  N3_21 
ROOT
HETATM    1  C3  UNL     1      -2.685  -7.533  24.883  1.00  0.00     0.136 A 
HETATM    2  N1  UNL     1      -2.820  -7.840  23.587  1.00  0.00    -0.337 N 
ATOM      3  H1  UNL     1      -3.105  -7.107  22.936  1.00  0.00     0.167 HD
HETATM    4  C4  UNL     1      -2.595  -9.079  23.109  1.00  0.00     0.141 A 
HETATM    5  N2  UNL     1      -2.761  -9.323  21.723  1.00  0.00    -0.081 NA
HETATM    6  C5  UNL     1      -2.200 -10.122  23.955  1.00  0.00     0.140 A 
HETATM    7  C12 UNL     1      -2.053  -9.850  25.278  1.00  0.00     0.154 A 
HETATM    8  C13 UNL     1      -2.300  -8.539  25.734  1.00  0.00     0.114 A 
HETATM    9  N4  UNL     1      -2.158  -8.204  27.102  1.00  0.00    -0.097 NA
ENDROOT
BRANCH   6  10
HETATM   10  S1  UNL     1      -1.887 -11.706  23.319  1.00  0.00     0.212 S 
HETATM   11  O3  UNL     1      -2.742 -11.889  22.068  1.00  0.00    -0.217 OA
HETATM   12  O4  UNL     1      -2.206 -12.754  24.308  1.00  0.00    -0.217 OA
BRANCH  10  13
HETATM   13  C6  UNL     1      -0.230 -11.917  22.819  1.00  0.00     0.064 A 
HETATM   14  C7  UNL     1       0.244 -13.075  22.240  1.00  0.00     0.024 A 
HETATM   15  C8  UNL     1       1.579 -13.170  21.864  1.00  0.00     0.002 A 
HETATM   16  C9  UNL     1       2.458 -12.130  22.056  1.00  0.00     0.000 A 
HETATM   17  C10 UNL     1       2.008 -10.971  22.631  1.00  0.00     0.002 A 
HETATM   18  C11 UNL     1       0.660 -10.894  23.002  1.00  0.00     0.024 A 
ENDBRANCH  10  13
ENDBRANCH   6  10
BRANCH   7  19
HETATM   19  N3  UNL     1      -1.659 -10.753  26.291  1.00  0.00    -0.112 N 
HETATM   20  O5  UNL     1      -0.459 -11.015  26.437  1.00  0.00    -0.532 OA
HETATM   21  O6  UNL     1      -2.648 -11.329  27.058  1.00  0.00    -0.532 OA
ENDBRANCH   7  19
BRANCH   1  22
HETATM   22  C2  UNL     1      -2.934  -6.188  25.372  1.00  0.00     0.311 C 
HETATM   23  O2  UNL     1      -2.028  -5.321  25.398  1.00  0.00    -0.258 OA
BRANCH  22  24
HETATM   24  O1  UNL     1      -4.180  -5.794  25.832  1.00  0.00    -0.321 OA
HETATM   25  C1  UNL     1      -4.498  -5.665  27.204  1.00  0.00     0.213 C 
ENDBRANCH  22  24
ENDBRANCH   1  22
TORSDOF 5
ENDMDL
MODEL 3
REMARK VINA RESULT: -7.667299753      3.391      7.060
REMARK  5 active torsions:
REMARK  status: ('A' for Active; 'I' for Inactive)
REMARK    1  A    between atoms: O1_2  and  C2_3 
REMARK    2  A    between atoms: C2_3  and  C3_5 
REMARK    3  A    between atoms: C5_10  and  S1_11 
REMARK    4  A    between atoms: S1_11  and  C6_14 
REMARK    5  A    between atoms: C12_20  and  N3_21 
ROOT
HETATM    1  C3  UNL     1       2.943 -13.114  22.169  1.00  0.00     0.136 A 
HETATM    2  N1  UNL     1       2.797 -12.412  23.301  1.00  0.00    -0.337 N 
ATOM      3  H1  UNL     1       3.620 -11.980  23.721  1.00  0.00     0.167 HD
HETATM    4  C4  UNL     1       1.603 -12.256  23.906  1.00  0.00     0.141 A 
HETATM    5  N2  UNL     1       1.531 -11.500  25.102  1.00  0.00    -0.081 NA
HETATM    6  C5  UNL     1       0.440 -12.825  23.373  1.00  0.00     0.140 A 
HETATM    7  C12 UNL     1       0.549 -13.545  22.226  1.00  0.00     0.154 A 
HETATM    8  C13 UNL     1       1.818 -13.683  21.628  1.00  0.00     0.114 A 
HETATM    9  N4  UNL     1       1.983 -14.420  20.431  1.00  0.00    -0.097 NA
ENDROOT
BRANCH   6  10
HETATM   10  S1  UNL     1      -1.094 -12.592  24.150  1.00  0.00     0.212 S 
HETATM   11  O3  UNL     1      -0.893 -12.771  25.653  1.00  0.00    -0.217 OA
HETATM   12  O4  UNL     1      -2.098 -13.553  23.655  1.00  0.00    -0.217 OA
BRANCH  10  13
HETATM   13  C6  UNL     1      -1.726 -10.982  23.926  1.00  0.00     0.064 A 
HETATM   14  C7  UNL     1      -2.083 -10.473  22.696  1.00  0.00     0.024 A 
HETATM   15  C8  UNL     1      -2.583  -9.180  22.595  1.00  0.00     0.002 A 
HETATM   16  C9  UNL     1      -2.733  -8.376  23.702  1.00  0.00     0.000 A 
HETATM   17  C10 UNL     1      -2.383  -8.863  24.933  1.00  0.00     0.002 A 
HETATM   18  C11 UNL     1      -1.882 -10.168  25.015  1.00  0.00     0.024 A 
ENDBRANCH  10  13
ENDBRANCH   6  10
BRANCH   7  19
HETATM   19  N3  UNL     1      -0.496 -14.191  21.528  1.00  0.00    -0.112 N 
HETATM   20  O5  UNL     1      -1.210 -13.533  20.762  1.00  0.00    -0.532 OA
HETATM   21  O6  UNL     1      -0.691 -15.535  21.762  1.00  0.00    -0.532 OA
ENDBRANCH   7  19
BRANCH   1  22
HETATM   22  C2  UNL     1       4.242 -13.266  21.537  1.00  0.00     0.311 C 
HETATM   23  O2  UNL     1       5.045 -14.161  21.895  1.00  0.00    -0.258 OA
BRANCH  22  24
HETATM   24  O1  UNL     1       4.659 -12.436  20.509  1.00  0.00    -0.321 OA
HETATM   25  C1  UNL     1       5.095 -11.105  20.713  1.00  0.00     0.213 C 
ENDBRANCH  22  24
ENDBRANCH   1  22
TORSDOF 5
ENDMDL
MODEL 4
REMARK VINA RESULT: -7.657188173      2.300      3.735
REMARK  5 active torsions:
REMARK  status: ('A' for Active; 'I' for Inactive)
REMARK    1  A    between atoms: O1_2  and  C2_3 
REMARK    2  A    between atoms: C2_3  and  C3_5 
REMARK    3  A    between atoms: C5_10  and  S1_11 
REMARK    4  A    between atoms: S1_11  and  C6_14 
REMARK    5  A    between atoms: C12_20  and  N3_21 
ROOT
HETATM    1  C3  UNL     1      -3.138  -7.025  23.636  1.00  0.00     0.136 A 
HETATM    2  N1  UNL     1      -2.842  -7.227  24.926  1.00  0.00    -0.337 N 
ATOM      3  H1  UNL     1      -2.979  -6.462  25.587  1.00  0.00     0.167 HD
HETATM    4  C4  UNL     1      -2.371  -8.403  25.385  1.00  0.00     0.141 A 
HETATM    5  N2  UNL     1      -2.082  -8.537  26.766  1.00  0.00    -0.081 NA
HETATM    6  C5  UNL     1      -2.166  -9.488  24.525  1.00  0.00     0.140 A 
HETATM    7  C12 UNL     1      -2.453  -9.321  23.207  1.00  0.00     0.154 A 
HETATM    8  C13 UNL     1      -2.943  -8.073  22.771  1.00  0.00     0.114 A 
HETATM    9  N4  UNL     1      -3.260  -7.850  21.410  1.00  0.00    -0.097 NA
ENDROOT
BRANCH   6  10
HETATM   10  S1  UNL     1      -1.585 -11.004  25.137  1.00  0.00     0.212 S 
HETATM   11  O3  UNL     1      -2.729 -12.012  25.063  1.00  0.00    -0.217 OA
HETATM   12  O4  UNL     1      -1.112 -10.875  26.529  1.00  0.00    -0.217 OA
BRANCH  10  13
HETATM   13  C6  UNL     1      -0.284 -11.664  24.181  1.00  0.00     0.064 A 
HETATM   14  C7  UNL     1      -0.344 -12.899  23.572  1.00  0.00     0.024 A 
HETATM   15  C8  UNL     1       0.733 -13.360  22.822  1.00  0.00     0.002 A 
HETATM   16  C9  UNL     1       1.877 -12.611  22.667  1.00  0.00     0.000 A 
HETATM   17  C10 UNL     1       1.956 -11.381  23.265  1.00  0.00     0.002 A 
HETATM   18  C11 UNL     1       0.861 -10.934  24.015  1.00  0.00     0.024 A 
ENDBRANCH  10  13
ENDBRANCH   6  10
BRANCH   7  19
HETATM   19  N3  UNL     1      -2.323 -10.285  22.183  1.00  0.00    -0.112 N 
HETATM   20  O5  UNL     1      -3.204 -11.142  22.040  1.00  0.00    -0.532 OA
HETATM   21  O6  UNL     1      -1.190 -10.242  21.400  1.00  0.00    -0.532 OA
ENDBRANCH   7  19
BRANCH   1  22
HETATM   22  C2  UNL     1      -3.644  -5.747  23.167  1.00  0.00     0.311 C 
HETATM   23  O2  UNL     1      -4.875  -5.531  23.052  1.00  0.00    -0.258 OA
BRANCH  22  24
HETATM   24  O1  UNL     1      -2.799  -4.704  22.826  1.00  0.00    -0.321 OA
HETATM   25  C1  UNL     1      -2.496  -4.354  21.488  1.00  0.00     0.213 C 
ENDBRANCH  22  24
ENDBRANCH   1  22
TORSDOF 5
ENDMDL
MODEL 5
REMARK VINA RESULT: -7.512021167      3.482      7.346
REMARK  5 active torsions:
REMARK  status: ('A' for Active; 'I' for Inactive)
REMARK    1  A    between atoms: O1_2  and  C2_3 
REMARK    2  A    between atoms: C2_3  and  C3_5 
REMARK    3  A    between atoms: C5_10  and  S1_11 
REMARK    4  A    between atoms: S1_11  and  C6_14 
REMARK    5  A    between atoms: C12_20  and  N3_21 
ROOT
HETATM    1  C3  UNL     1       0.023 -14.898  21.062  1.00  0.00     0.136 A 
HETATM    2  N1  UNL     1      -1.209 -14.931  21.586  1.00  0.00    -0.337 N 
ATOM      3  H1  UNL     1      -1.835 -15.691  21.319  1.00  0.00     0.167 HD
HETATM    4  C4  UNL     1      -1.653 -13.998  22.451  1.00  0.00     0.141 A 
HETATM    5  N2  UNL     1      -2.971 -14.103  22.960  1.00  0.00    -0.081 NA
HETATM    6  C5  UNL     1      -0.836 -12.934  22.853  1.00  0.00     0.140 A 
HETATM    7  C12 UNL     1       0.421 -12.867  22.342  1.00  0.00     0.154 A 
HETATM    8  C13 UNL     1       0.843 -13.864  21.439  1.00  0.00     0.114 A 
HETATM    9  N4  UNL     1       2.144 -13.839  20.883  1.00  0.00    -0.097 NA
ENDROOT
BRANCH   6  10
HETATM   10  S1  UNL     1      -1.414 -11.757  23.989  1.00  0.00     0.212 S 
HETATM   11  O3  UNL     1      -0.227 -11.288  24.827  1.00  0.00    -0.217 OA
HETATM   12  O4  UNL     1      -2.459 -12.323  24.864  1.00  0.00    -0.217 OA
BRANCH  10  13
HETATM   13  C6  UNL     1      -2.064 -10.335  23.216  1.00  0.00     0.064 A 
HETATM   14  C7  UNL     1      -2.327  -9.162  23.889  1.00  0.00     0.024 A 
HETATM   15  C8  UNL     1      -2.844  -8.067  23.206  1.00  0.00     0.002 A 
HETATM   16  C9  UNL     1      -3.107  -8.118  21.856  1.00  0.00     0.000 A 
HETATM   17  C10 UNL     1      -2.852  -9.275  21.169  1.00  0.00     0.002 A 
HETATM   18  C11 UNL     1      -2.331 -10.367  21.875  1.00  0.00     0.024 A 
ENDBRANCH  10  13
ENDBRANCH   6  10
BRANCH   7  19
HETATM   19  N3  UNL     1       1.398 -11.885  22.623  1.00  0.00    -0.112 N 
HETATM   20  O5  UNL     1       1.368 -10.808  22.015  1.00  0.00    -0.532 OA
HETATM   21  O6  UNL     1       2.369 -12.192  23.551  1.00  0.00    -0.532 OA
ENDBRANCH   7  19
BRANCH   1  22
HETATM   22  C2  UNL     1       0.477 -15.917  20.132  1.00  0.00     0.311 C 
HETATM   23  O2  UNL     1       1.018 -16.976  20.530  1.00  0.00    -0.258 OA
BRANCH  22  24
HETATM   24  O1  UNL     1       0.334 -15.774  18.761  1.00  0.00    -0.321 OA
HETATM   25  C1  UNL     1      -0.894 -15.961  18.083  1.00  0.00     0.213 C 
ENDBRANCH  22  24
ENDBRANCH   1  22
TORSDOF 5
ENDMDL
