MODEL 1
REMARK VINA RESULT: -9.394462021      0.000      0.000
REMARK  11 active torsions:
REMARK  status: ('A' for Active; 'I' for Inactive)
REMARK    1  A    between atoms: C7_7  and  C8_8 
REMARK    2  A    between atoms: C8_8  and  N1_9 
REMARK    3  A    between atoms: N1_9  and  C9_11 
REMARK    4  A    between atoms: C9_11  and  C10_12 
REMARK    5  A    between atoms: C10_12  and  C11_13 
REMARK    6  A    between atoms: C11_13  and  N2_14 
REMARK    7  A    between atoms: N2_14  and  C12_16 
REMARK    8  A    between atoms: C12_16  and  C13_17 
REMARK    9  A    between atoms: C13_17  and  C14_18 
REMARK   10  A    between atoms: C14_18  and  S1_19 
REMARK   11  A    between atoms: S1_19  and  C15_20 
ROOT
HETATM    1  N1  UNL     1       7.838 -65.620  60.121  1.00  0.00    -0.398 N 
ATOM      2  H1  UNL     1       8.258 -65.205  60.952  1.00  0.00     0.158 HD
ENDROOT
BRANCH   1   3
HETATM    3  C8  UNL     1       6.708 -66.484  60.268  1.00  0.00     0.158 C 
BRANCH   3   4
HETATM    4  C7  UNL     1       7.159 -67.846  60.693  1.00  0.00    -0.033 A 
HETATM    5  C2  UNL     1       7.115 -68.265  61.970  1.00  0.00    -0.053 A 
HETATM    6  C1  UNL     1       6.842 -67.318  63.081  1.00  0.00     0.049 C 
HETATM    7  C3  UNL     1       7.333 -69.601  62.316  1.00  0.00     0.016 A 
HETATM    8  C4  UNL     1       7.606 -70.528  61.304  1.00  0.00    -0.031 A 
HETATM    9  C5  UNL     1       7.660 -70.124  60.007  1.00  0.00     0.035 A 
HETATM   10  C23 UNL     1       7.832 -71.951  61.648  1.00  0.00     0.042 C 
HETATM   11  C6  UNL     1       7.443 -68.798  59.697  1.00  0.00     0.039 A 
HETATM   12  N3  UNL     1       7.893 -71.103  59.018  1.00  0.00    -0.389 N 
HETATM   13  C21 UNL     1       7.420 -72.444  59.198  1.00  0.00     0.120 C 
ATOM     14  H3  UNL     1       8.401 -70.855  58.170  1.00  0.00     0.159 HD
HETATM   15  C22 UNL     1       7.441 -72.932  60.604  1.00  0.00     0.024 C 
ENDBRANCH   3   4
ENDBRANCH   1   3
BRANCH   1  16
HETATM   16  C9  UNL     1       8.371 -65.335  58.888  1.00  0.00     0.057 C 
BRANCH  16  17
HETATM   17  C10 UNL     1       9.677 -64.759  58.573  1.00  0.00     0.063 C 
BRANCH  17  18
HETATM   18  C11 UNL     1       9.699 -63.737  57.434  1.00  0.00     0.118 C 
BRANCH  18  19
HETATM   19  N2  UNL     1       8.556 -62.884  57.650  1.00  0.00    -0.421 N 
ATOM     20  H2  UNL     1       8.299 -62.574  58.587  1.00  0.00     0.153 HD
BRANCH  19  21
HETATM   21  C12 UNL     1       7.804 -62.493  56.516  1.00  0.00     0.114 C 
BRANCH  21  22
HETATM   22  C13 UNL     1       8.110 -63.464  55.370  1.00  0.00     0.029 C 
BRANCH  22  23
HETATM   23  C14 UNL     1       7.151 -63.205  54.217  1.00  0.00     0.081 C 
BRANCH  23  24
HETATM   24  S1  UNL     1       5.500 -63.862  54.721  1.00  0.00    -0.130 SA
BRANCH  24  25
HETATM   25  C15 UNL     1       5.832 -65.567  55.156  1.00  0.00     0.000 A 
HETATM   26  C16 UNL     1       6.300 -66.458  54.251  1.00  0.00     0.018 A 
HETATM   27  C17 UNL     1       6.488 -67.778  54.633  1.00  0.00     0.001 A 
HETATM   28  C18 UNL     1       6.192 -68.140  55.931  1.00  0.00     0.000 A 
HETATM   29  C19 UNL     1       5.709 -67.202  56.853  1.00  0.00     0.001 A 
HETATM   30  C20 UNL     1       5.520 -65.907  56.483  1.00  0.00     0.018 A 
ENDBRANCH  24  25
ENDBRANCH  23  24
ENDBRANCH  22  23
ENDBRANCH  21  22
ENDBRANCH  19  21
ENDBRANCH  18  19
ENDBRANCH  17  18
ENDBRANCH  16  17
ENDBRANCH   1  16
TORSDOF 11
ENDMDL
MODEL 2
REMARK VINA RESULT: -9.329038376      0.740      1.241
REMARK  11 active torsions:
REMARK  status: ('A' for Active; 'I' for Inactive)
REMARK    1  A    between atoms: C7_7  and  C8_8 
REMARK    2  A    between atoms: C8_8  and  N1_9 
REMARK    3  A    between atoms: N1_9  and  C9_11 
REMARK    4  A    between atoms: C9_11  and  C10_12 
REMARK    5  A    between atoms: C10_12  and  C11_13 
REMARK    6  A    between atoms: C11_13  and  N2_14 
REMARK    7  A    between atoms: N2_14  and  C12_16 
REMARK    8  A    between atoms: C12_16  and  C13_17 
REMARK    9  A    between atoms: C13_17  and  C14_18 
REMARK   10  A    between atoms: C14_18  and  S1_19 
REMARK   11  A    between atoms: S1_19  and  C15_20 
ROOT
HETATM    1  N1  UNL     1       7.451 -65.976  60.531  1.00  0.00    -0.398 N 
ATOM      2  H1  UNL     1       7.902 -65.817  61.432  1.00  0.00     0.158 HD
ENDROOT
BRANCH   1   3
HETATM    3  C8  UNL     1       6.429 -66.971  60.428  1.00  0.00     0.158 C 
BRANCH   3   4
HETATM    4  C7  UNL     1       6.989 -68.315  60.775  1.00  0.00    -0.033 A 
HETATM    5  C2  UNL     1       7.107 -68.752  62.041  1.00  0.00    -0.053 A 
HETATM    6  C1  UNL     1       6.916 -67.833  63.193  1.00  0.00     0.049 C 
HETATM    7  C3  UNL     1       7.425 -70.080  62.336  1.00  0.00     0.016 A 
HETATM    8  C4  UNL     1       7.627 -70.980  61.284  1.00  0.00    -0.031 A 
HETATM    9  C5  UNL     1       7.516 -70.557  59.996  1.00  0.00     0.035 A 
HETATM   10  C23 UNL     1       7.957 -72.394  61.574  1.00  0.00     0.042 C 
HETATM   11  C6  UNL     1       7.203 -69.239  59.737  1.00  0.00     0.039 A 
HETATM   12  N3  UNL     1       7.682 -71.511  58.970  1.00  0.00    -0.389 N 
HETATM   13  C21 UNL     1       7.297 -72.875  59.177  1.00  0.00     0.120 C 
ATOM     14  H3  UNL     1       8.080 -71.227  58.075  1.00  0.00     0.159 HD
HETATM   15  C22 UNL     1       7.497 -73.379  60.562  1.00  0.00     0.024 C 
ENDBRANCH   3   4
ENDBRANCH   1   3
BRANCH   1  16
HETATM   16  C9  UNL     1       7.842 -65.229  59.446  1.00  0.00     0.057 C 
BRANCH  16  17
HETATM   17  C10 UNL     1       9.007 -65.418  58.585  1.00  0.00     0.063 C 
BRANCH  17  18
HETATM   18  C11 UNL     1       9.977 -64.237  58.505  1.00  0.00     0.118 C 
BRANCH  18  19
HETATM   19  N2  UNL     1       9.865 -63.728  57.160  1.00  0.00    -0.421 N 
ATOM     20  H2  UNL     1      10.369 -64.164  56.388  1.00  0.00     0.153 HD
BRANCH  19  21
HETATM   21  C12 UNL     1       9.031 -62.604  56.949  1.00  0.00     0.114 C 
BRANCH  21  22
HETATM   22  C13 UNL     1       7.936 -62.991  55.948  1.00  0.00     0.029 C 
BRANCH  22  23
HETATM   23  C14 UNL     1       6.582 -62.968  56.643  1.00  0.00     0.081 C 
BRANCH  23  24
HETATM   24  S1  UNL     1       5.361 -63.727  55.483  1.00  0.00    -0.130 SA
BRANCH  24  25
HETATM   25  C15 UNL     1       5.700 -65.482  55.590  1.00  0.00     0.000 A 
HETATM   26  C16 UNL     1       5.561 -66.168  56.748  1.00  0.00     0.018 A 
HETATM   27  C17 UNL     1       5.889 -67.516  56.782  1.00  0.00     0.001 A 
HETATM   28  C18 UNL     1       6.348 -68.114  55.626  1.00  0.00     0.000 A 
HETATM   29  C19 UNL     1       6.485 -67.385  54.438  1.00  0.00     0.001 A 
HETATM   30  C20 UNL     1       6.166 -66.065  54.399  1.00  0.00     0.018 A 
ENDBRANCH  24  25
ENDBRANCH  23  24
ENDBRANCH  22  23
ENDBRANCH  21  22
ENDBRANCH  19  21
ENDBRANCH  18  19
ENDBRANCH  17  18
ENDBRANCH  16  17
ENDBRANCH   1  16
TORSDOF 11
ENDMDL
MODEL 3
REMARK VINA RESULT: -9.162352691      2.335      8.230
REMARK  11 active torsions:
REMARK  status: ('A' for Active; 'I' for Inactive)
REMARK    1  A    between atoms: C7_7  and  C8_8 
REMARK    2  A    between atoms: C8_8  and  N1_9 
REMARK    3  A    between atoms: N1_9  and  C9_11 
REMARK    4  A    between atoms: C9_11  and  C10_12 
REMARK    5  A    between atoms: C10_12  and  C11_13 
REMARK    6  A    between atoms: C11_13  and  N2_14 
REMARK    7  A    between atoms: N2_14  and  C12_16 
REMARK    8  A    between atoms: C12_16  and  C13_17 
REMARK    9  A    between atoms: C13_17  and  C14_18 
REMARK   10  A    between atoms: C14_18  and  S1_19 
REMARK   11  A    between atoms: S1_19  and  C15_20 
ROOT
HETATM    1  N1  UNL     1       8.330 -66.645  58.454  1.00  0.00    -0.398 N 
ATOM      2  H1  UNL     1       9.277 -66.637  58.074  1.00  0.00     0.158 HD
ENDROOT
BRANCH   1   3
HETATM    3  C8  UNL     1       7.225 -66.832  57.566  1.00  0.00     0.158 C 
BRANCH   3   4
HETATM    4  C7  UNL     1       7.272 -65.812  56.471  1.00  0.00    -0.033 A 
HETATM    5  C2  UNL     1       6.724 -66.015  55.261  1.00  0.00    -0.053 A 
HETATM    6  C1  UNL     1       6.247 -67.360  54.848  1.00  0.00     0.049 C 
HETATM    7  C3  UNL     1       6.587 -64.981  54.330  1.00  0.00     0.016 A 
HETATM    8  C4  UNL     1       7.033 -63.700  54.669  1.00  0.00    -0.031 A 
HETATM    9  C5  UNL     1       7.594 -63.474  55.887  1.00  0.00     0.035 A 
HETATM   10  C23 UNL     1       6.890 -62.587  53.701  1.00  0.00     0.042 C 
HETATM   11  C6  UNL     1       7.718 -64.515  56.783  1.00  0.00     0.039 A 
HETATM   12  N3  UNL     1       7.987 -62.156  56.200  1.00  0.00    -0.389 N 
HETATM   13  C21 UNL     1       7.267 -61.037  55.667  1.00  0.00     0.120 C 
ATOM     14  H3  UNL     1       8.788 -61.998  56.810  1.00  0.00     0.159 HD
HETATM   15  C22 UNL     1       6.723 -61.238  54.297  1.00  0.00     0.024 C 
ENDBRANCH   3   4
ENDBRANCH   1   3
BRANCH   1  16
HETATM   16  C9  UNL     1       8.149 -66.475  59.804  1.00  0.00     0.057 C 
BRANCH  16  17
HETATM   17  C10 UNL     1       6.902 -66.263  60.535  1.00  0.00     0.063 C 
BRANCH  17  18
HETATM   18  C11 UNL     1       7.043 -66.007  62.037  1.00  0.00     0.118 C 
BRANCH  18  19
HETATM   19  N2  UNL     1       7.453 -67.263  62.613  1.00  0.00    -0.421 N 
ATOM     20  H2  UNL     1       8.398 -67.394  62.974  1.00  0.00     0.153 HD
BRANCH  19  21
HETATM   21  C12 UNL     1       6.500 -68.308  62.659  1.00  0.00     0.114 C 
BRANCH  21  22
HETATM   22  C13 UNL     1       7.189 -69.615  62.250  1.00  0.00     0.029 C 
BRANCH  22  23
HETATM   23  C14 UNL     1       6.897 -69.906  60.785  1.00  0.00     0.081 C 
BRANCH  23  24
HETATM   24  S1  UNL     1       8.503 -70.339  59.983  1.00  0.00    -0.130 SA
BRANCH  24  25
HETATM   25  C15 UNL     1       8.537 -72.129  60.027  1.00  0.00     0.000 A 
HETATM   26  C16 UNL     1       9.603 -72.813  60.503  1.00  0.00     0.018 A 
HETATM   27  C17 UNL     1       9.592 -74.200  60.463  1.00  0.00     0.001 A 
HETATM   28  C18 UNL     1       8.488 -74.838  59.939  1.00  0.00     0.000 A 
HETATM   29  C19 UNL     1       7.394 -74.111  59.451  1.00  0.00     0.001 A 
HETATM   30  C20 UNL     1       7.400 -72.752  59.486  1.00  0.00     0.018 A 
ENDBRANCH  24  25
ENDBRANCH  23  24
ENDBRANCH  22  23
ENDBRANCH  21  22
ENDBRANCH  19  21
ENDBRANCH  18  19
ENDBRANCH  17  18
ENDBRANCH  16  17
ENDBRANCH   1  16
TORSDOF 11
ENDMDL
MODEL 4
REMARK VINA RESULT: -9.125853177      1.555      4.482
REMARK  11 active torsions:
REMARK  status: ('A' for Active; 'I' for Inactive)
REMARK    1  A    between atoms: C7_7  and  C8_8 
REMARK    2  A    between atoms: C8_8  and  N1_9 
REMARK    3  A    between atoms: N1_9  and  C9_11 
REMARK    4  A    between atoms: C9_11  and  C10_12 
REMARK    5  A    between atoms: C10_12  and  C11_13 
REMARK    6  A    between atoms: C11_13  and  N2_14 
REMARK    7  A    between atoms: N2_14  and  C12_16 
REMARK    8  A    between atoms: C12_16  and  C13_17 
REMARK    9  A    between atoms: C13_17  and  C14_18 
REMARK   10  A    between atoms: C14_18  and  S1_19 
REMARK   11  A    between atoms: S1_19  and  C15_20 
ROOT
HETATM    1  N1  UNL     1       7.875 -68.924  56.777  1.00  0.00    -0.398 N 
ATOM      2  H1  UNL     1       8.595 -68.208  56.678  1.00  0.00     0.158 HD
ENDROOT
BRANCH   1   3
HETATM    3  C8  UNL     1       8.095 -70.014  57.675  1.00  0.00     0.158 C 
BRANCH   3   4
HETATM    4  C7  UNL     1       7.635 -69.642  59.050  1.00  0.00    -0.033 A 
HETATM    5  C2  UNL     1       7.692 -70.489  60.093  1.00  0.00    -0.053 A 
HETATM    6  C1  UNL     1       7.990 -71.931  59.897  1.00  0.00     0.049 C 
HETATM    7  C3  UNL     1       7.463 -70.062  61.404  1.00  0.00     0.016 A 
HETATM    8  C4  UNL     1       7.167 -68.715  61.637  1.00  0.00    -0.031 A 
HETATM    9  C5  UNL     1       7.101 -67.843  60.595  1.00  0.00     0.035 A 
HETATM   10  C23 UNL     1       6.930 -68.238  63.019  1.00  0.00     0.042 C 
HETATM   11  C6  UNL     1       7.328 -68.295  59.313  1.00  0.00     0.039 A 
HETATM   12  N3  UNL     1       6.844 -66.486  60.884  1.00  0.00    -0.389 N 
HETATM   13  C21 UNL     1       7.304 -65.905  62.111  1.00  0.00     0.120 C 
ATOM     14  H3  UNL     1       6.327 -65.915  60.216  1.00  0.00     0.159 HD
HETATM   15  C22 UNL     1       7.297 -66.824  63.280  1.00  0.00     0.024 C 
ENDBRANCH   3   4
ENDBRANCH   1   3
BRANCH   1  16
HETATM   16  C9  UNL     1       6.720 -68.816  56.044  1.00  0.00     0.057 C 
BRANCH  16  17
HETATM   17  C10 UNL     1       5.975 -67.608  55.692  1.00  0.00     0.063 C 
BRANCH  17  18
HETATM   18  C11 UNL     1       6.373 -66.937  54.376  1.00  0.00     0.118 C 
BRANCH  18  19
HETATM   19  N2  UNL     1       7.129 -65.766  54.746  1.00  0.00    -0.421 N 
ATOM     20  H2  UNL     1       8.101 -65.840  55.048  1.00  0.00     0.153 HD
BRANCH  19  21
HETATM   21  C12 UNL     1       6.477 -64.512  54.676  1.00  0.00     0.114 C 
BRANCH  21  22
HETATM   22  C13 UNL     1       7.533 -63.426  54.441  1.00  0.00     0.029 C 
BRANCH  22  23
HETATM   23  C14 UNL     1       7.126 -62.157  55.176  1.00  0.00     0.081 C 
BRANCH  23  24
HETATM   24  S1  UNL     1       6.654 -62.648  56.893  1.00  0.00    -0.130 SA
BRANCH  24  25
HETATM   25  C15 UNL     1       8.193 -63.203  57.619  1.00  0.00     0.000 A 
HETATM   26  C16 UNL     1       9.301 -62.425  57.631  1.00  0.00     0.018 A 
HETATM   27  C17 UNL     1      10.480 -62.929  58.161  1.00  0.00     0.001 A 
HETATM   28  C18 UNL     1      10.482 -64.214  58.664  1.00  0.00     0.000 A 
HETATM   29  C19 UNL     1       9.325 -65.003  58.643  1.00  0.00     0.001 A 
HETATM   30  C20 UNL     1       8.168 -64.515  58.123  1.00  0.00     0.018 A 
ENDBRANCH  24  25
ENDBRANCH  23  24
ENDBRANCH  22  23
ENDBRANCH  21  22
ENDBRANCH  19  21
ENDBRANCH  18  19
ENDBRANCH  17  18
ENDBRANCH  16  17
ENDBRANCH   1  16
TORSDOF 11
ENDMDL
MODEL 5
REMARK VINA RESULT: -9.087876417      1.888      3.825
REMARK  11 active torsions:
REMARK  status: ('A' for Active; 'I' for Inactive)
REMARK    1  A    between atoms: C7_7  and  C8_8 
REMARK    2  A    between atoms: C8_8  and  N1_9 
REMARK    3  A    between atoms: N1_9  and  C9_11 
REMARK    4  A    between atoms: C9_11  and  C10_12 
REMARK    5  A    between atoms: C10_12  and  C11_13 
REMARK    6  A    between atoms: C11_13  and  N2_14 
REMARK    7  A    between atoms: N2_14  and  C12_16 
REMARK    8  A    between atoms: C12_16  and  C13_17 
REMARK    9  A    between atoms: C13_17  and  C14_18 
REMARK   10  A    between atoms: C14_18  and  S1_19 
REMARK   11  A    between atoms: S1_19  and  C15_20 
ROOT
HETATM    1  N1  UNL     1       6.645 -69.161  62.231  1.00  0.00    -0.398 N 
ATOM      2  H1  UNL     1       5.853 -69.804  62.208  1.00  0.00     0.158 HD
ENDROOT
BRANCH   1   3
HETATM    3  C8  UNL     1       7.809 -69.461  61.457  1.00  0.00     0.158 C 
BRANCH   3   4
HETATM    4  C7  UNL     1       7.683 -70.826  60.856  1.00  0.00    -0.033 A 
HETATM    5  C2  UNL     1       7.590 -71.034  59.531  1.00  0.00    -0.053 A 
HETATM    6  C1  UNL     1       7.360 -69.909  58.589  1.00  0.00     0.049 C 
HETATM    7  C3  UNL     1       7.691 -72.313  58.976  1.00  0.00     0.016 A 
HETATM    8  C4  UNL     1       7.896 -73.407  59.824  1.00  0.00    -0.031 A 
HETATM    9  C5  UNL     1       7.989 -73.218  61.167  1.00  0.00     0.035 A 
HETATM   10  C23 UNL     1       8.015 -74.770  59.257  1.00  0.00     0.042 C 
HETATM   11  C6  UNL     1       7.882 -71.945  61.685  1.00  0.00     0.039 A 
HETATM   12  N3  UNL     1       8.241 -74.345  61.978  1.00  0.00    -0.389 N 
HETATM   13  C21 UNL     1       9.025 -75.436  61.481  1.00  0.00     0.120 C 
ATOM     14  H3  UNL     1       7.862 -74.384  62.923  1.00  0.00     0.159 HD
HETATM   15  C22 UNL     1       8.865 -75.712  60.028  1.00  0.00     0.024 C 
ENDBRANCH   3   4
ENDBRANCH   1   3
BRANCH   1  16
HETATM   16  C9  UNL     1       6.566 -68.029  63.004  1.00  0.00     0.057 C 
BRANCH  16  17
HETATM   17  C10 UNL     1       7.324 -66.786  62.876  1.00  0.00     0.063 C 
BRANCH  17  18
HETATM   18  C11 UNL     1       7.090 -65.990  61.590  1.00  0.00     0.118 C 
BRANCH  18  19
HETATM   19  N2  UNL     1       7.678 -64.693  61.819  1.00  0.00    -0.421 N 
ATOM     20  H2  UNL     1       7.902 -64.374  62.762  1.00  0.00     0.153 HD
BRANCH  19  21
HETATM   21  C12 UNL     1       7.934 -63.878  60.691  1.00  0.00     0.114 C 
BRANCH  21  22
HETATM   22  C13 UNL     1       8.569 -64.746  59.598  1.00  0.00     0.029 C 
BRANCH  22  23
HETATM   23  C14 UNL     1       8.274 -64.139  58.233  1.00  0.00     0.081 C 
BRANCH  23  24
HETATM   24  S1  UNL     1       6.461 -64.328  57.933  1.00  0.00    -0.130 SA
BRANCH  24  25
HETATM   25  C15 UNL     1       6.364 -65.605  56.682  1.00  0.00     0.000 A 
HETATM   26  C16 UNL     1       5.945 -66.859  56.971  1.00  0.00     0.018 A 
HETATM   27  C17 UNL     1       5.941 -67.821  55.970  1.00  0.00     0.001 A 
HETATM   28  C18 UNL     1       6.363 -67.462  54.707  1.00  0.00     0.000 A 
HETATM   29  C19 UNL     1       6.792 -66.158  54.428  1.00  0.00     0.001 A 
HETATM   30  C20 UNL     1       6.800 -65.213  55.405  1.00  0.00     0.018 A 
ENDBRANCH  24  25
ENDBRANCH  23  24
ENDBRANCH  22  23
ENDBRANCH  21  22
ENDBRANCH  19  21
ENDBRANCH  18  19
ENDBRANCH  17  18
ENDBRANCH  16  17
ENDBRANCH   1  16
TORSDOF 11
ENDMDL
