MODEL 1
REMARK VINA RESULT: -7.964534438      0.000      0.000
REMARK  11 active torsions:
REMARK  status: ('A' for Active; 'I' for Inactive)
REMARK    1  A    between atoms: C2_2  and  C4_4 
REMARK    2  A    between atoms: C13_15  and  C15_17 
REMARK    3  A    between atoms: C15_17  and  C16_18 
REMARK    4  A    between atoms: C16_18  and  C17_19 
REMARK    5  A    between atoms: C17_19  and  C20_22 
REMARK    6  A    between atoms: C20_22  and  C21_23 
REMARK    7  A    between atoms: C21_23  and  C22_24 
REMARK    8  A    between atoms: C26_28  and  O3_29 
REMARK    9  A    between atoms: C27_31  and  O4_32 
REMARK   10  A    between atoms: C29_36  and  C30_37 
REMARK   11  A    between atoms: C30_37  and  C31_38 
ROOT
HETATM    1  C31 UNL     1     -26.161 -46.982 -51.606  1.00  0.00     0.019 C 
HETATM    2  C32 UNL     1     -27.189 -47.817 -51.465  1.00  0.00     0.018 C 
HETATM    3  C33 UNL     1     -28.250 -47.959 -52.484  1.00  0.00     0.060 C 
HETATM    4  C34 UNL     1     -27.254 -48.602 -50.271  1.00  0.00     0.094 C 
HETATM    5  N1  UNL     1     -27.290 -49.233 -49.297  1.00  0.00    -0.192 NA
ENDROOT
BRANCH   1   6
HETATM    6  C30 UNL     1     -25.128 -46.861 -50.587  1.00  0.00     0.015 C 
BRANCH   6   7
HETATM    7  C29 UNL     1     -23.858 -46.933 -50.878  1.00  0.00     0.020 C 
HETATM    8  C9  UNL     1     -23.360 -47.614 -52.084  1.00  0.00     0.163 C 
HETATM    9  C7  UNL     1     -23.312 -49.068 -52.129  1.00  0.00     0.015 C 
HETATM   10  O1  UNL     1     -22.130 -47.078 -52.311  1.00  0.00    -0.359 OA
HETATM   11  C6  UNL     1     -21.973 -49.702 -52.475  1.00  0.00     0.008 C 
HETATM   12  C8  UNL     1     -23.863 -49.815 -50.936  1.00  0.00     0.013 C 
HETATM   13  C5  UNL     1     -21.246 -49.057 -53.572  1.00  0.00     0.013 C 
HETATM   14  C4  UNL     1     -19.940 -48.367 -53.299  1.00  0.00     0.054 C 
HETATM   15  C26 UNL     1     -19.885 -47.231 -52.354  1.00  0.00     0.133 C 
HETATM   16  C10 UNL     1     -21.118 -47.251 -51.481  1.00  0.00     0.171 A 
HETATM   17  C13 UNL     1     -18.756 -47.228 -51.391  1.00  0.00     0.093 C 
HETATM   18  C11 UNL     1     -20.630 -47.246 -50.182  1.00  0.00     0.138 A 
HETATM   19  C27 UNL     1     -21.448 -46.096 -50.507  1.00  0.00     0.194 A 
HETATM   20  C12 UNL     1     -21.003 -48.162 -49.010  1.00  0.00     0.053 C 
HETATM   21  O2  UNL     1     -19.263 -46.961 -50.132  1.00  0.00    -0.360 OA
HETATM   22  C28 UNL     1     -22.872 -46.310 -50.027  1.00  0.00     0.199 C 
HETATM   23  O5  UNL     1     -23.130 -45.918 -48.871  1.00  0.00    -0.289 OA
HETATM   24  C14 UNL     1     -18.205 -48.687 -51.191  1.00  0.00     0.049 C 
BRANCH  14  25
HETATM   25  C2  UNL     1     -19.475 -47.969 -54.657  1.00  0.00    -0.086 C 
HETATM   26  C1  UNL     1     -18.222 -48.099 -55.075  1.00  0.00     0.014 C 
HETATM   27  C3  UNL     1     -20.449 -47.473 -55.652  1.00  0.00     0.043 C 
ENDBRANCH  14  25
BRANCH  15  28
HETATM   28  O3  UNL     1     -19.913 -46.023 -53.047  1.00  0.00    -0.383 OA
ATOM     29  H3  UNL     1     -19.322 -46.056 -53.791  1.00  0.00     0.210 HD
ENDBRANCH  15  28
BRANCH  19  30
HETATM   30  O4  UNL     1     -21.054 -44.828 -50.797  1.00  0.00    -0.376 OA
ATOM     31  H4  UNL     1     -21.527 -44.320 -51.445  1.00  0.00     0.211 HD
ENDBRANCH  19  30
BRANCH  17  32
HETATM   32  C15 UNL     1     -17.520 -46.463 -51.701  1.00  0.00     0.042 C 
BRANCH  32  33
HETATM   33  C16 UNL     1     -17.411 -45.073 -51.247  1.00  0.00     0.012 C 
BRANCH  33  34
HETATM   34  C17 UNL     1     -16.993 -44.152 -52.423  1.00  0.00    -0.047 C 
HETATM   35  C18 UNL     1     -18.033 -43.099 -52.651  1.00  0.00     0.015 C 
HETATM   36  C19 UNL     1     -15.744 -43.401 -51.902  1.00  0.00     0.015 C 
BRANCH  34  37
HETATM   37  C20 UNL     1     -16.634 -44.966 -53.593  1.00  0.00     0.012 C 
BRANCH  37  38
HETATM   38  C21 UNL     1     -16.630 -44.374 -54.947  1.00  0.00     0.028 C 
BRANCH  38  39
HETATM   39  C22 UNL     1     -17.842 -44.589 -55.730  1.00  0.00    -0.025 C 
HETATM   40  C23 UNL     1     -18.388 -43.584 -56.426  1.00  0.00    -0.091 C 
HETATM   41  C24 UNL     1     -19.632 -43.801 -57.232  1.00  0.00     0.042 C 
HETATM   42  C25 UNL     1     -17.757 -42.255 -56.397  1.00  0.00     0.042 C 
ENDBRANCH  38  39
ENDBRANCH  37  38
ENDBRANCH  34  37
ENDBRANCH  33  34
ENDBRANCH  32  33
ENDBRANCH  17  32
ENDBRANCH   6   7
ENDBRANCH   1   6
TORSDOF 11
ENDMDL
MODEL 2
REMARK VINA RESULT: -7.750284879      1.090      1.420
REMARK  11 active torsions:
REMARK  status: ('A' for Active; 'I' for Inactive)
REMARK    1  A    between atoms: C2_2  and  C4_4 
REMARK    2  A    between atoms: C13_15  and  C15_17 
REMARK    3  A    between atoms: C15_17  and  C16_18 
REMARK    4  A    between atoms: C16_18  and  C17_19 
REMARK    5  A    between atoms: C17_19  and  C20_22 
REMARK    6  A    between atoms: C20_22  and  C21_23 
REMARK    7  A    between atoms: C21_23  and  C22_24 
REMARK    8  A    between atoms: C26_28  and  O3_29 
REMARK    9  A    between atoms: C27_31  and  O4_32 
REMARK   10  A    between atoms: C29_36  and  C30_37 
REMARK   11  A    between atoms: C30_37  and  C31_38 
ROOT
HETATM    1  C31 UNL     1     -25.831 -46.940 -51.130  1.00  0.00     0.019 C 
HETATM    2  C32 UNL     1     -26.857 -47.776 -51.277  1.00  0.00     0.018 C 
HETATM    3  C33 UNL     1     -28.035 -47.460 -52.112  1.00  0.00     0.060 C 
HETATM    4  C34 UNL     1     -26.802 -49.030 -50.589  1.00  0.00     0.094 C 
HETATM    5  N1  UNL     1     -26.740 -50.043 -50.027  1.00  0.00    -0.192 NA
ENDROOT
BRANCH   1   6
HETATM    6  C30 UNL     1     -24.683 -47.275 -50.300  1.00  0.00     0.015 C 
BRANCH   6   7
HETATM    7  C29 UNL     1     -23.458 -47.149 -50.733  1.00  0.00     0.020 C 
HETATM    8  C9  UNL     1     -23.120 -47.157 -52.165  1.00  0.00     0.163 C 
HETATM    9  C7  UNL     1     -23.104 -48.414 -52.900  1.00  0.00     0.015 C 
HETATM   10  O1  UNL     1     -21.916 -46.528 -52.248  1.00  0.00    -0.359 OA
HETATM   11  C6  UNL     1     -21.827 -48.754 -53.655  1.00  0.00     0.008 C 
HETATM   12  C8  UNL     1     -23.522 -49.659 -52.151  1.00  0.00     0.013 C 
HETATM   13  C5  UNL     1     -21.224 -47.638 -54.389  1.00  0.00     0.013 C 
HETATM   14  C4  UNL     1     -19.882 -47.106 -53.971  1.00  0.00     0.054 C 
HETATM   15  C26 UNL     1     -19.695 -46.551 -52.613  1.00  0.00     0.133 C 
HETATM   16  C10 UNL     1     -20.816 -47.032 -51.720  1.00  0.00     0.171 A 
HETATM   17  C13 UNL     1     -18.460 -46.958 -51.899  1.00  0.00     0.093 C 
HETATM   18  C11 UNL     1     -20.176 -47.623 -50.640  1.00  0.00     0.138 A 
HETATM   19  C27 UNL     1     -21.006 -46.490 -50.285  1.00  0.00     0.194 A 
HETATM   20  C12 UNL     1     -20.424 -48.998 -50.009  1.00  0.00     0.053 C 
HETATM   21  O2  UNL     1     -18.808 -47.340 -50.615  1.00  0.00    -0.360 OA
HETATM   22  C28 UNL     1     -22.367 -46.963 -49.806  1.00  0.00     0.199 C 
HETATM   23  O5  UNL     1     -22.478 -47.176 -48.582  1.00  0.00    -0.289 OA
HETATM   24  C14 UNL     1     -17.915 -48.314 -52.479  1.00  0.00     0.049 C 
BRANCH  14  25
HETATM   25  C2  UNL     1     -19.575 -46.095 -55.020  1.00  0.00    -0.086 C 
HETATM   26  C1  UNL     1     -18.401 -45.999 -55.631  1.00  0.00     0.014 C 
HETATM   27  C3  UNL     1     -20.636 -45.180 -55.493  1.00  0.00     0.043 C 
ENDBRANCH  14  25
BRANCH  15  28
HETATM   28  O3  UNL     1     -19.783 -45.162 -52.642  1.00  0.00    -0.383 OA
ATOM     29  H3  UNL     1     -19.320 -44.786 -51.901  1.00  0.00     0.210 HD
ENDBRANCH  15  28
BRANCH  19  30
HETATM   30  O4  UNL     1     -20.626 -45.221 -49.981  1.00  0.00    -0.376 OA
ATOM     31  H4  UNL     1     -21.208 -44.657 -49.485  1.00  0.00     0.211 HD
ENDBRANCH  19  30
BRANCH  17  32
HETATM   32  C15 UNL     1     -17.256 -46.088 -51.946  1.00  0.00     0.042 C 
BRANCH  32  33
HETATM   33  C16 UNL     1     -17.347 -44.718 -51.432  1.00  0.00     0.012 C 
BRANCH  33  34
HETATM   34  C17 UNL     1     -16.551 -43.746 -52.342  1.00  0.00    -0.047 C 
HETATM   35  C18 UNL     1     -15.413 -43.140 -51.581  1.00  0.00     0.015 C 
HETATM   36  C19 UNL     1     -15.902 -44.660 -53.410  1.00  0.00     0.015 C 
BRANCH  34  37
HETATM   37  C20 UNL     1     -17.471 -42.799 -52.990  1.00  0.00     0.012 C 
BRANCH  37  38
HETATM   38  C21 UNL     1     -17.051 -42.046 -54.190  1.00  0.00     0.028 C 
BRANCH  38  39
HETATM   39  C22 UNL     1     -17.739 -42.403 -55.426  1.00  0.00    -0.025 C 
HETATM   40  C23 UNL     1     -17.044 -42.632 -56.548  1.00  0.00    -0.091 C 
HETATM   41  C24 UNL     1     -17.746 -42.999 -57.820  1.00  0.00     0.042 C 
HETATM   42  C25 UNL     1     -15.577 -42.520 -56.528  1.00  0.00     0.042 C 
ENDBRANCH  38  39
ENDBRANCH  37  38
ENDBRANCH  34  37
ENDBRANCH  33  34
ENDBRANCH  32  33
ENDBRANCH  17  32
ENDBRANCH   6   7
ENDBRANCH   1   6
TORSDOF 11
ENDMDL
MODEL 3
REMARK VINA RESULT: -7.653410900      3.518      5.736
REMARK  11 active torsions:
REMARK  status: ('A' for Active; 'I' for Inactive)
REMARK    1  A    between atoms: C2_2  and  C4_4 
REMARK    2  A    between atoms: C13_15  and  C15_17 
REMARK    3  A    between atoms: C15_17  and  C16_18 
REMARK    4  A    between atoms: C16_18  and  C17_19 
REMARK    5  A    between atoms: C17_19  and  C20_22 
REMARK    6  A    between atoms: C20_22  and  C21_23 
REMARK    7  A    between atoms: C21_23  and  C22_24 
REMARK    8  A    between atoms: C26_28  and  O3_29 
REMARK    9  A    between atoms: C27_31  and  O4_32 
REMARK   10  A    between atoms: C29_36  and  C30_37 
REMARK   11  A    between atoms: C30_37  and  C31_38 
ROOT
HETATM    1  C31 UNL     1     -26.503 -44.432 -45.181  1.00  0.00     0.019 C 
HETATM    2  C32 UNL     1     -26.838 -43.335 -44.506  1.00  0.00     0.018 C 
HETATM    3  C33 UNL     1     -28.239 -42.989 -44.184  1.00  0.00     0.060 C 
HETATM    4  C34 UNL     1     -25.786 -42.463 -44.082  1.00  0.00     0.094 C 
HETATM    5  N1  UNL     1     -24.920 -41.769 -43.743  1.00  0.00    -0.192 NA
ENDROOT
BRANCH   1   6
HETATM    6  C30 UNL     1     -25.115 -44.750 -45.486  1.00  0.00     0.015 C 
BRANCH   6   7
HETATM    7  C29 UNL     1     -24.766 -45.307 -46.614  1.00  0.00     0.020 C 
HETATM    8  C9  UNL     1     -25.684 -46.147 -47.399  1.00  0.00     0.163 C 
HETATM    9  C7  UNL     1     -25.966 -47.510 -46.972  1.00  0.00     0.015 C 
HETATM   10  O1  UNL     1     -25.187 -46.126 -48.666  1.00  0.00    -0.359 OA
HETATM   11  C6  UNL     1     -25.732 -48.614 -47.994  1.00  0.00     0.008 C 
HETATM   12  C8  UNL     1     -25.346 -47.970 -45.672  1.00  0.00     0.013 C 
HETATM   13  C5  UNL     1     -26.204 -48.314 -49.349  1.00  0.00     0.013 C 
HETATM   14  C4  UNL     1     -25.214 -48.171 -50.470  1.00  0.00     0.054 C 
HETATM   15  C26 UNL     1     -24.169 -47.125 -50.407  1.00  0.00     0.133 C 
HETATM   16  C10 UNL     1     -24.019 -46.657 -48.978  1.00  0.00     0.171 A 
HETATM   17  C13 UNL     1     -22.800 -47.537 -50.802  1.00  0.00     0.093 C 
HETATM   18  C11 UNL     1     -22.671 -46.817 -48.695  1.00  0.00     0.138 A 
HETATM   19  C27 UNL     1     -23.132 -45.447 -48.603  1.00  0.00     0.194 A 
HETATM   20  C12 UNL     1     -22.014 -47.500 -47.489  1.00  0.00     0.053 C 
HETATM   21  O2  UNL     1     -21.916 -47.075 -49.842  1.00  0.00    -0.360 OA
HETATM   22  C28 UNL     1     -23.447 -45.093 -47.161  1.00  0.00     0.199 C 
HETATM   23  O5  UNL     1     -22.510 -44.612 -46.493  1.00  0.00    -0.289 OA
HETATM   24  C14 UNL     1     -22.629 -49.092 -50.644  1.00  0.00     0.049 C 
BRANCH  14  25
HETATM   25  C2  UNL     1     -26.080 -48.004 -51.670  1.00  0.00    -0.086 C 
HETATM   26  C1  UNL     1     -25.704 -48.328 -52.901  1.00  0.00     0.014 C 
HETATM   27  C3  UNL     1     -27.471 -47.531 -51.513  1.00  0.00     0.043 C 
ENDBRANCH  14  25
BRANCH  15  28
HETATM   28  O3  UNL     1     -24.555 -46.011 -51.147  1.00  0.00    -0.383 OA
ATOM     29  H3  UNL     1     -23.842 -45.385 -51.198  1.00  0.00     0.210 HD
ENDBRANCH  15  28
BRANCH  19  30
HETATM   30  O4  UNL     1     -22.959 -44.432 -49.489  1.00  0.00    -0.376 OA
ATOM     31  H4  UNL     1     -23.408 -43.605 -49.358  1.00  0.00     0.211 HD
ENDBRANCH  19  30
BRANCH  17  32
HETATM   32  C15 UNL     1     -22.328 -47.307 -52.192  1.00  0.00     0.042 C 
BRANCH  32  33
HETATM   33  C16 UNL     1     -21.392 -48.263 -52.793  1.00  0.00     0.012 C 
BRANCH  33  34
HETATM   34  C17 UNL     1     -21.817 -48.592 -54.248  1.00  0.00    -0.047 C 
HETATM   35  C18 UNL     1     -22.622 -49.854 -54.280  1.00  0.00     0.015 C 
HETATM   36  C19 UNL     1     -22.799 -47.459 -54.631  1.00  0.00     0.015 C 
BRANCH  34  37
HETATM   37  C20 UNL     1     -20.643 -48.554 -55.133  1.00  0.00     0.012 C 
BRANCH  37  38
HETATM   38  C21 UNL     1     -19.625 -47.494 -54.985  1.00  0.00     0.028 C 
BRANCH  38  39
HETATM   39  C22 UNL     1     -19.637 -46.462 -56.016  1.00  0.00    -0.025 C 
HETATM   40  C23 UNL     1     -19.833 -45.178 -55.690  1.00  0.00    -0.091 C 
HETATM   41  C24 UNL     1     -19.846 -44.115 -56.746  1.00  0.00     0.042 C 
HETATM   42  C25 UNL     1     -20.038 -44.812 -54.280  1.00  0.00     0.042 C 
ENDBRANCH  38  39
ENDBRANCH  37  38
ENDBRANCH  34  37
ENDBRANCH  33  34
ENDBRANCH  32  33
ENDBRANCH  17  32
ENDBRANCH   6   7
ENDBRANCH   1   6
TORSDOF 11
ENDMDL
MODEL 4
REMARK VINA RESULT: -7.649258257      3.316      5.407
REMARK  11 active torsions:
REMARK  status: ('A' for Active; 'I' for Inactive)
REMARK    1  A    between atoms: C2_2  and  C4_4 
REMARK    2  A    between atoms: C13_15  and  C15_17 
REMARK    3  A    between atoms: C15_17  and  C16_18 
REMARK    4  A    between atoms: C16_18  and  C17_19 
REMARK    5  A    between atoms: C17_19  and  C20_22 
REMARK    6  A    between atoms: C20_22  and  C21_23 
REMARK    7  A    between atoms: C21_23  and  C22_24 
REMARK    8  A    between atoms: C26_28  and  O3_29 
REMARK    9  A    between atoms: C27_31  and  O4_32 
REMARK   10  A    between atoms: C29_36  and  C30_37 
REMARK   11  A    between atoms: C30_37  and  C31_38 
ROOT
HETATM    1  C31 UNL     1     -26.242 -44.331 -45.379  1.00  0.00     0.019 C 
HETATM    2  C32 UNL     1     -26.141 -43.081 -44.931  1.00  0.00     0.018 C 
HETATM    3  C33 UNL     1     -27.315 -42.205 -44.731  1.00  0.00     0.060 C 
HETATM    4  C34 UNL     1     -24.835 -42.579 -44.634  1.00  0.00     0.094 C 
HETATM    5  N1  UNL     1     -23.767 -42.190 -44.397  1.00  0.00    -0.192 NA
ENDROOT
BRANCH   1   6
HETATM    6  C30 UNL     1     -25.069 -45.173 -45.568  1.00  0.00     0.015 C 
BRANCH   6   7
HETATM    7  C29 UNL     1     -24.722 -45.620 -46.744  1.00  0.00     0.020 C 
HETATM    8  C9  UNL     1     -25.621 -46.431 -47.579  1.00  0.00     0.163 C 
HETATM    9  C7  UNL     1     -25.837 -47.835 -47.262  1.00  0.00     0.015 C 
HETATM   10  O1  UNL     1     -25.153 -46.284 -48.849  1.00  0.00    -0.359 OA
HETATM   11  C6  UNL     1     -25.580 -48.840 -48.376  1.00  0.00     0.008 C 
HETATM   12  C8  UNL     1     -25.171 -48.374 -46.017  1.00  0.00     0.013 C 
HETATM   13  C5  UNL     1     -26.093 -48.451 -49.693  1.00  0.00     0.013 C 
HETATM   14  C4  UNL     1     -25.134 -48.173 -50.816  1.00  0.00     0.054 C 
HETATM   15  C26 UNL     1     -24.132 -47.092 -50.685  1.00  0.00     0.133 C 
HETATM   16  C10 UNL     1     -23.971 -46.738 -49.225  1.00  0.00     0.171 A 
HETATM   17  C13 UNL     1     -22.756 -47.411 -51.137  1.00  0.00     0.093 C 
HETATM   18  C11 UNL     1     -22.611 -46.862 -48.980  1.00  0.00     0.138 A 
HETATM   19  C27 UNL     1     -23.127 -45.526 -48.767  1.00  0.00     0.194 A 
HETATM   20  C12 UNL     1     -21.901 -47.614 -47.848  1.00  0.00     0.053 C 
HETATM   21  O2  UNL     1     -21.872 -46.992 -50.159  1.00  0.00    -0.360 OA
HETATM   22  C28 UNL     1     -23.425 -45.305 -47.295  1.00  0.00     0.199 C 
HETATM   23  O5  UNL     1     -22.494 -44.841 -46.607  1.00  0.00    -0.289 OA
HETATM   24  C14 UNL     1     -22.518 -48.965 -51.112  1.00  0.00     0.049 C 
BRANCH  14  25
HETATM   25  C2  UNL     1     -26.032 -47.945 -51.981  1.00  0.00    -0.086 C 
HETATM   26  C1  UNL     1     -25.691 -48.208 -53.237  1.00  0.00     0.014 C 
HETATM   27  C3  UNL     1     -27.418 -47.479 -51.763  1.00  0.00     0.043 C 
ENDBRANCH  14  25
BRANCH  15  28
HETATM   28  O3  UNL     1     -24.580 -45.938 -51.323  1.00  0.00    -0.383 OA
ATOM     29  H3  UNL     1     -25.329 -45.576 -50.863  1.00  0.00     0.210 HD
ENDBRANCH  15  28
BRANCH  19  30
HETATM   30  O4  UNL     1     -23.015 -44.434 -49.568  1.00  0.00    -0.376 OA
ATOM     31  H4  UNL     1     -22.436 -43.722 -49.323  1.00  0.00     0.211 HD
ENDBRANCH  19  30
BRANCH  17  32
HETATM   32  C15 UNL     1     -22.325 -47.048 -52.512  1.00  0.00     0.042 C 
BRANCH  32  33
HETATM   33  C16 UNL     1     -20.989 -47.445 -52.967  1.00  0.00     0.012 C 
BRANCH  33  34
HETATM   34  C17 UNL     1     -20.927 -47.456 -54.517  1.00  0.00    -0.047 C 
HETATM   35  C18 UNL     1     -19.841 -48.374 -54.986  1.00  0.00     0.015 C 
HETATM   36  C19 UNL     1     -22.255 -48.122 -54.952  1.00  0.00     0.015 C 
BRANCH  34  37
HETATM   37  C20 UNL     1     -20.871 -46.079 -55.027  1.00  0.00     0.012 C 
BRANCH  37  38
HETATM   38  C21 UNL     1     -19.863 -45.692 -56.037  1.00  0.00     0.028 C 
BRANCH  38  39
HETATM   39  C22 UNL     1     -19.080 -44.503 -55.719  1.00  0.00    -0.025 C 
HETATM   40  C23 UNL     1     -18.634 -43.703 -56.696  1.00  0.00    -0.091 C 
HETATM   41  C24 UNL     1     -17.830 -42.480 -56.374  1.00  0.00     0.042 C 
HETATM   42  C25 UNL     1     -18.937 -44.031 -58.097  1.00  0.00     0.042 C 
ENDBRANCH  38  39
ENDBRANCH  37  38
ENDBRANCH  34  37
ENDBRANCH  33  34
ENDBRANCH  32  33
ENDBRANCH  17  32
ENDBRANCH   6   7
ENDBRANCH   1   6
TORSDOF 11
ENDMDL
MODEL 5
REMARK VINA RESULT: -7.632845548      2.737      3.792
REMARK  11 active torsions:
REMARK  status: ('A' for Active; 'I' for Inactive)
REMARK    1  A    between atoms: C2_2  and  C4_4 
REMARK    2  A    between atoms: C13_15  and  C15_17 
REMARK    3  A    between atoms: C15_17  and  C16_18 
REMARK    4  A    between atoms: C16_18  and  C17_19 
REMARK    5  A    between atoms: C17_19  and  C20_22 
REMARK    6  A    between atoms: C20_22  and  C21_23 
REMARK    7  A    between atoms: C21_23  and  C22_24 
REMARK    8  A    between atoms: C26_28  and  O3_29 
REMARK    9  A    between atoms: C27_31  and  O4_32 
REMARK   10  A    between atoms: C29_36  and  C30_37 
REMARK   11  A    between atoms: C30_37  and  C31_38 
ROOT
HETATM    1  C31 UNL     1     -24.854 -43.789 -46.696  1.00  0.00     0.019 C 
HETATM    2  C32 UNL     1     -25.808 -43.944 -45.779  1.00  0.00     0.018 C 
HETATM    3  C33 UNL     1     -27.145 -43.325 -45.902  1.00  0.00     0.060 C 
HETATM    4  C34 UNL     1     -25.510 -44.747 -44.633  1.00  0.00     0.094 C 
HETATM    5  N1  UNL     1     -25.252 -45.403 -43.711  1.00  0.00    -0.192 NA
ENDROOT
BRANCH   1   6
HETATM    6  C30 UNL     1     -23.545 -44.410 -46.551  1.00  0.00     0.015 C 
BRANCH   6   7
HETATM    7  C29 UNL     1     -22.989 -45.084 -47.521  1.00  0.00     0.020 C 
HETATM    8  C9  UNL     1     -23.773 -45.726 -48.588  1.00  0.00     0.163 C 
HETATM    9  C7  UNL     1     -24.485 -46.966 -48.320  1.00  0.00     0.015 C 
HETATM   10  O1  UNL     1     -22.902 -45.879 -49.623  1.00  0.00    -0.359 OA
HETATM   11  C6  UNL     1     -24.197 -48.141 -49.244  1.00  0.00     0.008 C 
HETATM   12  C8  UNL     1     -24.444 -47.496 -46.904  1.00  0.00     0.013 C 
HETATM   13  C5  UNL     1     -24.122 -47.804 -50.669  1.00  0.00     0.013 C 
HETATM   14  C4  UNL     1     -22.818 -47.944 -51.402  1.00  0.00     0.054 C 
HETATM   15  C26 UNL     1     -21.637 -47.165 -50.970  1.00  0.00     0.133 C 
HETATM   16  C10 UNL     1     -21.853 -46.678 -49.555  1.00  0.00     0.171 A 
HETATM   17  C13 UNL     1     -20.349 -47.897 -50.910  1.00  0.00     0.093 C 
HETATM   18  C11 UNL     1     -20.745 -47.129 -48.854  1.00  0.00     0.138 A 
HETATM   19  C27 UNL     1     -20.880 -45.688 -48.875  1.00  0.00     0.194 A 
HETATM   20  C12 UNL     1     -20.691 -47.889 -47.523  1.00  0.00     0.053 C 
HETATM   21  O2  UNL     1     -19.742 -47.607 -49.702  1.00  0.00    -0.360 OA
HETATM   22  C28 UNL     1     -21.553 -45.204 -47.603  1.00  0.00     0.199 C 
HETATM   23  O5  UNL     1     -20.797 -44.921 -46.652  1.00  0.00    -0.289 OA
HETATM   24  C14 UNL     1     -20.605 -49.441 -50.755  1.00  0.00     0.049 C 
BRANCH  14  25
HETATM   25  C2  UNL     1     -23.186 -47.639 -52.812  1.00  0.00    -0.086 C 
HETATM   26  C1  UNL     1     -22.407 -47.909 -53.853  1.00  0.00     0.014 C 
HETATM   27  C3  UNL     1     -24.519 -47.078 -53.120  1.00  0.00     0.043 C 
ENDBRANCH  14  25
BRANCH  15  28
HETATM   28  O3  UNL     1     -21.494 -46.027 -51.760  1.00  0.00    -0.383 OA
ATOM     29  H3  UNL     1     -20.710 -45.550 -51.512  1.00  0.00     0.210 HD
ENDBRANCH  15  28
BRANCH  19  30
HETATM   30  O4  UNL     1     -20.199 -44.782 -49.623  1.00  0.00    -0.376 OA
ATOM     31  H4  UNL     1     -19.249 -44.790 -49.631  1.00  0.00     0.211 HD
ENDBRANCH  19  30
BRANCH  17  32
HETATM   32  C15 UNL     1     -19.414 -47.847 -52.065  1.00  0.00     0.042 C 
BRANCH  32  33
HETATM   33  C16 UNL     1     -18.152 -47.112 -51.927  1.00  0.00     0.012 C 
BRANCH  33  34
HETATM   34  C17 UNL     1     -18.058 -45.996 -53.000  1.00  0.00    -0.047 C 
HETATM   35  C18 UNL     1     -18.182 -44.649 -52.357  1.00  0.00     0.015 C 
HETATM   36  C19 UNL     1     -16.602 -46.080 -53.519  1.00  0.00     0.015 C 
BRANCH  34  37
HETATM   37  C20 UNL     1     -18.995 -46.275 -54.097  1.00  0.00     0.012 C 
BRANCH  37  38
HETATM   38  C21 UNL     1     -19.798 -45.188 -54.694  1.00  0.00     0.028 C 
BRANCH  38  39
HETATM   39  C22 UNL     1     -19.739 -45.089 -56.148  1.00  0.00    -0.025 C 
HETATM   40  C23 UNL     1     -18.947 -44.183 -56.736  1.00  0.00    -0.091 C 
HETATM   41  C24 UNL     1     -18.882 -44.079 -58.229  1.00  0.00     0.042 C 
HETATM   42  C25 UNL     1     -18.135 -43.282 -55.904  1.00  0.00     0.042 C 
ENDBRANCH  38  39
ENDBRANCH  37  38
ENDBRANCH  34  37
ENDBRANCH  33  34
ENDBRANCH  32  33
ENDBRANCH  17  32
ENDBRANCH   6   7
ENDBRANCH   1   6
TORSDOF 11
ENDMDL
