MODEL 1
REMARK VINA RESULT: -8.308954197      0.000      0.000
REMARK  12 active torsions:
REMARK  status: ('A' for Active; 'I' for Inactive)
REMARK    1  A    between atoms: C2_2  and  C4_4 
REMARK    2  A    between atoms: C5_5  and  C6_6 
REMARK    3  A    between atoms: C7_7  and  C8_8 
REMARK    4  A    between atoms: C8_8  and  O1_11 
REMARK    5  A    between atoms: C14_16  and  C15_17 
REMARK    6  A    between atoms: C19_21  and  O2_22 
REMARK    7  A    between atoms: O2_22  and  C20_23 
REMARK    8  A    between atoms: C20_23  and  C21_25 
REMARK    9  A    between atoms: C22_26  and  C23_27 
REMARK   10  A    between atoms: C26_30  and  O4_31 
REMARK   11  A    between atoms: C28_33  and  O5_34 
REMARK   12  A    between atoms: C32_38  and  O6_39 
ROOT
HETATM    1  C4  UNL     1     -24.840 -49.475 -47.079  1.00  0.00    -0.056 C 
HETATM    2  C5  UNL     1     -25.535 -48.934 -48.295  1.00  0.00     0.039 C 
HETATM    3  C11 UNL     1     -25.213 -47.436 -48.243  1.00  0.00     0.023 C 
HETATM    4  C12 UNL     1     -24.220 -47.292 -47.140  1.00  0.00     0.033 C 
HETATM    5  C13 UNL     1     -24.073 -45.997 -46.502  1.00  0.00    -0.048 C 
HETATM    6  C14 UNL     1     -22.993 -45.255 -46.614  1.00  0.00    -0.012 C 
HETATM    7  C19 UNL     1     -25.184 -45.424 -45.634  1.00  0.00     0.164 C 
HETATM    8  C31 UNL     1     -25.837 -46.524 -44.840  1.00  0.00     0.070 C 
HETATM    9  C32 UNL     1     -26.116 -47.743 -45.715  1.00  0.00     0.134 C 
HETATM   10  C33 UNL     1     -24.838 -48.341 -46.137  1.00  0.00     0.014 C 
HETATM   11  C34 UNL     1     -23.869 -48.413 -45.001  1.00  0.00     0.023 C 
ENDROOT
BRANCH   7  12
HETATM   12  O2  UNL     1     -26.063 -44.772 -46.522  1.00  0.00    -0.308 OA
BRANCH  12  13
HETATM   13  C20 UNL     1     -25.992 -43.358 -46.752  1.00  0.00     0.283 C 
HETATM   14  O3  UNL     1     -25.572 -43.120 -47.894  1.00  0.00    -0.260 OA
BRANCH  13  15
HETATM   15  C21 UNL     1     -26.371 -42.434 -45.751  1.00  0.00     0.083 C 
HETATM   16  C22 UNL     1     -26.817 -42.420 -44.561  1.00  0.00     0.017 C 
BRANCH  16  17
HETATM   17  C23 UNL     1     -27.197 -43.342 -43.532  1.00  0.00    -0.033 A 
HETATM   18  C24 UNL     1     -28.568 -43.676 -43.425  1.00  0.00     0.014 A 
HETATM   19  C25 UNL     1     -29.012 -44.533 -42.453  1.00  0.00     0.040 A 
HETATM   20  C26 UNL     1     -28.134 -45.093 -41.553  1.00  0.00     0.101 A 
HETATM   21  C28 UNL     1     -26.800 -44.788 -41.631  1.00  0.00     0.102 A 
HETATM   22  C30 UNL     1     -26.361 -43.916 -42.624  1.00  0.00     0.051 A 
BRANCH  20  23
HETATM   23  O4  UNL     1     -28.632 -45.964 -40.576  1.00  0.00    -0.353 OA
HETATM   24  C27 UNL     1     -29.923 -45.737 -40.048  1.00  0.00     0.210 C 
ENDBRANCH  20  23
BRANCH  21  25
HETATM   25  O5  UNL     1     -25.936 -45.364 -40.714  1.00  0.00    -0.353 OA
HETATM   26  C29 UNL     1     -24.895 -46.244 -41.064  1.00  0.00     0.210 C 
ENDBRANCH  21  25
ENDBRANCH  16  17
ENDBRANCH  13  15
ENDBRANCH  12  13
ENDBRANCH   7  12
BRANCH   6  27
HETATM   27  C15 UNL     1     -21.747 -45.508 -47.347  1.00  0.00    -0.033 C 
HETATM   28  C16 UNL     1     -21.154 -46.870 -46.955  1.00  0.00     0.018 C 
HETATM   29  C17 UNL     1     -21.840 -45.497 -48.832  1.00  0.00     0.018 C 
HETATM   30  C18 UNL     1     -20.707 -44.501 -46.906  1.00  0.00     0.018 C 
ENDBRANCH   6  27
BRANCH   9  31
HETATM   31  O6  UNL     1     -26.963 -48.534 -44.951  1.00  0.00    -0.394 OA
ATOM     32  H6  UNL     1     -27.076 -49.327 -45.462  1.00  0.00     0.210 HD
ENDBRANCH   9  31
BRANCH   2  33
HETATM   33  C6  UNL     1     -26.930 -49.268 -48.469  1.00  0.00    -0.019 C 
HETATM   34  C7  UNL     1     -27.407 -49.811 -49.618  1.00  0.00     0.006 C 
BRANCH  34  35
HETATM   35  C8  UNL     1     -28.823 -50.165 -49.831  1.00  0.00     0.068 C 
HETATM   36  C9  UNL     1     -29.228 -49.863 -51.263  1.00  0.00     0.050 C 
HETATM   37  C10 UNL     1     -29.084 -51.648 -49.618  1.00  0.00     0.050 C 
BRANCH  35  38
HETATM   38  O1  UNL     1     -29.690 -49.479 -48.977  1.00  0.00    -0.387 OA
ATOM     39  H1  UNL     1     -29.598 -49.740 -48.069  1.00  0.00     0.211 HD
ENDBRANCH  35  38
ENDBRANCH  34  35
ENDBRANCH   2  33
BRANCH   1  40
HETATM   40  C2  UNL     1     -25.079 -50.822 -46.688  1.00  0.00    -0.067 C 
HETATM   41  C1  UNL     1     -25.751 -51.207 -45.647  1.00  0.00     0.018 C 
HETATM   42  C3  UNL     1     -24.511 -51.915 -47.577  1.00  0.00     0.047 C 
ENDBRANCH   1  40
TORSDOF 12
ENDMDL
MODEL 2
REMARK VINA RESULT: -8.238515384      6.805     11.420
REMARK  12 active torsions:
REMARK  status: ('A' for Active; 'I' for Inactive)
REMARK    1  A    between atoms: C2_2  and  C4_4 
REMARK    2  A    between atoms: C5_5  and  C6_6 
REMARK    3  A    between atoms: C7_7  and  C8_8 
REMARK    4  A    between atoms: C8_8  and  O1_11 
REMARK    5  A    between atoms: C14_16  and  C15_17 
REMARK    6  A    between atoms: C19_21  and  O2_22 
REMARK    7  A    between atoms: O2_22  and  C20_23 
REMARK    8  A    between atoms: C20_23  and  C21_25 
REMARK    9  A    between atoms: C22_26  and  C23_27 
REMARK   10  A    between atoms: C26_30  and  O4_31 
REMARK   11  A    between atoms: C28_33  and  O5_34 
REMARK   12  A    between atoms: C32_38  and  O6_39 
ROOT
HETATM    1  C4  UNL     1     -17.892 -45.053 -51.791  1.00  0.00    -0.056 C 
HETATM    2  C5  UNL     1     -18.823 -44.673 -52.905  1.00  0.00     0.039 C 
HETATM    3  C11 UNL     1     -19.659 -45.942 -53.110  1.00  0.00     0.023 C 
HETATM    4  C12 UNL     1     -19.274 -46.844 -51.986  1.00  0.00     0.033 C 
HETATM    5  C13 UNL     1     -19.488 -48.271 -52.138  1.00  0.00    -0.048 C 
HETATM    6  C14 UNL     1     -20.372 -48.947 -51.437  1.00  0.00    -0.012 C 
HETATM    7  C19 UNL     1     -18.664 -49.083 -53.126  1.00  0.00     0.164 C 
HETATM    8  C31 UNL     1     -17.245 -48.583 -53.148  1.00  0.00     0.070 C 
HETATM    9  C32 UNL     1     -17.199 -47.058 -53.202  1.00  0.00     0.134 C 
HETATM   10  C33 UNL     1     -17.733 -46.511 -51.943  1.00  0.00     0.014 C 
HETATM   11  C34 UNL     1     -17.206 -47.256 -50.759  1.00  0.00     0.023 C 
ENDROOT
BRANCH   7  12
HETATM   12  O2  UNL     1     -19.325 -48.958 -54.365  1.00  0.00    -0.308 OA
BRANCH  12  13
HETATM   13  C20 UNL     1     -19.758 -50.106 -55.108  1.00  0.00     0.283 C 
HETATM   14  O3  UNL     1     -19.051 -50.269 -56.113  1.00  0.00    -0.260 OA
BRANCH  13  15
HETATM   15  C21 UNL     1     -20.855 -50.886 -54.675  1.00  0.00     0.083 C 
HETATM   16  C22 UNL     1     -22.039 -50.740 -54.237  1.00  0.00     0.017 C 
BRANCH  16  17
HETATM   17  C23 UNL     1     -22.959 -49.687 -53.927  1.00  0.00    -0.033 A 
HETATM   18  C24 UNL     1     -22.778 -48.445 -54.580  1.00  0.00     0.014 A 
HETATM   19  C25 UNL     1     -23.603 -47.383 -54.320  1.00  0.00     0.040 A 
HETATM   20  C26 UNL     1     -24.633 -47.497 -53.414  1.00  0.00     0.101 A 
HETATM   21  C28 UNL     1     -24.834 -48.687 -52.765  1.00  0.00     0.102 A 
HETATM   22  C30 UNL     1     -23.988 -49.759 -53.038  1.00  0.00     0.051 A 
BRANCH  20  23
HETATM   23  O4  UNL     1     -25.453 -46.385 -53.180  1.00  0.00    -0.353 OA
HETATM   24  C27 UNL     1     -26.757 -46.367 -53.722  1.00  0.00     0.210 C 
ENDBRANCH  20  23
BRANCH  21  25
HETATM   25  O5  UNL     1     -25.877 -48.777 -51.858  1.00  0.00    -0.353 OA
HETATM   26  C29 UNL     1     -25.729 -48.584 -50.472  1.00  0.00     0.210 C 
ENDBRANCH  21  25
ENDBRANCH  16  17
ENDBRANCH  13  15
ENDBRANCH  12  13
ENDBRANCH   7  12
BRANCH   6  27
HETATM   27  C15 UNL     1     -21.305 -48.488 -50.402  1.00  0.00    -0.033 C 
HETATM   28  C16 UNL     1     -20.545 -48.075 -49.132  1.00  0.00     0.018 C 
HETATM   29  C17 UNL     1     -22.183 -47.342 -50.763  1.00  0.00     0.018 C 
HETATM   30  C18 UNL     1     -22.165 -49.655 -49.965  1.00  0.00     0.018 C 
ENDBRANCH   6  27
BRANCH   9  31
HETATM   31  O6  UNL     1     -15.879 -46.758 -53.513  1.00  0.00    -0.394 OA
ATOM     32  H6  UNL     1     -15.635 -46.082 -52.893  1.00  0.00     0.210 HD
ENDBRANCH   9  31
BRANCH   2  33
HETATM   33  C6  UNL     1     -18.237 -44.110 -54.100  1.00  0.00    -0.019 C 
HETATM   34  C7  UNL     1     -18.734 -44.361 -55.338  1.00  0.00     0.006 C 
BRANCH  34  35
HETATM   35  C8  UNL     1     -18.162 -43.804 -56.578  1.00  0.00     0.068 C 
HETATM   36  C9  UNL     1     -19.109 -44.037 -57.742  1.00  0.00     0.050 C 
HETATM   37  C10 UNL     1     -17.954 -42.300 -56.493  1.00  0.00     0.050 C 
BRANCH  35  38
HETATM   38  O1  UNL     1     -16.923 -44.362 -56.906  1.00  0.00    -0.387 OA
ATOM     39  H1  UNL     1     -16.218 -43.725 -56.898  1.00  0.00     0.211 HD
ENDBRANCH  35  38
ENDBRANCH  34  35
ENDBRANCH   2  33
BRANCH   1  40
HETATM   40  C2  UNL     1     -16.824 -44.177 -51.452  1.00  0.00    -0.067 C 
HETATM   41  C1  UNL     1     -15.902 -43.749 -52.260  1.00  0.00     0.018 C 
HETATM   42  C3  UNL     1     -16.760 -43.681 -50.018  1.00  0.00     0.047 C 
ENDBRANCH   1  40
TORSDOF 12
ENDMDL
MODEL 3
REMARK VINA RESULT: -8.124107329      8.495     11.433
REMARK  12 active torsions:
REMARK  status: ('A' for Active; 'I' for Inactive)
REMARK    1  A    between atoms: C2_2  and  C4_4 
REMARK    2  A    between atoms: C5_5  and  C6_6 
REMARK    3  A    between atoms: C7_7  and  C8_8 
REMARK    4  A    between atoms: C8_8  and  O1_11 
REMARK    5  A    between atoms: C14_16  and  C15_17 
REMARK    6  A    between atoms: C19_21  and  O2_22 
REMARK    7  A    between atoms: O2_22  and  C20_23 
REMARK    8  A    between atoms: C20_23  and  C21_25 
REMARK    9  A    between atoms: C22_26  and  C23_27 
REMARK   10  A    between atoms: C26_30  and  O4_31 
REMARK   11  A    between atoms: C28_33  and  O5_34 
REMARK   12  A    between atoms: C32_38  and  O6_39 
ROOT
HETATM    1  C4  UNL     1     -16.764 -47.505 -52.084  1.00  0.00    -0.056 C 
HETATM    2  C5  UNL     1     -16.629 -47.811 -53.548  1.00  0.00     0.039 C 
HETATM    3  C11 UNL     1     -16.941 -46.467 -54.216  1.00  0.00     0.023 C 
HETATM    4  C12 UNL     1     -17.028 -45.489 -53.093  1.00  0.00     0.033 C 
HETATM    5  C13 UNL     1     -17.773 -44.261 -53.299  1.00  0.00    -0.048 C 
HETATM    6  C14 UNL     1     -17.209 -43.074 -53.349  1.00  0.00    -0.012 C 
HETATM    7  C19 UNL     1     -19.287 -44.283 -53.452  1.00  0.00     0.164 C 
HETATM    8  C31 UNL     1     -19.883 -45.317 -52.535  1.00  0.00     0.070 C 
HETATM    9  C32 UNL     1     -19.099 -46.626 -52.597  1.00  0.00     0.134 C 
HETATM   10  C33 UNL     1     -17.753 -46.412 -52.040  1.00  0.00     0.014 C 
HETATM   11  C34 UNL     1     -17.806 -45.605 -50.784  1.00  0.00     0.023 C 
ENDROOT
BRANCH   7  12
HETATM   12  O2  UNL     1     -19.527 -44.535 -54.818  1.00  0.00    -0.308 OA
BRANCH  12  13
HETATM   13  C20 UNL     1     -20.615 -45.363 -55.253  1.00  0.00     0.283 C 
HETATM   14  O3  UNL     1     -21.702 -44.811 -55.029  1.00  0.00    -0.260 OA
BRANCH  13  15
HETATM   15  C21 UNL     1     -20.381 -46.625 -55.847  1.00  0.00     0.083 C 
HETATM   16  C22 UNL     1     -20.723 -47.841 -55.711  1.00  0.00     0.017 C 
BRANCH  16  17
HETATM   17  C23 UNL     1     -21.554 -48.648 -54.868  1.00  0.00    -0.033 A 
HETATM   18  C24 UNL     1     -20.996 -49.838 -54.344  1.00  0.00     0.014 A 
HETATM   19  C25 UNL     1     -21.734 -50.674 -53.549  1.00  0.00     0.040 A 
HETATM   20  C26 UNL     1     -23.042 -50.377 -53.237  1.00  0.00     0.101 A 
HETATM   21  C28 UNL     1     -23.610 -49.231 -53.729  1.00  0.00     0.102 A 
HETATM   22  C30 UNL     1     -22.849 -48.390 -54.537  1.00  0.00     0.051 A 
BRANCH  20  23
HETATM   23  O4  UNL     1     -23.758 -51.260 -52.420  1.00  0.00    -0.353 OA
HETATM   24  C27 UNL     1     -23.373 -52.618 -52.374  1.00  0.00     0.210 C 
ENDBRANCH  20  23
BRANCH  21  25
HETATM   25  O5  UNL     1     -24.927 -48.954 -53.402  1.00  0.00    -0.353 OA
HETATM   26  C29 UNL     1     -25.440 -47.652 -53.256  1.00  0.00     0.210 C 
ENDBRANCH  21  25
ENDBRANCH  16  17
ENDBRANCH  13  15
ENDBRANCH  12  13
ENDBRANCH   7  12
BRANCH   6  27
HETATM   27  C15 UNL     1     -15.798 -42.694 -53.221  1.00  0.00    -0.033 C 
HETATM   28  C16 UNL     1     -15.626 -41.178 -53.402  1.00  0.00     0.018 C 
HETATM   29  C17 UNL     1     -15.131 -43.047 -51.939  1.00  0.00     0.018 C 
HETATM   30  C18 UNL     1     -15.021 -43.303 -54.369  1.00  0.00     0.018 C 
ENDBRANCH   6  27
BRANCH   9  31
HETATM   31  O6  UNL     1     -19.912 -47.550 -51.954  1.00  0.00    -0.394 OA
ATOM     32  H6  UNL     1     -20.009 -48.259 -52.579  1.00  0.00     0.210 HD
ENDBRANCH   9  31
BRANCH   2  33
HETATM   33  C6  UNL     1     -17.358 -48.949 -54.061  1.00  0.00    -0.019 C 
HETATM   34  C7  UNL     1     -16.808 -49.824 -54.941  1.00  0.00     0.006 C 
BRANCH  34  35
HETATM   35  C8  UNL     1     -17.521 -50.995 -55.486  1.00  0.00     0.068 C 
HETATM   36  C9  UNL     1     -18.507 -50.558 -56.554  1.00  0.00     0.050 C 
HETATM   37  C10 UNL     1     -16.578 -51.984 -56.155  1.00  0.00     0.050 C 
BRANCH  35  38
HETATM   38  O1  UNL     1     -18.222 -51.708 -54.510  1.00  0.00    -0.387 OA
ATOM     39  H1  UNL     1     -18.424 -52.598 -54.775  1.00  0.00     0.211 HD
ENDBRANCH  35  38
ENDBRANCH  34  35
ENDBRANCH   2  33
BRANCH   1  40
HETATM   40  C2  UNL     1     -16.734 -48.576 -51.148  1.00  0.00    -0.067 C 
HETATM   41  C1  UNL     1     -17.378 -48.626 -50.023  1.00  0.00     0.018 C 
HETATM   42  C3  UNL     1     -15.882 -49.784 -51.501  1.00  0.00     0.047 C 
ENDBRANCH   1  40
TORSDOF 12
ENDMDL
MODEL 4
REMARK VINA RESULT: -8.044152552      8.076     12.709
REMARK  12 active torsions:
REMARK  status: ('A' for Active; 'I' for Inactive)
REMARK    1  A    between atoms: C2_2  and  C4_4 
REMARK    2  A    between atoms: C5_5  and  C6_6 
REMARK    3  A    between atoms: C7_7  and  C8_8 
REMARK    4  A    between atoms: C8_8  and  O1_11 
REMARK    5  A    between atoms: C14_16  and  C15_17 
REMARK    6  A    between atoms: C19_21  and  O2_22 
REMARK    7  A    between atoms: O2_22  and  C20_23 
REMARK    8  A    between atoms: C20_23  and  C21_25 
REMARK    9  A    between atoms: C22_26  and  C23_27 
REMARK   10  A    between atoms: C26_30  and  O4_31 
REMARK   11  A    between atoms: C28_33  and  O5_34 
REMARK   12  A    between atoms: C32_38  and  O6_39 
ROOT
HETATM    1  C4  UNL     1     -17.791 -49.556 -51.429  1.00  0.00    -0.056 C 
HETATM    2  C5  UNL     1     -19.289 -49.517 -51.334  1.00  0.00     0.039 C 
HETATM    3  C11 UNL     1     -19.728 -49.356 -52.794  1.00  0.00     0.023 C 
HETATM    4  C12 UNL     1     -18.478 -49.515 -53.593  1.00  0.00     0.033 C 
HETATM    5  C13 UNL     1     -18.430 -48.950 -54.928  1.00  0.00    -0.048 C 
HETATM    6  C14 UNL     1     -18.375 -49.680 -56.020  1.00  0.00    -0.012 C 
HETATM    7  C19 UNL     1     -18.423 -47.443 -55.137  1.00  0.00     0.164 C 
HETATM    8  C31 UNL     1     -17.599 -46.778 -54.068  1.00  0.00     0.070 C 
HETATM    9  C32 UNL     1     -17.925 -47.346 -52.689  1.00  0.00     0.134 C 
HETATM   10  C33 UNL     1     -17.491 -48.752 -52.628  1.00  0.00     0.014 C 
HETATM   11  C34 UNL     1     -16.136 -48.930 -53.233  1.00  0.00     0.023 C 
ENDROOT
BRANCH   7  12
HETATM   12  O2  UNL     1     -19.776 -47.051 -55.132  1.00  0.00    -0.308 OA
BRANCH  12  13
HETATM   13  C20 UNL     1     -20.164 -45.674 -55.245  1.00  0.00     0.283 C 
HETATM   14  O3  UNL     1     -20.715 -45.287 -54.205  1.00  0.00    -0.260 OA
BRANCH  13  15
HETATM   15  C21 UNL     1     -19.909 -44.938 -56.426  1.00  0.00     0.083 C 
HETATM   16  C22 UNL     1     -19.092 -44.076 -56.876  1.00  0.00     0.017 C 
BRANCH  16  17
HETATM   17  C23 UNL     1     -17.939 -43.344 -56.444  1.00  0.00    -0.033 A 
HETATM   18  C24 UNL     1     -16.964 -43.021 -57.418  1.00  0.00     0.014 A 
HETATM   19  C25 UNL     1     -15.824 -42.343 -57.079  1.00  0.00     0.040 A 
HETATM   20  C26 UNL     1     -15.596 -41.955 -55.778  1.00  0.00     0.101 A 
HETATM   21  C28 UNL     1     -16.521 -42.252 -54.812  1.00  0.00     0.102 A 
HETATM   22  C30 UNL     1     -17.676 -42.943 -55.170  1.00  0.00     0.051 A 
BRANCH  20  23
HETATM   23  O4  UNL     1     -14.417 -41.262 -55.478  1.00  0.00    -0.353 OA
HETATM   24  C27 UNL     1     -14.103 -40.093 -56.206  1.00  0.00     0.210 C 
ENDBRANCH  20  23
BRANCH  21  25
HETATM   25  O5  UNL     1     -16.269 -41.851 -53.511  1.00  0.00    -0.353 OA
HETATM   26  C29 UNL     1     -15.792 -42.712 -52.505  1.00  0.00     0.210 C 
ENDBRANCH  21  25
ENDBRANCH  16  17
ENDBRANCH  13  15
ENDBRANCH  12  13
ENDBRANCH   7  12
BRANCH   6  27
HETATM   27  C15 UNL     1     -18.349 -51.139 -56.178  1.00  0.00    -0.033 C 
HETATM   28  C16 UNL     1     -16.988 -51.706 -55.745  1.00  0.00     0.018 C 
HETATM   29  C17 UNL     1     -19.384 -51.904 -55.433  1.00  0.00     0.018 C 
HETATM   30  C18 UNL     1     -18.447 -51.474 -57.651  1.00  0.00     0.018 C 
ENDBRANCH   6  27
BRANCH   9  31
HETATM   31  O6  UNL     1     -17.332 -46.461 -51.797  1.00  0.00    -0.394 OA
ATOM     32  H6  UNL     1     -17.688 -46.701 -50.950  1.00  0.00     0.210 HD
ENDBRANCH   9  31
BRANCH   2  33
HETATM   33  C6  UNL     1     -19.874 -48.583 -50.398  1.00  0.00    -0.019 C 
HETATM   34  C7  UNL     1     -20.813 -47.678 -50.771  1.00  0.00     0.006 C 
BRANCH  34  35
HETATM   35  C8  UNL     1     -21.431 -46.710 -49.845  1.00  0.00     0.068 C 
HETATM   36  C9  UNL     1     -21.555 -47.317 -48.459  1.00  0.00     0.050 C 
HETATM   37  C10 UNL     1     -20.594 -45.450 -49.686  1.00  0.00     0.050 C 
BRANCH  35  38
HETATM   38  O1  UNL     1     -22.701 -46.297 -50.256  1.00  0.00    -0.387 OA
ATOM     39  H1  UNL     1     -23.358 -46.388 -49.576  1.00  0.00     0.211 HD
ENDBRANCH  35  38
ENDBRANCH  34  35
ENDBRANCH   2  33
BRANCH   1  40
HETATM   40  C2  UNL     1     -17.021 -49.504 -50.234  1.00  0.00    -0.067 C 
HETATM   41  C1  UNL     1     -16.982 -48.516 -49.393  1.00  0.00     0.018 C 
HETATM   42  C3  UNL     1     -16.176 -50.721 -49.899  1.00  0.00     0.047 C 
ENDBRANCH   1  40
TORSDOF 12
ENDMDL
MODEL 5
REMARK VINA RESULT: -7.922101402      5.180      7.436
REMARK  12 active torsions:
REMARK  status: ('A' for Active; 'I' for Inactive)
REMARK    1  A    between atoms: C2_2  and  C4_4 
REMARK    2  A    between atoms: C5_5  and  C6_6 
REMARK    3  A    between atoms: C7_7  and  C8_8 
REMARK    4  A    between atoms: C8_8  and  O1_11 
REMARK    5  A    between atoms: C14_16  and  C15_17 
REMARK    6  A    between atoms: C19_21  and  O2_22 
REMARK    7  A    between atoms: O2_22  and  C20_23 
REMARK    8  A    between atoms: C20_23  and  C21_25 
REMARK    9  A    between atoms: C22_26  and  C23_27 
REMARK   10  A    between atoms: C26_30  and  O4_31 
REMARK   11  A    between atoms: C28_33  and  O5_34 
REMARK   12  A    between atoms: C32_38  and  O6_39 
ROOT
HETATM    1  C4  UNL     1     -19.067 -47.943 -54.280  1.00  0.00    -0.056 C 
HETATM    2  C5  UNL     1     -20.176 -46.990 -54.622  1.00  0.00     0.039 C 
HETATM    3  C11 UNL     1     -19.979 -45.850 -53.617  1.00  0.00     0.023 C 
HETATM    4  C12 UNL     1     -18.685 -46.151 -52.938  1.00  0.00     0.033 C 
HETATM    5  C13 UNL     1     -18.437 -45.577 -51.630  1.00  0.00    -0.048 C 
HETATM    6  C14 UNL     1     -17.524 -44.658 -51.406  1.00  0.00    -0.012 C 
HETATM    7  C19 UNL     1     -19.230 -46.034 -50.414  1.00  0.00     0.164 C 
HETATM    8  C31 UNL     1     -19.481 -47.516 -50.490  1.00  0.00     0.070 C 
HETATM    9  C32 UNL     1     -19.941 -47.925 -51.887  1.00  0.00     0.134 C 
HETATM   10  C33 UNL     1     -18.838 -47.718 -52.841  1.00  0.00     0.014 C 
HETATM   11  C34 UNL     1     -17.538 -48.203 -52.284  1.00  0.00     0.023 C 
ENDROOT
BRANCH   7  12
HETATM   12  O2  UNL     1     -20.408 -45.261 -50.415  1.00  0.00    -0.308 OA
BRANCH  12  13
HETATM   13  C20 UNL     1     -21.454 -45.478 -49.457  1.00  0.00     0.283 C 
HETATM   14  O3  UNL     1     -22.498 -45.836 -50.021  1.00  0.00    -0.260 OA
BRANCH  13  15
HETATM   15  C21 UNL     1     -21.230 -45.283 -48.074  1.00  0.00     0.083 C 
HETATM   16  C22 UNL     1     -21.853 -44.909 -47.032  1.00  0.00     0.017 C 
BRANCH  16  17
HETATM   17  C23 UNL     1     -23.160 -44.463 -46.650  1.00  0.00    -0.033 A 
HETATM   18  C24 UNL     1     -24.270 -45.198 -47.131  1.00  0.00     0.014 A 
HETATM   19  C25 UNL     1     -25.551 -44.822 -46.828  1.00  0.00     0.040 A 
HETATM   20  C26 UNL     1     -25.794 -43.716 -46.045  1.00  0.00     0.101 A 
HETATM   21  C28 UNL     1     -24.741 -42.984 -45.564  1.00  0.00     0.102 A 
HETATM   22  C30 UNL     1     -23.442 -43.377 -45.880  1.00  0.00     0.051 A 
BRANCH  20  23
HETATM   23  O4  UNL     1     -27.121 -43.370 -45.760  1.00  0.00    -0.353 OA
HETATM   24  C27 UNL     1     -27.702 -43.813 -44.552  1.00  0.00     0.210 C 
ENDBRANCH  20  23
BRANCH  21  25
HETATM   25  O5  UNL     1     -25.011 -41.876 -44.778  1.00  0.00    -0.353 OA
HETATM   26  C29 UNL     1     -24.927 -41.873 -43.374  1.00  0.00     0.210 C 
ENDBRANCH  21  25
ENDBRANCH  16  17
ENDBRANCH  13  15
ENDBRANCH  12  13
ENDBRANCH   7  12
BRANCH   6  27
HETATM   27  C15 UNL     1     -16.585 -44.016 -52.333  1.00  0.00    -0.033 C 
HETATM   28  C16 UNL     1     -15.475 -43.286 -51.561  1.00  0.00     0.018 C 
HETATM   29  C17 UNL     1     -15.906 -44.909 -53.310  1.00  0.00     0.018 C 
HETATM   30  C18 UNL     1     -17.309 -42.919 -53.082  1.00  0.00     0.018 C 
ENDBRANCH   6  27
BRANCH   9  31
HETATM   31  O6  UNL     1     -20.410 -49.223 -51.734  1.00  0.00    -0.394 OA
ATOM     32  H6  UNL     1     -20.759 -49.454 -52.587  1.00  0.00     0.210 HD
ENDBRANCH   9  31
BRANCH   2  33
HETATM   33  C6  UNL     1     -21.515 -47.528 -54.704  1.00  0.00    -0.019 C 
HETATM   34  C7  UNL     1     -22.516 -47.105 -53.891  1.00  0.00     0.006 C 
BRANCH  34  35
HETATM   35  C8  UNL     1     -23.893 -47.630 -53.946  1.00  0.00     0.068 C 
HETATM   36  C9  UNL     1     -23.935 -48.905 -54.769  1.00  0.00     0.050 C 
HETATM   37  C10 UNL     1     -24.426 -47.994 -52.569  1.00  0.00     0.050 C 
BRANCH  35  38
HETATM   38  O1  UNL     1     -24.801 -46.723 -54.499  1.00  0.00    -0.387 OA
ATOM     39  H1  UNL     1     -25.664 -46.778 -54.107  1.00  0.00     0.211 HD
ENDBRANCH  35  38
ENDBRANCH  34  35
ENDBRANCH   2  33
BRANCH   1  40
HETATM   40  C2  UNL     1     -19.048 -49.229 -54.887  1.00  0.00    -0.067 C 
HETATM   41  C1  UNL     1     -20.012 -50.098 -54.867  1.00  0.00     0.018 C 
HETATM   42  C3  UNL     1     -17.791 -49.621 -55.645  1.00  0.00     0.047 C 
ENDBRANCH   1  40
TORSDOF 12
ENDMDL
