MODEL 1
REMARK VINA RESULT: -9.629868564      0.000      0.000
REMARK  15 active torsions:
REMARK  status: ('A' for Active; 'I' for Inactive)
REMARK    1  A    between atoms: C4_4  and  C5_5 
REMARK    2  A    between atoms: C5_5  and  C6_6 
REMARK    3  A    between atoms: C9_9  and  C10_10 
REMARK    4  A    between atoms: C10_10  and  C11_11 
REMARK    5  A    between atoms: C11_11  and  C12_12 
REMARK    6  A    between atoms: C12_12  and  C14_14 
REMARK    7  A    between atoms: C14_14  and  C15_15 
REMARK    8  A    between atoms: C15_15  and  C17_17 
REMARK    9  A    between atoms: C17_17  and  C18_18 
REMARK   10  A    between atoms: C18_18  and  O1_19 
REMARK   11  A    between atoms: C18_18  and  O2_21 
REMARK   12  A    between atoms: O2_21  and  C19_22 
REMARK   13  A    between atoms: C19_22  and  C20_24 
REMARK   14  A    between atoms: C32_37  and  O5_38 
REMARK   15  A    between atoms: C33_40  and  O6_42 
ROOT
HETATM    1  C11 UNL     1     -24.892 -44.484 -49.039  1.00  0.00     0.007 C 
ENDROOT
BRANCH   1   2
HETATM    2  C10 UNL     1     -25.123 -43.521 -48.164  1.00  0.00     0.001 C 
BRANCH   2   3
HETATM    3  C9  UNL     1     -26.301 -43.391 -47.362  1.00  0.00     0.011 C 
HETATM    4  C8  UNL     1     -26.362 -43.569 -46.079  1.00  0.00    -0.011 C 
HETATM    5  C7  UNL     1     -27.703 -43.407 -45.435  1.00  0.00     0.050 C 
HETATM    6  C29 UNL     1     -25.136 -43.821 -45.329  1.00  0.00     0.162 C 
HETATM    7  C6  UNL     1     -27.568 -43.627 -43.943  1.00  0.00     0.030 C 
HETATM    8  C33 UNL     1     -26.952 -42.443 -43.324  1.00  0.00     0.085 C 
HETATM    9  C32 UNL     1     -25.497 -42.640 -43.099  1.00  0.00     0.163 C 
HETATM   10  C34 UNL     1     -27.550 -42.188 -41.919  1.00  0.00     0.049 C 
HETATM   11  C30 UNL     1     -24.599 -43.066 -44.165  1.00  0.00     0.088 C 
HETATM   12  C31 UNL     1     -23.737 -41.882 -44.692  1.00  0.00     0.021 C 
HETATM   13  O4  UNL     1     -24.469 -44.798 -45.734  1.00  0.00    -0.292 OA
BRANCH   7  14
HETATM   14  C5  UNL     1     -28.747 -44.263 -43.328  1.00  0.00     0.035 C 
BRANCH  14  15
HETATM   15  C4  UNL     1     -28.442 -45.595 -42.753  1.00  0.00    -0.024 C 
HETATM   16  C2  UNL     1     -28.928 -45.994 -41.611  1.00  0.00    -0.091 C 
HETATM   17  C1  UNL     1     -29.827 -45.109 -40.807  1.00  0.00     0.042 C 
HETATM   18  C3  UNL     1     -28.610 -47.346 -41.047  1.00  0.00     0.042 C 
ENDBRANCH  14  15
ENDBRANCH   7  14
BRANCH   8  19
HETATM   19  O6  UNL     1     -27.273 -41.291 -44.055  1.00  0.00    -0.387 OA
ATOM     20  H6  UNL     1     -27.371 -41.504 -44.975  1.00  0.00     0.210 HD
ENDBRANCH   8  19
BRANCH   9  21
HETATM   21  O5  UNL     1     -24.930 -41.470 -42.522  1.00  0.00    -0.392 OA
ATOM     22  H5  UNL     1     -25.373 -40.726 -42.914  1.00  0.00     0.210 HD
ENDBRANCH   9  21
ENDBRANCH   2   3
ENDBRANCH   1   2
BRANCH   1  23
HETATM   23  C12 UNL     1     -23.712 -45.133 -49.386  1.00  0.00    -0.061 C 
HETATM   24  C13 UNL     1     -24.682 -46.331 -50.460  1.00  0.00     0.048 C 
BRANCH  23  25
HETATM   25  C14 UNL     1     -22.667 -45.707 -49.696  1.00  0.00     0.013 C 
BRANCH  25  26
HETATM   26  C15 UNL     1     -21.332 -45.572 -49.089  1.00  0.00    -0.057 C 
HETATM   27  C16 UNL     1     -21.273 -45.223 -47.635  1.00  0.00     0.048 C 
BRANCH  26  28
HETATM   28  C17 UNL     1     -20.208 -45.869 -49.704  1.00  0.00     0.070 C 
BRANCH  28  29
HETATM   29  C18 UNL     1     -19.430 -44.949 -50.492  1.00  0.00     0.186 C 
BRANCH  29  30
HETATM   30  O1  UNL     1     -18.747 -44.043 -49.851  1.00  0.00    -0.341 OA
ATOM     31  H1  UNL     1     -17.821 -43.973 -50.052  1.00  0.00     0.220 HD
ENDBRANCH  29  30
BRANCH  29  32
HETATM   32  O2  UNL     1     -19.298 -44.870 -51.838  1.00  0.00    -0.255 OA
BRANCH  32  33
HETATM   33  C19 UNL     1     -18.446 -44.145 -52.594  1.00  0.00     0.274 C 
HETATM   34  O3  UNL     1     -18.504 -42.880 -52.502  1.00  0.00    -0.264 OA
BRANCH  33  35
HETATM   35  C20 UNL     1     -17.466 -44.812 -53.530  1.00  0.00     0.045 C 
HETATM   36  C21 UNL     1     -16.815 -45.973 -52.865  1.00  0.00     0.026 C 
HETATM   37  C22 UNL     1     -16.510 -43.845 -54.114  1.00  0.00     0.020 C 
HETATM   38  C23 UNL     1     -16.379 -43.994 -55.592  1.00  0.00     0.010 C 
HETATM   39  C24 UNL     1     -17.676 -43.643 -56.281  1.00  0.00    -0.048 C 
HETATM   40  C25 UNL     1     -17.825 -42.146 -56.316  1.00  0.00     0.015 C 
HETATM   41  C26 UNL     1     -17.667 -44.186 -57.676  1.00  0.00     0.015 C 
HETATM   42  C27 UNL     1     -18.849 -44.215 -55.488  1.00  0.00     0.010 C 
HETATM   43  C28 UNL     1     -18.333 -45.400 -54.676  1.00  0.00     0.020 C 
ENDBRANCH  33  35
ENDBRANCH  32  33
ENDBRANCH  29  32
ENDBRANCH  28  29
ENDBRANCH  26  28
ENDBRANCH  25  26
ENDBRANCH  23  25
ENDBRANCH   1  23
TORSDOF 15
ENDMDL
MODEL 2
REMARK VINA RESULT: -9.423179469      0.753      2.122
REMARK  15 active torsions:
REMARK  status: ('A' for Active; 'I' for Inactive)
REMARK    1  A    between atoms: C4_4  and  C5_5 
REMARK    2  A    between atoms: C5_5  and  C6_6 
REMARK    3  A    between atoms: C9_9  and  C10_10 
REMARK    4  A    between atoms: C10_10  and  C11_11 
REMARK    5  A    between atoms: C11_11  and  C12_12 
REMARK    6  A    between atoms: C12_12  and  C14_14 
REMARK    7  A    between atoms: C14_14  and  C15_15 
REMARK    8  A    between atoms: C15_15  and  C17_17 
REMARK    9  A    between atoms: C17_17  and  C18_18 
REMARK   10  A    between atoms: C18_18  and  O1_19 
REMARK   11  A    between atoms: C18_18  and  O2_21 
REMARK   12  A    between atoms: O2_21  and  C19_22 
REMARK   13  A    between atoms: C19_22  and  C20_24 
REMARK   14  A    between atoms: C32_37  and  O5_38 
REMARK   15  A    between atoms: C33_40  and  O6_42 
ROOT
HETATM    1  C11 UNL     1     -24.872 -44.710 -49.098  1.00  0.00     0.007 C 
ENDROOT
BRANCH   1   2
HETATM    2  C10 UNL     1     -25.120 -43.683 -48.306  1.00  0.00     0.001 C 
BRANCH   2   3
HETATM    3  C9  UNL     1     -26.281 -43.527 -47.484  1.00  0.00     0.011 C 
HETATM    4  C8  UNL     1     -26.307 -43.626 -46.191  1.00  0.00    -0.011 C 
HETATM    5  C7  UNL     1     -27.636 -43.452 -45.524  1.00  0.00     0.050 C 
HETATM    6  C29 UNL     1     -25.059 -43.805 -45.457  1.00  0.00     0.162 C 
HETATM    7  C6  UNL     1     -27.461 -43.576 -44.025  1.00  0.00     0.030 C 
HETATM    8  C33 UNL     1     -26.857 -42.343 -43.496  1.00  0.00     0.085 C 
HETATM    9  C32 UNL     1     -25.393 -42.495 -43.297  1.00  0.00     0.163 C 
HETATM   10  C34 UNL     1     -27.427 -42.014 -42.096  1.00  0.00     0.049 C 
HETATM   11  C30 UNL     1     -24.511 -42.969 -44.357  1.00  0.00     0.088 C 
HETATM   12  C31 UNL     1     -23.688 -41.802 -44.977  1.00  0.00     0.021 C 
HETATM   13  O4  UNL     1     -24.380 -44.792 -45.818  1.00  0.00    -0.292 OA
BRANCH   7  14
HETATM   14  C5  UNL     1     -28.610 -44.198 -43.343  1.00  0.00     0.035 C 
BRANCH  14  15
HETATM   15  C4  UNL     1     -28.273 -45.504 -42.729  1.00  0.00    -0.024 C 
HETATM   16  C2  UNL     1     -28.871 -45.953 -41.663  1.00  0.00    -0.091 C 
HETATM   17  C1  UNL     1     -29.942 -45.156 -40.988  1.00  0.00     0.042 C 
HETATM   18  C3  UNL     1     -28.516 -47.279 -41.059  1.00  0.00     0.042 C 
ENDBRANCH  14  15
ENDBRANCH   7  14
BRANCH   8  19
HETATM   19  O6  UNL     1     -27.221 -41.247 -44.289  1.00  0.00    -0.387 OA
ATOM     20  H6  UNL     1     -28.074 -41.393 -44.680  1.00  0.00     0.210 HD
ENDBRANCH   8  19
BRANCH   9  21
HETATM   21  O5  UNL     1     -24.839 -41.280 -42.808  1.00  0.00    -0.392 OA
ATOM     22  H5  UNL     1     -24.588 -40.765 -43.565  1.00  0.00     0.210 HD
ENDBRANCH   9  21
ENDBRANCH   2   3
ENDBRANCH   1   2
BRANCH   1  23
HETATM   23  C12 UNL     1     -23.671 -45.318 -49.449  1.00  0.00    -0.061 C 
HETATM   24  C13 UNL     1     -24.586 -46.444 -50.644  1.00  0.00     0.048 C 
BRANCH  23  25
HETATM   25  C14 UNL     1     -22.608 -45.857 -49.762  1.00  0.00     0.013 C 
BRANCH  25  26
HETATM   26  C15 UNL     1     -21.255 -45.575 -49.256  1.00  0.00    -0.057 C 
HETATM   27  C16 UNL     1     -21.124 -45.224 -47.808  1.00  0.00     0.048 C 
BRANCH  26  28
HETATM   28  C17 UNL     1     -20.155 -45.745 -49.957  1.00  0.00     0.070 C 
BRANCH  28  29
HETATM   29  C18 UNL     1     -19.464 -44.706 -50.675  1.00  0.00     0.186 C 
BRANCH  29  30
HETATM   30  O1  UNL     1     -18.599 -43.994 -50.010  1.00  0.00    -0.341 OA
ATOM     31  H1  UNL     1     -17.725 -44.352 -49.909  1.00  0.00     0.220 HD
ENDBRANCH  29  30
BRANCH  29  32
HETATM   32  O2  UNL     1     -19.582 -44.335 -51.972  1.00  0.00    -0.255 OA
BRANCH  32  33
HETATM   33  C19 UNL     1     -18.653 -43.886 -52.844  1.00  0.00     0.274 C 
HETATM   34  O3  UNL     1     -18.240 -42.693 -52.703  1.00  0.00    -0.264 OA
BRANCH  33  35
HETATM   35  C20 UNL     1     -18.133 -44.763 -53.958  1.00  0.00     0.045 C 
HETATM   36  C21 UNL     1     -18.191 -44.044 -55.259  1.00  0.00     0.026 C 
HETATM   37  C22 UNL     1     -18.795 -46.086 -53.977  1.00  0.00     0.020 C 
HETATM   38  C23 UNL     1     -17.821 -47.210 -54.084  1.00  0.00     0.010 C 
HETATM   39  C24 UNL     1     -16.954 -47.285 -52.850  1.00  0.00    -0.048 C 
HETATM   40  C25 UNL     1     -17.745 -47.907 -51.730  1.00  0.00     0.015 C 
HETATM   41  C26 UNL     1     -15.741 -48.114 -53.137  1.00  0.00     0.015 C 
HETATM   42  C27 UNL     1     -16.555 -45.876 -52.418  1.00  0.00     0.010 C 
HETATM   43  C28 UNL     1     -16.627 -44.971 -53.645  1.00  0.00     0.020 C 
ENDBRANCH  33  35
ENDBRANCH  32  33
ENDBRANCH  29  32
ENDBRANCH  28  29
ENDBRANCH  26  28
ENDBRANCH  25  26
ENDBRANCH  23  25
ENDBRANCH   1  23
TORSDOF 15
ENDMDL
MODEL 3
REMARK VINA RESULT: -8.918228719      2.722      4.700
REMARK  15 active torsions:
REMARK  status: ('A' for Active; 'I' for Inactive)
REMARK    1  A    between atoms: C4_4  and  C5_5 
REMARK    2  A    between atoms: C5_5  and  C6_6 
REMARK    3  A    between atoms: C9_9  and  C10_10 
REMARK    4  A    between atoms: C10_10  and  C11_11 
REMARK    5  A    between atoms: C11_11  and  C12_12 
REMARK    6  A    between atoms: C12_12  and  C14_14 
REMARK    7  A    between atoms: C14_14  and  C15_15 
REMARK    8  A    between atoms: C15_15  and  C17_17 
REMARK    9  A    between atoms: C17_17  and  C18_18 
REMARK   10  A    between atoms: C18_18  and  O1_19 
REMARK   11  A    between atoms: C18_18  and  O2_21 
REMARK   12  A    between atoms: O2_21  and  C19_22 
REMARK   13  A    between atoms: C19_22  and  C20_24 
REMARK   14  A    between atoms: C32_37  and  O5_38 
REMARK   15  A    between atoms: C33_40  and  O6_42 
ROOT
HETATM    1  C11 UNL     1     -25.211 -47.910 -52.760  1.00  0.00     0.007 C 
ENDROOT
BRANCH   1   2
HETATM    2  C10 UNL     1     -25.924 -47.279 -51.844  1.00  0.00     0.001 C 
BRANCH   2   3
HETATM    3  C9  UNL     1     -25.565 -46.045 -51.215  1.00  0.00     0.011 C 
HETATM    4  C8  UNL     1     -25.252 -45.901 -49.965  1.00  0.00    -0.011 C 
HETATM    5  C7  UNL     1     -24.932 -44.514 -49.502  1.00  0.00     0.050 C 
HETATM    6  C29 UNL     1     -25.140 -47.078 -49.110  1.00  0.00     0.162 C 
HETATM    7  C6  UNL     1     -24.569 -44.551 -48.032  1.00  0.00     0.030 C 
HETATM    8  C33 UNL     1     -23.209 -45.088 -47.873  1.00  0.00     0.085 C 
HETATM    9  C32 UNL     1     -23.230 -46.529 -47.514  1.00  0.00     0.163 C 
HETATM   10  C34 UNL     1     -22.478 -44.387 -46.703  1.00  0.00     0.049 C 
HETATM   11  C30 UNL     1     -23.977 -47.511 -48.290  1.00  0.00     0.088 C 
HETATM   12  C31 UNL     1     -23.033 -48.374 -49.178  1.00  0.00     0.021 C 
HETATM   13  O4  UNL     1     -26.161 -47.800 -49.081  1.00  0.00    -0.292 OA
BRANCH   7  14
HETATM   14  C5  UNL     1     -24.990 -43.351 -47.287  1.00  0.00     0.035 C 
BRANCH  14  15
HETATM   15  C4  UNL     1     -26.331 -43.501 -46.672  1.00  0.00    -0.024 C 
HETATM   16  C2  UNL     1     -26.591 -43.116 -45.455  1.00  0.00    -0.091 C 
HETATM   17  C1  UNL     1     -25.530 -42.500 -44.599  1.00  0.00     0.042 C 
HETATM   18  C3  UNL     1     -27.954 -43.275 -44.852  1.00  0.00     0.042 C 
ENDBRANCH  14  15
ENDBRANCH   7  14
BRANCH   8  19
HETATM   19  O6  UNL     1     -22.434 -44.786 -49.001  1.00  0.00    -0.387 OA
ATOM     20  H6  UNL     1     -22.075 -45.582 -49.376  1.00  0.00     0.210 HD
ENDBRANCH   8  19
BRANCH   9  21
HETATM   21  O5  UNL     1     -21.901 -47.021 -47.392  1.00  0.00    -0.392 OA
ATOM     22  H5  UNL     1     -21.905 -47.658 -46.687  1.00  0.00     0.210 HD
ENDBRANCH   9  21
ENDBRANCH   2   3
ENDBRANCH   1   2
BRANCH   1  23
HETATM   23  C12 UNL     1     -23.835 -48.016 -52.927  1.00  0.00    -0.061 C 
HETATM   24  C13 UNL     1     -24.090 -49.356 -54.219  1.00  0.00     0.048 C 
BRANCH  23  25
HETATM   25  C14 UNL     1     -22.616 -48.109 -53.078  1.00  0.00     0.013 C 
BRANCH  25  26
HETATM   26  C15 UNL     1     -21.584 -47.082 -52.854  1.00  0.00    -0.057 C 
HETATM   27  C16 UNL     1     -21.102 -46.322 -54.049  1.00  0.00     0.048 C 
BRANCH  26  28
HETATM   28  C17 UNL     1     -21.167 -46.704 -51.665  1.00  0.00     0.070 C 
BRANCH  28  29
HETATM   29  C18 UNL     1     -20.007 -45.887 -51.419  1.00  0.00     0.186 C 
BRANCH  29  30
HETATM   30  O1  UNL     1     -20.212 -44.644 -51.086  1.00  0.00    -0.341 OA
ATOM     31  H1  UNL     1     -20.371 -44.025 -51.790  1.00  0.00     0.220 HD
ENDBRANCH  29  30
BRANCH  29  32
HETATM   32  O2  UNL     1     -18.695 -46.216 -51.488  1.00  0.00    -0.255 OA
BRANCH  32  33
HETATM   33  C19 UNL     1     -17.604 -45.439 -51.662  1.00  0.00     0.274 C 
HETATM   34  O3  UNL     1     -17.313 -44.616 -50.740  1.00  0.00    -0.264 OA
BRANCH  33  35
HETATM   35  C20 UNL     1     -16.767 -45.530 -52.916  1.00  0.00     0.045 C 
HETATM   36  C21 UNL     1     -16.208 -46.900 -53.072  1.00  0.00     0.026 C 
HETATM   37  C22 UNL     1     -15.748 -44.459 -52.982  1.00  0.00     0.020 C 
HETATM   38  C23 UNL     1     -15.730 -43.770 -54.305  1.00  0.00     0.010 C 
HETATM   39  C24 UNL     1     -17.021 -43.022 -54.536  1.00  0.00    -0.048 C 
HETATM   40  C25 UNL     1     -17.004 -41.751 -53.730  1.00  0.00     0.015 C 
HETATM   41  C26 UNL     1     -17.161 -42.700 -55.991  1.00  0.00     0.015 C 
HETATM   42  C27 UNL     1     -18.196 -43.869 -54.056  1.00  0.00     0.010 C 
HETATM   43  C28 UNL     1     -17.765 -45.333 -54.088  1.00  0.00     0.020 C 
ENDBRANCH  33  35
ENDBRANCH  32  33
ENDBRANCH  29  32
ENDBRANCH  28  29
ENDBRANCH  26  28
ENDBRANCH  25  26
ENDBRANCH  23  25
ENDBRANCH   1  23
TORSDOF 15
ENDMDL
MODEL 4
REMARK VINA RESULT: -8.908922967      4.612      9.769
REMARK  15 active torsions:
REMARK  status: ('A' for Active; 'I' for Inactive)
REMARK    1  A    between atoms: C4_4  and  C5_5 
REMARK    2  A    between atoms: C5_5  and  C6_6 
REMARK    3  A    between atoms: C9_9  and  C10_10 
REMARK    4  A    between atoms: C10_10  and  C11_11 
REMARK    5  A    between atoms: C11_11  and  C12_12 
REMARK    6  A    between atoms: C12_12  and  C14_14 
REMARK    7  A    between atoms: C14_14  and  C15_15 
REMARK    8  A    between atoms: C15_15  and  C17_17 
REMARK    9  A    between atoms: C17_17  and  C18_18 
REMARK   10  A    between atoms: C18_18  and  O1_19 
REMARK   11  A    between atoms: C18_18  and  O2_21 
REMARK   12  A    between atoms: O2_21  and  C19_22 
REMARK   13  A    between atoms: C19_22  and  C20_24 
REMARK   14  A    between atoms: C32_37  and  O5_38 
REMARK   15  A    between atoms: C33_40  and  O6_42 
ROOT
HETATM    1  C11 UNL     1     -24.231 -49.632 -44.906  1.00  0.00     0.007 C 
ENDROOT
BRANCH   1   2
HETATM    2  C10 UNL     1     -25.412 -49.924 -45.422  1.00  0.00     0.001 C 
BRANCH   2   3
HETATM    3  C9  UNL     1     -26.114 -49.137 -46.390  1.00  0.00     0.011 C 
HETATM    4  C8  UNL     1     -26.377 -49.499 -47.607  1.00  0.00    -0.011 C 
HETATM    5  C7  UNL     1     -27.103 -48.512 -48.466  1.00  0.00     0.050 C 
HETATM    6  C29 UNL     1     -26.044 -50.851 -48.043  1.00  0.00     0.162 C 
HETATM    7  C6  UNL     1     -27.339 -49.121 -49.832  1.00  0.00     0.030 C 
HETATM    8  C33 UNL     1     -28.437 -50.098 -49.753  1.00  0.00     0.085 C 
HETATM    9  C32 UNL     1     -27.923 -51.488 -49.643  1.00  0.00     0.163 C 
HETATM   10  C34 UNL     1     -29.281 -50.077 -51.050  1.00  0.00     0.049 C 
HETATM   11  C30 UNL     1     -26.947 -51.876 -48.632  1.00  0.00     0.088 C 
HETATM   12  C31 UNL     1     -27.612 -52.680 -47.477  1.00  0.00     0.021 C 
HETATM   13  O4  UNL     1     -24.843 -51.167 -47.891  1.00  0.00    -0.292 OA
BRANCH   7  14
HETATM   14  C5  UNL     1     -27.287 -48.144 -50.935  1.00  0.00     0.035 C 
BRANCH  14  15
HETATM   15  C4  UNL     1     -25.996 -48.172 -51.663  1.00  0.00    -0.024 C 
HETATM   16  C2  UNL     1     -25.110 -47.223 -51.556  1.00  0.00    -0.091 C 
HETATM   17  C1  UNL     1     -25.358 -46.033 -50.684  1.00  0.00     0.042 C 
HETATM   18  C3  UNL     1     -23.809 -47.272 -52.300  1.00  0.00     0.042 C 
ENDBRANCH  14  15
ENDBRANCH   7  14
BRANCH   8  19
HETATM   19  O6  UNL     1     -29.338 -49.734 -48.743  1.00  0.00    -0.387 OA
ATOM     20  H6  UNL     1     -28.873 -49.335 -48.017  1.00  0.00     0.210 HD
ENDBRANCH   8  19
BRANCH   9  21
HETATM   21  O5  UNL     1     -29.008 -52.402 -49.545  1.00  0.00    -0.392 OA
ATOM     22  H5  UNL     1     -29.466 -52.379 -50.377  1.00  0.00     0.210 HD
ENDBRANCH   9  21
ENDBRANCH   2   3
ENDBRANCH   1   2
BRANCH   1  23
HETATM   23  C12 UNL     1     -23.155 -48.930 -45.437  1.00  0.00    -0.061 C 
HETATM   24  C13 UNL     1     -22.254 -49.058 -43.793  1.00  0.00     0.048 C 
BRANCH  23  25
HETATM   25  C14 UNL     1     -22.200 -48.309 -45.907  1.00  0.00     0.013 C 
BRANCH  25  26
HETATM   26  C15 UNL     1     -22.146 -47.508 -47.141  1.00  0.00    -0.057 C 
HETATM   27  C16 UNL     1     -23.170 -47.799 -48.193  1.00  0.00     0.048 C 
BRANCH  26  28
HETATM   28  C17 UNL     1     -21.352 -46.474 -47.315  1.00  0.00     0.070 C 
BRANCH  28  29
HETATM   29  C18 UNL     1     -21.680 -45.114 -46.974  1.00  0.00     0.186 C 
BRANCH  29  30
HETATM   30  O1  UNL     1     -20.770 -44.417 -46.356  1.00  0.00    -0.341 OA
ATOM     31  H1  UNL     1     -19.984 -44.198 -46.842  1.00  0.00     0.220 HD
ENDBRANCH  29  30
BRANCH  29  32
HETATM   32  O2  UNL     1     -22.826 -44.427 -47.195  1.00  0.00    -0.255 OA
BRANCH  32  33
HETATM   33  C19 UNL     1     -23.642 -43.783 -46.332  1.00  0.00     0.274 C 
HETATM   34  O3  UNL     1     -23.107 -43.017 -45.472  1.00  0.00    -0.264 OA
BRANCH  33  35
HETATM   35  C20 UNL     1     -25.140 -43.977 -46.374  1.00  0.00     0.045 C 
HETATM   36  C21 UNL     1     -25.690 -43.512 -47.676  1.00  0.00     0.026 C 
HETATM   37  C22 UNL     1     -25.810 -43.383 -45.196  1.00  0.00     0.020 C 
HETATM   38  C23 UNL     1     -26.783 -44.317 -44.561  1.00  0.00     0.010 C 
HETATM   39  C24 UNL     1     -26.070 -45.513 -43.976  1.00  0.00    -0.048 C 
HETATM   40  C25 UNL     1     -25.416 -45.110 -42.681  1.00  0.00     0.015 C 
HETATM   41  C26 UNL     1     -27.055 -46.613 -43.727  1.00  0.00     0.015 C 
HETATM   42  C27 UNL     1     -24.975 -45.976 -44.933  1.00  0.00     0.010 C 
HETATM   43  C28 UNL     1     -25.353 -45.514 -46.338  1.00  0.00     0.020 C 
ENDBRANCH  33  35
ENDBRANCH  32  33
ENDBRANCH  29  32
ENDBRANCH  28  29
ENDBRANCH  26  28
ENDBRANCH  25  26
ENDBRANCH  23  25
ENDBRANCH   1  23
TORSDOF 15
ENDMDL
MODEL 5
REMARK VINA RESULT: -8.825541397      6.947     11.255
REMARK  15 active torsions:
REMARK  status: ('A' for Active; 'I' for Inactive)
REMARK    1  A    between atoms: C4_4  and  C5_5 
REMARK    2  A    between atoms: C5_5  and  C6_6 
REMARK    3  A    between atoms: C9_9  and  C10_10 
REMARK    4  A    between atoms: C10_10  and  C11_11 
REMARK    5  A    between atoms: C11_11  and  C12_12 
REMARK    6  A    between atoms: C12_12  and  C14_14 
REMARK    7  A    between atoms: C14_14  and  C15_15 
REMARK    8  A    between atoms: C15_15  and  C17_17 
REMARK    9  A    between atoms: C17_17  and  C18_18 
REMARK   10  A    between atoms: C18_18  and  O1_19 
REMARK   11  A    between atoms: C18_18  and  O2_21 
REMARK   12  A    between atoms: O2_21  and  C19_22 
REMARK   13  A    between atoms: C19_22  and  C20_24 
REMARK   14  A    between atoms: C32_37  and  O5_38 
REMARK   15  A    between atoms: C33_40  and  O6_42 
ROOT
HETATM    1  C11 UNL     1     -20.572 -47.532 -55.129  1.00  0.00     0.007 C 
ENDROOT
BRANCH   1   2
HETATM    2  C10 UNL     1     -19.442 -47.993 -55.637  1.00  0.00     0.001 C 
BRANCH   2   3
HETATM    3  C9  UNL     1     -18.184 -48.043 -54.957  1.00  0.00     0.011 C 
HETATM    4  C8  UNL     1     -17.647 -49.107 -54.445  1.00  0.00    -0.011 C 
HETATM    5  C7  UNL     1     -16.331 -48.935 -53.752  1.00  0.00     0.050 C 
HETATM    6  C29 UNL     1     -18.287 -50.403 -54.642  1.00  0.00     0.162 C 
HETATM    7  C6  UNL     1     -15.856 -50.281 -53.246  1.00  0.00     0.030 C 
HETATM    8  C33 UNL     1     -15.339 -51.076 -54.372  1.00  0.00     0.085 C 
HETATM    9  C32 UNL     1     -16.351 -52.045 -54.865  1.00  0.00     0.163 C 
HETATM   10  C34 UNL     1     -14.134 -51.937 -53.923  1.00  0.00     0.049 C 
HETATM   11  C30 UNL     1     -17.702 -51.637 -55.230  1.00  0.00     0.088 C 
HETATM   12  C31 UNL     1     -17.886 -51.591 -56.774  1.00  0.00     0.021 C 
HETATM   13  O4  UNL     1     -19.478 -50.458 -54.263  1.00  0.00    -0.292 OA
BRANCH   7  14
HETATM   14  C5  UNL     1     -15.109 -50.208 -51.978  1.00  0.00     0.035 C 
BRANCH  14  15
HETATM   15  C4  UNL     1     -15.825 -50.858 -50.854  1.00  0.00    -0.024 C 
HETATM   16  C2  UNL     1     -16.629 -50.204 -50.064  1.00  0.00    -0.091 C 
HETATM   17  C1  UNL     1     -16.867 -48.739 -50.249  1.00  0.00     0.042 C 
HETATM   18  C3  UNL     1     -17.346 -50.880 -48.934  1.00  0.00     0.042 C 
ENDBRANCH  14  15
ENDBRANCH   7  14
BRANCH   8  19
HETATM   19  O6  UNL     1     -14.817 -50.233 -55.361  1.00  0.00    -0.387 OA
ATOM     20  H6  UNL     1     -15.442 -50.134 -56.071  1.00  0.00     0.210 HD
ENDBRANCH   8  19
BRANCH   9  21
HETATM   21  O5  UNL     1     -15.827 -52.779 -55.965  1.00  0.00    -0.392 OA
ATOM     22  H5  UNL     1     -16.196 -52.398 -56.753  1.00  0.00     0.210 HD
ENDBRANCH   9  21
ENDBRANCH   2   3
ENDBRANCH   1   2
BRANCH   1  23
HETATM   23  C12 UNL     1     -20.847 -46.971 -53.887  1.00  0.00    -0.061 C 
HETATM   24  C13 UNL     1     -22.688 -47.196 -54.190  1.00  0.00     0.048 C 
BRANCH  23  25
HETATM   25  C14 UNL     1     -21.093 -46.476 -52.786  1.00  0.00     0.013 C 
BRANCH  25  26
HETATM   26  C15 UNL     1     -20.150 -45.932 -51.795  1.00  0.00    -0.057 C 
HETATM   27  C16 UNL     1     -20.706 -45.542 -50.462  1.00  0.00     0.048 C 
BRANCH  26  28
HETATM   28  C17 UNL     1     -18.845 -45.899 -51.959  1.00  0.00     0.070 C 
BRANCH  28  29
HETATM   29  C18 UNL     1     -17.984 -44.834 -51.515  1.00  0.00     0.186 C 
BRANCH  29  30
HETATM   30  O1  UNL     1     -17.518 -44.910 -50.300  1.00  0.00    -0.341 OA
ATOM     31  H1  UNL     1     -16.614 -44.653 -50.164  1.00  0.00     0.220 HD
ENDBRANCH  29  30
BRANCH  29  32
HETATM   32  O2  UNL     1     -17.576 -43.727 -52.179  1.00  0.00    -0.255 OA
BRANCH  32  33
HETATM   33  C19 UNL     1     -16.350 -43.372 -52.622  1.00  0.00     0.274 C 
HETATM   34  O3  UNL     1     -15.347 -43.714 -51.922  1.00  0.00    -0.264 OA
BRANCH  33  35
HETATM   35  C20 UNL     1     -16.175 -42.582 -53.897  1.00  0.00     0.045 C 
HETATM   36  C21 UNL     1     -15.113 -41.553 -53.732  1.00  0.00     0.026 C 
HETATM   37  C22 UNL     1     -17.459 -42.039 -54.394  1.00  0.00     0.020 C 
HETATM   38  C23 UNL     1     -17.665 -42.300 -55.848  1.00  0.00     0.010 C 
HETATM   39  C24 UNL     1     -17.800 -43.780 -56.111  1.00  0.00    -0.048 C 
HETATM   40  C25 UNL     1     -19.179 -44.228 -55.705  1.00  0.00     0.015 C 
HETATM   41  C26 UNL     1     -17.585 -44.054 -57.567  1.00  0.00     0.015 C 
HETATM   42  C27 UNL     1     -16.787 -44.546 -55.263  1.00  0.00     0.010 C 
HETATM   43  C28 UNL     1     -15.635 -43.599 -54.938  1.00  0.00     0.020 C 
ENDBRANCH  33  35
ENDBRANCH  32  33
ENDBRANCH  29  32
ENDBRANCH  28  29
ENDBRANCH  26  28
ENDBRANCH  25  26
ENDBRANCH  23  25
ENDBRANCH   1  23
TORSDOF 15
ENDMDL
