MODEL 1
REMARK VINA RESULT: -6.863845316      0.000      0.000
REMARK  4 active torsions:
REMARK  status: ('A' for Active; 'I' for Inactive)
REMARK    1  A    between atoms: C29_37  and  O3_38 
REMARK    2  A    between atoms: O3_38  and  C30_39 
REMARK    3  A    between atoms: C32_42  and  O5_43 
REMARK    4  A    between atoms: O5_43  and  C33_44 
ROOT
HETATM    1  C1  UNL     1       6.776  -0.892 105.418  1.00  0.00     0.017 C 
HETATM    2  C2  UNL     1       7.136  -1.341 104.228  1.00  0.00    -0.053 C 
HETATM    3  C3  UNL     1       7.775  -0.333 103.320  1.00  0.00     0.016 C 
HETATM    4  C4  UNL     1       9.151  -0.030 103.919  1.00  0.00     0.015 C 
HETATM    5  C5  UNL     1       6.954   0.913 103.129  1.00  0.00    -0.010 C 
HETATM    6  C6  UNL     1       7.763   2.098 103.600  1.00  0.00     0.010 C 
HETATM    7  C7  UNL     1       6.636   0.999 101.658  1.00  0.00     0.018 C 
HETATM    8  C8  UNL     1       5.918   2.210 101.210  1.00  0.00     0.067 C 
HETATM    9  C9  UNL     1       6.653   2.710  99.984  1.00  0.00    -0.044 C 
HETATM   10  C10 UNL     1       7.807   3.321  99.853  1.00  0.00    -0.014 C 
HETATM   11  C11 UNL     1       8.318   3.715  98.510  1.00  0.00     0.106 C 
HETATM   12  C12 UNL     1       7.128   4.073  97.699  1.00  0.00     0.140 C 
HETATM   13  O1  UNL     1       7.101   5.125  97.123  1.00  0.00    -0.297 OA
HETATM   14  C13 UNL     1       6.002   3.112  97.623  1.00  0.00     0.046 C 
HETATM   15  C14 UNL     1       4.770   3.838  97.120  1.00  0.00     0.025 C 
HETATM   16  C15 UNL     1       6.374   2.128  96.504  1.00  0.00     0.025 C 
HETATM   17  C16 UNL     1       5.755   2.346  98.871  1.00  0.00     0.232 C 
HETATM   18  N1  UNL     1       4.456   2.615  99.460  1.00  0.00    -0.044 N 
ATOM     19  H11 UNL     1       3.665   2.352  98.872  1.00  0.00     0.280 HD
ATOM     20  H12 UNL     1       4.220   3.605  99.524  1.00  0.00     0.280 HD
HETATM   21  C17 UNL     1       4.505   1.931 100.732  1.00  0.00     0.295 C 
HETATM   22  N2  UNL     1       3.557   2.439 101.694  1.00  0.00    -0.329 N 
ATOM     23  H2  UNL     1       3.872   2.521 102.660  1.00  0.00     0.164 HD
HETATM   24  C18 UNL     1       2.220   2.834 101.412  1.00  0.00     0.245 C 
HETATM   25  O2  UNL     1       1.833   3.992 101.833  1.00  0.00    -0.268 OA
HETATM   26  C19 UNL     1       1.241   2.032 100.681  1.00  0.00     0.112 C 
HETATM   27  C20 UNL     1       0.832   0.824 101.027  1.00  0.00     0.103 C 
HETATM   28  F1  UNL     1      -0.095   0.202 100.229  1.00  0.00    -0.210 F 
HETATM   29  C21 UNL     1       1.272   0.069 102.222  1.00  0.00     0.044 C 
HETATM   30  C22 UNL     1       0.004  -0.607 102.770  1.00  0.00     0.017 C 
HETATM   31  C23 UNL     1       2.250  -1.019 101.953  1.00  0.00     0.015 C 
HETATM   32  C24 UNL     1       3.297  -1.233 103.011  1.00  0.00    -0.017 C 
HETATM   33  C25 UNL     1       2.977  -0.397 104.243  1.00  0.00     0.010 C 
HETATM   34  C26 UNL     1       3.319  -2.668 103.466  1.00  0.00     0.011 C 
HETATM   35  C27 UNL     1       4.591  -3.411 103.193  1.00  0.00     0.014 C 
HETATM   36  C28 UNL     1       5.048  -3.171 101.806  1.00  0.00     0.012 C 
HETATM   37  C29 UNL     1       5.638  -3.277 104.269  1.00  0.00     0.169 C 
HETATM   38  C32 UNL     1       6.947  -2.753 103.804  1.00  0.00     0.190 C 
ENDROOT
BRANCH  37  39
HETATM   39  O3  UNL     1       5.822  -4.485 104.978  1.00  0.00    -0.313 OA
BRANCH  39  40
HETATM   40  C30 UNL     1       5.363  -4.791 106.229  1.00  0.00     0.255 C 
HETATM   41  C31 UNL     1       4.665  -3.787 107.097  1.00  0.00     0.126 C 
HETATM   42  O4  UNL     1       5.536  -5.942 106.648  1.00  0.00    -0.266 OA
ENDBRANCH  39  40
ENDBRANCH  37  39
BRANCH  38  43
HETATM   43  O5  UNL     1       8.056  -3.459 104.345  1.00  0.00    -0.309 OA
BRANCH  43  44
HETATM   44  C33 UNL     1       9.179  -3.779 103.642  1.00  0.00     0.255 C 
HETATM   45  C34 UNL     1       9.049  -4.325 102.271  1.00  0.00     0.126 C 
HETATM   46  O6  UNL     1      10.300  -3.620 104.134  1.00  0.00    -0.266 OA
ENDBRANCH  43  44
ENDBRANCH  38  43
TORSDOF 4
ENDMDL
MODEL 2
REMARK VINA RESULT: -6.597550744      2.359      6.031
REMARK  4 active torsions:
REMARK  status: ('A' for Active; 'I' for Inactive)
REMARK    1  A    between atoms: C29_37  and  O3_38 
REMARK    2  A    between atoms: O3_38  and  C30_39 
REMARK    3  A    between atoms: C32_42  and  O5_43 
REMARK    4  A    between atoms: O5_43  and  C33_44 
ROOT
HETATM    1  C1  UNL     1       6.712  -2.447 102.965  1.00  0.00     0.017 C 
HETATM    2  C2  UNL     1       6.285  -1.499 103.783  1.00  0.00    -0.053 C 
HETATM    3  C3  UNL     1       4.803  -1.269 103.792  1.00  0.00     0.016 C 
HETATM    4  C4  UNL     1       4.183  -2.499 104.461  1.00  0.00     0.015 C 
HETATM    5  C5  UNL     1       4.224  -1.012 102.428  1.00  0.00    -0.010 C 
HETATM    6  C6  UNL     1       3.190  -2.074 102.138  1.00  0.00     0.010 C 
HETATM    7  C7  UNL     1       3.618   0.367 102.469  1.00  0.00     0.018 C 
HETATM    8  C8  UNL     1       2.888   0.801 101.259  1.00  0.00     0.067 C 
HETATM    9  C9  UNL     1       1.573   1.376 101.740  1.00  0.00    -0.044 C 
HETATM   10  C10 UNL     1       0.492   0.798 102.209  1.00  0.00    -0.014 C 
HETATM   11  C11 UNL     1      -0.691   1.605 102.621  1.00  0.00     0.106 C 
HETATM   12  C12 UNL     1      -0.742   2.771 101.706  1.00  0.00     0.140 C 
HETATM   13  O1  UNL     1      -1.763   3.024 101.130  1.00  0.00    -0.297 OA
HETATM   14  C13 UNL     1       0.478   3.594 101.532  1.00  0.00     0.046 C 
HETATM   15  C14 UNL     1       0.330   4.432 100.277  1.00  0.00     0.025 C 
HETATM   16  C15 UNL     1       0.466   4.600 102.692  1.00  0.00     0.025 C 
HETATM   17  C16 UNL     1       1.752   2.832 101.574  1.00  0.00     0.232 C 
HETATM   18  N1  UNL     1       2.490   2.882 100.325  1.00  0.00    -0.044 N 
ATOM     19  H11 UNL     1       2.794   3.817 100.053  1.00  0.00     0.280 HD
ATOM     20  H12 UNL     1       1.925   2.706  99.495  1.00  0.00     0.280 HD
HETATM   21  C17 UNL     1       3.568   1.940 100.523  1.00  0.00     0.295 C 
HETATM   22  N2  UNL     1       4.137   1.451  99.290  1.00  0.00    -0.329 N 
ATOM     23  H2  UNL     1       4.382   0.462  99.250  1.00  0.00     0.164 HD
HETATM   24  C18 UNL     1       4.386   2.229  98.125  1.00  0.00     0.245 C 
HETATM   25  O2  UNL     1       3.946   1.781  96.997  1.00  0.00    -0.268 OA
HETATM   26  C19 UNL     1       5.104   3.502  98.100  1.00  0.00     0.112 C 
HETATM   27  C20 UNL     1       6.346   3.687  98.513  1.00  0.00     0.103 C 
HETATM   28  F1  UNL     1       6.876   4.949  98.423  1.00  0.00    -0.210 F 
HETATM   29  C21 UNL     1       7.242   2.642  99.058  1.00  0.00     0.044 C 
HETATM   30  C22 UNL     1       8.627   2.934  98.456  1.00  0.00     0.017 C 
HETATM   31  C23 UNL     1       7.408   2.665 100.536  1.00  0.00     0.015 C 
HETATM   32  C24 UNL     1       7.546   1.322 101.199  1.00  0.00    -0.017 C 
HETATM   33  C25 UNL     1       7.693   0.229 100.148  1.00  0.00     0.010 C 
HETATM   34  C26 UNL     1       8.787   1.263 102.048  1.00  0.00     0.011 C 
HETATM   35  C27 UNL     1       8.556   1.070 103.515  1.00  0.00     0.014 C 
HETATM   36  C28 UNL     1       7.490   1.975 104.000  1.00  0.00     0.012 C 
HETATM   37  C29 UNL     1       8.451  -0.371 103.948  1.00  0.00     0.169 C 
HETATM   38  C32 UNL     1       7.195  -0.717 104.660  1.00  0.00     0.190 C 
ENDROOT
BRANCH  37  39
HETATM   39  O3  UNL     1       9.569  -0.774 104.711  1.00  0.00    -0.313 OA
BRANCH  39  40
HETATM   40  C30 UNL     1      10.438  -1.794 104.434  1.00  0.00     0.255 C 
HETATM   41  C31 UNL     1       9.975  -3.133 103.943  1.00  0.00     0.126 C 
HETATM   42  O4  UNL     1      11.647  -1.590 104.598  1.00  0.00    -0.266 OA
ENDBRANCH  39  40
ENDBRANCH  37  39
BRANCH  38  43
HETATM   43  O5  UNL     1       7.408  -1.534 105.804  1.00  0.00    -0.309 OA
BRANCH  43  44
HETATM   44  C33 UNL     1       7.111  -1.160 107.081  1.00  0.00     0.255 C 
HETATM   45  C34 UNL     1       5.731  -0.737 107.413  1.00  0.00     0.126 C 
HETATM   46  O6  UNL     1       7.977  -1.169 107.960  1.00  0.00    -0.266 OA
ENDBRANCH  43  44
ENDBRANCH  38  43
TORSDOF 4
ENDMDL
MODEL 3
REMARK VINA RESULT: -6.155427473      3.168      8.145
REMARK  4 active torsions:
REMARK  status: ('A' for Active; 'I' for Inactive)
REMARK    1  A    between atoms: C29_37  and  O3_38 
REMARK    2  A    between atoms: O3_38  and  C30_39 
REMARK    3  A    between atoms: C32_42  and  O5_43 
REMARK    4  A    between atoms: O5_43  and  C33_44 
ROOT
HETATM    1  C1  UNL     1       2.196  -0.289 101.392  1.00  0.00     0.017 C 
HETATM    2  C2  UNL     1       3.395   0.232 101.193  1.00  0.00    -0.053 C 
HETATM    3  C3  UNL     1       4.537  -0.740 101.217  1.00  0.00     0.016 C 
HETATM    4  C4  UNL     1       4.402  -1.591  99.952  1.00  0.00     0.015 C 
HETATM    5  C5  UNL     1       4.587  -1.581 102.463  1.00  0.00    -0.010 C 
HETATM    6  C6  UNL     1       4.484  -3.034 102.066  1.00  0.00     0.010 C 
HETATM    7  C7  UNL     1       5.899  -1.275 103.139  1.00  0.00     0.018 C 
HETATM    8  C8  UNL     1       6.221  -2.070 104.342  1.00  0.00     0.067 C 
HETATM    9  C9  UNL     1       7.648  -2.544 104.169  1.00  0.00    -0.044 C 
HETATM   10  C10 UNL     1       8.169  -3.467 103.395  1.00  0.00    -0.014 C 
HETATM   11  C11 UNL     1       9.633  -3.746 103.412  1.00  0.00     0.106 C 
HETATM   12  C12 UNL     1      10.084  -3.526 104.808  1.00  0.00     0.140 C 
HETATM   13  O1  UNL     1      10.717  -4.380 105.364  1.00  0.00    -0.297 OA
HETATM   14  C13 UNL     1       9.738  -2.250 105.476  1.00  0.00     0.046 C 
HETATM   15  C14 UNL     1       9.916  -2.415 106.973  1.00  0.00     0.025 C 
HETATM   16  C15 UNL     1      10.824  -1.252 105.049  1.00  0.00     0.025 C 
HETATM   17  C16 UNL     1       8.409  -1.697 105.108  1.00  0.00     0.232 C 
HETATM   18  N1  UNL     1       7.489  -1.625 106.228  1.00  0.00    -0.044 N 
ATOM     19  H11 UNL     1       7.791  -1.007 106.982  1.00  0.00     0.280 HD
ATOM     20  H12 UNL     1       7.446  -2.473 106.793  1.00  0.00     0.280 HD
HETATM   21  C17 UNL     1       6.233  -1.251 105.619  1.00  0.00     0.295 C 
HETATM   22  N2  UNL     1       5.082  -1.587 106.423  1.00  0.00    -0.329 N 
ATOM     23  H2  UNL     1       4.264  -1.952 105.936  1.00  0.00     0.164 HD
HETATM   24  C18 UNL     1       4.990  -1.454 107.836  1.00  0.00     0.245 C 
HETATM   25  O2  UNL     1       4.578  -2.474 108.511  1.00  0.00    -0.268 OA
HETATM   26  C19 UNL     1       5.325  -0.248 108.592  1.00  0.00     0.112 C 
HETATM   27  C20 UNL     1       4.768   0.938 108.424  1.00  0.00     0.103 C 
HETATM   28  F1  UNL     1       5.197   1.973 109.217  1.00  0.00    -0.210 F 
HETATM   29  C21 UNL     1       3.694   1.262 107.457  1.00  0.00     0.044 C 
HETATM   30  C22 UNL     1       2.737   2.204 108.207  1.00  0.00     0.017 C 
HETATM   31  C23 UNL     1       4.143   1.992 106.241  1.00  0.00     0.015 C 
HETATM   32  C24 UNL     1       3.426   1.641 104.967  1.00  0.00    -0.017 C 
HETATM   33  C25 UNL     1       2.234   0.741 105.264  1.00  0.00     0.010 C 
HETATM   34  C26 UNL     1       2.873   2.872 104.301  1.00  0.00     0.011 C 
HETATM   35  C27 UNL     1       3.442   3.187 102.952  1.00  0.00     0.014 C 
HETATM   36  C28 UNL     1       4.919   3.077 102.970  1.00  0.00     0.012 C 
HETATM   37  C29 UNL     1       2.741   2.510 101.802  1.00  0.00     0.169 C 
HETATM   38  C32 UNL     1       3.617   1.679 100.939  1.00  0.00     0.190 C 
ENDROOT
BRANCH  37  39
HETATM   39  O3  UNL     1       2.014   3.431 101.014  1.00  0.00    -0.313 OA
BRANCH  39  40
HETATM   40  C30 UNL     1       0.660   3.623 101.001  1.00  0.00     0.255 C 
HETATM   41  C31 UNL     1      -0.312   2.520 101.301  1.00  0.00     0.126 C 
HETATM   42  O4  UNL     1       0.234   4.752 100.729  1.00  0.00    -0.266 OA
ENDBRANCH  39  40
ENDBRANCH  37  39
BRANCH  38  43
HETATM   43  O5  UNL     1       3.368   1.860  99.551  1.00  0.00    -0.309 OA
BRANCH  43  44
HETATM   44  C33 UNL     1       4.333   2.124  98.625  1.00  0.00     0.255 C 
HETATM   45  C34 UNL     1       5.713   2.419  99.077  1.00  0.00     0.126 C 
HETATM   46  O6  UNL     1       4.071   2.121  97.420  1.00  0.00    -0.266 OA
ENDBRANCH  43  44
ENDBRANCH  38  43
TORSDOF 4
ENDMDL
MODEL 4
REMARK VINA RESULT: -6.027459844      3.187      6.827
REMARK  4 active torsions:
REMARK  status: ('A' for Active; 'I' for Inactive)
REMARK    1  A    between atoms: C29_37  and  O3_38 
REMARK    2  A    between atoms: O3_38  and  C30_39 
REMARK    3  A    between atoms: C32_42  and  O5_43 
REMARK    4  A    between atoms: O5_43  and  C33_44 
ROOT
HETATM    1  C1  UNL     1       0.418   0.465 103.694  1.00  0.00     0.017 C 
HETATM    2  C2  UNL     1       1.005   1.644 103.579  1.00  0.00    -0.053 C 
HETATM    3  C3  UNL     1       1.329   2.074 102.178  1.00  0.00     0.016 C 
HETATM    4  C4  UNL     1      -0.011   2.374 101.502  1.00  0.00     0.015 C 
HETATM    5  C5  UNL     1       2.138   1.065 101.410  1.00  0.00    -0.010 C 
HETATM    6  C6  UNL     1       1.355   0.654 100.185  1.00  0.00     0.010 C 
HETATM    7  C7  UNL     1       3.436   1.738 101.047  1.00  0.00     0.018 C 
HETATM    8  C8  UNL     1       4.360   0.967 100.189  1.00  0.00     0.067 C 
HETATM    9  C9  UNL     1       4.806   1.909  99.091  1.00  0.00    -0.044 C 
HETATM   10  C10 UNL     1       4.177   2.371  98.034  1.00  0.00    -0.014 C 
HETATM   11  C11 UNL     1       4.851   3.305  97.089  1.00  0.00     0.106 C 
HETATM   12  C12 UNL     1       6.281   2.910  97.059  1.00  0.00     0.140 C 
HETATM   13  O1  UNL     1       6.816   2.713  96.004  1.00  0.00    -0.297 OA
HETATM   14  C13 UNL     1       7.009   2.772  98.342  1.00  0.00     0.046 C 
HETATM   15  C14 UNL     1       8.276   1.975  98.104  1.00  0.00     0.025 C 
HETATM   16  C15 UNL     1       7.485   4.188  98.700  1.00  0.00     0.025 C 
HETATM   17  C16 UNL     1       6.193   2.245  99.465  1.00  0.00     0.232 C 
HETATM   18  N1  UNL     1       6.665   0.965  99.963  1.00  0.00    -0.044 N 
ATOM     19  H11 UNL     1       7.606   0.988 100.357  1.00  0.00     0.280 HD
ATOM     20  H12 UNL     1       6.868   0.280  99.236  1.00  0.00     0.280 HD
HETATM   21  C17 UNL     1       5.639   0.559 100.896  1.00  0.00     0.295 C 
HETATM   22  N2  UNL     1       5.623  -0.863 101.148  1.00  0.00    -0.329 N 
ATOM     23  H2  UNL     1       4.710  -1.312 101.221  1.00  0.00     0.164 HD
HETATM   24  C18 UNL     1       6.768  -1.691 101.301  1.00  0.00     0.245 C 
HETATM   25  O2  UNL     1       6.827  -2.773 100.599  1.00  0.00    -0.268 OA
HETATM   26  C19 UNL     1       7.892  -1.417 102.196  1.00  0.00     0.112 C 
HETATM   27  C20 UNL     1       7.805  -1.260 103.505  1.00  0.00     0.103 C 
HETATM   28  F1  UNL     1       8.958  -1.006 104.204  1.00  0.00    -0.210 F 
HETATM   29  C21 UNL     1       6.564  -1.349 104.309  1.00  0.00     0.044 C 
HETATM   30  C22 UNL     1       6.958  -2.103 105.589  1.00  0.00     0.017 C 
HETATM   31  C23 UNL     1       6.000  -0.042 104.741  1.00  0.00     0.015 C 
HETATM   32  C24 UNL     1       4.499   0.040 104.781  1.00  0.00    -0.017 C 
HETATM   33  C25 UNL     1       3.891  -1.338 104.561  1.00  0.00     0.010 C 
HETATM   34  C26 UNL     1       4.020   0.504 106.131  1.00  0.00     0.011 C 
HETATM   35  C27 UNL     1       3.293   1.813 106.142  1.00  0.00     0.014 C 
HETATM   36  C28 UNL     1       4.020   2.822 105.338  1.00  0.00     0.012 C 
HETATM   37  C29 UNL     1       1.810   1.708 105.889  1.00  0.00     0.169 C 
HETATM   38  C32 UNL     1       1.314   2.513 104.744  1.00  0.00     0.190 C 
ENDROOT
BRANCH  37  39
HETATM   39  O3  UNL     1       1.057   1.997 107.049  1.00  0.00    -0.313 OA
BRANCH  39  40
HETATM   40  C30 UNL     1       1.512   2.069 108.336  1.00  0.00     0.255 C 
HETATM   41  C31 UNL     1       1.668   0.855 109.203  1.00  0.00     0.126 C 
HETATM   42  O4  UNL     1       1.803   3.183 108.791  1.00  0.00    -0.266 OA
ENDBRANCH  39  40
ENDBRANCH  37  39
BRANCH  38  43
HETATM   43  O5  UNL     1       0.104   3.203 105.029  1.00  0.00    -0.309 OA
BRANCH  43  44
HETATM   44  C33 UNL     1      -0.361   4.265 104.312  1.00  0.00     0.255 C 
HETATM   45  C34 UNL     1      -1.817   4.400 104.073  1.00  0.00     0.126 C 
HETATM   46  O6  UNL     1       0.415   5.112 103.861  1.00  0.00    -0.266 OA
ENDBRANCH  43  44
ENDBRANCH  38  43
TORSDOF 4
ENDMDL
MODEL 5
REMARK VINA RESULT: -5.951818533      3.501      8.211
REMARK  4 active torsions:
REMARK  status: ('A' for Active; 'I' for Inactive)
REMARK    1  A    between atoms: C29_37  and  O3_38 
REMARK    2  A    between atoms: O3_38  and  C30_39 
REMARK    3  A    between atoms: C32_42  and  O5_43 
REMARK    4  A    between atoms: O5_43  and  C33_44 
ROOT
HETATM    1  C1  UNL     1       4.378  -0.782 101.073  1.00  0.00     0.017 C 
HETATM    2  C2  UNL     1       5.484  -0.094 101.299  1.00  0.00    -0.053 C 
HETATM    3  C3  UNL     1       6.656  -0.892 101.790  1.00  0.00     0.016 C 
HETATM    4  C4  UNL     1       7.113  -1.751 100.608  1.00  0.00     0.015 C 
HETATM    5  C5  UNL     1       6.355  -1.719 103.009  1.00  0.00    -0.010 C 
HETATM    6  C6  UNL     1       6.601  -3.171 102.676  1.00  0.00     0.010 C 
HETATM    7  C7  UNL     1       7.271  -1.229 104.100  1.00  0.00     0.018 C 
HETATM    8  C8  UNL     1       7.230  -1.972 105.378  1.00  0.00     0.067 C 
HETATM    9  C9  UNL     1       8.670  -2.235 105.762  1.00  0.00    -0.044 C 
HETATM   10  C10 UNL     1       9.559  -3.073 105.281  1.00  0.00    -0.014 C 
HETATM   11  C11 UNL     1      10.936  -3.139 105.846  1.00  0.00     0.106 C 
HETATM   12  C12 UNL     1      10.806  -2.859 107.297  1.00  0.00     0.140 C 
HETATM   13  O1  UNL     1      11.297  -3.614 108.089  1.00  0.00    -0.297 OA
HETATM   14  C13 UNL     1      10.070  -1.647 107.726  1.00  0.00     0.046 C 
HETATM   15  C14 UNL     1       9.704  -1.787 109.191  1.00  0.00     0.025 C 
HETATM   16  C15 UNL     1      11.093  -0.503 107.674  1.00  0.00     0.025 C 
HETATM   17  C16 UNL     1       8.910  -1.290 106.870  1.00  0.00     0.232 C 
HETATM   18  N1  UNL     1       7.640  -1.353 107.571  1.00  0.00    -0.044 N 
ATOM     19  H11 UNL     1       7.557  -0.699 108.350  1.00  0.00     0.280 HD
ATOM     20  H12 UNL     1       7.506  -2.199 108.124  1.00  0.00     0.280 HD
HETATM   21  C17 UNL     1       6.660  -1.162 106.526  1.00  0.00     0.295 C 
HETATM   22  N2  UNL     1       5.350  -1.661 106.871  1.00  0.00    -0.329 N 
ATOM     23  H2  UNL     1       4.826  -2.139 106.138  1.00  0.00     0.164 HD
HETATM   24  C18 UNL     1       4.726  -1.545 108.144  1.00  0.00     0.245 C 
HETATM   25  O2  UNL     1       4.235  -2.616 108.673  1.00  0.00    -0.268 OA
HETATM   26  C19 UNL     1       4.593  -0.305 108.907  1.00  0.00     0.112 C 
HETATM   27  C20 UNL     1       3.983   0.789 108.486  1.00  0.00     0.103 C 
HETATM   28  F1  UNL     1       3.947   1.873 109.326  1.00  0.00    -0.210 F 
HETATM   29  C21 UNL     1       3.309   0.957 107.178  1.00  0.00     0.044 C 
HETATM   30  C22 UNL     1       2.026   1.750 107.477  1.00  0.00     0.017 C 
HETATM   31  C23 UNL     1       4.073   1.746 106.174  1.00  0.00     0.015 C 
HETATM   32  C24 UNL     1       3.931   1.298 104.746  1.00  0.00    -0.017 C 
HETATM   33  C25 UNL     1       2.846   0.236 104.633  1.00  0.00     0.010 C 
HETATM   34  C26 UNL     1       3.503   2.438 103.862  1.00  0.00     0.011 C 
HETATM   35  C27 UNL     1       4.482   2.834 102.800  1.00  0.00     0.014 C 
HETATM   36  C28 UNL     1       5.848   2.937 103.362  1.00  0.00     0.012 C 
HETATM   37  C29 UNL     1       4.352   2.066 101.510  1.00  0.00     0.169 C 
HETATM   38  C32 UNL     1       5.588   1.370 101.070  1.00  0.00     0.190 C 
ENDROOT
BRANCH  37  39
HETATM   39  O3  UNL     1       3.851   2.874 100.464  1.00  0.00    -0.313 OA
BRANCH  39  40
HETATM   40  C30 UNL     1       2.620   2.797  99.874  1.00  0.00     0.255 C 
HETATM   41  C31 UNL     1       1.349   3.061 100.627  1.00  0.00     0.126 C 
HETATM   42  O4  UNL     1       2.566   2.497  98.675  1.00  0.00    -0.266 OA
ENDBRANCH  39  40
ENDBRANCH  37  39
BRANCH  38  43
HETATM   43  O5  UNL     1       5.847   1.516  99.680  1.00  0.00    -0.309 OA
BRANCH  43  44
HETATM   44  C33 UNL     1       6.868   2.256  99.162  1.00  0.00     0.255 C 
HETATM   45  C34 UNL     1       7.931   2.760 100.063  1.00  0.00     0.126 C 
HETATM   46  O6  UNL     1       6.916   2.510  97.956  1.00  0.00    -0.266 OA
ENDBRANCH  43  44
ENDBRANCH  38  43
TORSDOF 4
ENDMDL
