MODEL 1
REMARK VINA RESULT: -8.187745419      0.000      0.000
REMARK  3 active torsions:
REMARK  status: ('A' for Active; 'I' for Inactive)
REMARK    1  A    between atoms: S1_2  and  C2_3 
REMARK    2  A    between atoms: C3_8  and  N3_9 
REMARK    3  A    between atoms: N3_9  and  N4_10 
ROOT
HETATM    1  N4  UNL     1     -13.234  28.786  18.170  1.00  0.00    -0.195 N 
HETATM    2  C4  UNL     1     -13.814  29.734  19.144  1.00  0.00     0.067 C 
HETATM    3  C5  UNL     1     -14.191  30.921  18.747  1.00  0.00    -0.060 C 
HETATM    4  C6  UNL     1     -14.770  31.886  19.714  1.00  0.00     0.045 C 
HETATM    5  C7  UNL     1     -14.152  31.423  17.328  1.00  0.00     0.045 C 
HETATM    6  C8  UNL     1     -13.974  29.134  20.485  1.00  0.00     0.139 C 
HETATM    7 CL1  UNL     1     -14.274  30.149  21.845  1.00  0.00    -0.118 Cl
HETATM    8  C9  UNL     1     -15.003  27.978  20.340  1.00  0.00     0.066 C 
HETATM    9  C10 UNL     1     -14.428  27.017  19.337  1.00  0.00    -0.019 C 
HETATM   10  C11 UNL     1     -13.649  27.399  18.393  1.00  0.00     0.059 C 
HETATM   11  C12 UNL     1     -13.100  26.400  17.436  1.00  0.00     0.069 C 
HETATM   12  C13 UNL     1     -11.670  26.124  17.844  1.00  0.00     0.020 C 
HETATM   13  C14 UNL     1     -13.849  25.117  17.398  1.00  0.00     0.064 C 
HETATM   14  C15 UNL     1     -14.480  25.026  15.993  1.00  0.00     0.046 C 
HETATM   15  C16 UNL     1     -12.909  23.904  17.452  1.00  0.00     0.046 C 
HETATM   16  O1  UNL     1     -14.852  24.939  18.283  1.00  0.00    -0.365 OA
HETATM   17  C17 UNL     1     -14.817  25.553  19.491  1.00  0.00     0.080 C 
HETATM   18  C18 UNL     1     -13.992  24.908  20.547  1.00  0.00     0.051 C 
HETATM   19  C19 UNL     1     -16.264  25.577  20.012  1.00  0.00     0.051 C 
ENDROOT
BRANCH   1  20
HETATM   20  N3  UNL     1     -12.427  29.124  17.239  1.00  0.00    -0.291 NA
BRANCH  20  21
HETATM   21  C3  UNL     1     -11.661  29.426  16.363  1.00  0.00     0.263 A 
HETATM   22  N2  UNL     1     -11.109  28.643  15.375  1.00  0.00    -0.265 N 
HETATM   23  N1  UNL     1     -10.328  29.160  14.558  1.00  0.00    -0.285 N 
ATOM     24  H2  UNL     1     -11.339  27.651  15.314  1.00  0.00     0.190 HD
HETATM   25  C2  UNL     1     -10.007  30.436  14.603  1.00  0.00     0.130 A 
ATOM     26  H1  UNL     1      -9.922  28.575  13.827  1.00  0.00     0.188 HD
HETATM   27  S2  UNL     1     -10.907  30.951  15.941  1.00  0.00    -0.009 SA
BRANCH  25  28
HETATM   28  S1  UNL     1      -8.901  31.371  13.518  1.00  0.00    -0.108 SA
HETATM   29  C1  UNL     1      -8.844  30.612  11.879  1.00  0.00     0.097 C 
ENDBRANCH  25  28
ENDBRANCH  20  21
ENDBRANCH   1  20
TORSDOF 3
ENDMDL
MODEL 2
REMARK VINA RESULT: -7.839897680      1.977      2.942
REMARK  3 active torsions:
REMARK  status: ('A' for Active; 'I' for Inactive)
REMARK    1  A    between atoms: S1_2  and  C2_3 
REMARK    2  A    between atoms: C3_8  and  N3_9 
REMARK    3  A    between atoms: N3_9  and  N4_10 
ROOT
HETATM    1  N4  UNL     1     -14.253  26.784  19.712  1.00  0.00    -0.195 N 
HETATM    2  C4  UNL     1     -14.375  27.135  21.142  1.00  0.00     0.067 C 
HETATM    3  C5  UNL     1     -14.468  28.390  21.495  1.00  0.00    -0.060 C 
HETATM    4  C6  UNL     1     -14.585  28.759  22.928  1.00  0.00     0.045 C 
HETATM    5  C7  UNL     1     -14.530  29.562  20.553  1.00  0.00     0.045 C 
HETATM    6  C8  UNL     1     -14.468  25.941  22.007  1.00  0.00     0.139 C 
HETATM    7 CL1  UNL     1     -14.241  26.098  23.709  1.00  0.00    -0.118 Cl
HETATM    8  C9  UNL     1     -15.787  25.212  21.626  1.00  0.00     0.066 C 
HETATM    9  C10 UNL     1     -15.678  24.866  20.168  1.00  0.00    -0.019 C 
HETATM   10  C11 UNL     1     -14.994  25.574  19.346  1.00  0.00     0.059 C 
HETATM   11  C12 UNL     1     -14.913  25.176  17.915  1.00  0.00     0.069 C 
HETATM   12  C13 UNL     1     -13.569  24.515  17.705  1.00  0.00     0.020 C 
HETATM   13  C14 UNL     1     -15.985  24.243  17.480  1.00  0.00     0.064 C 
HETATM   14  C15 UNL     1     -16.843  25.015  16.457  1.00  0.00     0.046 C 
HETATM   15  C16 UNL     1     -15.424  23.066  16.668  1.00  0.00     0.046 C 
HETATM   16  O1  UNL     1     -16.834  23.769  18.415  1.00  0.00    -0.365 OA
HETATM   17  C17 UNL     1     -16.428  23.625  19.700  1.00  0.00     0.080 C 
HETATM   18  C18 UNL     1     -15.649  22.400  20.024  1.00  0.00     0.051 C 
HETATM   19  C19 UNL     1     -17.702  23.581  20.561  1.00  0.00     0.051 C 
ENDROOT
BRANCH   1  20
HETATM   20  N3  UNL     1     -13.552  27.444  18.871  1.00  0.00    -0.291 NA
BRANCH  20  21
HETATM   21  C3  UNL     1     -12.880  28.056  18.085  1.00  0.00     0.263 A 
HETATM   22  N2  UNL     1     -11.650  27.740  17.555  1.00  0.00    -0.265 N 
HETATM   23  N1  UNL     1     -11.119  28.521  16.747  1.00  0.00    -0.285 N 
ATOM     24  H2  UNL     1     -11.178  26.876  17.824  1.00  0.00     0.190 HD
HETATM   25  C2  UNL     1     -11.696  29.646  16.375  1.00  0.00     0.130 A 
ATOM     26  H1  UNL     1     -10.207  28.283  16.357  1.00  0.00     0.188 HD
HETATM   27  S2  UNL     1     -13.134  29.585  17.266  1.00  0.00    -0.009 SA
BRANCH  25  28
HETATM   28  S1  UNL     1     -11.097  30.905  15.223  1.00  0.00    -0.108 SA
HETATM   29  C1  UNL     1      -9.772  30.232  14.194  1.00  0.00     0.097 C 
ENDBRANCH  25  28
ENDBRANCH  20  21
ENDBRANCH   1  20
TORSDOF 3
ENDMDL
MODEL 3
REMARK VINA RESULT: -7.593357780      1.334      1.449
REMARK  3 active torsions:
REMARK  status: ('A' for Active; 'I' for Inactive)
REMARK    1  A    between atoms: S1_2  and  C2_3 
REMARK    2  A    between atoms: C3_8  and  N3_9 
REMARK    3  A    between atoms: N3_9  and  N4_10 
ROOT
HETATM    1  N4  UNL     1     -13.678  28.302  18.851  1.00  0.00    -0.195 N 
HETATM    2  C4  UNL     1     -13.942  29.002  20.126  1.00  0.00     0.067 C 
HETATM    3  C5  UNL     1     -14.300  30.260  20.112  1.00  0.00    -0.060 C 
HETATM    4  C6  UNL     1     -14.563  30.978  21.383  1.00  0.00     0.045 C 
HETATM    5  C7  UNL     1     -14.542  31.087  18.878  1.00  0.00     0.045 C 
HETATM    6  C8  UNL     1     -13.843  28.101  21.293  1.00  0.00     0.139 C 
HETATM    7 CL1  UNL     1     -13.743  28.766  22.880  1.00  0.00    -0.118 Cl
HETATM    8  C9  UNL     1     -14.971  27.041  21.138  1.00  0.00     0.066 C 
HETATM    9  C10 UNL     1     -14.719  26.336  19.836  1.00  0.00    -0.019 C 
HETATM   10  C11 UNL     1     -14.144  26.913  18.845  1.00  0.00     0.059 C 
HETATM   11  C12 UNL     1     -13.911  26.161  17.583  1.00  0.00     0.069 C 
HETATM   12  C13 UNL     1     -12.454  25.756  17.561  1.00  0.00     0.020 C 
HETATM   13  C14 UNL     1     -14.753  24.945  17.434  1.00  0.00     0.064 C 
HETATM   14  C15 UNL     1     -15.691  25.212  16.238  1.00  0.00     0.046 C 
HETATM   15  C16 UNL     1     -13.929  23.730  16.983  1.00  0.00     0.046 C 
HETATM   16  O1  UNL     1     -15.540  24.585  18.468  1.00  0.00    -0.365 OA
HETATM   17  C17 UNL     1     -15.182  24.888  19.740  1.00  0.00     0.080 C 
HETATM   18  C18 UNL     1     -14.196  23.987  20.392  1.00  0.00     0.051 C 
HETATM   19  C19 UNL     1     -16.466  24.824  20.584  1.00  0.00     0.051 C 
ENDROOT
BRANCH   1  20
HETATM   20  N3  UNL     1     -13.078  28.833  17.856  1.00  0.00    -0.291 NA
BRANCH  20  21
HETATM   21  C3  UNL     1     -12.501  29.337  16.930  1.00  0.00     0.263 A 
HETATM   22  N2  UNL     1     -12.537  30.637  16.481  1.00  0.00    -0.265 N 
HETATM   23  N1  UNL     1     -11.856  30.956  15.491  1.00  0.00    -0.285 N 
ATOM     24  H2  UNL     1     -13.117  31.331  16.955  1.00  0.00     0.190 HD
HETATM   25  C2  UNL     1     -11.096  30.090  14.853  1.00  0.00     0.130 A 
ATOM     26  H1  UNL     1     -11.887  31.921  15.162  1.00  0.00     0.188 HD
HETATM   27  S2  UNL     1     -11.380  28.683  15.751  1.00  0.00    -0.009 SA
BRANCH  25  28
HETATM   28  S1  UNL     1     -10.039  30.351  13.408  1.00  0.00    -0.108 SA
HETATM   29  C1  UNL     1      -9.097  28.852  13.043  1.00  0.00     0.097 C 
ENDBRANCH  25  28
ENDBRANCH  20  21
ENDBRANCH   1  20
TORSDOF 3
ENDMDL
MODEL 4
REMARK VINA RESULT: -7.530624299      1.963      2.295
REMARK  3 active torsions:
REMARK  status: ('A' for Active; 'I' for Inactive)
REMARK    1  A    between atoms: S1_2  and  C2_3 
REMARK    2  A    between atoms: C3_8  and  N3_9 
REMARK    3  A    between atoms: N3_9  and  N4_10 
ROOT
HETATM    1  N4  UNL     1     -13.734  26.898  18.063  1.00  0.00    -0.195 N 
HETATM    2  C4  UNL     1     -14.021  27.745  19.240  1.00  0.00     0.067 C 
HETATM    3  C5  UNL     1     -14.050  29.045  19.110  1.00  0.00    -0.060 C 
HETATM    4  C6  UNL     1     -14.331  29.910  20.282  1.00  0.00     0.045 C 
HETATM    5  C7  UNL     1     -13.877  29.800  17.819  1.00  0.00     0.045 C 
HETATM    6  C8  UNL     1     -14.338  26.947  20.442  1.00  0.00     0.139 C 
HETATM    7 CL1  UNL     1     -14.335  27.700  21.993  1.00  0.00    -0.118 Cl
HETATM    8  C9  UNL     1     -15.651  26.174  20.135  1.00  0.00     0.066 C 
HETATM    9  C10 UNL     1     -15.373  25.322  18.928  1.00  0.00    -0.019 C 
HETATM   10  C11 UNL     1     -14.521  25.662  18.032  1.00  0.00     0.059 C 
HETATM   11  C12 UNL     1     -14.279  24.773  16.864  1.00  0.00     0.069 C 
HETATM   12  C13 UNL     1     -12.983  24.036  17.119  1.00  0.00     0.020 C 
HETATM   13  C14 UNL     1     -15.359  23.781  16.619  1.00  0.00     0.064 C 
HETATM   14  C15 UNL     1     -15.996  24.160  15.266  1.00  0.00     0.046 C 
HETATM   15  C16 UNL     1     -14.798  22.373  16.374  1.00  0.00     0.046 C 
HETATM   16  O1  UNL     1     -16.368  23.706  17.511  1.00  0.00    -0.365 OA
HETATM   17  C17 UNL     1     -16.157  24.021  18.813  1.00  0.00     0.080 C 
HETATM   18  C18 UNL     1     -15.543  22.971  19.667  1.00  0.00     0.051 C 
HETATM   19  C19 UNL     1     -17.537  24.333  19.417  1.00  0.00     0.051 C 
ENDROOT
BRANCH   1  20
HETATM   20  N3  UNL     1     -12.868  27.186  17.169  1.00  0.00    -0.291 NA
BRANCH  20  21
HETATM   21  C3  UNL     1     -12.043  27.448  16.335  1.00  0.00     0.263 A 
HETATM   22  N2  UNL     1     -11.308  28.598  16.162  1.00  0.00    -0.265 N 
HETATM   23  N1  UNL     1     -10.496  28.664  15.223  1.00  0.00    -0.285 N 
ATOM     24  H2  UNL     1     -11.429  29.387  16.798  1.00  0.00     0.190 HD
HETATM   25  C2  UNL     1     -10.312  27.667  14.382  1.00  0.00     0.130 A 
ATOM     26  H1  UNL     1      -9.955  29.519  15.100  1.00  0.00     0.188 HD
HETATM   27  S2  UNL     1     -11.403  26.523  14.990  1.00  0.00    -0.009 SA
BRANCH  25  28
HETATM   28  S1  UNL     1      -9.191  27.564  12.966  1.00  0.00    -0.108 SA
HETATM   29  C1  UNL     1      -9.018  29.185  12.187  1.00  0.00     0.097 C 
ENDBRANCH  25  28
ENDBRANCH  20  21
ENDBRANCH   1  20
TORSDOF 3
ENDMDL
MODEL 5
REMARK VINA RESULT: -7.515147770      3.941      6.195
REMARK  3 active torsions:
REMARK  status: ('A' for Active; 'I' for Inactive)
REMARK    1  A    between atoms: S1_2  and  C2_3 
REMARK    2  A    between atoms: C3_8  and  N3_9 
REMARK    3  A    between atoms: N3_9  and  N4_10 
ROOT
HETATM    1  N4  UNL     1     -15.432  25.567  20.777  1.00  0.00    -0.195 N 
HETATM    2  C4  UNL     1     -16.575  24.763  20.295  1.00  0.00     0.067 C 
HETATM    3  C5  UNL     1     -16.800  24.662  19.011  1.00  0.00    -0.060 C 
HETATM    4  C6  UNL     1     -17.946  23.863  18.512  1.00  0.00     0.045 C 
HETATM    5  C7  UNL     1     -15.943  25.253  17.924  1.00  0.00     0.045 C 
HETATM    6  C8  UNL     1     -17.284  24.079  21.396  1.00  0.00     0.139 C 
HETATM    7 CL1  UNL     1     -18.844  23.402  21.117  1.00  0.00    -0.118 Cl
HETATM    8  C9  UNL     1     -16.278  23.072  22.021  1.00  0.00     0.066 C 
HETATM    9  C10 UNL     1     -15.105  23.880  22.499  1.00  0.00    -0.019 C 
HETATM   10  C11 UNL     1     -14.756  24.978  21.935  1.00  0.00     0.059 C 
HETATM   11  C12 UNL     1     -13.592  25.742  22.460  1.00  0.00     0.069 C 
HETATM   12  C13 UNL     1     -14.138  26.900  23.266  1.00  0.00     0.020 C 
HETATM   13  C14 UNL     1     -12.675  24.945  23.316  1.00  0.00     0.064 C 
HETATM   14  C15 UNL     1     -11.337  24.856  22.553  1.00  0.00     0.046 C 
HETATM   15  C16 UNL     1     -12.307  25.690  24.608  1.00  0.00     0.046 C 
HETATM   16  O1  UNL     1     -13.029  23.680  23.622  1.00  0.00    -0.365 OA
HETATM   17  C17 UNL     1     -14.338  23.333  23.695  1.00  0.00     0.080 C 
HETATM   18  C18 UNL     1     -15.049  23.662  24.959  1.00  0.00     0.051 C 
HETATM   19  C19 UNL     1     -14.395  21.804  23.540  1.00  0.00     0.051 C 
ENDROOT
BRANCH   1  20
HETATM   20  N3  UNL     1     -15.076  26.682  20.264  1.00  0.00    -0.291 NA
BRANCH  20  21
HETATM   21  C3  UNL     1     -14.758  27.735  19.778  1.00  0.00     0.263 A 
HETATM   22  N2  UNL     1     -13.903  27.991  18.732  1.00  0.00    -0.265 N 
HETATM   23  N1  UNL     1     -13.707  29.168  18.382  1.00  0.00    -0.285 N 
ATOM     24  H2  UNL     1     -13.434  27.224  18.248  1.00  0.00     0.190 HD
HETATM   25  C2  UNL     1     -14.293  30.185  18.981  1.00  0.00     0.130 A 
ATOM     26  H1  UNL     1     -13.073  29.352  17.605  1.00  0.00     0.188 HD
HETATM   27  S2  UNL     1     -15.212  29.385  20.157  1.00  0.00    -0.009 SA
BRANCH  25  28
HETATM   28  S1  UNL     1     -14.145  31.953  18.628  1.00  0.00    -0.108 SA
HETATM   29  C1  UNL     1     -15.078  32.913  19.842  1.00  0.00     0.097 C 
ENDBRANCH  25  28
ENDBRANCH  20  21
ENDBRANCH   1  20
TORSDOF 3
ENDMDL
