MODEL 1
REMARK VINA RESULT: -8.298711761      0.000      0.000
REMARK  4 active torsions:
REMARK  status: ('A' for Active; 'I' for Inactive)
REMARK    1  A    between atoms: C2_2  and  O1_4 
REMARK    2  A    between atoms: O1_4  and  C4_5 
REMARK    3  A    between atoms: C18_21  and  C19_22 
REMARK    4  A    between atoms: C21_25  and  O5_26 
ROOT
HETATM    1  C4  UNL     1     -15.192  24.436  21.442  1.00  0.00     0.161 C 
HETATM    2  C5  UNL     1     -16.204  25.000  20.608  1.00  0.00     0.006 C 
HETATM    3  C6  UNL     1     -16.041  25.764  19.388  1.00  0.00    -0.003 C 
HETATM    4  C7  UNL     1     -14.721  26.083  18.811  1.00  0.00     0.007 C 
HETATM    5  C8  UNL     1     -13.765  26.947  19.438  1.00  0.00     0.179 C 
HETATM    6  O2  UNL     1     -12.462  26.350  19.185  1.00  0.00    -0.310 OA
HETATM    7  C9  UNL     1     -12.125  25.158  19.811  1.00  0.00     0.264 C 
HETATM    8  O3  UNL     1     -10.943  24.797  19.482  1.00  0.00    -0.265 OA
HETATM    9  C10 UNL     1     -12.847  24.289  20.730  1.00  0.00     0.093 C 
HETATM   10  C11 UNL     1     -11.856  23.315  21.328  1.00  0.00     0.021 C 
HETATM   11  C12 UNL     1     -13.810  24.934  21.653  1.00  0.00     0.007 C 
HETATM   12  C13 UNL     1     -13.458  24.284  23.024  1.00  0.00     0.020 C 
HETATM   13  C14 UNL     1     -13.606  26.384  21.934  1.00  0.00    -0.008 C 
HETATM   14  C15 UNL     1     -12.277  26.492  22.721  1.00  0.00     0.018 C 
HETATM   15  C16 UNL     1     -14.550  26.926  22.976  1.00  0.00     0.013 C 
HETATM   16  C17 UNL     1     -14.504  28.447  22.750  1.00  0.00     0.012 C 
HETATM   17  C18 UNL     1     -14.718  28.424  21.242  1.00  0.00     0.048 C 
HETATM   18  C23 UNL     1     -13.731  27.371  20.842  1.00  0.00     0.083 C 
HETATM   19 CL1  UNL     1     -12.138  28.274  20.858  1.00  0.00    -0.115 Cl
ENDROOT
BRANCH  17  20
HETATM   20  C19 UNL     1     -14.692  29.695  20.599  1.00  0.00    -0.025 A 
HETATM   21  C20 UNL     1     -14.711  30.128  19.293  1.00  0.00     0.152 A 
HETATM   22  O4  UNL     1     -14.683  31.433  19.208  1.00  0.00    -0.300 OA
HETATM   23  C21 UNL     1     -14.644  31.937  20.405  1.00  0.00     0.183 A 
HETATM   24  C22 UNL     1     -14.648  30.911  21.311  1.00  0.00     0.073 A 
BRANCH  23  25
HETATM   25  O5  UNL     1     -14.607  33.293  20.703  1.00  0.00    -0.341 OA
ATOM     26  H5  UNL     1     -14.227  33.672  21.486  1.00  0.00     0.220 HD
ENDBRANCH  23  25
ENDBRANCH  17  20
BRANCH   1  27
HETATM   27  O1  UNL     1     -15.876  24.150  22.699  1.00  0.00    -0.347 OA
BRANCH  27  28
HETATM   28  C2  UNL     1     -16.780  23.078  22.723  1.00  0.00     0.034 C 
HETATM   29  C1  UNL     1     -16.359  21.843  22.590  1.00  0.00     0.045 C 
HETATM   30  C3  UNL     1     -18.236  23.315  22.899  1.00  0.00     0.075 C 
ENDBRANCH  27  28
ENDBRANCH   1  27
TORSDOF 4
ENDMDL
MODEL 2
REMARK VINA RESULT: -7.611540346      2.013      6.148
REMARK  4 active torsions:
REMARK  status: ('A' for Active; 'I' for Inactive)
REMARK    1  A    between atoms: C2_2  and  O1_4 
REMARK    2  A    between atoms: O1_4  and  C4_5 
REMARK    3  A    between atoms: C18_21  and  C19_22 
REMARK    4  A    between atoms: C21_25  and  O5_26 
ROOT
HETATM    1  C4  UNL     1     -13.596  28.834  19.403  1.00  0.00     0.161 C 
HETATM    2  C5  UNL     1     -14.653  29.109  20.322  1.00  0.00     0.006 C 
HETATM    3  C6  UNL     1     -14.916  28.487  21.603  1.00  0.00    -0.003 C 
HETATM    4  C7  UNL     1     -14.072  27.413  22.162  1.00  0.00     0.007 C 
HETATM    5  C8  UNL     1     -13.962  26.105  21.588  1.00  0.00     0.179 C 
HETATM    6  O2  UNL     1     -12.567  25.720  21.738  1.00  0.00    -0.310 OA
HETATM    7  C9  UNL     1     -11.596  26.370  20.989  1.00  0.00     0.264 C 
HETATM    8  O3  UNL     1     -10.438  25.889  21.243  1.00  0.00    -0.265 OA
HETATM    9  C10 UNL     1     -11.661  27.452  20.017  1.00  0.00     0.093 C 
HETATM   10  C11 UNL     1     -10.333  27.513  19.295  1.00  0.00     0.021 C 
HETATM   11  C12 UNL     1     -12.889  27.546  19.194  1.00  0.00     0.007 C 
HETATM   12  C13 UNL     1     -12.323  27.739  17.756  1.00  0.00     0.020 C 
HETATM   13  C14 UNL     1     -13.697  26.302  19.045  1.00  0.00    -0.008 C 
HETATM   14  C15 UNL     1     -12.830  25.314  18.228  1.00  0.00     0.018 C 
HETATM   15  C16 UNL     1     -14.855  26.455  18.093  1.00  0.00     0.013 C 
HETATM   16  C17 UNL     1     -15.785  25.286  18.461  1.00  0.00     0.012 C 
HETATM   17  C18 UNL     1     -15.799  25.519  19.966  1.00  0.00     0.048 C 
HETATM   18  C23 UNL     1     -14.335  25.692  20.231  1.00  0.00     0.083 C 
HETATM   19 CL1  UNL     1     -13.714  23.969  20.246  1.00  0.00    -0.115 Cl
ENDROOT
BRANCH  17  20
HETATM   20  C19 UNL     1     -16.544  24.572  20.727  1.00  0.00    -0.025 A 
HETATM   21  C20 UNL     1     -17.311  23.469  20.430  1.00  0.00     0.152 A 
HETATM   22  O4  UNL     1     -17.795  22.903  21.506  1.00  0.00    -0.300 OA
HETATM   23  C21 UNL     1     -17.397  23.566  22.551  1.00  0.00     0.183 A 
HETATM   24  C22 UNL     1     -16.619  24.612  22.135  1.00  0.00     0.073 A 
BRANCH  23  25
HETATM   25  O5  UNL     1     -17.715  23.254  23.867  1.00  0.00    -0.341 OA
ATOM     26  H5  UNL     1     -17.677  23.859  24.598  1.00  0.00     0.220 HD
ENDBRANCH  23  25
ENDBRANCH  17  20
BRANCH   1  27
HETATM   27  O1  UNL     1     -14.038  29.434  18.149  1.00  0.00    -0.347 OA
BRANCH  27  28
HETATM   28  C2  UNL     1     -13.826  30.808  17.969  1.00  0.00     0.034 C 
HETATM   29  C1  UNL     1     -12.966  31.242  17.078  1.00  0.00     0.045 C 
HETATM   30  C3  UNL     1     -14.567  31.806  18.782  1.00  0.00     0.075 C 
ENDBRANCH  27  28
ENDBRANCH   1  27
TORSDOF 4
ENDMDL
MODEL 3
REMARK VINA RESULT: -7.534490424      1.790      6.120
REMARK  4 active torsions:
REMARK  status: ('A' for Active; 'I' for Inactive)
REMARK    1  A    between atoms: C2_2  and  O1_4 
REMARK    2  A    between atoms: O1_4  and  C4_5 
REMARK    3  A    between atoms: C18_21  and  C19_22 
REMARK    4  A    between atoms: C21_25  and  O5_26 
ROOT
HETATM    1  C4  UNL     1     -13.618  28.948  20.183  1.00  0.00     0.161 C 
HETATM    2  C5  UNL     1     -13.917  29.076  21.573  1.00  0.00     0.006 C 
HETATM    3  C6  UNL     1     -13.404  28.293  22.679  1.00  0.00    -0.003 C 
HETATM    4  C7  UNL     1     -12.446  27.185  22.502  1.00  0.00     0.007 C 
HETATM    5  C8  UNL     1     -12.759  25.961  21.826  1.00  0.00     0.179 C 
HETATM    6  O2  UNL     1     -11.564  25.603  21.077  1.00  0.00    -0.310 OA
HETATM    7  C9  UNL     1     -11.190  26.369  19.982  1.00  0.00     0.264 C 
HETATM    8  O3  UNL     1     -10.131  25.895  19.444  1.00  0.00    -0.265 OA
HETATM    9  C10 UNL     1     -11.763  27.559  19.370  1.00  0.00     0.093 C 
HETATM   10  C11 UNL     1     -11.115  27.748  18.017  1.00  0.00     0.021 C 
HETATM   11  C12 UNL     1     -13.234  27.717  19.448  1.00  0.00     0.007 C 
HETATM   12  C13 UNL     1     -13.616  28.102  17.988  1.00  0.00     0.020 C 
HETATM   13  C14 UNL     1     -14.034  26.477  19.662  1.00  0.00    -0.008 C 
HETATM   14  C15 UNL     1     -13.864  25.623  18.382  1.00  0.00     0.018 C 
HETATM   15  C16 UNL     1     -15.521  26.711  19.603  1.00  0.00     0.013 C 
HETATM   16  C17 UNL     1     -16.111  25.478  20.309  1.00  0.00     0.012 C 
HETATM   17  C18 UNL     1     -15.224  25.524  21.546  1.00  0.00     0.048 C 
HETATM   18  C23 UNL     1     -13.879  25.707  20.914  1.00  0.00     0.083 C 
HETATM   19 CL1  UNL     1     -13.453  24.015  20.359  1.00  0.00    -0.115 Cl
ENDROOT
BRANCH  17  20
HETATM   20  C19 UNL     1     -15.423  24.469  22.484  1.00  0.00    -0.025 A 
HETATM   21  C20 UNL     1     -15.883  23.174  22.412  1.00  0.00     0.152 A 
HETATM   22  O4  UNL     1     -15.868  22.583  23.579  1.00  0.00    -0.300 OA
HETATM   23  C21 UNL     1     -15.415  23.412  24.471  1.00  0.00     0.183 A 
HETATM   24  C22 UNL     1     -15.122  24.599  23.855  1.00  0.00     0.073 A 
BRANCH  23  25
HETATM   25  O5  UNL     1     -15.258  23.130  25.822  1.00  0.00    -0.341 OA
ATOM     26  H5  UNL     1     -14.433  22.930  26.248  1.00  0.00     0.220 HD
ENDBRANCH  23  25
ENDBRANCH  17  20
BRANCH   1  27
HETATM   27  O1  UNL     1     -14.685  29.683  19.512  1.00  0.00    -0.347 OA
BRANCH  27  28
HETATM   28  C2  UNL     1     -14.505  31.059  19.310  1.00  0.00     0.034 C 
HETATM   29  C1  UNL     1     -14.131  31.520  18.140  1.00  0.00     0.045 C 
HETATM   30  C3  UNL     1     -14.731  32.027  20.414  1.00  0.00     0.075 C 
ENDBRANCH  27  28
ENDBRANCH   1  27
TORSDOF 4
ENDMDL
MODEL 4
REMARK VINA RESULT: -7.399929574      2.258      3.267
REMARK  4 active torsions:
REMARK  status: ('A' for Active; 'I' for Inactive)
REMARK    1  A    between atoms: C2_2  and  O1_4 
REMARK    2  A    between atoms: O1_4  and  C4_5 
REMARK    3  A    between atoms: C18_21  and  C19_22 
REMARK    4  A    between atoms: C21_25  and  O5_26 
ROOT
HETATM    1  C4  UNL     1     -13.946  25.103  17.592  1.00  0.00     0.161 C 
HETATM    2  C5  UNL     1     -14.449  26.202  16.833  1.00  0.00     0.006 C 
HETATM    3  C6  UNL     1     -13.863  27.515  16.654  1.00  0.00    -0.003 C 
HETATM    4  C7  UNL     1     -12.586  27.915  17.277  1.00  0.00     0.007 C 
HETATM    5  C8  UNL     1     -12.401  28.063  18.690  1.00  0.00     0.179 C 
HETATM    6  O2  UNL     1     -11.067  27.555  18.972  1.00  0.00    -0.310 OA
HETATM    7  C9  UNL     1     -10.817  26.194  18.859  1.00  0.00     0.264 C 
HETATM    8  O3  UNL     1      -9.601  25.936  19.160  1.00  0.00    -0.265 OA
HETATM    9  C10 UNL     1     -11.655  25.067  18.476  1.00  0.00     0.093 C 
HETATM   10  C11 UNL     1     -10.930  23.795  18.854  1.00  0.00     0.021 C 
HETATM   11  C12 UNL     1     -13.096  25.154  18.808  1.00  0.00     0.007 C 
HETATM   12  C13 UNL     1     -13.386  23.761  19.441  1.00  0.00     0.020 C 
HETATM   13  C14 UNL     1     -13.479  26.082  19.910  1.00  0.00    -0.008 C 
HETATM   14  C15 UNL     1     -12.880  25.488  21.208  1.00  0.00     0.018 C 
HETATM   15  C16 UNL     1     -14.942  26.014  20.264  1.00  0.00     0.013 C 
HETATM   16  C17 UNL     1     -15.195  27.329  21.020  1.00  0.00     0.012 C 
HETATM   17  C18 UNL     1     -14.539  28.260  20.009  1.00  0.00     0.048 C 
HETATM   18  C23 UNL     1     -13.252  27.534  19.762  1.00  0.00     0.083 C 
HETATM   19 CL1  UNL     1     -12.239  27.988  21.218  1.00  0.00    -0.115 Cl
ENDROOT
BRANCH  17  20
HETATM   20  C19 UNL     1     -14.512  29.638  20.371  1.00  0.00    -0.025 A 
HETATM   21  C20 UNL     1     -14.409  30.335  21.553  1.00  0.00     0.152 A 
HETATM   22  O4  UNL     1     -14.418  31.629  21.362  1.00  0.00    -0.300 OA
HETATM   23  C21 UNL     1     -14.523  31.871  20.090  1.00  0.00     0.183 A 
HETATM   24  C22 UNL     1     -14.585  30.679  19.422  1.00  0.00     0.073 A 
BRANCH  23  25
HETATM   25  O5  UNL     1     -14.563  33.135  19.515  1.00  0.00    -0.341 OA
ATOM     26  H5  UNL     1     -14.299  33.342  18.626  1.00  0.00     0.220 HD
ENDBRANCH  23  25
ENDBRANCH  17  20
BRANCH   1  27
HETATM   27  O1  UNL     1     -15.095  24.218  17.756  1.00  0.00    -0.347 OA
BRANCH  27  28
HETATM   28  C2  UNL     1     -15.795  23.834  16.602  1.00  0.00     0.034 C 
HETATM   29  C1  UNL     1     -15.248  23.025  15.726  1.00  0.00     0.045 C 
HETATM   30  C3  UNL     1     -17.170  24.333  16.345  1.00  0.00     0.075 C 
ENDBRANCH  27  28
ENDBRANCH   1  27
TORSDOF 4
ENDMDL
MODEL 5
REMARK VINA RESULT: -7.386176870      2.676      4.681
REMARK  4 active torsions:
REMARK  status: ('A' for Active; 'I' for Inactive)
REMARK    1  A    between atoms: C2_2  and  O1_4 
REMARK    2  A    between atoms: O1_4  and  C4_5 
REMARK    3  A    between atoms: C18_21  and  C19_22 
REMARK    4  A    between atoms: C21_25  and  O5_26 
ROOT
HETATM    1  C4  UNL     1     -12.759  23.942  22.732  1.00  0.00     0.161 C 
HETATM    2  C5  UNL     1     -12.669  22.961  21.699  1.00  0.00     0.006 C 
HETATM    3  C6  UNL     1     -12.488  23.167  20.276  1.00  0.00    -0.003 C 
HETATM    4  C7  UNL     1     -12.370  24.506  19.668  1.00  0.00     0.007 C 
HETATM    5  C8  UNL     1     -13.435  25.464  19.636  1.00  0.00     0.179 C 
HETATM    6  O2  UNL     1     -12.812  26.761  19.858  1.00  0.00    -0.310 OA
HETATM    7  C9  UNL     1     -12.284  27.059  21.107  1.00  0.00     0.264 C 
HETATM    8  O3  UNL     1     -11.796  28.242  21.115  1.00  0.00    -0.265 OA
HETATM    9  C10 UNL     1     -12.193  26.300  22.345  1.00  0.00     0.093 C 
HETATM   10  C11 UNL     1     -11.816  27.257  23.454  1.00  0.00     0.021 C 
HETATM   11  C12 UNL     1     -13.277  25.328  22.623  1.00  0.00     0.007 C 
HETATM   12  C13 UNL     1     -13.640  25.635  24.105  1.00  0.00     0.020 C 
HETATM   13  C14 UNL     1     -14.577  25.554  21.930  1.00  0.00    -0.008 C 
HETATM   14  C15 UNL     1     -15.158  26.866  22.511  1.00  0.00     0.018 C 
HETATM   15  C16 UNL     1     -15.657  24.597  22.365  1.00  0.00     0.013 C 
HETATM   16  C17 UNL     1     -16.693  24.678  21.230  1.00  0.00     0.012 C 
HETATM   17  C18 UNL     1     -15.721  24.499  20.071  1.00  0.00     0.048 C 
HETATM   18  C23 UNL     1     -14.651  25.474  20.456  1.00  0.00     0.083 C 
HETATM   19 CL1  UNL     1     -15.360  27.083  19.947  1.00  0.00    -0.115 Cl
ENDROOT
BRANCH  17  20
HETATM   20  C19 UNL     1     -16.298  24.565  18.770  1.00  0.00    -0.025 A 
HETATM   21  C20 UNL     1     -15.887  24.226  17.501  1.00  0.00     0.152 A 
HETATM   22  O4  UNL     1     -16.807  24.473  16.605  1.00  0.00    -0.300 OA
HETATM   23  C21 UNL     1     -17.852  24.973  17.193  1.00  0.00     0.183 A 
HETATM   24  C22 UNL     1     -17.600  25.055  18.536  1.00  0.00     0.073 A 
BRANCH  23  25
HETATM   25  O5  UNL     1     -19.024  25.356  16.555  1.00  0.00    -0.341 OA
ATOM     26  H5  UNL     1     -19.834  25.591  16.991  1.00  0.00     0.220 HD
ENDBRANCH  23  25
ENDBRANCH  17  20
BRANCH   1  27
HETATM   27  O1  UNL     1     -13.332  23.224  23.865  1.00  0.00    -0.347 OA
BRANCH  27  28
HETATM   28  C2  UNL     1     -12.500  22.342  24.571  1.00  0.00     0.034 C 
HETATM   29  C1  UNL     1     -11.453  22.789  25.223  1.00  0.00     0.045 C 
HETATM   30  C3  UNL     1     -12.782  20.884  24.596  1.00  0.00     0.075 C 
ENDBRANCH  27  28
ENDBRANCH   1  27
TORSDOF 4
ENDMDL
