MODEL 1
REMARK VINA RESULT: -4.693356355      0.000      0.000
REMARK  3 active torsions:
REMARK  status: ('A' for Active; 'I' for Inactive)
REMARK    1  A    between atoms: C2_2  and  O1_3 
REMARK    2  A    between atoms: C4_7  and  O3_8 
REMARK    3  A    between atoms: C6_11  and  O4_12 
ROOT
HETATM    1  C1  UNL     1       1.354   0.165 -54.618  1.00  0.00     0.081 C 
HETATM    2  C2  UNL     1       2.101   0.888 -53.535  1.00  0.00     0.184 C 
HETATM    3  O2  UNL     1       2.989   1.827 -54.028  1.00  0.00    -0.351 OA
HETATM    4  C3  UNL     1       3.827   2.218 -53.023  1.00  0.00     0.203 C 
HETATM    5  C4  UNL     1       3.174   2.827 -51.836  1.00  0.00     0.144 C 
HETATM    6  C5  UNL     1       1.792   2.390 -51.555  1.00  0.00     0.071 C 
HETATM    7  C6  UNL     1       1.109   1.659 -52.666  1.00  0.00     0.182 C 
ENDROOT
BRANCH   2   8
HETATM    8  O1  UNL     1       2.699  -0.052 -52.705  1.00  0.00    -0.364 OA
ATOM      9  H1  UNL     1       2.702  -0.890 -53.150  1.00  0.00     0.213 HD
ENDBRANCH   2   8
BRANCH   7  10
HETATM   10  O4  UNL     1       0.458   2.549 -53.542  1.00  0.00    -0.390 OA
ATOM     11  H4  UNL     1      -0.466   2.485 -53.328  1.00  0.00     0.210 HD
ENDBRANCH   7  10
BRANCH   5  12
HETATM   12  O3  UNL     1       3.212   4.240 -51.894  1.00  0.00    -0.393 OA
ATOM     13  H3  UNL     1       2.586   4.577 -52.524  1.00  0.00     0.210 HD
ENDBRANCH   5  12
TORSDOF 3
ENDMDL
MODEL 2
REMARK VINA RESULT: -4.485187750      1.537      2.295
REMARK  3 active torsions:
REMARK  status: ('A' for Active; 'I' for Inactive)
REMARK    1  A    between atoms: C2_2  and  O1_3 
REMARK    2  A    between atoms: C4_7  and  O3_8 
REMARK    3  A    between atoms: C6_11  and  O4_12 
ROOT
HETATM    1  C1  UNL     1       1.151   2.596 -53.295  1.00  0.00     0.081 C 
HETATM    2  C2  UNL     1       2.461   2.091 -52.763  1.00  0.00     0.184 C 
HETATM    3  O2  UNL     1       3.488   2.183 -53.686  1.00  0.00    -0.351 OA
HETATM    4  C3  UNL     1       4.549   1.445 -53.246  1.00  0.00     0.203 C 
HETATM    5  C4  UNL     1       5.116   1.846 -51.933  1.00  0.00     0.144 C 
HETATM    6  C5  UNL     1       4.181   2.483 -50.985  1.00  0.00     0.071 C 
HETATM    7  C6  UNL     1       2.886   2.948 -51.572  1.00  0.00     0.182 C 
ENDROOT
BRANCH   2   8
HETATM    8  O1  UNL     1       2.275   0.805 -52.273  1.00  0.00    -0.364 OA
ATOM      9  H1  UNL     1       2.293   0.198 -53.002  1.00  0.00     0.213 HD
ENDBRANCH   2   8
BRANCH   7  10
HETATM   10  O4  UNL     1       2.991   4.260 -52.073  1.00  0.00    -0.390 OA
ATOM     11  H4  UNL     1       2.519   4.805 -51.454  1.00  0.00     0.210 HD
ENDBRANCH   7  10
BRANCH   5  12
HETATM   12  O3  UNL     1       6.252   2.672 -52.093  1.00  0.00    -0.393 OA
ATOM     13  H3  UNL     1       6.735   2.758 -51.279  1.00  0.00     0.210 HD
ENDBRANCH   5  12
TORSDOF 3
ENDMDL
MODEL 3
REMARK VINA RESULT: -4.353827996      1.271      1.922
REMARK  3 active torsions:
REMARK  status: ('A' for Active; 'I' for Inactive)
REMARK    1  A    between atoms: C2_2  and  O1_3 
REMARK    2  A    between atoms: C4_7  and  O3_8 
REMARK    3  A    between atoms: C6_11  and  O4_12 
ROOT
HETATM    1  C1  UNL     1       1.176   0.020 -54.186  1.00  0.00     0.081 C 
HETATM    2  C2  UNL     1       1.314   1.274 -53.373  1.00  0.00     0.184 C 
HETATM    3  O2  UNL     1       2.367   1.222 -52.477  1.00  0.00    -0.351 OA
HETATM    4  C3  UNL     1       2.245   2.250 -51.586  1.00  0.00     0.203 C 
HETATM    5  C4  UNL     1       2.245   3.615 -52.170  1.00  0.00     0.144 C 
HETATM    6  C5  UNL     1       1.740   3.736 -53.552  1.00  0.00     0.071 C 
HETATM    7  C6  UNL     1       1.608   2.450 -54.303  1.00  0.00     0.182 C 
ENDROOT
BRANCH   2   8
HETATM    8  O1  UNL     1       0.092   1.549 -52.771  1.00  0.00    -0.364 OA
ATOM      9  H1  UNL     1      -0.545   1.737 -53.450  1.00  0.00     0.213 HD
ENDBRANCH   2   8
BRANCH   7  10
HETATM   10  O4  UNL     1       2.806   2.115 -54.962  1.00  0.00    -0.390 OA
ATOM     11  H4  UNL     1       2.599   2.132 -55.889  1.00  0.00     0.210 HD
ENDBRANCH   7  10
BRANCH   5  12
HETATM   12  O3  UNL     1       3.527   4.209 -52.089  1.00  0.00    -0.393 OA
ATOM     13  H3  UNL     1       3.705   4.751 -52.849  1.00  0.00     0.210 HD
ENDBRANCH   5  12
TORSDOF 3
ENDMDL
MODEL 4
REMARK VINA RESULT: -4.337364497      1.360      3.184
REMARK  3 active torsions:
REMARK  status: ('A' for Active; 'I' for Inactive)
REMARK    1  A    between atoms: C2_2  and  O1_3 
REMARK    2  A    between atoms: C4_7  and  O3_8 
REMARK    3  A    between atoms: C6_11  and  O4_12 
ROOT
HETATM    1  C1  UNL     1       4.719   2.525 -51.738  1.00  0.00     0.081 C 
HETATM    2  C2  UNL     1       3.454   2.910 -52.451  1.00  0.00     0.184 C 
HETATM    3  O2  UNL     1       3.569   2.835 -53.827  1.00  0.00    -0.351 OA
HETATM    4  C3  UNL     1       2.504   3.474 -54.397  1.00  0.00     0.203 C 
HETATM    5  C4  UNL     1       1.164   2.937 -54.048  1.00  0.00     0.144 C 
HETATM    6  C5  UNL     1       1.047   2.279 -52.731  1.00  0.00     0.071 C 
HETATM    7  C6  UNL     1       2.341   1.937 -52.065  1.00  0.00     0.182 C 
ENDROOT
BRANCH   2   8
HETATM    8  O1  UNL     1       3.054   4.160 -51.999  1.00  0.00    -0.364 OA
ATOM      9  H1  UNL     1       3.146   4.185 -51.054  1.00  0.00     0.213 HD
ENDBRANCH   2   8
BRANCH   7  10
HETATM   10  O4  UNL     1       2.802   0.666 -52.459  1.00  0.00    -0.390 OA
ATOM     11  H4  UNL     1       2.612   0.090 -51.727  1.00  0.00     0.210 HD
ENDBRANCH   7  10
BRANCH   5  12
HETATM   12  O3  UNL     1       0.682   2.062 -55.049  1.00  0.00    -0.393 OA
ATOM     13  H3  UNL     1      -0.143   2.368 -55.408  1.00  0.00     0.210 HD
ENDBRANCH   5  12
TORSDOF 3
ENDMDL
MODEL 5
REMARK VINA RESULT: -4.318653532      1.690      3.303
REMARK  3 active torsions:
REMARK  status: ('A' for Active; 'I' for Inactive)
REMARK    1  A    between atoms: C2_2  and  O1_3 
REMARK    2  A    between atoms: C4_7  and  O3_8 
REMARK    3  A    between atoms: C6_11  and  O4_12 
ROOT
HETATM    1  C1  UNL     1       2.615   2.742 -50.239  1.00  0.00     0.081 C 
HETATM    2  C2  UNL     1       3.283   2.850 -51.579  1.00  0.00     0.184 C 
HETATM    3  O2  UNL     1       4.461   2.127 -51.652  1.00  0.00    -0.351 OA
HETATM    4  C3  UNL     1       5.147   2.509 -52.770  1.00  0.00     0.203 C 
HETATM    5  C4  UNL     1       4.441   2.311 -54.062  1.00  0.00     0.144 C 
HETATM    6  C5  UNL     1       2.966   2.362 -54.015  1.00  0.00     0.071 C 
HETATM    7  C6  UNL     1       2.362   2.268 -52.650  1.00  0.00     0.182 C 
ENDROOT
BRANCH   2   8
HETATM    8  O1  UNL     1       3.442   4.194 -51.888  1.00  0.00    -0.364 OA
ATOM      9  H1  UNL     1       3.903   4.617 -51.174  1.00  0.00     0.213 HD
ENDBRANCH   2   8
BRANCH   7  10
HETATM   10  O4  UNL     1       2.150   0.928 -52.274  1.00  0.00    -0.390 OA
ATOM     11  H4  UNL     1       1.723   0.520 -53.019  1.00  0.00     0.210 HD
ENDBRANCH   7  10
BRANCH   5  12
HETATM   12  O3  UNL     1       4.846   1.112 -54.693  1.00  0.00    -0.393 OA
ATOM     13  H3  UNL     1       4.761   1.171 -55.637  1.00  0.00     0.210 HD
ENDBRANCH   5  12
TORSDOF 3
ENDMDL
