MODEL 1
REMARK VINA RESULT: -4.629222505      0.000      0.000
REMARK  3 active torsions:
REMARK  status: ('A' for Active; 'I' for Inactive)
REMARK    1  A    between atoms: C2_2  and  O1_3 
REMARK    2  A    between atoms: N1_6  and  O2_7 
REMARK    3  A    between atoms: C6_11  and  O3_12 
ROOT
HETATM    1  C1  UNL     1       2.433   2.662 -49.923  1.00  0.00     0.050 C 
HETATM    2  C2  UNL     1       2.348   2.301 -51.367  1.00  0.00     0.098 C 
HETATM    3  C3  UNL     1       1.004   1.643 -51.709  1.00  0.00     0.194 C 
HETATM    4  N1  UNL     1       1.189   1.020 -52.982  1.00  0.00    -0.273 N 
HETATM    5  C4  UNL     1       1.612   1.852 -54.033  1.00  0.00     0.092 C 
HETATM    6  C5  UNL     1       2.425   3.038 -53.710  1.00  0.00     0.081 C 
HETATM    7  C6  UNL     1       2.435   3.487 -52.296  1.00  0.00     0.158 C 
ENDROOT
BRANCH   2   8
HETATM    8  O1  UNL     1       3.385   1.421 -51.758  1.00  0.00    -0.386 OA
ATOM      9  H1  UNL     1       3.962   1.812 -52.403  1.00  0.00     0.210 HD
ENDBRANCH   2   8
BRANCH   7  10
HETATM   10  O3  UNL     1       3.545   4.276 -52.054  1.00  0.00    -0.392 OA
ATOM     11  H3  UNL     1       3.942   4.606 -52.852  1.00  0.00     0.210 HD
ENDBRANCH   7  10
BRANCH   4  12
HETATM   12  O2  UNL     1       1.819  -0.174 -52.907  1.00  0.00    -0.288 OA
ATOM     13  H2  UNL     1       1.813  -0.655 -53.727  1.00  0.00     0.244 HD
ENDBRANCH   4  12
TORSDOF 3
ENDMDL
MODEL 2
REMARK VINA RESULT: -4.493548825      1.815      3.286
REMARK  3 active torsions:
REMARK  status: ('A' for Active; 'I' for Inactive)
REMARK    1  A    between atoms: C2_2  and  O1_3 
REMARK    2  A    between atoms: N1_6  and  O2_7 
REMARK    3  A    between atoms: C6_11  and  O3_12 
ROOT
HETATM    1  C1  UNL     1       4.812   0.595 -53.190  1.00  0.00     0.050 C 
HETATM    2  C2  UNL     1       3.563   1.379 -52.970  1.00  0.00     0.098 C 
HETATM    3  C3  UNL     1       3.541   2.661 -53.815  1.00  0.00     0.194 C 
HETATM    4  N1  UNL     1       2.516   3.481 -53.251  1.00  0.00    -0.273 N 
HETATM    5  C4  UNL     1       1.231   2.918 -53.177  1.00  0.00     0.092 C 
HETATM    6  C5  UNL     1       1.108   1.455 -53.045  1.00  0.00     0.081 C 
HETATM    7  C6  UNL     1       2.306   0.644 -53.368  1.00  0.00     0.158 C 
ENDROOT
BRANCH   2   8
HETATM    8  O1  UNL     1       3.391   1.739 -51.613  1.00  0.00    -0.386 OA
ATOM      9  H1  UNL     1       2.722   2.403 -51.501  1.00  0.00     0.210 HD
ENDBRANCH   2   8
BRANCH   7  10
HETATM   10  O3  UNL     1       2.210  -0.606 -52.782  1.00  0.00    -0.392 OA
ATOM     11  H3  UNL     1       1.320  -0.939 -52.773  1.00  0.00     0.210 HD
ENDBRANCH   7  10
BRANCH   4  12
HETATM   12  O2  UNL     1       2.913   4.149 -52.144  1.00  0.00    -0.288 OA
ATOM     13  H2  UNL     1       2.813   5.091 -52.216  1.00  0.00     0.244 HD
ENDBRANCH   4  12
TORSDOF 3
ENDMDL
MODEL 3
REMARK VINA RESULT: -4.441870072      1.874      2.878
REMARK  3 active torsions:
REMARK  status: ('A' for Active; 'I' for Inactive)
REMARK    1  A    between atoms: C2_2  and  O1_3 
REMARK    2  A    between atoms: N1_6  and  O2_7 
REMARK    3  A    between atoms: C6_11  and  O3_12 
ROOT
HETATM    1  C1  UNL     1       2.654   2.705 -50.021  1.00  0.00     0.050 C 
HETATM    2  C2  UNL     1       2.947   2.717 -51.482  1.00  0.00     0.098 C 
HETATM    3  C3  UNL     1       4.365   2.210 -51.781  1.00  0.00     0.194 C 
HETATM    4  N1  UNL     1       4.649   2.616 -53.121  1.00  0.00    -0.273 N 
HETATM    5  C4  UNL     1       3.752   2.183 -54.112  1.00  0.00     0.092 C 
HETATM    6  C5  UNL     1       2.347   1.945 -53.737  1.00  0.00     0.081 C 
HETATM    7  C6  UNL     1       2.046   1.816 -52.290  1.00  0.00     0.158 C 
ENDROOT
BRANCH   2   8
HETATM    8  O1  UNL     1       2.812   4.009 -52.043  1.00  0.00    -0.386 OA
ATOM      9  H1  UNL     1       2.730   3.982 -52.989  1.00  0.00     0.210 HD
ENDBRANCH   2   8
BRANCH   7  10
HETATM   10  O3  UNL     1       0.703   2.056 -52.059  1.00  0.00    -0.392 OA
ATOM     11  H3  UNL     1       0.300   1.388 -51.516  1.00  0.00     0.210 HD
ENDBRANCH   7  10
BRANCH   4  12
HETATM   12  O2  UNL     1       5.031   3.910 -53.219  1.00  0.00    -0.288 OA
ATOM     13  H2  UNL     1       4.452   4.434 -53.761  1.00  0.00     0.244 HD
ENDBRANCH   4  12
TORSDOF 3
ENDMDL
MODEL 4
REMARK VINA RESULT: -4.377155122      1.848      2.386
REMARK  3 active torsions:
REMARK  status: ('A' for Active; 'I' for Inactive)
REMARK    1  A    between atoms: C2_2  and  O1_3 
REMARK    2  A    between atoms: N1_6  and  O2_7 
REMARK    3  A    between atoms: C6_11  and  O3_12 
ROOT
HETATM    1  C1  UNL     1       1.445   3.320 -53.338  1.00  0.00     0.050 C 
HETATM    2  C2  UNL     1       2.506   2.314 -53.045  1.00  0.00     0.098 C 
HETATM    3  C3  UNL     1       2.665   1.307 -54.193  1.00  0.00     0.194 C 
HETATM    4  N1  UNL     1       3.408   0.214 -53.652  1.00  0.00    -0.273 N 
HETATM    5  C4  UNL     1       4.659   0.522 -53.091  1.00  0.00     0.092 C 
HETATM    6  C5  UNL     1       4.861   1.861 -52.509  1.00  0.00     0.081 C 
HETATM    7  C6  UNL     1       3.881   2.912 -52.876  1.00  0.00     0.158 C 
ENDROOT
BRANCH   2   8
HETATM    8  O1  UNL     1       2.244   1.593 -51.857  1.00  0.00    -0.386 OA
ATOM      9  H1  UNL     1       1.313   1.484 -51.702  1.00  0.00     0.210 HD
ENDBRANCH   2   8
BRANCH   7  10
HETATM   10  O3  UNL     1       3.908   3.935 -51.946  1.00  0.00    -0.392 OA
ATOM     11  H3  UNL     1       4.205   4.759 -52.315  1.00  0.00     0.210 HD
ENDBRANCH   7  10
BRANCH   4  12
HETATM   12  O2  UNL     1       2.651  -0.643 -52.929  1.00  0.00    -0.288 OA
ATOM     13  H2  UNL     1       1.753  -0.703 -53.234  1.00  0.00     0.244 HD
ENDBRANCH   4  12
TORSDOF 3
ENDMDL
MODEL 5
REMARK VINA RESULT: -4.372221247      1.881      2.815
REMARK  3 active torsions:
REMARK  status: ('A' for Active; 'I' for Inactive)
REMARK    1  A    between atoms: C2_2  and  O1_3 
REMARK    2  A    between atoms: N1_6  and  O2_7 
REMARK    3  A    between atoms: C6_11  and  O3_12 
ROOT
HETATM    1  C1  UNL     1       5.197   2.607 -51.683  1.00  0.00     0.050 C 
HETATM    2  C2  UNL     1       3.804   2.848 -52.158  1.00  0.00     0.098 C 
HETATM    3  C3  UNL     1       3.606   2.365 -53.602  1.00  0.00     0.194 C 
HETATM    4  N1  UNL     1       2.396   2.976 -54.053  1.00  0.00    -0.273 N 
HETATM    5  C4  UNL     1       1.244   2.727 -53.288  1.00  0.00     0.092 C 
HETATM    6  C5  UNL     1       1.397   2.462 -51.846  1.00  0.00     0.081 C 
HETATM    7  C6  UNL     1       2.755   2.108 -51.365  1.00  0.00     0.158 C 
ENDROOT
BRANCH   2   8
HETATM    8  O1  UNL     1       3.449   4.216 -52.095  1.00  0.00    -0.386 OA
ATOM      9  H1  UNL     1       2.715   4.368 -51.511  1.00  0.00     0.210 HD
ENDBRANCH   2   8
BRANCH   7  10
HETATM   10  O3  UNL     1       2.854   2.335 -50.004  1.00  0.00    -0.392 OA
ATOM     11  H3  UNL     1       2.422   1.664 -49.488  1.00  0.00     0.210 HD
ENDBRANCH   7  10
BRANCH   4  12
HETATM   12  O2  UNL     1       2.557   4.260 -54.445  1.00  0.00    -0.288 OA
ATOM     13  H2  UNL     1       2.330   4.891 -53.771  1.00  0.00     0.244 HD
ENDBRANCH   4  12
TORSDOF 3
ENDMDL
