MODEL 1
REMARK VINA RESULT: -4.075602907      0.000      0.000
REMARK  3 active torsions:
REMARK  status: ('A' for Active; 'I' for Inactive)
REMARK    1  A    between atoms: O1_1  and  C1_3 
REMARK    2  A    between atoms: C4_7  and  O2_8 
REMARK    3  A    between atoms: C5_10  and  O3_11 
ROOT
HETATM    1  C1  UNL     1       2.736   3.034 -52.464  1.00  0.00     0.150 C 
HETATM    2  C2  UNL     1       1.652   2.377 -51.643  1.00  0.00     0.045 C 
HETATM    3  C3  UNL     1       0.774   1.612 -52.643  1.00  0.00     0.079 C 
HETATM    4  S1  UNL     1       1.861   0.298 -53.308  1.00  0.00    -0.135 SA
HETATM    5  C4  UNL     1       3.517   0.955 -53.552  1.00  0.00     0.210 C 
HETATM    6  C5  UNL     1       3.874   2.055 -52.608  1.00  0.00     0.185 C 
ENDROOT
BRANCH   1   7
HETATM    7  O1  UNL     1       3.178   4.226 -51.932  1.00  0.00    -0.393 OA
ATOM      8  H1  UNL     1       3.948   4.131 -51.382  1.00  0.00     0.210 HD
ENDBRANCH   1   7
BRANCH   6   9
HETATM    9  O3  UNL     1       4.322   1.598 -51.368  1.00  0.00    -0.390 OA
ATOM     10  H3  UNL     1       5.271   1.595 -51.316  1.00  0.00     0.210 HD
ENDBRANCH   6   9
BRANCH   5  11
HETATM   11  O2  UNL     1       3.591   1.471 -54.852  1.00  0.00    -0.383 OA
ATOM     12  H2  UNL     1       4.336   1.071 -55.285  1.00  0.00     0.211 HD
ENDBRANCH   5  11
TORSDOF 3
ENDMDL
MODEL 2
REMARK VINA RESULT: -3.984985842      1.578      2.855
REMARK  3 active torsions:
REMARK  status: ('A' for Active; 'I' for Inactive)
REMARK    1  A    between atoms: O1_1  and  C1_3 
REMARK    2  A    between atoms: C4_7  and  O2_8 
REMARK    3  A    between atoms: C5_10  and  O3_11 
ROOT
HETATM    1  C1  UNL     1       3.901   2.851 -52.983  1.00  0.00     0.150 C 
HETATM    2  C2  UNL     1       3.453   2.151 -54.245  1.00  0.00     0.045 C 
HETATM    3  C3  UNL     1       3.012   0.746 -53.811  1.00  0.00     0.079 C 
HETATM    4  S1  UNL     1       1.539   1.024 -52.760  1.00  0.00    -0.135 SA
HETATM    5  C4  UNL     1       1.800   2.478 -51.734  1.00  0.00     0.210 C 
HETATM    6  C5  UNL     1       2.694   3.500 -52.353  1.00  0.00     0.185 C 
ENDROOT
BRANCH   1   7
HETATM    7  O1  UNL     1       4.901   3.775 -53.195  1.00  0.00    -0.393 OA
ATOM      8  H1  UNL     1       5.721   3.547 -52.774  1.00  0.00     0.210 HD
ENDBRANCH   1   7
BRANCH   6   9
HETATM    9  O3  UNL     1       2.037   4.345 -53.247  1.00  0.00    -0.390 OA
ATOM     10  H3  UNL     1       1.403   3.873 -53.776  1.00  0.00     0.210 HD
ENDBRANCH   6   9
BRANCH   5  11
HETATM   11  O2  UNL     1       2.395   2.062 -50.536  1.00  0.00    -0.383 OA
ATOM     12  H2  UNL     1       3.003   2.737 -50.260  1.00  0.00     0.211 HD
ENDBRANCH   5  11
TORSDOF 3
ENDMDL
MODEL 3
REMARK VINA RESULT: -3.964695036      1.830      2.834
REMARK  3 active torsions:
REMARK  status: ('A' for Active; 'I' for Inactive)
REMARK    1  A    between atoms: O1_1  and  C1_3 
REMARK    2  A    between atoms: C4_7  and  O2_8 
REMARK    3  A    between atoms: C5_10  and  O3_11 
ROOT
HETATM    1  C1  UNL     1       2.959   3.160 -52.608  1.00  0.00     0.150 C 
HETATM    2  C2  UNL     1       4.054   2.495 -53.408  1.00  0.00     0.045 C 
HETATM    3  C3  UNL     1       3.696   1.003 -53.449  1.00  0.00     0.079 C 
HETATM    4  S1  UNL     1       2.149   0.921 -54.423  1.00  0.00    -0.135 SA
HETATM    5  C4  UNL     1       1.093   2.310 -53.989  1.00  0.00     0.210 C 
HETATM    6  C5  UNL     1       1.843   3.525 -53.554  1.00  0.00     0.185 C 
ENDROOT
BRANCH   1   7
HETATM    7  O1  UNL     1       3.388   4.265 -51.905  1.00  0.00    -0.393 OA
ATOM      8  H1  UNL     1       4.325   4.269 -51.744  1.00  0.00     0.210 HD
ENDBRANCH   1   7
BRANCH   6   9
HETATM    9  O3  UNL     1       2.300   4.305 -54.616  1.00  0.00    -0.390 OA
ATOM     10  H3  UNL     1       2.305   5.230 -54.397  1.00  0.00     0.210 HD
ENDBRANCH   6   9
BRANCH   5  11
HETATM   11  O2  UNL     1       0.271   1.913 -52.926  1.00  0.00    -0.383 OA
ATOM     12  H2  UNL     1       0.522   2.415 -52.159  1.00  0.00     0.211 HD
ENDBRANCH   5  11
TORSDOF 3
ENDMDL
MODEL 4
REMARK VINA RESULT: -3.932004939      1.710      2.724
REMARK  3 active torsions:
REMARK  status: ('A' for Active; 'I' for Inactive)
REMARK    1  A    between atoms: O1_1  and  C1_3 
REMARK    2  A    between atoms: C4_7  and  O2_8 
REMARK    3  A    between atoms: C5_10  and  O3_11 
ROOT
HETATM    1  C1  UNL     1       2.881   2.029 -51.623  1.00  0.00     0.150 C 
HETATM    2  C2  UNL     1       4.129   1.858 -52.456  1.00  0.00     0.045 C 
HETATM    3  C3  UNL     1       3.736   0.929 -53.614  1.00  0.00     0.079 C 
HETATM    4  S1  UNL     1       2.525   1.892 -54.593  1.00  0.00    -0.135 SA
HETATM    5  C4  UNL     1       1.447   2.807 -53.482  1.00  0.00     0.210 C 
HETATM    6  C5  UNL     1       2.093   3.184 -52.190  1.00  0.00     0.185 C 
ENDROOT
BRANCH   1   7
HETATM    7  O1  UNL     1       3.140   2.222 -50.284  1.00  0.00    -0.393 OA
ATOM      8  H1  UNL     1       2.561   1.730 -49.713  1.00  0.00     0.210 HD
ENDBRANCH   1   7
BRANCH   6   9
HETATM    9  O3  UNL     1       2.864   4.343 -52.272  1.00  0.00    -0.390 OA
ATOM     10  H3  UNL     1       3.442   4.436 -51.524  1.00  0.00     0.210 HD
ENDBRANCH   6   9
BRANCH   5  11
HETATM   11  O2  UNL     1       0.343   1.997 -53.185  1.00  0.00    -0.383 OA
ATOM     12  H2  UNL     1       0.057   2.203 -52.303  1.00  0.00     0.211 HD
ENDBRANCH   5  11
TORSDOF 3
ENDMDL
MODEL 5
REMARK VINA RESULT: -3.892318247      2.058      2.460
REMARK  3 active torsions:
REMARK  status: ('A' for Active; 'I' for Inactive)
REMARK    1  A    between atoms: O1_1  and  C1_3 
REMARK    2  A    between atoms: C4_7  and  O2_8 
REMARK    3  A    between atoms: C5_10  and  O3_11 
ROOT
HETATM    1  C1  UNL     1       3.481   3.166 -52.569  1.00  0.00     0.150 C 
HETATM    2  C2  UNL     1       2.734   1.984 -53.140  1.00  0.00     0.045 C 
HETATM    3  C3  UNL     1       3.727   1.271 -54.069  1.00  0.00     0.079 C 
HETATM    4  S1  UNL     1       5.034   0.636 -52.956  1.00  0.00    -0.135 SA
HETATM    5  C4  UNL     1       5.379   1.855 -51.680  1.00  0.00     0.210 C 
HETATM    6  C5  UNL     1       4.206   2.708 -51.329  1.00  0.00     0.185 C 
ENDROOT
BRANCH   1   7
HETATM    7  O1  UNL     1       2.668   4.245 -52.293  1.00  0.00    -0.393 OA
ATOM      8  H1  UNL     1       2.952   4.747 -51.538  1.00  0.00     0.210 HD
ENDBRANCH   1   7
BRANCH   6   9
HETATM    9  O3  UNL     1       3.339   2.111 -50.414  1.00  0.00    -0.390 OA
ATOM     10  H3  UNL     1       3.745   2.005 -49.561  1.00  0.00     0.210 HD
ENDBRANCH   6   9
BRANCH   5  11
HETATM   11  O2  UNL     1       6.394   2.699 -52.150  1.00  0.00    -0.383 OA
ATOM     12  H2  UNL     1       6.194   3.583 -51.867  1.00  0.00     0.211 HD
ENDBRANCH   5  11
TORSDOF 3
ENDMDL
