MODEL 1
REMARK VINA RESULT: -3.802020663      0.000      0.000
REMARK  8 active torsions:
REMARK  status: ('A' for Active; 'I' for Inactive)
REMARK    1  A    between atoms: N1_1  and  C1_4 
REMARK    2  A    between atoms: C4_7  and  N2_8 
REMARK    3  A    between atoms: N2_8  and  C5_10 
REMARK    4  A    between atoms: C5_10  and  C6_11 
REMARK    5  A    between atoms: C6_11  and  N3_12 
REMARK    6  A    between atoms: N3_12  and  C7_15 
REMARK    7  A    between atoms: C7_15  and  C8_16 
REMARK    8  A    between atoms: C8_16  and  N4_17 
ROOT
HETATM    1  N2  UNL     1       8.737   9.967   1.138  1.00  0.00    -0.367 N 
ATOM      2  H2  UNL     1       8.413  10.103   2.096  1.00  0.00     0.161 HD
ENDROOT
BRANCH   1   3
HETATM    3  C4  UNL     1       9.607   9.062   0.855  1.00  0.00     0.166 A 
HETATM    4  C3  UNL     1       9.784   7.989   1.701  1.00  0.00     0.062 A 
HETATM    5  C2  UNL     1      10.720   6.991   1.421  1.00  0.00     0.054 A 
HETATM    6  C1  UNL     1      11.442   7.158   0.250  1.00  0.00     0.119 A 
HETATM    7  N5  UNL     1      11.227   8.222  -0.537  1.00  0.00    -0.244 N 
HETATM    8  O1  UNL     1      10.341   9.144  -0.247  1.00  0.00    -0.218 OA
ATOM      9  H5  UNL     1      11.773   8.318  -1.394  1.00  0.00     0.196 HD
BRANCH   6  10
HETATM   10  N1  UNL     1      12.339   6.259  -0.058  1.00  0.00    -0.384 N 
ATOM     11  H12 UNL     1      12.359   5.351   0.407  1.00  0.00     0.157 HD
ATOM     12  H11 UNL     1      13.020   6.484  -0.784  1.00  0.00     0.157 HD
ENDBRANCH   6  10
ENDBRANCH   1   3
BRANCH   1  13
HETATM   13  C5  UNL     1       8.232  10.791   0.051  1.00  0.00     0.149 C 
BRANCH  13  14
HETATM   14  C6  UNL     1       8.327  12.249   0.411  1.00  0.00     0.251 C 
BRANCH  14  15
HETATM   15  N3  UNL     1       9.591  12.771   0.026  1.00  0.00    -0.072 N 
ATOM     16  H32 UNL     1       9.812  13.614   0.557  1.00  0.00     0.277 HD
ATOM     17  H31 UNL     1      10.346  12.165   0.349  1.00  0.00     0.277 HD
BRANCH  15  18
HETATM   18  C7  UNL     1       9.701  13.014  -1.378  1.00  0.00     0.259 C 
BRANCH  18  19
HETATM   19  C8  UNL     1      10.990  12.391  -1.901  1.00  0.00     0.257 C 
BRANCH  19  20
HETATM   20  N4  UNL     1      10.697  11.139  -2.612  1.00  0.00    -0.078 N 
ATOM     21  H43 UNL     1       9.702  10.919  -2.601  1.00  0.00     0.274 HD
ATOM     22  H42 UNL     1      10.819  11.236  -3.621  1.00  0.00     0.274 HD
ATOM     23  H41 UNL     1      11.260  10.378  -2.233  1.00  0.00     0.274 HD
ENDBRANCH  19  20
ENDBRANCH  18  19
ENDBRANCH  15  18
ENDBRANCH  14  15
ENDBRANCH  13  14
ENDBRANCH   1  13
TORSDOF 8
ENDMDL
MODEL 2
REMARK VINA RESULT: -3.777314503      0.951      1.064
REMARK  8 active torsions:
REMARK  status: ('A' for Active; 'I' for Inactive)
REMARK    1  A    between atoms: N1_1  and  C1_4 
REMARK    2  A    between atoms: C4_7  and  N2_8 
REMARK    3  A    between atoms: N2_8  and  C5_10 
REMARK    4  A    between atoms: C5_10  and  C6_11 
REMARK    5  A    between atoms: C6_11  and  N3_12 
REMARK    6  A    between atoms: N3_12  and  C7_15 
REMARK    7  A    between atoms: C7_15  and  C8_16 
REMARK    8  A    between atoms: C8_16  and  N4_17 
ROOT
HETATM    1  N2  UNL     1       8.752  10.047   1.008  1.00  0.00    -0.367 N 
ATOM      2  H2  UNL     1       7.960   9.889   1.631  1.00  0.00     0.161 HD
ENDROOT
BRANCH   1   3
HETATM    3  C4  UNL     1       9.607   9.115   0.772  1.00  0.00     0.166 A 
HETATM    4  C3  UNL     1       9.743   8.065   1.655  1.00  0.00     0.062 A 
HETATM    5  C2  UNL     1      10.662   7.039   1.427  1.00  0.00     0.054 A 
HETATM    6  C1  UNL     1      11.412   7.154   0.268  1.00  0.00     0.119 A 
HETATM    7  N5  UNL     1      11.238   8.196  -0.557  1.00  0.00    -0.244 N 
HETATM    8  O1  UNL     1      10.367   9.146  -0.315  1.00  0.00    -0.218 OA
ATOM      9  H5  UNL     1      11.804   8.253  -1.403  1.00  0.00     0.196 HD
BRANCH   6  10
HETATM   10  N1  UNL     1      12.296   6.226   0.009  1.00  0.00    -0.384 N 
ATOM     11  H12 UNL     1      13.235   6.264   0.407  1.00  0.00     0.157 HD
ATOM     12  H11 UNL     1      12.021   5.453  -0.598  1.00  0.00     0.157 HD
ENDBRANCH   6  10
ENDBRANCH   1   3
BRANCH   1  13
HETATM   13  C5  UNL     1       8.951  11.333   0.358  1.00  0.00     0.149 C 
BRANCH  13  14
HETATM   14  C6  UNL     1       8.201  11.381  -0.947  1.00  0.00     0.251 C 
BRANCH  14  15
HETATM   15  N3  UNL     1       9.111  11.448  -2.036  1.00  0.00    -0.072 N 
ATOM     16  H32 UNL     1       9.556  10.544  -2.192  1.00  0.00     0.277 HD
ATOM     17  H31 UNL     1       8.611  11.545  -2.920  1.00  0.00     0.277 HD
BRANCH  15  18
HETATM   18  C7  UNL     1      10.092  12.478  -1.893  1.00  0.00     0.259 C 
BRANCH  18  19
HETATM   19  C8  UNL     1      11.458  11.937  -2.299  1.00  0.00     0.257 C 
BRANCH  19  20
HETATM   20  N4  UNL     1      12.219  11.535  -1.108  1.00  0.00    -0.078 N 
ATOM     21  H43 UNL     1      12.110  12.201  -0.344  1.00  0.00     0.274 HD
ATOM     22  H42 UNL     1      11.812  10.717  -0.654  1.00  0.00     0.274 HD
ATOM     23  H41 UNL     1      13.199  11.387  -1.349  1.00  0.00     0.274 HD
ENDBRANCH  19  20
ENDBRANCH  18  19
ENDBRANCH  15  18
ENDBRANCH  14  15
ENDBRANCH  13  14
ENDBRANCH   1  13
TORSDOF 8
ENDMDL
MODEL 3
REMARK VINA RESULT: -3.682289576      1.795      5.255
REMARK  8 active torsions:
REMARK  status: ('A' for Active; 'I' for Inactive)
REMARK    1  A    between atoms: N1_1  and  C1_4 
REMARK    2  A    between atoms: C4_7  and  N2_8 
REMARK    3  A    between atoms: N2_8  and  C5_10 
REMARK    4  A    between atoms: C5_10  and  C6_11 
REMARK    5  A    between atoms: C6_11  and  N3_12 
REMARK    6  A    between atoms: N3_12  and  C7_15 
REMARK    7  A    between atoms: C7_15  and  C8_16 
REMARK    8  A    between atoms: C8_16  and  N4_17 
ROOT
HETATM    1  N2  UNL     1      10.344   9.031  -2.226  1.00  0.00    -0.367 N 
ATOM      2  H2  UNL     1       9.829   8.550  -2.964  1.00  0.00     0.161 HD
ENDROOT
BRANCH   1   3
HETATM    3  C4  UNL     1       9.756   9.865  -1.442  1.00  0.00     0.166 A 
HETATM    4  C3  UNL     1       9.394  11.111  -1.907  1.00  0.00     0.062 A 
HETATM    5  C2  UNL     1       8.755  12.036  -1.080  1.00  0.00     0.054 A 
HETATM    6  C1  UNL     1       8.516  11.614   0.218  1.00  0.00     0.119 A 
HETATM    7  N5  UNL     1       8.888  10.390   0.617  1.00  0.00    -0.244 N 
HETATM    8  O1  UNL     1       9.488   9.542  -0.183  1.00  0.00    -0.218 OA
ATOM      9  H5  UNL     1       8.697  10.107   1.579  1.00  0.00     0.196 HD
BRANCH   6  10
HETATM   10  N1  UNL     1       7.928  12.445   1.040  1.00  0.00    -0.384 N 
ATOM     11  H12 UNL     1       7.528  13.323   0.708  1.00  0.00     0.157 HD
ATOM     12  H11 UNL     1       7.871  12.189   2.026  1.00  0.00     0.157 HD
ENDBRANCH   6  10
ENDBRANCH   1   3
BRANCH   1  13
HETATM   13  C5  UNL     1      11.766   8.798  -2.029  1.00  0.00     0.149 C 
BRANCH  13  14
HETATM   14  C6  UNL     1      12.020   7.347  -1.718  1.00  0.00     0.251 C 
BRANCH  14  15
HETATM   15  N3  UNL     1      11.686   7.067  -0.366  1.00  0.00    -0.072 N 
ATOM     16  H32 UNL     1      10.689   7.207  -0.203  1.00  0.00     0.277 HD
ATOM     17  H31 UNL     1      11.748   6.066  -0.177  1.00  0.00     0.277 HD
BRANCH  15  18
HETATM   18  C7  UNL     1      12.462   7.809   0.576  1.00  0.00     0.259 C 
BRANCH  18  19
HETATM   19  C8  UNL     1      11.729   7.859   1.912  1.00  0.00     0.257 C 
BRANCH  19  20
HETATM   20  N4  UNL     1      10.352   7.372   1.753  1.00  0.00    -0.078 N 
ATOM     21  H43 UNL     1       9.955   7.640   0.854  1.00  0.00     0.274 HD
ATOM     22  H42 UNL     1      10.317   6.359   1.638  1.00  0.00     0.274 HD
ATOM     23  H41 UNL     1       9.775   7.686   2.534  1.00  0.00     0.274 HD
ENDBRANCH  19  20
ENDBRANCH  18  19
ENDBRANCH  15  18
ENDBRANCH  14  15
ENDBRANCH  13  14
ENDBRANCH   1  13
TORSDOF 8
ENDMDL
MODEL 4
REMARK VINA RESULT: -3.662599548      8.203     10.422
REMARK  8 active torsions:
REMARK  status: ('A' for Active; 'I' for Inactive)
REMARK    1  A    between atoms: N1_1  and  C1_4 
REMARK    2  A    between atoms: C4_7  and  N2_8 
REMARK    3  A    between atoms: N2_8  and  C5_10 
REMARK    4  A    between atoms: C5_10  and  C6_11 
REMARK    5  A    between atoms: C6_11  and  N3_12 
REMARK    6  A    between atoms: N3_12  and  C7_15 
REMARK    7  A    between atoms: C7_15  and  C8_16 
REMARK    8  A    between atoms: C8_16  and  N4_17 
ROOT
HETATM    1  N2  UNL     1       7.828  12.869   7.643  1.00  0.00    -0.367 N 
ATOM      2  H2  UNL     1       7.361  12.279   8.333  1.00  0.00     0.161 HD
ENDROOT
BRANCH   1   3
HETATM    3  C4  UNL     1       7.150  13.578   6.810  1.00  0.00     0.166 A 
HETATM    4  C3  UNL     1       6.846  14.888   7.108  1.00  0.00     0.062 A 
HETATM    5  C2  UNL     1       6.112  15.682   6.225  1.00  0.00     0.054 A 
HETATM    6  C1  UNL     1       5.721  15.064   5.048  1.00  0.00     0.119 A 
HETATM    7  N5  UNL     1       6.045  13.785   4.808  1.00  0.00    -0.244 N 
HETATM    8  O1  UNL     1       6.735  13.065   5.659  1.00  0.00    -0.218 OA
ATOM      9  H5  UNL     1       5.744  13.358   3.932  1.00  0.00     0.196 HD
BRANCH   6  10
HETATM   10  N1  UNL     1       5.022  15.758   4.187  1.00  0.00    -0.384 N 
ATOM     11  H12 UNL     1       4.002  15.750   4.206  1.00  0.00     0.157 HD
ATOM     12  H11 UNL     1       5.523  16.317   3.497  1.00  0.00     0.157 HD
ENDBRANCH   6  10
ENDBRANCH   1   3
BRANCH   1  13
HETATM   13  C5  UNL     1       9.279  12.935   7.570  1.00  0.00     0.149 C 
BRANCH  13  14
HETATM   14  C6  UNL     1       9.832  13.642   8.779  1.00  0.00     0.251 C 
BRANCH  14  15
HETATM   15  N3  UNL     1       9.060  13.328   9.930  1.00  0.00    -0.072 N 
ATOM     16  H32 UNL     1       8.138  12.983   9.664  1.00  0.00     0.277 HD
ATOM     17  H31 UNL     1       9.425  12.495  10.394  1.00  0.00     0.277 HD
BRANCH  15  18
HETATM   18  C7  UNL     1       8.949  14.413  10.852  1.00  0.00     0.259 C 
BRANCH  18  19
HETATM   19  C8  UNL     1       7.572  15.055  10.717  1.00  0.00     0.257 C 
BRANCH  19  20
HETATM   20  N4  UNL     1       6.522  14.036  10.851  1.00  0.00    -0.078 N 
ATOM     21  H43 UNL     1       6.595  13.528  11.732  1.00  0.00     0.274 HD
ATOM     22  H42 UNL     1       5.602  14.454  10.993  1.00  0.00     0.274 HD
ATOM     23  H41 UNL     1       6.534  13.409  10.047  1.00  0.00     0.274 HD
ENDBRANCH  19  20
ENDBRANCH  18  19
ENDBRANCH  15  18
ENDBRANCH  14  15
ENDBRANCH  13  14
ENDBRANCH   1  13
TORSDOF 8
ENDMDL
MODEL 5
REMARK VINA RESULT: -3.588861198      1.388      4.736
REMARK  8 active torsions:
REMARK  status: ('A' for Active; 'I' for Inactive)
REMARK    1  A    between atoms: N1_1  and  C1_4 
REMARK    2  A    between atoms: C4_7  and  N2_8 
REMARK    3  A    between atoms: N2_8  and  C5_10 
REMARK    4  A    between atoms: C5_10  and  C6_11 
REMARK    5  A    between atoms: C6_11  and  N3_12 
REMARK    6  A    between atoms: N3_12  and  C7_15 
REMARK    7  A    between atoms: C7_15  and  C8_16 
REMARK    8  A    between atoms: C8_16  and  N4_17 
ROOT
HETATM    1  N2  UNL     1       9.658   8.746   1.289  1.00  0.00    -0.367 N 
ATOM      2  H2  UNL     1       8.785   8.424   1.708  1.00  0.00     0.161 HD
ENDROOT
BRANCH   1   3
HETATM    3  C4  UNL     1       9.668   9.692   0.417  1.00  0.00     0.166 A 
HETATM    4  C3  UNL     1       8.489  10.101  -0.168  1.00  0.00     0.062 A 
HETATM    5  C2  UNL     1       8.467  11.124  -1.117  1.00  0.00     0.054 A 
HETATM    6  C1  UNL     1       9.696  11.687  -1.420  1.00  0.00     0.119 A 
HETATM    7  N5  UNL     1      10.812  11.251  -0.818  1.00  0.00    -0.244 N 
HETATM    8  O1  UNL     1      10.801  10.287   0.069  1.00  0.00    -0.218 OA
ATOM      9  H5  UNL     1      11.703  11.686  -1.061  1.00  0.00     0.196 HD
BRANCH   6  10
HETATM   10  N1  UNL     1       9.736  12.644  -2.310  1.00  0.00    -0.384 N 
ATOM     11  H12 UNL     1       8.882  13.019  -2.722  1.00  0.00     0.157 HD
ATOM     12  H11 UNL     1      10.648  13.015  -2.580  1.00  0.00     0.157 HD
ENDBRANCH   6  10
ENDBRANCH   1   3
BRANCH   1  13
HETATM   13  C5  UNL     1      10.932   8.149   1.660  1.00  0.00     0.149 C 
BRANCH  13  14
HETATM   14  C6  UNL     1      10.899   6.661   1.430  1.00  0.00     0.251 C 
BRANCH  14  15
HETATM   15  N3  UNL     1      11.622   6.328   0.252  1.00  0.00    -0.072 N 
ATOM     16  H32 UNL     1      12.016   5.391   0.323  1.00  0.00     0.277 HD
ATOM     17  H31 UNL     1      10.987   6.186  -0.534  1.00  0.00     0.277 HD
BRANCH  15  18
HETATM   18  C7  UNL     1      12.634   7.281  -0.080  1.00  0.00     0.259 C 
BRANCH  18  19
HETATM   19  C8  UNL     1      12.723   7.417  -1.596  1.00  0.00     0.257 C 
BRANCH  19  20
HETATM   20  N4  UNL     1      11.505   8.048  -2.122  1.00  0.00    -0.078 N 
ATOM     21  H43 UNL     1      10.688   7.448  -2.013  1.00  0.00     0.274 HD
ATOM     22  H42 UNL     1      11.198   8.828  -1.540  1.00  0.00     0.274 HD
ATOM     23  H41 UNL     1      11.645   8.330  -3.092  1.00  0.00     0.274 HD
ENDBRANCH  19  20
ENDBRANCH  18  19
ENDBRANCH  15  18
ENDBRANCH  14  15
ENDBRANCH  13  14
ENDBRANCH   1  13
TORSDOF 8
ENDMDL
