MODEL 1
REMARK VINA RESULT: -3.500018279      0.000      0.000
REMARK  6 active torsions:
REMARK  status: ('A' for Active; 'I' for Inactive)
REMARK    1  A    between atoms: C2_2  and  N1_3 
REMARK    2  A    between atoms: C2_2  and  C4_9 
REMARK    3  A    between atoms: N1_3  and  C3_6 
REMARK    4  A    between atoms: C3_6  and  O1_7 
REMARK    5  A    between atoms: C4_9  and  N2_11 
REMARK    6  A    between atoms: N2_11  and  C6_13 
ROOT
HETATM    1  C4  UNL     1      10.791   8.333   1.130  1.00  0.00     0.110 C 
HETATM    2  C5  UNL     1      10.865   7.065   1.987  1.00  0.00     0.034 C 
ENDROOT
BRANCH   1   3
HETATM    3  C2  UNL     1      11.273   8.074  -0.233  1.00  0.00     0.206 C 
HETATM    4  C1  UNL     1      12.115   6.809  -0.353  1.00  0.00     0.042 C 
BRANCH   3   5
HETATM    5  N1  UNL     1      12.034   9.078  -0.910  1.00  0.00    -0.049 N 
ATOM      6  H12 UNL     1      11.935   9.994  -0.472  1.00  0.00     0.280 HD
ATOM      7  H11 UNL     1      13.037   8.955  -0.773  1.00  0.00     0.280 HD
BRANCH   5   8
HETATM    8  C3  UNL     1      11.683   9.106  -2.289  1.00  0.00     0.396 C 
BRANCH   8   9
HETATM    9  O1  UNL     1      10.347   8.957  -2.564  1.00  0.00    -0.375 OA
ATOM     10  H1  UNL     1      10.141   8.575  -3.409  1.00  0.00     0.211 HD
ENDBRANCH   8   9
ENDBRANCH   5   8
ENDBRANCH   3   5
ENDBRANCH   1   3
BRANCH   1  11
HETATM   11  N2  UNL     1       9.401   8.768   1.223  1.00  0.00    -0.356 N 
ATOM     12  H2  UNL     1       8.720   8.266   1.792  1.00  0.00     0.163 HD
BRANCH  11  13
HETATM   13  C6  UNL     1       9.045   9.938   0.476  1.00  0.00     0.171 C 
HETATM   14  N3  UNL     1       8.341  10.053  -0.605  1.00  0.00    -0.361 N 
HETATM   15  C7  UNL     1       8.223  11.420  -1.045  1.00  0.00     0.142 C 
ATOM     16  H3  UNL     1       7.917   9.262  -1.091  1.00  0.00     0.162 HD
HETATM   17  C8  UNL     1       9.269  12.156  -0.204  1.00  0.00     0.142 C 
HETATM   18  N4  UNL     1       9.517  11.230   0.847  1.00  0.00    -0.361 N 
ATOM     19  H4  UNL     1       9.966  11.458   1.734  1.00  0.00     0.162 HD
ENDBRANCH  11  13
ENDBRANCH   1  11
TORSDOF 6
ENDMDL
MODEL 2
REMARK VINA RESULT: -3.480428164      1.427      3.861
REMARK  6 active torsions:
REMARK  status: ('A' for Active; 'I' for Inactive)
REMARK    1  A    between atoms: C2_2  and  N1_3 
REMARK    2  A    between atoms: C2_2  and  C4_9 
REMARK    3  A    between atoms: N1_3  and  C3_6 
REMARK    4  A    between atoms: C3_6  and  O1_7 
REMARK    5  A    between atoms: C4_9  and  N2_11 
REMARK    6  A    between atoms: N2_11  and  C6_13 
ROOT
HETATM    1  C4  UNL     1       8.847  10.564   0.014  1.00  0.00     0.110 C 
HETATM    2  C5  UNL     1       8.156  11.901   0.303  1.00  0.00     0.034 C 
ENDROOT
BRANCH   1   3
HETATM    3  C2  UNL     1       9.608  10.629  -1.241  1.00  0.00     0.206 C 
HETATM    4  C1  UNL     1       9.247  11.824  -2.114  1.00  0.00     0.042 C 
BRANCH   3   5
HETATM    5  N1  UNL     1       9.582   9.511  -2.134  1.00  0.00    -0.049 N 
ATOM      6  H12 UNL     1       9.086   8.713  -1.735  1.00  0.00     0.280 HD
ATOM      7  H11 UNL     1       8.975   9.677  -2.937  1.00  0.00     0.280 HD
BRANCH   5   8
HETATM    8  C3  UNL     1      10.908   9.173  -2.526  1.00  0.00     0.396 C 
BRANCH   8   9
HETATM    9  O1  UNL     1      11.421   8.032  -1.964  1.00  0.00    -0.375 OA
ATOM     10  H1  UNL     1      12.364   7.932  -2.023  1.00  0.00     0.211 HD
ENDBRANCH   8   9
ENDBRANCH   5   8
ENDBRANCH   3   5
ENDBRANCH   1   3
BRANCH   1  11
HETATM   11  N2  UNL     1       9.640  10.286   1.206  1.00  0.00    -0.356 N 
ATOM     12  H2  UNL     1       9.692  10.947   1.981  1.00  0.00     0.163 HD
BRANCH  11  13
HETATM   13  C6  UNL     1      10.343   9.037   1.231  1.00  0.00     0.171 C 
HETATM   14  N3  UNL     1       9.901   7.838   1.439  1.00  0.00    -0.361 N 
HETATM   15  C7  UNL     1      10.947   6.847   1.387  1.00  0.00     0.142 C 
ATOM     16  H3  UNL     1       8.922   7.619   1.619  1.00  0.00     0.162 HD
HETATM   17  C8  UNL     1      12.230   7.682   1.419  1.00  0.00     0.142 C 
HETATM   18  N4  UNL     1      11.756   8.976   1.065  1.00  0.00    -0.361 N 
ATOM     19  H4  UNL     1      12.342   9.746   0.740  1.00  0.00     0.162 HD
ENDBRANCH  11  13
ENDBRANCH   1  11
TORSDOF 6
ENDMDL
MODEL 3
REMARK VINA RESULT: -3.408165323      2.426      4.960
REMARK  6 active torsions:
REMARK  status: ('A' for Active; 'I' for Inactive)
REMARK    1  A    between atoms: C2_2  and  N1_3 
REMARK    2  A    between atoms: C2_2  and  C4_9 
REMARK    3  A    between atoms: N1_3  and  C3_6 
REMARK    4  A    between atoms: C3_6  and  O1_7 
REMARK    5  A    between atoms: C4_9  and  N2_11 
REMARK    6  A    between atoms: N2_11  and  C6_13 
ROOT
HETATM    1  C4  UNL     1       9.364  10.809  -0.157  1.00  0.00     0.110 C 
HETATM    2  C5  UNL     1       8.210  10.030  -0.797  1.00  0.00     0.034 C 
ENDROOT
BRANCH   1   3
HETATM    3  C2  UNL     1       9.045  12.240  -0.069  1.00  0.00     0.206 C 
HETATM    4  C1  UNL     1       9.614  13.065  -1.216  1.00  0.00     0.042 C 
BRANCH   3   5
HETATM    5  N1  UNL     1       9.405  12.967   1.110  1.00  0.00    -0.049 N 
ATOM      6  H12 UNL     1       9.618  12.347   1.892  1.00  0.00     0.280 HD
ATOM      7  H11 UNL     1      10.318  13.413   1.020  1.00  0.00     0.280 HD
BRANCH   5   8
HETATM    8  C3  UNL     1       8.383  13.902   1.434  1.00  0.00     0.396 C 
BRANCH   8   9
HETATM    9  O1  UNL     1       7.207  13.363   1.893  1.00  0.00    -0.375 OA
ATOM     10  H1  UNL     1       6.413  13.767   1.563  1.00  0.00     0.211 HD
ENDBRANCH   8   9
ENDBRANCH   5   8
ENDBRANCH   3   5
ENDBRANCH   1   3
BRANCH   1  11
HETATM   11  N2  UNL     1       9.601  10.147   1.121  1.00  0.00    -0.356 N 
ATOM     12  H2  UNL     1       9.348  10.585   2.006  1.00  0.00     0.163 HD
BRANCH  11  13
HETATM   13  C6  UNL     1      10.208   8.849   1.067  1.00  0.00     0.171 C 
HETATM   14  N3  UNL     1       9.989   7.798   1.791  1.00  0.00    -0.361 N 
HETATM   15  C7  UNL     1      10.826   6.686   1.415  1.00  0.00     0.142 C 
ATOM     16  H3  UNL     1       9.301   7.761   2.542  1.00  0.00     0.162 HD
HETATM   17  C8  UNL     1      11.874   7.322   0.499  1.00  0.00     0.142 C 
HETATM   18  N4  UNL     1      11.262   8.559   0.154  1.00  0.00    -0.361 N 
ATOM     19  H4  UNL     1      11.537   9.149  -0.631  1.00  0.00     0.162 HD
ENDBRANCH  11  13
ENDBRANCH   1  11
TORSDOF 6
ENDMDL
MODEL 4
REMARK VINA RESULT: -3.333877065      1.910      4.675
REMARK  6 active torsions:
REMARK  status: ('A' for Active; 'I' for Inactive)
REMARK    1  A    between atoms: C2_2  and  N1_3 
REMARK    2  A    between atoms: C2_2  and  C4_9 
REMARK    3  A    between atoms: N1_3  and  C3_6 
REMARK    4  A    between atoms: C3_6  and  O1_7 
REMARK    5  A    between atoms: C4_9  and  N2_11 
REMARK    6  A    between atoms: N2_11  and  C6_13 
ROOT
HETATM    1  C4  UNL     1      10.643  10.788  -1.632  1.00  0.00     0.110 C 
HETATM    2  C5  UNL     1      11.779  11.099  -2.611  1.00  0.00     0.034 C 
ENDROOT
BRANCH   1   3
HETATM    3  C2  UNL     1       9.484  11.656  -1.880  1.00  0.00     0.206 C 
HETATM    4  C1  UNL     1       9.740  13.123  -1.557  1.00  0.00     0.042 C 
BRANCH   3   5
HETATM    5  N1  UNL     1       8.237  11.360  -1.244  1.00  0.00    -0.049 N 
ATOM      6  H12 UNL     1       7.448  11.779  -1.736  1.00  0.00     0.280 HD
ATOM      7  H11 UNL     1       7.976  10.380  -1.351  1.00  0.00     0.280 HD
BRANCH   5   8
HETATM    8  C3  UNL     1       8.284  11.754   0.123  1.00  0.00     0.396 C 
BRANCH   8   9
HETATM    9  O1  UNL     1       8.229  10.733   1.038  1.00  0.00    -0.375 OA
ATOM     10  H1  UNL     1       7.520  10.783   1.668  1.00  0.00     0.211 HD
ENDBRANCH   8   9
ENDBRANCH   5   8
ENDBRANCH   3   5
ENDBRANCH   1   3
BRANCH   1  11
HETATM   11  N2  UNL     1      10.391   9.360  -1.789  1.00  0.00    -0.356 N 
ATOM     12  H2  UNL     1       9.968   8.980  -2.636  1.00  0.00     0.163 HD
BRANCH  11  13
HETATM   13  C6  UNL     1      10.770   8.518  -0.693  1.00  0.00     0.171 C 
HETATM   14  N3  UNL     1      11.630   7.551  -0.645  1.00  0.00    -0.361 N 
HETATM   15  C7  UNL     1      11.708   6.946   0.662  1.00  0.00     0.142 C 
ATOM     16  H3  UNL     1      12.190   7.250  -1.442  1.00  0.00     0.162 HD
HETATM   17  C8  UNL     1      10.483   7.508   1.388  1.00  0.00     0.142 C 
HETATM   18  N4  UNL     1      10.142   8.629   0.581  1.00  0.00    -0.361 N 
ATOM     19  H4  UNL     1       9.537   9.397   0.872  1.00  0.00     0.162 HD
ENDBRANCH  11  13
ENDBRANCH   1  11
TORSDOF 6
ENDMDL
MODEL 5
REMARK VINA RESULT: -3.306723587      3.923      6.462
REMARK  6 active torsions:
REMARK  status: ('A' for Active; 'I' for Inactive)
REMARK    1  A    between atoms: C2_2  and  N1_3 
REMARK    2  A    between atoms: C2_2  and  C4_9 
REMARK    3  A    between atoms: N1_3  and  C3_6 
REMARK    4  A    between atoms: C3_6  and  O1_7 
REMARK    5  A    between atoms: C4_9  and  N2_11 
REMARK    6  A    between atoms: N2_11  and  C6_13 
ROOT
HETATM    1  C4  UNL     1       8.670  13.754   1.468  1.00  0.00     0.110 C 
HETATM    2  C5  UNL     1       9.091  14.461   0.175  1.00  0.00     0.034 C 
ENDROOT
BRANCH   1   3
HETATM    3  C2  UNL     1       8.023  14.694   2.392  1.00  0.00     0.206 C 
HETATM    4  C1  UNL     1       8.601  16.103   2.335  1.00  0.00     0.042 C 
BRANCH   3   5
HETATM    5  N1  UNL     1       7.973  14.382   3.788  1.00  0.00    -0.049 N 
ATOM      6  H12 UNL     1       8.570  13.589   4.024  1.00  0.00     0.280 HD
ATOM      7  H11 UNL     1       8.437  15.092   4.355  1.00  0.00     0.280 HD
BRANCH   5   8
HETATM    8  C3  UNL     1       6.624  14.174   4.190  1.00  0.00     0.396 C 
BRANCH   8   9
HETATM    9  O1  UNL     1       6.402  13.071   4.976  1.00  0.00    -0.375 OA
ATOM     10  H1  UNL     1       6.055  13.246   5.843  1.00  0.00     0.211 HD
ENDBRANCH   8   9
ENDBRANCH   5   8
ENDBRANCH   3   5
ENDBRANCH   1   3
BRANCH   1  11
HETATM   11  N2  UNL     1       7.834  12.641   1.031  1.00  0.00    -0.356 N 
ATOM     12  H2  UNL     1       6.832  12.616   1.220  1.00  0.00     0.163 HD
BRANCH  11  13
HETATM   13  C6  UNL     1       8.495  11.584   0.323  1.00  0.00     0.171 C 
HETATM   14  N3  UNL     1       8.263  11.099  -0.854  1.00  0.00    -0.361 N 
HETATM   15  C7  UNL     1       9.160  10.023  -1.195  1.00  0.00     0.142 C 
ATOM     16  H3  UNL     1       7.527  11.440  -1.473  1.00  0.00     0.162 HD
HETATM   17  C8  UNL     1       9.829   9.682   0.138  1.00  0.00     0.142 C 
HETATM   18  N4  UNL     1       9.554  10.839   0.919  1.00  0.00    -0.361 N 
ATOM     19  H4  UNL     1      10.041  11.096   1.776  1.00  0.00     0.162 HD
ENDBRANCH  11  13
ENDBRANCH   1  11
TORSDOF 6
ENDMDL
