MODEL 1
REMARK VINA RESULT: -3.761938286      0.000      0.000
REMARK  6 active torsions:
REMARK  status: ('A' for Active; 'I' for Inactive)
REMARK    1  A    between atoms: C2_5  and  N3_6 
REMARK    2  A    between atoms: N3_6  and  C3_8 
REMARK    3  A    between atoms: C3_8  and  C4_9 
REMARK    4  A    between atoms: C4_9  and  C5_10 
REMARK    5  A    between atoms: C5_10  and  C6_11 
REMARK    6  A    between atoms: C6_11  and  N4_12 
ROOT
HETATM    1  C1  UNL     1      13.143   8.783   1.062  1.00  0.00     0.198 C 
HETATM    2  N1  UNL     1      11.699   8.868   1.049  1.00  0.00    -0.114 N 
HETATM    3  N2  UNL     1      10.962   9.963   1.108  1.00  0.00    -0.116 N 
ATOM      4  H2  UNL     1      11.320  10.916   1.173  1.00  0.00     0.206 HD
HETATM    5  C2  UNL     1       9.674   9.622   1.068  1.00  0.00     0.707 A 
HETATM    6  N5  UNL     1       9.637   8.274   0.983  1.00  0.00    -0.020 N 
ATOM      7  H5  UNL     1       8.791   7.707   0.936  1.00  0.00     0.203 HD
HETATM    8  C7  UNL     1      10.878   7.806   0.970  1.00  0.00     0.707 A 
HETATM    9  N6  UNL     1      11.221   6.546   0.895  1.00  0.00    -0.233 N 
ATOM     10  H61 UNL     1      10.598   5.740   0.835  1.00  0.00     0.174 HD
ATOM     11  H62 UNL     1      12.176   6.186   0.885  1.00  0.00     0.174 HD
ENDROOT
BRANCH   5  12
HETATM   12  N3  UNL     1       8.610  10.333   1.099  1.00  0.00    -0.224 N 
ATOM     13  H3  UNL     1       7.895  10.084   1.783  1.00  0.00     0.177 HD
BRANCH  12  14
HETATM   14  C3  UNL     1       8.346  11.452   0.247  1.00  0.00     0.138 C 
BRANCH  14  15
HETATM   15  C4  UNL     1       8.281  11.046  -1.200  1.00  0.00     0.022 C 
BRANCH  15  16
HETATM   16  C5  UNL     1       9.315  11.738  -2.040  1.00  0.00     0.029 C 
BRANCH  16  17
HETATM   17  C6  UNL     1      10.489  10.847  -2.365  1.00  0.00     0.229 C 
BRANCH  17  18
HETATM   18  N4  UNL     1      10.151   9.454  -2.385  1.00  0.00    -0.079 N 
ATOM     19  H43 UNL     1       9.428   9.246  -1.696  1.00  0.00     0.274 HD
ATOM     20  H42 UNL     1       9.644   9.216  -3.237  1.00  0.00     0.274 HD
ATOM     21  H41 UNL     1      10.959   8.843  -2.260  1.00  0.00     0.274 HD
ENDBRANCH  17  18
ENDBRANCH  16  17
ENDBRANCH  15  16
ENDBRANCH  14  15
ENDBRANCH  12  14
ENDBRANCH   5  12
TORSDOF 6
ENDMDL
MODEL 2
REMARK VINA RESULT: -3.717875311      1.273      1.374
REMARK  6 active torsions:
REMARK  status: ('A' for Active; 'I' for Inactive)
REMARK    1  A    between atoms: C2_5  and  N3_6 
REMARK    2  A    between atoms: N3_6  and  C3_8 
REMARK    3  A    between atoms: C3_8  and  C4_9 
REMARK    4  A    between atoms: C4_9  and  C5_10 
REMARK    5  A    between atoms: C5_10  and  C6_11 
REMARK    6  A    between atoms: C6_11  and  N4_12 
ROOT
HETATM    1  C1  UNL     1      13.187   8.707   0.475  1.00  0.00     0.198 C 
HETATM    2  N1  UNL     1      11.760   8.830   0.676  1.00  0.00    -0.114 N 
HETATM    3  N2  UNL     1      11.054   9.946   0.737  1.00  0.00    -0.116 N 
ATOM      4  H2  UNL     1      11.430  10.891   0.648  1.00  0.00     0.206 HD
HETATM    5  C2  UNL     1       9.772   9.639   0.931  1.00  0.00     0.707 A 
HETATM    6  N5  UNL     1       9.706   8.290   0.991  1.00  0.00    -0.020 N 
ATOM      7  H5  UNL     1       8.856   7.746   1.134  1.00  0.00     0.203 HD
HETATM    8  C7  UNL     1      10.923   7.789   0.834  1.00  0.00     0.707 A 
HETATM    9  N6  UNL     1      11.235   6.519   0.837  1.00  0.00    -0.233 N 
ATOM     10  H61 UNL     1      10.601   5.729   0.956  1.00  0.00     0.174 HD
ATOM     11  H62 UNL     1      12.172   6.133   0.716  1.00  0.00     0.174 HD
ENDROOT
BRANCH   5  12
HETATM   12  N3  UNL     1       8.734  10.380   1.053  1.00  0.00    -0.224 N 
ATOM     13  H3  UNL     1       8.069  10.141   1.788  1.00  0.00     0.177 HD
BRANCH  12  14
HETATM   14  C3  UNL     1       8.437  11.516   0.236  1.00  0.00     0.138 C 
BRANCH  14  15
HETATM   15  C4  UNL     1       8.233  11.129  -1.203  1.00  0.00     0.022 C 
BRANCH  15  16
HETATM   16  C5  UNL     1       9.304  11.675  -2.104  1.00  0.00     0.029 C 
BRANCH  16  17
HETATM   17  C6  UNL     1       9.870  12.982  -1.607  1.00  0.00     0.229 C 
BRANCH  17  18
HETATM   18  N4  UNL     1      10.596  13.700  -2.612  1.00  0.00    -0.079 N 
ATOM     19  H43 UNL     1      10.610  13.182  -3.490  1.00  0.00     0.274 HD
ATOM     20  H42 UNL     1      10.079  14.526  -2.912  1.00  0.00     0.274 HD
ATOM     21  H41 UNL     1      11.543  13.950  -2.322  1.00  0.00     0.274 HD
ENDBRANCH  17  18
ENDBRANCH  16  17
ENDBRANCH  15  16
ENDBRANCH  14  15
ENDBRANCH  12  14
ENDBRANCH   5  12
TORSDOF 6
ENDMDL
MODEL 3
REMARK VINA RESULT: -3.492121070      2.124      4.841
REMARK  6 active torsions:
REMARK  status: ('A' for Active; 'I' for Inactive)
REMARK    1  A    between atoms: C2_5  and  N3_6 
REMARK    2  A    between atoms: N3_6  and  C3_8 
REMARK    3  A    between atoms: C3_8  and  C4_9 
REMARK    4  A    between atoms: C4_9  and  C5_10 
REMARK    5  A    between atoms: C5_10  and  C6_11 
REMARK    6  A    between atoms: C6_11  and  N4_12 
ROOT
HETATM    1  C1  UNL     1       9.263  14.832   0.103  1.00  0.00     0.198 C 
HETATM    2  N1  UNL     1       9.272  13.392  -0.037  1.00  0.00    -0.114 N 
HETATM    3  N2  UNL     1       8.914  12.498   0.869  1.00  0.00    -0.116 N 
ATOM      4  H2  UNL     1       8.577  12.708   1.808  1.00  0.00     0.206 HD
HETATM    5  C2  UNL     1       9.065  11.278   0.356  1.00  0.00     0.707 A 
HETATM    6  N5  UNL     1       9.531  11.444  -0.901  1.00  0.00    -0.020 N 
ATOM      7  H5  UNL     1       9.750  10.693  -1.555  1.00  0.00     0.203 HD
HETATM    8  C7  UNL     1       9.660  12.740  -1.148  1.00  0.00     0.707 A 
HETATM    9  N6  UNL     1      10.086  13.269  -2.266  1.00  0.00    -0.233 N 
ATOM     10  H61 UNL     1      10.379  12.775  -3.108  1.00  0.00     0.174 HD
ATOM     11  H62 UNL     1      10.184  14.267  -2.455  1.00  0.00     0.174 HD
ENDROOT
BRANCH   5  12
HETATM   12  N3  UNL     1       8.848  10.118   0.856  1.00  0.00    -0.224 N 
ATOM     13  H3  UNL     1       8.021  10.005   1.442  1.00  0.00     0.177 HD
BRANCH  12  14
HETATM   14  C3  UNL     1       9.676   8.969   0.654  1.00  0.00     0.138 C 
BRANCH  14  15
HETATM   15  C4  UNL     1       9.654   8.052   1.847  1.00  0.00     0.022 C 
BRANCH  15  16
HETATM   16  C5  UNL     1      10.758   7.035   1.812  1.00  0.00     0.029 C 
BRANCH  16  17
HETATM   17  C6  UNL     1      11.799   7.344   0.765  1.00  0.00     0.229 C 
BRANCH  17  18
HETATM   18  N4  UNL     1      12.018   6.263  -0.150  1.00  0.00    -0.079 N 
ATOM     19  H43 UNL     1      12.793   5.676   0.159  1.00  0.00     0.274 HD
ATOM     20  H42 UNL     1      11.260   5.583  -0.095  1.00  0.00     0.274 HD
ATOM     21  H41 UNL     1      12.159   6.573  -1.112  1.00  0.00     0.274 HD
ENDBRANCH  17  18
ENDBRANCH  16  17
ENDBRANCH  15  16
ENDBRANCH  14  15
ENDBRANCH  12  14
ENDBRANCH   5  12
TORSDOF 6
ENDMDL
MODEL 4
REMARK VINA RESULT: -3.439127521      1.526      2.868
REMARK  6 active torsions:
REMARK  status: ('A' for Active; 'I' for Inactive)
REMARK    1  A    between atoms: C2_5  and  N3_6 
REMARK    2  A    between atoms: N3_6  and  C3_8 
REMARK    3  A    between atoms: C3_8  and  C4_9 
REMARK    4  A    between atoms: C4_9  and  C5_10 
REMARK    5  A    between atoms: C5_10  and  C6_11 
REMARK    6  A    between atoms: C6_11  and  N4_12 
ROOT
HETATM    1  C1  UNL     1      10.524   7.341   2.040  1.00  0.00     0.198 C 
HETATM    2  N1  UNL     1      10.772   7.845   0.707  1.00  0.00    -0.114 N 
HETATM    3  N2  UNL     1      10.223   8.904   0.138  1.00  0.00    -0.116 N 
ATOM      4  H2  UNL     1       9.536   9.521   0.571  1.00  0.00     0.206 HD
HETATM    5  C2  UNL     1      10.713   9.037  -1.094  1.00  0.00     0.707 A 
HETATM    6  N5  UNL     1      11.586   8.021  -1.272  1.00  0.00    -0.020 N 
ATOM      7  H5  UNL     1      12.126   7.847  -2.118  1.00  0.00     0.203 HD
HETATM    8  C7  UNL     1      11.626   7.287  -0.168  1.00  0.00     0.707 A 
HETATM    9  N6  UNL     1      12.363   6.222   0.017  1.00  0.00    -0.233 N 
ATOM     10  H61 UNL     1      13.012   5.798  -0.647  1.00  0.00     0.174 HD
ATOM     11  H62 UNL     1      12.394   5.657   0.867  1.00  0.00     0.174 HD
ENDROOT
BRANCH   5  12
HETATM   12  N3  UNL     1      10.479   9.903  -2.008  1.00  0.00    -0.224 N 
ATOM     13  H3  UNL     1      10.363   9.562  -2.962  1.00  0.00     0.177 HD
BRANCH  12  14
HETATM   14  C3  UNL     1      10.367  11.313  -1.793  1.00  0.00     0.138 C 
BRANCH  14  15
HETATM   15  C4  UNL     1       8.944  11.784  -1.923  1.00  0.00     0.022 C 
BRANCH  15  16
HETATM   16  C5  UNL     1       8.191  11.712  -0.626  1.00  0.00     0.029 C 
BRANCH  16  17
HETATM   17  C6  UNL     1       8.724  12.673   0.408  1.00  0.00     0.229 C 
BRANCH  17  18
HETATM   18  N4  UNL     1       7.792  12.938   1.465  1.00  0.00    -0.079 N 
ATOM     19  H43 UNL     1       7.032  12.258   1.457  1.00  0.00     0.274 HD
ATOM     20  H42 UNL     1       8.202  12.721   2.373  1.00  0.00     0.274 HD
ATOM     21  H41 UNL     1       7.427  13.890   1.449  1.00  0.00     0.274 HD
ENDBRANCH  17  18
ENDBRANCH  16  17
ENDBRANCH  15  16
ENDBRANCH  14  15
ENDBRANCH  12  14
ENDBRANCH   5  12
TORSDOF 6
ENDMDL
MODEL 5
REMARK VINA RESULT: -3.398227370      1.204      2.418
REMARK  6 active torsions:
REMARK  status: ('A' for Active; 'I' for Inactive)
REMARK    1  A    between atoms: C2_5  and  N3_6 
REMARK    2  A    between atoms: N3_6  and  C3_8 
REMARK    3  A    between atoms: C3_8  and  C4_9 
REMARK    4  A    between atoms: C4_9  and  C5_10 
REMARK    5  A    between atoms: C5_10  and  C6_11 
REMARK    6  A    between atoms: C6_11  and  N4_12 
ROOT
HETATM    1  C1  UNL     1      12.779   8.380   2.525  1.00  0.00     0.198 C 
HETATM    2  N1  UNL     1      12.200   8.641   1.226  1.00  0.00    -0.114 N 
HETATM    3  N2  UNL     1      12.339   9.731   0.493  1.00  0.00    -0.116 N 
ATOM      4  H2  UNL     1      12.886  10.553   0.750  1.00  0.00     0.206 HD
HETATM    5  C2  UNL     1      11.652   9.584  -0.639  1.00  0.00     0.707 A 
HETATM    6  N5  UNL     1      11.077   8.362  -0.583  1.00  0.00    -0.020 N 
ATOM      7  H5  UNL     1      10.482   7.954  -1.303  1.00  0.00     0.203 HD
HETATM    8  C7  UNL     1      11.411   7.778   0.560  1.00  0.00     0.707 A 
HETATM    9  N6  UNL     1      11.035   6.588   0.952  1.00  0.00    -0.233 N 
ATOM     10  H61 UNL     1      10.437   5.934   0.446  1.00  0.00     0.174 HD
ATOM     11  H62 UNL     1      11.292   6.140   1.831  1.00  0.00     0.174 HD
ENDROOT
BRANCH   5  12
HETATM   12  N3  UNL     1      11.494  10.367  -1.640  1.00  0.00    -0.224 N 
ATOM     13  H3  UNL     1      12.285  10.952  -1.910  1.00  0.00     0.177 HD
BRANCH  12  14
HETATM   14  C3  UNL     1      10.293  10.484  -2.409  1.00  0.00     0.138 C 
BRANCH  14  15
HETATM   15  C4  UNL     1       9.454  11.647  -1.957  1.00  0.00     0.022 C 
BRANCH  15  16
HETATM   16  C5  UNL     1       8.254  11.218  -1.162  1.00  0.00     0.029 C 
BRANCH  16  17
HETATM   17  C6  UNL     1       8.449  11.394   0.324  1.00  0.00     0.229 C 
BRANCH  17  18
HETATM   18  N4  UNL     1       8.417  10.158   1.048  1.00  0.00    -0.079 N 
ATOM     19  H43 UNL     1       8.649  10.307   2.030  1.00  0.00     0.274 HD
ATOM     20  H42 UNL     1       7.460   9.822   1.150  1.00  0.00     0.274 HD
ATOM     21  H41 UNL     1       9.013   9.438   0.639  1.00  0.00     0.274 HD
ENDBRANCH  17  18
ENDBRANCH  16  17
ENDBRANCH  15  16
ENDBRANCH  14  15
ENDBRANCH  12  14
ENDBRANCH   5  12
TORSDOF 6
ENDMDL
