MODEL 1
REMARK VINA RESULT: -3.625202757      0.000      0.000
REMARK  7 active torsions:
REMARK  status: ('A' for Active; 'I' for Inactive)
REMARK    1  A    between atoms: N1_2  and  C2_5 
REMARK    2  A    between atoms: C2_5  and  C3_6 
REMARK    3  A    between atoms: C3_6  and  C4_7 
REMARK    4  A    between atoms: C4_7  and  N2_8 
REMARK    5  A    between atoms: N2_8  and  C5_10 
REMARK    6  A    between atoms: C7_14  and  C8_15 
REMARK    7  A    between atoms: C8_15  and  N4_16 
ROOT
HETATM    1  C5  UNL     1       9.827   9.147   1.210  1.00  0.00     0.171 C 
HETATM    2  N3  UNL     1       9.728   8.004   1.767  1.00  0.00    -0.360 N 
ATOM      3  H3  UNL     1       8.850   7.568   2.050  1.00  0.00     0.162 HD
HETATM    4  C6  UNL     1      11.035   7.416   1.938  1.00  0.00     0.149 C 
HETATM    5  C7  UNL     1      11.951   8.278   1.128  1.00  0.00     0.127 C 
HETATM    6  N5  UNL     1      11.183   9.484   0.923  1.00  0.00    -0.355 N 
ATOM      7  H5  UNL     1      11.539  10.394   0.630  1.00  0.00     0.163 HD
ENDROOT
BRANCH   1   8
HETATM    8  N2  UNL     1       8.686   9.990   0.906  1.00  0.00    -0.362 N 
ATOM      9  H2  UNL     1       8.213  10.552   1.614  1.00  0.00     0.162 HD
BRANCH   8  10
HETATM   10  C4  UNL     1       8.271   9.973  -0.484  1.00  0.00     0.124 C 
BRANCH  10  11
HETATM   11  C3  UNL     1       8.429  11.398  -0.972  1.00  0.00     0.047 C 
BRANCH  11  12
HETATM   12  C2  UNL     1       9.374  11.483  -2.127  1.00  0.00     0.233 C 
BRANCH  12  13
HETATM   13  N1  UNL     1       9.913  12.802  -2.230  1.00  0.00    -0.079 N 
HETATM   14  C1  UNL     1       9.745  13.508  -0.997  1.00  0.00     0.266 C 
ATOM     15  H12 UNL     1       9.517  13.314  -3.018  1.00  0.00     0.276 HD
ATOM     16  H11 UNL     1      10.888  12.790  -2.532  1.00  0.00     0.276 HD
ENDBRANCH  12  13
ENDBRANCH  11  12
ENDBRANCH  10  11
ENDBRANCH   8  10
ENDBRANCH   1   8
BRANCH   5  17
HETATM   17  C8  UNL     1      12.306   7.618  -0.183  1.00  0.00     0.256 C 
BRANCH  17  18
HETATM   18  N4  UNL     1      12.064   6.214  -0.110  1.00  0.00    -0.077 N 
ATOM     19  H43 UNL     1      12.869   5.709   0.260  1.00  0.00     0.274 HD
ATOM     20  H42 UNL     1      11.392   5.982   0.620  1.00  0.00     0.274 HD
ATOM     21  H41 UNL     1      11.777   5.857  -1.022  1.00  0.00     0.274 HD
ENDBRANCH  17  18
ENDBRANCH   5  17
TORSDOF 7
ENDMDL
MODEL 2
REMARK VINA RESULT: -3.617818668      0.915      1.223
REMARK  7 active torsions:
REMARK  status: ('A' for Active; 'I' for Inactive)
REMARK    1  A    between atoms: N1_2  and  C2_5 
REMARK    2  A    between atoms: C2_5  and  C3_6 
REMARK    3  A    between atoms: C3_6  and  C4_7 
REMARK    4  A    between atoms: C4_7  and  N2_8 
REMARK    5  A    between atoms: N2_8  and  C5_10 
REMARK    6  A    between atoms: C7_14  and  C8_15 
REMARK    7  A    between atoms: C8_15  and  N4_16 
ROOT
HETATM    1  C5  UNL     1       9.805   9.128   1.198  1.00  0.00     0.171 C 
HETATM    2  N3  UNL     1       9.735   7.994   1.778  1.00  0.00    -0.360 N 
ATOM      3  H3  UNL     1       8.869   7.542   2.072  1.00  0.00     0.162 HD
HETATM    4  C6  UNL     1      11.056   7.441   1.959  1.00  0.00     0.149 C 
HETATM    5  C7  UNL     1      11.950   8.309   1.130  1.00  0.00     0.127 C 
HETATM    6  N5  UNL     1      11.152   9.491   0.902  1.00  0.00    -0.355 N 
ATOM      7  H5  UNL     1      11.485  10.404   0.590  1.00  0.00     0.163 HD
ENDROOT
BRANCH   1   8
HETATM    8  N2  UNL     1       8.644   9.936   0.880  1.00  0.00    -0.362 N 
ATOM      9  H2  UNL     1       8.136  10.472   1.583  1.00  0.00     0.162 HD
BRANCH   8  10
HETATM   10  C4  UNL     1       8.260   9.924  -0.520  1.00  0.00     0.124 C 
BRANCH  10  11
HETATM   11  C3  UNL     1       8.284  11.373  -0.959  1.00  0.00     0.047 C 
BRANCH  11  12
HETATM   12  C2  UNL     1       9.385  11.636  -1.935  1.00  0.00     0.233 C 
BRANCH  12  13
HETATM   13  N1  UNL     1      10.012  10.411  -2.317  1.00  0.00    -0.079 N 
HETATM   14  C1  UNL     1      11.395  10.629  -2.610  1.00  0.00     0.266 C 
ATOM     15  H12 UNL     1       9.525   9.961  -3.092  1.00  0.00     0.276 HD
ATOM     16  H11 UNL     1       9.882   9.683  -1.613  1.00  0.00     0.276 HD
ENDBRANCH  12  13
ENDBRANCH  11  12
ENDBRANCH  10  11
ENDBRANCH   8  10
ENDBRANCH   1   8
BRANCH   5  17
HETATM   17  C8  UNL     1      12.319   7.631  -0.168  1.00  0.00     0.256 C 
BRANCH  17  18
HETATM   18  N4  UNL     1      12.087   6.228  -0.075  1.00  0.00    -0.077 N 
ATOM     19  H43 UNL     1      11.469   5.995   0.702  1.00  0.00     0.274 HD
ATOM     20  H42 UNL     1      11.503   5.887  -0.839  1.00  0.00     0.274 HD
ATOM     21  H41 UNL     1      12.974   5.726  -0.019  1.00  0.00     0.274 HD
ENDBRANCH  17  18
ENDBRANCH   5  17
TORSDOF 7
ENDMDL
MODEL 3
REMARK VINA RESULT: -3.582237997      1.301      4.741
REMARK  7 active torsions:
REMARK  status: ('A' for Active; 'I' for Inactive)
REMARK    1  A    between atoms: N1_2  and  C2_5 
REMARK    2  A    between atoms: C2_5  and  C3_6 
REMARK    3  A    between atoms: C3_6  and  C4_7 
REMARK    4  A    between atoms: C4_7  and  N2_8 
REMARK    5  A    between atoms: N2_8  and  C5_10 
REMARK    6  A    between atoms: C7_14  and  C8_15 
REMARK    7  A    between atoms: C8_15  and  N4_16 
ROOT
HETATM    1  C5  UNL     1       9.157   9.811   0.631  1.00  0.00     0.171 C 
HETATM    2  N3  UNL     1       9.220  11.015   1.045  1.00  0.00    -0.360 N 
ATOM      3  H3  UNL     1       9.614  11.304   1.941  1.00  0.00     0.162 HD
HETATM    4  C6  UNL     1       8.654  11.912   0.065  1.00  0.00     0.149 C 
HETATM    5  C7  UNL     1       8.482  11.075  -1.163  1.00  0.00     0.127 C 
HETATM    6  N5  UNL     1       8.563   9.723  -0.663  1.00  0.00    -0.355 N 
ATOM      7  H5  UNL     1       8.256   8.874  -1.139  1.00  0.00     0.163 HD
ENDROOT
BRANCH   1   8
HETATM    8  N2  UNL     1       9.643   8.676   1.394  1.00  0.00    -0.362 N 
ATOM      9  H2  UNL     1       9.030   8.094   1.964  1.00  0.00     0.162 HD
BRANCH   8  10
HETATM   10  C4  UNL     1      11.069   8.434   1.281  1.00  0.00     0.124 C 
BRANCH  10  11
HETATM   11  C3  UNL     1      11.199   7.012   0.774  1.00  0.00     0.047 C 
BRANCH  11  12
HETATM   12  C2  UNL     1      11.980   6.950  -0.499  1.00  0.00     0.233 C 
BRANCH  12  13
HETATM   13  N1  UNL     1      11.831   8.167  -1.232  1.00  0.00    -0.079 N 
HETATM   14  C1  UNL     1      11.518   7.890  -2.601  1.00  0.00     0.266 C 
ATOM     15  H12 UNL     1      12.652   8.766  -1.143  1.00  0.00     0.276 HD
ATOM     16  H11 UNL     1      11.144   8.787  -0.802  1.00  0.00     0.276 HD
ENDBRANCH  12  13
ENDBRANCH  11  12
ENDBRANCH  10  11
ENDBRANCH   8  10
ENDBRANCH   1   8
BRANCH   5  17
HETATM   17  C8  UNL     1       9.569  11.358  -2.173  1.00  0.00     0.256 C 
BRANCH  17  18
HETATM   18  N4  UNL     1       9.840  12.756  -2.229  1.00  0.00    -0.077 N 
ATOM     19  H43 UNL     1       8.988  13.304  -2.348  1.00  0.00     0.274 HD
ATOM     20  H42 UNL     1      10.129  13.124  -1.322  1.00  0.00     0.274 HD
ATOM     21  H41 UNL     1      10.525  12.955  -2.958  1.00  0.00     0.274 HD
ENDBRANCH  17  18
ENDBRANCH   5  17
TORSDOF 7
ENDMDL
MODEL 4
REMARK VINA RESULT: -3.561667935      1.173      4.985
REMARK  7 active torsions:
REMARK  status: ('A' for Active; 'I' for Inactive)
REMARK    1  A    between atoms: N1_2  and  C2_5 
REMARK    2  A    between atoms: C2_5  and  C3_6 
REMARK    3  A    between atoms: C3_6  and  C4_7 
REMARK    4  A    between atoms: C4_7  and  N2_8 
REMARK    5  A    between atoms: N2_8  and  C5_10 
REMARK    6  A    between atoms: C7_14  and  C8_15 
REMARK    7  A    between atoms: C8_15  and  N4_16 
ROOT
HETATM    1  C5  UNL     1       9.635  10.186   0.313  1.00  0.00     0.171 C 
HETATM    2  N3  UNL     1       8.857  11.043   0.848  1.00  0.00    -0.360 N 
ATOM      3  H3  UNL     1       8.739  11.176   1.853  1.00  0.00     0.162 HD
HETATM    4  C6  UNL     1       8.168  11.799  -0.171  1.00  0.00     0.149 C 
HETATM    5  C7  UNL     1       8.870  11.450  -1.445  1.00  0.00     0.127 C 
HETATM    6  N5  UNL     1       9.593  10.245  -1.111  1.00  0.00    -0.355 N 
ATOM      7  H5  UNL     1       9.993   9.570  -1.764  1.00  0.00     0.163 HD
ENDROOT
BRANCH   1   8
HETATM    8  N2  UNL     1      10.464   9.272   1.076  1.00  0.00    -0.362 N 
ATOM      9  H2  UNL     1      11.452   9.447   1.259  1.00  0.00     0.162 HD
BRANCH   8  10
HETATM   10  C4  UNL     1       9.778   8.089   1.559  1.00  0.00     0.124 C 
BRANCH  10  11
HETATM   11  C3  UNL     1      10.839   7.012   1.644  1.00  0.00     0.047 C 
BRANCH  11  12
HETATM   12  C2  UNL     1      12.014   7.326   0.775  1.00  0.00     0.233 C 
BRANCH  12  13
HETATM   13  N1  UNL     1      12.015   6.486  -0.380  1.00  0.00    -0.079 N 
HETATM   14  C1  UNL     1      11.988   7.277  -1.572  1.00  0.00     0.266 C 
ATOM     15  H12 UNL     1      11.253   5.808  -0.357  1.00  0.00     0.276 HD
ATOM     16  H11 UNL     1      12.799   5.833  -0.374  1.00  0.00     0.276 HD
ENDBRANCH  12  13
ENDBRANCH  11  12
ENDBRANCH  10  11
ENDBRANCH   8  10
ENDBRANCH   1   8
BRANCH   5  17
HETATM   17  C8  UNL     1       9.805  12.556  -1.874  1.00  0.00     0.256 C 
BRANCH  17  18
HETATM   18  N4  UNL     1      10.900  12.017  -2.612  1.00  0.00    -0.077 N 
ATOM     19  H43 UNL     1      11.685  11.777  -2.007  1.00  0.00     0.274 HD
ATOM     20  H42 UNL     1      10.695  11.085  -2.971  1.00  0.00     0.274 HD
ATOM     21  H41 UNL     1      11.176  12.660  -3.355  1.00  0.00     0.274 HD
ENDBRANCH  17  18
ENDBRANCH   5  17
TORSDOF 7
ENDMDL
MODEL 5
REMARK VINA RESULT: -3.503166161      1.416      2.550
REMARK  7 active torsions:
REMARK  status: ('A' for Active; 'I' for Inactive)
REMARK    1  A    between atoms: N1_2  and  C2_5 
REMARK    2  A    between atoms: C2_5  and  C3_6 
REMARK    3  A    between atoms: C3_6  and  C4_7 
REMARK    4  A    between atoms: C4_7  and  N2_8 
REMARK    5  A    between atoms: N2_8  and  C5_10 
REMARK    6  A    between atoms: C7_14  and  C8_15 
REMARK    7  A    between atoms: C8_15  and  N4_16 
ROOT
HETATM    1  C5  UNL     1      10.607  10.748   1.029  1.00  0.00     0.171 C 
HETATM    2  N3  UNL     1      11.494  10.231   0.272  1.00  0.00    -0.360 N 
ATOM      3  H3  UNL     1      12.381  10.671   0.027  1.00  0.00     0.162 HD
HETATM    4  C6  UNL     1      11.062   8.933  -0.190  1.00  0.00     0.149 C 
HETATM    5  C7  UNL     1       9.864   8.609   0.646  1.00  0.00     0.127 C 
HETATM    6  N5  UNL     1       9.481   9.889   1.193  1.00  0.00    -0.355 N 
ATOM      7  H5  UNL     1       8.583  10.132   1.613  1.00  0.00     0.163 HD
ENDROOT
BRANCH   1   8
HETATM    8  N2  UNL     1      10.747  12.052   1.649  1.00  0.00    -0.362 N 
ATOM      9  H2  UNL     1      10.670  12.194   2.656  1.00  0.00     0.162 HD
BRANCH   8  10
HETATM   10  C4  UNL     1      11.007  13.140   0.724  1.00  0.00     0.124 C 
BRANCH  10  11
HETATM   11  C3  UNL     1       9.723  13.319  -0.060  1.00  0.00     0.047 C 
BRANCH  11  12
HETATM   12  C2  UNL     1       9.993  13.676  -1.486  1.00  0.00     0.233 C 
BRANCH  12  13
HETATM   13  N1  UNL     1      10.068  12.496  -2.287  1.00  0.00    -0.079 N 
HETATM   14  C1  UNL     1       8.946  11.646  -2.029  1.00  0.00     0.266 C 
ATOM     15  H12 UNL     1      10.953  12.006  -2.159  1.00  0.00     0.276 HD
ATOM     16  H11 UNL     1      10.158  12.716  -3.279  1.00  0.00     0.276 HD
ENDBRANCH  12  13
ENDBRANCH  11  12
ENDBRANCH  10  11
ENDBRANCH   8  10
ENDBRANCH   1   8
BRANCH   5  17
HETATM   17  C8  UNL     1      10.210   7.622   1.736  1.00  0.00     0.256 C 
BRANCH  17  18
HETATM   18  N4  UNL     1      10.888   6.496   1.185  1.00  0.00    -0.077 N 
ATOM     19  H43 UNL     1      11.886   6.672   1.070  1.00  0.00     0.274 HD
ATOM     20  H42 UNL     1      10.947   5.725   1.850  1.00  0.00     0.274 HD
ATOM     21  H41 UNL     1      10.448   6.212   0.310  1.00  0.00     0.274 HD
ENDBRANCH  17  18
ENDBRANCH   5  17
TORSDOF 7
ENDMDL
