MODEL 1
REMARK VINA RESULT: -6.044360505      0.000      0.000
REMARK  5 active torsions:
REMARK  status: ('A' for Active; 'I' for Inactive)
REMARK    1  A    between atoms: N1_2  and  C2_4 
REMARK    2  A    between atoms: N2_5  and  N3_7 
REMARK    3  A    between atoms: N3_7  and  C3_9 
REMARK    4  A    between atoms: C3_9  and  N4_11 
REMARK    5  A    between atoms: N4_11  and  C4_13 
ROOT
HETATM    1  C3  UNL     1       6.435 -71.600 -14.565  1.00  0.00     0.186 C 
HETATM    2  S1  UNL     1       5.358 -72.346 -15.528  1.00  0.00    -0.040 SA
ENDROOT
BRANCH   1   3
HETATM    3  N3  UNL     1       7.553 -72.324 -14.104  1.00  0.00    -0.276 N 
ATOM      4  H3  UNL     1       8.343 -72.514 -14.721  1.00  0.00     0.189 HD
BRANCH   3   5
HETATM    5  N2  UNL     1       7.552 -72.776 -12.775  1.00  0.00    -0.294 N 
HETATM    6  C2  UNL     1       6.800 -73.774 -12.487  1.00  0.00     0.192 C 
ATOM      7  H2  UNL     1       8.129 -72.326 -12.064  1.00  0.00     0.187 HD
BRANCH   6   8
HETATM    8  N1  UNL     1       6.760 -74.273 -11.159  1.00  0.00    -0.389 N 
HETATM    9  C1  UNL     1       7.848 -73.873 -10.275  1.00  0.00     0.147 C 
ATOM     10  H1  UNL     1       6.006 -74.881 -10.839  1.00  0.00     0.159 HD
ENDBRANCH   6   8
ENDBRANCH   3   5
ENDBRANCH   1   3
BRANCH   1  11
HETATM   11  N4  UNL     1       6.282 -70.251 -14.174  1.00  0.00    -0.361 N 
ATOM     12  H4  UNL     1       6.293 -70.056 -13.173  1.00  0.00     0.162 HD
BRANCH  11  13
HETATM   13  C4  UNL     1       6.112 -69.129 -15.055  1.00  0.00     0.083 C 
HETATM   14  C5  UNL     1       6.762 -67.893 -14.488  1.00  0.00     0.025 C 
HETATM   15  C6  UNL     1       5.700 -66.935 -14.031  1.00  0.00     0.002 C 
HETATM   16  C7  UNL     1       5.036 -66.357 -15.272  1.00  0.00     0.000 C 
HETATM   17  C8  UNL     1       4.427 -67.518 -16.008  1.00  0.00     0.002 C 
HETATM   18  C9  UNL     1       4.652 -68.842 -15.314  1.00  0.00     0.025 C 
ENDBRANCH  11  13
ENDBRANCH   1  11
TORSDOF 5
ENDMDL
MODEL 2
REMARK VINA RESULT: -6.020299568      2.385      2.515
REMARK  5 active torsions:
REMARK  status: ('A' for Active; 'I' for Inactive)
REMARK    1  A    between atoms: N1_2  and  C2_4 
REMARK    2  A    between atoms: N2_5  and  N3_7 
REMARK    3  A    between atoms: N3_7  and  C3_9 
REMARK    4  A    between atoms: C3_9  and  N4_11 
REMARK    5  A    between atoms: N4_11  and  C4_13 
ROOT
HETATM    1  C3  UNL     1       6.240 -71.711 -14.323  1.00  0.00     0.186 C 
HETATM    2  S1  UNL     1       6.790 -72.397 -15.690  1.00  0.00    -0.040 SA
ENDROOT
BRANCH   1   3
HETATM    3  N3  UNL     1       5.604 -72.521 -13.361  1.00  0.00    -0.276 N 
ATOM      4  H3  UNL     1       6.130 -73.216 -12.833  1.00  0.00     0.189 HD
BRANCH   3   5
HETATM    5  N2  UNL     1       4.227 -72.344 -13.148  1.00  0.00    -0.294 N 
HETATM    6  C2  UNL     1       3.781 -72.519 -11.959  1.00  0.00     0.192 C 
ATOM      7  H2  UNL     1       3.603 -72.086 -13.914  1.00  0.00     0.187 HD
BRANCH   6   8
HETATM    8  N1  UNL     1       2.398 -72.354 -11.687  1.00  0.00    -0.389 N 
HETATM    9  C1  UNL     1       1.931 -72.785 -10.376  1.00  0.00     0.147 C 
ATOM     10  H1  UNL     1       1.762 -71.953 -12.377  1.00  0.00     0.159 HD
ENDBRANCH   6   8
ENDBRANCH   3   5
ENDBRANCH   1   3
BRANCH   1  11
HETATM   11  N4  UNL     1       6.379 -70.327 -14.072  1.00  0.00    -0.361 N 
ATOM     12  H4  UNL     1       6.679 -70.055 -13.135  1.00  0.00     0.162 HD
BRANCH  11  13
HETATM   13  C4  UNL     1       6.137 -69.267 -15.011  1.00  0.00     0.083 C 
HETATM   14  C5  UNL     1       6.663 -67.954 -14.492  1.00  0.00     0.025 C 
HETATM   15  C6  UNL     1       5.510 -67.072 -14.107  1.00  0.00     0.002 C 
HETATM   16  C7  UNL     1       4.832 -66.614 -15.391  1.00  0.00     0.000 C 
HETATM   17  C8  UNL     1       4.345 -67.858 -16.080  1.00  0.00     0.002 C 
HETATM   18  C9  UNL     1       4.664 -69.122 -15.317  1.00  0.00     0.025 C 
ENDBRANCH  11  13
ENDBRANCH   1  11
TORSDOF 5
ENDMDL
MODEL 3
REMARK VINA RESULT: -5.938074691      2.182      2.535
REMARK  5 active torsions:
REMARK  status: ('A' for Active; 'I' for Inactive)
REMARK    1  A    between atoms: N1_2  and  C2_4 
REMARK    2  A    between atoms: N2_5  and  N3_7 
REMARK    3  A    between atoms: N3_7  and  C3_9 
REMARK    4  A    between atoms: C3_9  and  N4_11 
REMARK    5  A    between atoms: N4_11  and  C4_13 
ROOT
HETATM    1  C3  UNL     1       6.185 -71.445 -14.350  1.00  0.00     0.186 C 
HETATM    2  S1  UNL     1       6.434 -72.527 -15.537  1.00  0.00    -0.040 SA
ENDROOT
BRANCH   1   3
HETATM    3  N3  UNL     1       5.358 -71.800 -13.265  1.00  0.00    -0.276 N 
ATOM      4  H3  UNL     1       5.642 -71.607 -12.306  1.00  0.00     0.189 HD
BRANCH   3   5
HETATM    5  N2  UNL     1       4.132 -72.428 -13.541  1.00  0.00    -0.294 N 
HETATM    6  C2  UNL     1       3.853 -73.499 -12.893  1.00  0.00     0.192 C 
ATOM      7  H2  UNL     1       3.486 -72.045 -14.231  1.00  0.00     0.187 HD
BRANCH   6   8
HETATM    8  N1  UNL     1       2.628 -74.174 -13.131  1.00  0.00    -0.389 N 
HETATM    9  C1  UNL     1       2.717 -75.565 -13.556  1.00  0.00     0.147 C 
ATOM     10  H1  UNL     1       1.729 -73.708 -13.010  1.00  0.00     0.159 HD
ENDBRANCH   6   8
ENDBRANCH   3   5
ENDBRANCH   1   3
BRANCH   1  11
HETATM   11  N4  UNL     1       6.770 -70.159 -14.374  1.00  0.00    -0.361 N 
ATOM     12  H4  UNL     1       7.555 -69.997 -13.743  1.00  0.00     0.162 HD
BRANCH  11  13
HETATM   13  C4  UNL     1       6.363 -69.059 -15.204  1.00  0.00     0.083 C 
HETATM   14  C5  UNL     1       6.889 -67.754 -14.666  1.00  0.00     0.025 C 
HETATM   15  C6  UNL     1       5.753 -66.960 -14.086  1.00  0.00     0.002 C 
HETATM   16  C7  UNL     1       4.900 -66.463 -15.244  1.00  0.00     0.000 C 
HETATM   17  C8  UNL     1       4.388 -67.687 -15.950  1.00  0.00     0.002 C 
HETATM   18  C9  UNL     1       4.859 -68.976 -15.318  1.00  0.00     0.025 C 
ENDBRANCH  11  13
ENDBRANCH   1  11
TORSDOF 5
ENDMDL
MODEL 4
REMARK VINA RESULT: -5.887823727      1.004      1.058
REMARK  5 active torsions:
REMARK  status: ('A' for Active; 'I' for Inactive)
REMARK    1  A    between atoms: N1_2  and  C2_4 
REMARK    2  A    between atoms: N2_5  and  N3_7 
REMARK    3  A    between atoms: N3_7  and  C3_9 
REMARK    4  A    between atoms: C3_9  and  N4_11 
REMARK    5  A    between atoms: N4_11  and  C4_13 
ROOT
HETATM    1  C3  UNL     1       6.470 -71.679 -14.174  1.00  0.00     0.186 C 
HETATM    2  S1  UNL     1       6.672 -72.298 -15.664  1.00  0.00    -0.040 SA
ENDROOT
BRANCH   1   3
HETATM    3  N3  UNL     1       6.428 -72.556 -13.071  1.00  0.00    -0.276 N 
ATOM      4  H3  UNL     1       5.541 -72.806 -12.636  1.00  0.00     0.189 HD
BRANCH   3   5
HETATM    5  N2  UNL     1       7.640 -73.075 -12.587  1.00  0.00    -0.294 N 
HETATM    6  C2  UNL     1       7.653 -73.539 -11.392  1.00  0.00     0.192 C 
ATOM      7  H2  UNL     1       8.480 -73.082 -13.166  1.00  0.00     0.187 HD
BRANCH   6   8
HETATM    8  N1  UNL     1       8.851 -74.076 -10.852  1.00  0.00    -0.389 N 
HETATM    9  C1  UNL     1       9.744 -73.142 -10.179  1.00  0.00     0.147 C 
ATOM     10  H1  UNL     1       9.076 -75.068 -10.932  1.00  0.00     0.159 HD
ENDBRANCH   6   8
ENDBRANCH   3   5
ENDBRANCH   1   3
BRANCH   1  11
HETATM   11  N4  UNL     1       6.334 -70.290 -13.953  1.00  0.00    -0.361 N 
ATOM     12  H4  UNL     1       6.409 -69.967 -12.988  1.00  0.00     0.162 HD
BRANCH  11  13
HETATM   13  C4  UNL     1       6.101 -69.291 -14.959  1.00  0.00     0.083 C 
HETATM   14  C5  UNL     1       6.656 -67.957 -14.533  1.00  0.00     0.025 C 
HETATM   15  C6  UNL     1       5.524 -67.029 -14.198  1.00  0.00     0.002 C 
HETATM   16  C7  UNL     1       4.840 -66.645 -15.502  1.00  0.00     0.000 C 
HETATM   17  C8  UNL     1       4.323 -67.923 -16.103  1.00  0.00     0.002 C 
HETATM   18  C9  UNL     1       4.628 -69.139 -15.259  1.00  0.00     0.025 C 
ENDBRANCH  11  13
ENDBRANCH   1  11
TORSDOF 5
ENDMDL
MODEL 5
REMARK VINA RESULT: -5.794558131      1.146      1.715
REMARK  5 active torsions:
REMARK  status: ('A' for Active; 'I' for Inactive)
REMARK    1  A    between atoms: N1_2  and  C2_4 
REMARK    2  A    between atoms: N2_5  and  N3_7 
REMARK    3  A    between atoms: N3_7  and  C3_9 
REMARK    4  A    between atoms: C3_9  and  N4_11 
REMARK    5  A    between atoms: N4_11  and  C4_13 
ROOT
HETATM    1  C3  UNL     1       6.646 -71.627 -14.543  1.00  0.00     0.186 C 
HETATM    2  S1  UNL     1       6.507 -72.664 -15.788  1.00  0.00    -0.040 SA
ENDROOT
BRANCH   1   3
HETATM    3  N3  UNL     1       6.516 -72.118 -13.228  1.00  0.00    -0.276 N 
ATOM      4  H3  UNL     1       5.688 -71.909 -12.671  1.00  0.00     0.189 HD
BRANCH   3   5
HETATM    5  N2  UNL     1       7.556 -72.903 -12.705  1.00  0.00    -0.294 N 
HETATM    6  C2  UNL     1       7.239 -74.005 -12.131  1.00  0.00     0.192 C 
ATOM      7  H2  UNL     1       8.530 -72.606 -12.779  1.00  0.00     0.187 HD
BRANCH   6   8
HETATM    8  N1  UNL     1       8.251 -74.838 -11.585  1.00  0.00    -0.389 N 
HETATM    9  C1  UNL     1       8.316 -76.205 -12.085  1.00  0.00     0.147 C 
ATOM     10  H1  UNL     1       8.901 -74.495 -10.877  1.00  0.00     0.159 HD
ENDBRANCH   6   8
ENDBRANCH   3   5
ENDBRANCH   1   3
BRANCH   1  11
HETATM   11  N4  UNL     1       6.891 -70.249 -14.740  1.00  0.00    -0.361 N 
ATOM     12  H4  UNL     1       7.789 -69.994 -15.152  1.00  0.00     0.162 HD
BRANCH  11  13
HETATM   13  C4  UNL     1       5.994 -69.175 -14.415  1.00  0.00     0.083 C 
HETATM   14  C5  UNL     1       4.635 -69.404 -15.024  1.00  0.00     0.025 C 
HETATM   15  C6  UNL     1       4.427 -68.440 -16.157  1.00  0.00     0.002 C 
HETATM   16  C7  UNL     1       4.235 -67.056 -15.555  1.00  0.00     0.000 C 
HETATM   17  C8  UNL     1       5.501 -66.738 -14.810  1.00  0.00     0.002 C 
HETATM   18  C9  UNL     1       6.528 -67.844 -14.888  1.00  0.00     0.025 C 
ENDBRANCH  11  13
ENDBRANCH   1  11
TORSDOF 5
ENDMDL
