MODEL 1
REMARK VINA RESULT: -5.711694787      0.000      0.000
REMARK  3 active torsions:
REMARK  status: ('A' for Active; 'I' for Inactive)
REMARK    1  A    between atoms: C1_4  and  C2_6 
REMARK    2  A    between atoms: C2_6  and  N3_7 
REMARK    3  A    between atoms: N3_7  and  C3_10 
ROOT
HETATM    1  C3  UNL     1       5.246 -71.084 -14.789  1.00  0.00     0.127 C 
HETATM    2  C4  UNL     1       6.723 -70.876 -14.997  1.00  0.00     0.039 C 
HETATM    3  C5  UNL     1       7.608 -72.016 -14.716  1.00  0.00     0.007 C 
HETATM    4  C6  UNL     1       7.081 -73.159 -13.920  1.00  0.00    -0.014 C 
HETATM    5  C7  UNL     1       6.501 -72.813 -12.590  1.00  0.00     0.009 C 
HETATM    6  C8  UNL     1       5.049 -72.421 -12.658  1.00  0.00    -0.012 C 
HETATM    7  C9  UNL     1       4.235 -73.429 -13.391  1.00  0.00     0.009 C 
HETATM    8  C10 UNL     1       4.765 -73.550 -14.792  1.00  0.00    -0.012 C 
HETATM    9  C11 UNL     1       6.156 -74.072 -14.738  1.00  0.00     0.009 C 
HETATM   10  C12 UNL     1       4.743 -72.244 -15.543  1.00  0.00     0.043 C 
HETATM   11  C13 UNL     1       4.957 -71.084 -13.299  1.00  0.00     0.043 C 
ENDROOT
BRANCH   1  12
HETATM   12  N3  UNL     1       4.599 -69.866 -15.282  1.00  0.00    -0.060 N 
ATOM     13  H32 UNL     1       3.662 -69.770 -14.890  1.00  0.00     0.278 HD
ATOM     14  H31 UNL     1       4.362 -69.958 -16.270  1.00  0.00     0.278 HD
BRANCH  12  15
HETATM   15  C2  UNL     1       5.369 -68.678 -15.055  1.00  0.00     0.305 C 
BRANCH  15  16
HETATM   16  C1  UNL     1       4.686 -67.511 -15.712  1.00  0.00     0.112 C 
HETATM   17  N1  UNL     1       4.845 -66.306 -15.301  1.00  0.00    -0.390 N 
ATOM     18  H12 UNL     1       4.382 -65.514 -15.746  1.00  0.00     0.157 HD
ATOM     19  H11 UNL     1       5.473 -66.148 -14.512  1.00  0.00     0.157 HD
HETATM   20  N2  UNL     1       3.808 -67.731 -16.816  1.00  0.00    -0.086 NA
ENDBRANCH  15  16
ENDBRANCH  12  15
ENDBRANCH   1  12
TORSDOF 3
ENDMDL
MODEL 2
REMARK VINA RESULT: -5.458910772      1.935      3.224
REMARK  3 active torsions:
REMARK  status: ('A' for Active; 'I' for Inactive)
REMARK    1  A    between atoms: C1_4  and  C2_6 
REMARK    2  A    between atoms: C2_6  and  N3_7 
REMARK    3  A    between atoms: N3_7  and  C3_10 
ROOT
HETATM    1  C3  UNL     1       6.156 -72.504 -13.636  1.00  0.00     0.127 C 
HETATM    2  C4  UNL     1       4.934 -71.803 -13.104  1.00  0.00     0.039 C 
HETATM    3  C5  UNL     1       4.001 -72.599 -12.293  1.00  0.00     0.007 C 
HETATM    4  C6  UNL     1       4.097 -74.084 -12.335  1.00  0.00    -0.014 C 
HETATM    5  C7  UNL     1       4.021 -74.704 -13.691  1.00  0.00     0.009 C 
HETATM    6  C8  UNL     1       5.353 -74.775 -14.388  1.00  0.00    -0.012 C 
HETATM    7  C9  UNL     1       6.396 -75.404 -13.531  1.00  0.00     0.009 C 
HETATM    8  C10 UNL     1       6.552 -74.583 -12.282  1.00  0.00    -0.012 C 
HETATM    9  C11 UNL     1       5.278 -74.624 -11.516  1.00  0.00     0.009 C 
HETATM   10  C12 UNL     1       6.928 -73.152 -12.563  1.00  0.00     0.043 C 
HETATM   11  C13 UNL     1       5.742 -73.400 -14.790  1.00  0.00     0.043 C 
ENDROOT
BRANCH   1  12
HETATM   12  N3  UNL     1       6.972 -71.462 -14.262  1.00  0.00    -0.060 N 
ATOM     13  H32 UNL     1       7.636 -71.869 -14.921  1.00  0.00     0.278 HD
ATOM     14  H31 UNL     1       7.626 -71.062 -13.588  1.00  0.00     0.278 HD
BRANCH  12  15
HETATM   15  C2  UNL     1       6.200 -70.431 -14.892  1.00  0.00     0.305 C 
BRANCH  15  16
HETATM   16  C1  UNL     1       6.860 -69.101 -14.657  1.00  0.00     0.112 C 
HETATM   17  N1  UNL     1       6.488 -68.311 -13.718  1.00  0.00    -0.390 N 
ATOM     18  H12 UNL     1       6.935 -67.408 -13.558  1.00  0.00     0.157 HD
ATOM     19  H11 UNL     1       5.730 -68.615 -13.108  1.00  0.00     0.157 HD
HETATM   20  N2  UNL     1       7.921 -68.674 -15.511  1.00  0.00    -0.086 NA
ENDBRANCH  15  16
ENDBRANCH  12  15
ENDBRANCH   1  12
TORSDOF 3
ENDMDL
MODEL 3
REMARK VINA RESULT: -5.431354081      2.176      3.711
REMARK  3 active torsions:
REMARK  status: ('A' for Active; 'I' for Inactive)
REMARK    1  A    between atoms: C1_4  and  C2_6 
REMARK    2  A    between atoms: C2_6  and  N3_7 
REMARK    3  A    between atoms: N3_7  and  C3_10 
ROOT
HETATM    1  C3  UNL     1       5.291 -72.447 -13.042  1.00  0.00     0.127 C 
HETATM    2  C4  UNL     1       4.125 -72.271 -12.106  1.00  0.00     0.039 C 
HETATM    3  C5  UNL     1       3.617 -73.475 -11.432  1.00  0.00     0.007 C 
HETATM    4  C6  UNL     1       4.009 -74.813 -11.954  1.00  0.00    -0.014 C 
HETATM    5  C7  UNL     1       3.724 -75.057 -13.399  1.00  0.00     0.009 C 
HETATM    6  C8  UNL     1       4.820 -74.576 -14.311  1.00  0.00    -0.012 C 
HETATM    7  C9  UNL     1       6.154 -75.093 -13.897  1.00  0.00     0.009 C 
HETATM    8  C10 UNL     1       6.446 -74.613 -12.503  1.00  0.00    -0.012 C 
HETATM    9  C11 UNL     1       5.445 -75.199 -11.573  1.00  0.00     0.009 C 
HETATM   10  C12 UNL     1       6.429 -73.111 -12.384  1.00  0.00     0.043 C 
HETATM   11  C13 UNL     1       4.797 -73.091 -14.324  1.00  0.00     0.043 C 
ENDROOT
BRANCH   1  12
HETATM   12  N3  UNL     1       5.685 -71.095 -13.445  1.00  0.00    -0.060 N 
ATOM     13  H32 UNL     1       6.501 -70.784 -12.917  1.00  0.00     0.278 HD
ATOM     14  H31 UNL     1       5.002 -70.409 -13.123  1.00  0.00     0.278 HD
BRANCH  12  15
HETATM   15  C2  UNL     1       5.912 -70.962 -14.854  1.00  0.00     0.305 C 
BRANCH  15  16
HETATM   16  C1  UNL     1       7.346 -70.583 -15.094  1.00  0.00     0.112 C 
HETATM   17  N1  UNL     1       8.297 -71.442 -15.046  1.00  0.00    -0.390 N 
ATOM     18  H12 UNL     1       9.271 -71.186 -15.208  1.00  0.00     0.157 HD
ATOM     19  H11 UNL     1       8.055 -72.414 -14.855  1.00  0.00     0.157 HD
HETATM   20  N2  UNL     1       7.687 -69.222 -15.360  1.00  0.00    -0.086 NA
ENDBRANCH  15  16
ENDBRANCH  12  15
ENDBRANCH   1  12
TORSDOF 3
ENDMDL
MODEL 4
REMARK VINA RESULT: -5.428872288      2.444      5.393
REMARK  3 active torsions:
REMARK  status: ('A' for Active; 'I' for Inactive)
REMARK    1  A    between atoms: C1_4  and  C2_6 
REMARK    2  A    between atoms: C2_6  and  N3_7 
REMARK    3  A    between atoms: N3_7  and  C3_10 
ROOT
HETATM    1  C3  UNL     1       5.985 -69.841 -14.364  1.00  0.00     0.127 C 
HETATM    2  C4  UNL     1       4.763 -69.777 -15.242  1.00  0.00     0.039 C 
HETATM    3  C5  UNL     1       4.477 -68.495 -15.904  1.00  0.00     0.007 C 
HETATM    4  C6  UNL     1       5.156 -67.264 -15.414  1.00  0.00    -0.014 C 
HETATM    5  C7  UNL     1       4.996 -66.966 -13.960  1.00  0.00     0.009 C 
HETATM    6  C8  UNL     1       6.015 -67.659 -13.096  1.00  0.00    -0.012 C 
HETATM    7  C9  UNL     1       7.404 -67.423 -13.578  1.00  0.00     0.009 C 
HETATM    8  C10 UNL     1       7.526 -67.953 -14.978  1.00  0.00    -0.012 C 
HETATM    9  C11 UNL     1       6.621 -67.176 -15.867  1.00  0.00     0.009 C 
HETATM   10  C12 UNL     1       7.200 -69.420 -15.081  1.00  0.00     0.043 C 
HETATM   11  C13 UNL     1       5.693 -69.109 -13.066  1.00  0.00     0.043 C 
ENDROOT
BRANCH   1  12
HETATM   12  N3  UNL     1       6.116 -71.244 -13.966  1.00  0.00    -0.060 N 
ATOM     13  H32 UNL     1       5.331 -71.528 -13.379  1.00  0.00     0.278 HD
ATOM     14  H31 UNL     1       6.879 -71.360 -13.298  1.00  0.00     0.278 HD
BRANCH  12  15
HETATM   15  C2  UNL     1       6.272 -72.140 -15.074  1.00  0.00     0.305 C 
BRANCH  15  16
HETATM   16  C1  UNL     1       6.472 -73.538 -14.559  1.00  0.00     0.112 C 
HETATM   17  N1  UNL     1       7.202 -73.792 -13.536  1.00  0.00    -0.390 N 
ATOM     18  H12 UNL     1       7.337 -74.740 -13.187  1.00  0.00     0.157 HD
ATOM     19  H11 UNL     1       7.642 -73.007 -13.056  1.00  0.00     0.157 HD
HETATM   20  N2  UNL     1       5.856 -74.637 -15.232  1.00  0.00    -0.086 NA
ENDBRANCH  15  16
ENDBRANCH  12  15
ENDBRANCH   1  12
TORSDOF 3
ENDMDL
MODEL 5
REMARK VINA RESULT: -5.370377020      0.861      1.043
REMARK  3 active torsions:
REMARK  status: ('A' for Active; 'I' for Inactive)
REMARK    1  A    between atoms: C1_4  and  C2_6 
REMARK    2  A    between atoms: C2_6  and  N3_7 
REMARK    3  A    between atoms: N3_7  and  C3_10 
ROOT
HETATM    1  C3  UNL     1       5.573 -70.681 -14.804  1.00  0.00     0.127 C 
HETATM    2  C4  UNL     1       7.058 -70.725 -15.047  1.00  0.00     0.039 C 
HETATM    3  C5  UNL     1       7.728 -72.024 -14.885  1.00  0.00     0.007 C 
HETATM    4  C6  UNL     1       7.019 -73.115 -14.160  1.00  0.00    -0.014 C 
HETATM    5  C7  UNL     1       6.538 -72.779 -12.788  1.00  0.00     0.009 C 
HETATM    6  C8  UNL     1       5.180 -72.129 -12.776  1.00  0.00    -0.012 C 
HETATM    7  C9  UNL     1       4.182 -72.912 -13.555  1.00  0.00     0.009 C 
HETATM    8  C10 UNL     1       4.652 -73.012 -14.979  1.00  0.00    -0.012 C 
HETATM    9  C11 UNL     1       5.927 -73.778 -15.012  1.00  0.00     0.009 C 
HETATM   10  C12 UNL     1       4.852 -71.667 -15.626  1.00  0.00     0.043 C 
HETATM   11  C13 UNL     1       5.319 -70.750 -13.309  1.00  0.00     0.043 C 
ENDROOT
BRANCH   1  12
HETATM   12  N3  UNL     1       5.148 -69.331 -15.181  1.00  0.00    -0.060 N 
ATOM     13  H32 UNL     1       4.381 -69.014 -14.588  1.00  0.00     0.278 HD
ATOM     14  H31 UNL     1       4.673 -69.341 -16.084  1.00  0.00     0.278 HD
BRANCH  12  15
HETATM   15  C2  UNL     1       6.216 -68.375 -15.182  1.00  0.00     0.305 C 
BRANCH  15  16
HETATM   16  C1  UNL     1       5.745 -67.102 -14.534  1.00  0.00     0.112 C 
HETATM   17  N1  UNL     1       6.190 -66.709 -13.398  1.00  0.00    -0.390 N 
ATOM     18  H12 UNL     1       5.870 -65.846 -12.958  1.00  0.00     0.157 HD
ATOM     19  H11 UNL     1       6.899 -67.279 -12.938  1.00  0.00     0.157 HD
HETATM   20  N2  UNL     1       4.752 -66.304 -15.178  1.00  0.00    -0.086 NA
ENDBRANCH  15  16
ENDBRANCH  12  15
ENDBRANCH   1  12
TORSDOF 3
ENDMDL
