MODEL 1
REMARK VINA RESULT: -6.051181983      0.000      0.000
REMARK  3 active torsions:
REMARK  status: ('A' for Active; 'I' for Inactive)
REMARK    1  A    between atoms: C5_5  and  N1_6 
REMARK    2  A    between atoms: N1_6  and  C6_8 
REMARK    3  A    between atoms: C6_8  and  C7_9 
ROOT
HETATM    1  N1  UNL     1       4.578 -71.112 -14.683  1.00  0.00    -0.397 N 
ATOM      2  H1  UNL     1       4.495 -70.827 -13.707  1.00  0.00     0.159 HD
ENDROOT
BRANCH   1   3
HETATM    3  C5  UNL     1       4.858 -72.439 -14.906  1.00  0.00     0.080 C 
HETATM    4  C4  UNL     1       6.224 -72.975 -15.052  1.00  0.00     0.025 C 
HETATM    5  C3  UNL     1       6.957 -73.247 -13.756  1.00  0.00     0.002 C 
HETATM    6  C2  UNL     1       6.859 -74.717 -13.395  1.00  0.00     0.000 C 
HETATM    7  C1  UNL     1       5.495 -75.145 -12.994  1.00  0.00     0.000 C 
HETATM    8  C13 UNL     1       4.384 -74.696 -13.924  1.00  0.00     0.002 C 
HETATM    9  C12 UNL     1       4.176 -73.231 -13.760  1.00  0.00     0.025 C 
ENDBRANCH   1   3
BRANCH   1  10
HETATM   10  C6  UNL     1       4.394 -70.114 -15.632  1.00  0.00     0.060 C 
BRANCH  10  11
HETATM   11  C7  UNL     1       5.321 -68.959 -15.503  1.00  0.00     0.027 C 
HETATM   12  C8  UNL     1       4.407 -67.721 -15.289  1.00  0.00     0.037 C 
HETATM   13  C9  UNL     1       5.354 -66.555 -15.191  1.00  0.00     0.233 C 
HETATM   14  N2  UNL     1       6.042 -66.618 -13.931  1.00  0.00    -0.075 N 
HETATM   15  C10 UNL     1       5.987 -67.917 -13.315  1.00  0.00     0.233 C 
ATOM     16  H22 UNL     1       7.007 -66.305 -14.030  1.00  0.00     0.277 HD
ATOM     17  H21 UNL     1       5.696 -65.901 -13.294  1.00  0.00     0.277 HD
HETATM   18  C11 UNL     1       6.194 -69.049 -14.262  1.00  0.00     0.037 C 
ENDBRANCH  10  11
ENDBRANCH   1  10
TORSDOF 3
ENDMDL
MODEL 2
REMARK VINA RESULT: -6.042344851      1.402      2.336
REMARK  3 active torsions:
REMARK  status: ('A' for Active; 'I' for Inactive)
REMARK    1  A    between atoms: C5_5  and  N1_6 
REMARK    2  A    between atoms: N1_6  and  C6_8 
REMARK    3  A    between atoms: C6_8  and  C7_9 
ROOT
HETATM    1  N1  UNL     1       7.340 -71.668 -14.332  1.00  0.00    -0.397 N 
ATOM      2  H1  UNL     1       8.262 -71.339 -14.047  1.00  0.00     0.159 HD
ENDROOT
BRANCH   1   3
HETATM    3  C5  UNL     1       6.891 -72.818 -13.729  1.00  0.00     0.080 C 
HETATM    4  C4  UNL     1       6.052 -72.834 -12.516  1.00  0.00     0.025 C 
HETATM    5  C3  UNL     1       4.572 -72.620 -12.747  1.00  0.00     0.002 C 
HETATM    6  C2  UNL     1       3.846 -73.951 -12.772  1.00  0.00     0.000 C 
HETATM    7  C1  UNL     1       4.158 -74.781 -13.963  1.00  0.00     0.000 C 
HETATM    8  C13 UNL     1       5.635 -74.915 -14.280  1.00  0.00     0.002 C 
HETATM    9  C12 UNL     1       6.134 -73.621 -14.819  1.00  0.00     0.025 C 
ENDBRANCH   1   3
BRANCH   1  10
HETATM   10  C6  UNL     1       6.682 -70.900 -15.286  1.00  0.00     0.060 C 
BRANCH  10  11
HETATM   11  C7  UNL     1       5.772 -69.866 -14.728  1.00  0.00     0.027 C 
HETATM   12  C8  UNL     1       6.535 -68.522 -14.880  1.00  0.00     0.037 C 
HETATM   13  C9  UNL     1       5.618 -67.488 -14.283  1.00  0.00     0.233 C 
HETATM   14  N2  UNL     1       4.507 -67.283 -15.171  1.00  0.00    -0.075 N 
HETATM   15  C10 UNL     1       4.329 -68.349 -16.119  1.00  0.00     0.233 C 
ATOM     16  H22 UNL     1       3.649 -67.120 -14.644  1.00  0.00     0.277 HD
ATOM     17  H21 UNL     1       4.587 -66.385 -15.647  1.00  0.00     0.277 HD
HETATM   18  C11 UNL     1       4.497 -69.712 -15.539  1.00  0.00     0.037 C 
ENDBRANCH  10  11
ENDBRANCH   1  10
TORSDOF 3
ENDMDL
MODEL 3
REMARK VINA RESULT: -6.033177729      1.619      5.713
REMARK  3 active torsions:
REMARK  status: ('A' for Active; 'I' for Inactive)
REMARK    1  A    between atoms: C5_5  and  N1_6 
REMARK    2  A    between atoms: N1_6  and  C6_8 
REMARK    3  A    between atoms: C6_8  and  C7_9 
ROOT
HETATM    1  N1  UNL     1       4.836 -71.243 -15.755  1.00  0.00    -0.397 N 
ATOM      2  H1  UNL     1       4.038 -71.517 -16.328  1.00  0.00     0.159 HD
ENDROOT
BRANCH   1   3
HETATM    3  C5  UNL     1       4.696 -70.081 -15.035  1.00  0.00     0.080 C 
HETATM    4  C4  UNL     1       5.719 -69.562 -14.108  1.00  0.00     0.025 C 
HETATM    5  C3  UNL     1       6.849 -68.789 -14.753  1.00  0.00     0.002 C 
HETATM    6  C2  UNL     1       6.589 -67.298 -14.652  1.00  0.00     0.000 C 
HETATM    7  C1  UNL     1       5.462 -66.828 -15.496  1.00  0.00     0.000 C 
HETATM    8  C13 UNL     1       4.193 -67.650 -15.385  1.00  0.00     0.002 C 
HETATM    9  C12 UNL     1       4.402 -68.958 -16.064  1.00  0.00     0.025 C 
ENDBRANCH   1   3
BRANCH   1  10
HETATM   10  C6  UNL     1       5.938 -72.088 -15.794  1.00  0.00     0.060 C 
BRANCH  10  11
HETATM   11  C7  UNL     1       5.844 -73.268 -14.894  1.00  0.00     0.027 C 
HETATM   12  C8  UNL     1       6.894 -73.018 -13.777  1.00  0.00     0.037 C 
HETATM   13  C9  UNL     1       6.811 -74.232 -12.891  1.00  0.00     0.233 C 
HETATM   14  N2  UNL     1       5.586 -74.181 -12.143  1.00  0.00    -0.075 N 
HETATM   15  C10 UNL     1       4.611 -73.284 -12.704  1.00  0.00     0.233 C 
ATOM     16  H22 UNL     1       5.194 -75.115 -12.027  1.00  0.00     0.277 HD
ATOM     17  H21 UNL     1       5.769 -73.951 -11.166  1.00  0.00     0.277 HD
HETATM   18  C11 UNL     1       4.501 -73.358 -14.189  1.00  0.00     0.037 C 
ENDBRANCH  10  11
ENDBRANCH   1  10
TORSDOF 3
ENDMDL
MODEL 4
REMARK VINA RESULT: -5.760123383      1.760      6.362
REMARK  3 active torsions:
REMARK  status: ('A' for Active; 'I' for Inactive)
REMARK    1  A    between atoms: C5_5  and  N1_6 
REMARK    2  A    between atoms: N1_6  and  C6_8 
REMARK    3  A    between atoms: C6_8  and  C7_9 
ROOT
HETATM    1  N1  UNL     1       5.763 -70.366 -13.244  1.00  0.00    -0.397 N 
ATOM      2  H1  UNL     1       5.884 -70.063 -12.277  1.00  0.00     0.159 HD
ENDROOT
BRANCH   1   3
HETATM    3  C5  UNL     1       6.094 -69.449 -14.213  1.00  0.00     0.080 C 
HETATM    4  C4  UNL     1       5.522 -69.451 -15.572  1.00  0.00     0.025 C 
HETATM    5  C3  UNL     1       4.162 -68.800 -15.706  1.00  0.00     0.002 C 
HETATM    6  C2  UNL     1       4.309 -67.377 -16.211  1.00  0.00     0.000 C 
HETATM    7  C1  UNL     1       4.923 -66.452 -15.226  1.00  0.00     0.000 C 
HETATM    8  C13 UNL     1       6.185 -66.969 -14.563  1.00  0.00     0.002 C 
HETATM    9  C12 UNL     1       5.822 -68.049 -13.605  1.00  0.00     0.025 C 
ENDBRANCH   1   3
BRANCH   1  10
HETATM   10  C6  UNL     1       5.283 -71.657 -13.427  1.00  0.00     0.060 C 
BRANCH  10  11
HETATM   11  C7  UNL     1       6.333 -72.708 -13.464  1.00  0.00     0.027 C 
HETATM   12  C8  UNL     1       6.113 -73.555 -12.182  1.00  0.00     0.037 C 
HETATM   13  C9  UNL     1       7.200 -74.595 -12.215  1.00  0.00     0.233 C 
HETATM   14  N2  UNL     1       6.897 -75.554 -13.241  1.00  0.00    -0.075 N 
HETATM   15  C10 UNL     1       5.939 -75.078 -14.202  1.00  0.00     0.233 C 
ATOM     16  H22 UNL     1       7.749 -75.869 -13.705  1.00  0.00     0.277 HD
ATOM     17  H21 UNL     1       6.591 -76.437 -12.831  1.00  0.00     0.277 HD
HETATM   18  C11 UNL     1       6.157 -73.667 -14.630  1.00  0.00     0.037 C 
ENDBRANCH  10  11
ENDBRANCH   1  10
TORSDOF 3
ENDMDL
MODEL 5
REMARK VINA RESULT: -5.689418842      1.208      1.813
REMARK  3 active torsions:
REMARK  status: ('A' for Active; 'I' for Inactive)
REMARK    1  A    between atoms: C5_5  and  N1_6 
REMARK    2  A    between atoms: N1_6  and  C6_8 
REMARK    3  A    between atoms: C6_8  and  C7_9 
ROOT
HETATM    1  N1  UNL     1       6.818 -71.449 -14.308  1.00  0.00    -0.397 N 
ATOM      2  H1  UNL     1       7.506 -71.555 -13.563  1.00  0.00     0.159 HD
ENDROOT
BRANCH   1   3
HETATM    3  C5  UNL     1       5.949 -72.498 -14.486  1.00  0.00     0.080 C 
HETATM    4  C4  UNL     1       6.379 -73.885 -14.744  1.00  0.00     0.025 C 
HETATM    5  C3  UNL     1       6.773 -74.682 -13.519  1.00  0.00     0.002 C 
HETATM    6  C2  UNL     1       5.618 -75.557 -13.070  1.00  0.00     0.000 C 
HETATM    7  C1  UNL     1       4.475 -74.798 -12.506  1.00  0.00     0.000 C 
HETATM    8  C13 UNL     1       4.020 -73.614 -13.338  1.00  0.00     0.002 C 
HETATM    9  C12 UNL     1       5.035 -72.530 -13.233  1.00  0.00     0.025 C 
ENDBRANCH   1   3
BRANCH   1  10
HETATM   10  C6  UNL     1       6.867 -70.259 -15.025  1.00  0.00     0.060 C 
BRANCH  10  11
HETATM   11  C7  UNL     1       5.872 -69.240 -14.601  1.00  0.00     0.027 C 
HETATM   12  C8  UNL     1       6.532 -67.868 -14.909  1.00  0.00     0.037 C 
HETATM   13  C9  UNL     1       5.528 -66.845 -14.448  1.00  0.00     0.233 C 
HETATM   14  N2  UNL     1       4.420 -66.835 -15.362  1.00  0.00    -0.075 N 
HETATM   15  C10 UNL     1       4.339 -68.018 -16.175  1.00  0.00     0.233 C 
ATOM     16  H22 UNL     1       3.543 -66.678 -14.865  1.00  0.00     0.277 HD
ATOM     17  H21 UNL     1       4.438 -65.997 -15.942  1.00  0.00     0.277 HD
HETATM   18  C11 UNL     1       4.601 -69.285 -15.434  1.00  0.00     0.037 C 
ENDBRANCH  10  11
ENDBRANCH   1  10
TORSDOF 3
ENDMDL
