MODEL 1
REMARK VINA RESULT: -5.994074849      0.000      0.000
REMARK  3 active torsions:
REMARK  status: ('A' for Active; 'I' for Inactive)
REMARK    1  A    between atoms: C3_3  and  N1_4 
REMARK    2  A    between atoms: N1_4  and  C4_6 
REMARK    3  A    between atoms: C4_6  and  C5_7 
ROOT
HETATM    1  N1  UNL     1       6.077 -70.554 -15.291  1.00  0.00    -0.416 N 
ATOM      2  H1  UNL     1       7.054 -70.847 -15.311  1.00  0.00     0.153 HD
ENDROOT
BRANCH   1   3
HETATM    3  C3  UNL     1       5.729 -69.205 -15.157  1.00  0.00     0.079 C 
HETATM    4  C2  UNL     1       5.866 -68.648 -13.754  1.00  0.00     0.052 C 
HETATM    5  C1  UNL     1       5.759 -67.143 -13.874  1.00  0.00     0.234 C 
HETATM    6  N2  UNL     1       5.575 -66.744 -15.253  1.00  0.00    -0.075 N 
HETATM    7  C14 UNL     1       4.414 -67.295 -15.871  1.00  0.00     0.234 C 
ATOM      8  H22 UNL     1       5.574 -65.728 -15.333  1.00  0.00     0.277 HD
ATOM      9  H21 UNL     1       6.408 -66.961 -15.801  1.00  0.00     0.277 HD
HETATM   10  C13 UNL     1       4.357 -68.803 -15.632  1.00  0.00     0.052 C 
ENDBRANCH   1   3
BRANCH   1  11
HETATM   11  C4  UNL     1       5.004 -71.519 -15.398  1.00  0.00     0.124 C 
BRANCH  11  12
HETATM   12  C5  UNL     1       5.378 -72.631 -14.494  1.00  0.00    -0.017 C 
HETATM   13  C6  UNL     1       6.409 -73.600 -15.058  1.00  0.00     0.016 C 
HETATM   14  C7  UNL     1       6.435 -74.555 -13.867  1.00  0.00    -0.013 C 
HETATM   15  C8  UNL     1       6.707 -73.604 -12.751  1.00  0.00     0.010 C 
HETATM   16  C12 UNL     1       4.971 -74.930 -13.835  1.00  0.00     0.010 C 
HETATM   17  C9  UNL     1       5.804 -72.407 -13.106  1.00  0.00    -0.003 C 
HETATM   18  C10 UNL     1       4.369 -72.771 -12.675  1.00  0.00     0.011 C 
HETATM   19  C11 UNL     1       4.311 -73.557 -13.992  1.00  0.00    -0.003 C 
ENDBRANCH  11  12
ENDBRANCH   1  11
TORSDOF 3
ENDMDL
MODEL 2
REMARK VINA RESULT: -5.929738595      0.928      1.438
REMARK  3 active torsions:
REMARK  status: ('A' for Active; 'I' for Inactive)
REMARK    1  A    between atoms: C3_3  and  N1_4 
REMARK    2  A    between atoms: N1_4  and  C4_6 
REMARK    3  A    between atoms: C4_6  and  C5_7 
ROOT
HETATM    1  N1  UNL     1       5.781 -70.383 -15.306  1.00  0.00    -0.416 N 
ATOM      2  H1  UNL     1       6.403 -70.812 -15.992  1.00  0.00     0.153 HD
ENDROOT
BRANCH   1   3
HETATM    3  C3  UNL     1       5.993 -69.076 -14.855  1.00  0.00     0.079 C 
HETATM    4  C2  UNL     1       5.091 -68.030 -15.481  1.00  0.00     0.052 C 
HETATM    5  C1  UNL     1       5.247 -66.773 -14.655  1.00  0.00     0.234 C 
HETATM    6  N2  UNL     1       6.175 -66.981 -13.564  1.00  0.00    -0.075 N 
HETATM    7  C14 UNL     1       7.483 -67.374 -13.975  1.00  0.00     0.234 C 
ATOM      8  H22 UNL     1       6.221 -66.152 -12.972  1.00  0.00     0.277 HD
ATOM      9  H21 UNL     1       5.794 -67.651 -12.895  1.00  0.00     0.277 HD
HETATM   10  C13 UNL     1       7.395 -68.534 -14.965  1.00  0.00     0.052 C 
ENDBRANCH   1   3
BRANCH   1  11
HETATM   11  C4  UNL     1       4.649 -71.106 -14.768  1.00  0.00     0.124 C 
BRANCH  11  12
HETATM   12  C5  UNL     1       5.209 -72.359 -14.209  1.00  0.00    -0.017 C 
HETATM   13  C6  UNL     1       6.239 -73.054 -15.089  1.00  0.00     0.016 C 
HETATM   14  C7  UNL     1       6.474 -74.259 -14.182  1.00  0.00    -0.013 C 
HETATM   15  C8  UNL     1       6.799 -73.581 -12.894  1.00  0.00     0.010 C 
HETATM   16  C12 UNL     1       5.056 -74.778 -14.109  1.00  0.00     0.010 C 
HETATM   17  C9  UNL     1       5.773 -72.433 -12.854  1.00  0.00    -0.003 C 
HETATM   18  C10 UNL     1       4.429 -73.034 -12.396  1.00  0.00     0.011 C 
HETATM   19  C11 UNL     1       4.280 -73.482 -13.857  1.00  0.00    -0.003 C 
ENDBRANCH  11  12
ENDBRANCH   1  11
TORSDOF 3
ENDMDL
MODEL 3
REMARK VINA RESULT: -5.928861914      0.914      1.673
REMARK  3 active torsions:
REMARK  status: ('A' for Active; 'I' for Inactive)
REMARK    1  A    between atoms: C3_3  and  N1_4 
REMARK    2  A    between atoms: N1_4  and  C4_6 
REMARK    3  A    between atoms: C4_6  and  C5_7 
ROOT
HETATM    1  N1  UNL     1       4.326 -70.858 -15.079  1.00  0.00    -0.416 N 
ATOM      2  H1  UNL     1       3.393 -71.118 -14.757  1.00  0.00     0.153 HD
ENDROOT
BRANCH   1   3
HETATM    3  C3  UNL     1       4.760 -69.528 -15.039  1.00  0.00     0.079 C 
HETATM    4  C2  UNL     1       4.227 -68.650 -16.155  1.00  0.00     0.052 C 
HETATM    5  C1  UNL     1       4.538 -67.221 -15.766  1.00  0.00     0.234 C 
HETATM    6  N2  UNL     1       5.215 -67.167 -14.488  1.00  0.00    -0.075 N 
HETATM    7  C14 UNL     1       6.446 -67.886 -14.447  1.00  0.00     0.234 C 
ATOM      8  H22 UNL     1       5.358 -66.199 -14.202  1.00  0.00     0.277 HD
ATOM      9  H21 UNL     1       4.594 -67.479 -13.741  1.00  0.00     0.277 HD
HETATM   10  C13 UNL     1       6.248 -69.296 -15.002  1.00  0.00     0.052 C 
ENDBRANCH   1   3
BRANCH   1  11
HETATM   11  C4  UNL     1       5.244 -71.851 -15.594  1.00  0.00     0.124 C 
BRANCH  11  12
HETATM   12  C5  UNL     1       5.546 -72.742 -14.449  1.00  0.00    -0.017 C 
HETATM   13  C6  UNL     1       6.961 -72.625 -13.897  1.00  0.00     0.016 C 
HETATM   14  C7  UNL     1       6.833 -73.712 -12.832  1.00  0.00    -0.013 C 
HETATM   15  C8  UNL     1       5.614 -73.252 -12.107  1.00  0.00     0.010 C 
HETATM   16  C12 UNL     1       6.455 -74.872 -13.725  1.00  0.00     0.010 C 
HETATM   17  C9  UNL     1       4.690 -72.809 -13.257  1.00  0.00    -0.003 C 
HETATM   18  C10 UNL     1       4.062 -74.082 -13.858  1.00  0.00     0.011 C 
HETATM   19  C11 UNL     1       5.390 -74.224 -14.615  1.00  0.00    -0.003 C 
ENDBRANCH  11  12
ENDBRANCH   1  11
TORSDOF 3
ENDMDL
MODEL 4
REMARK VINA RESULT: -5.908306583      1.007      2.229
REMARK  3 active torsions:
REMARK  status: ('A' for Active; 'I' for Inactive)
REMARK    1  A    between atoms: C3_3  and  N1_4 
REMARK    2  A    between atoms: N1_4  and  C4_6 
REMARK    3  A    between atoms: C4_6  and  C5_7 
ROOT
HETATM    1  N1  UNL     1       4.698 -70.274 -15.199  1.00  0.00    -0.416 N 
ATOM      2  H1  UNL     1       3.694 -70.456 -15.222  1.00  0.00     0.153 HD
ENDROOT
BRANCH   1   3
HETATM    3  C3  UNL     1       5.194 -68.991 -14.941  1.00  0.00     0.079 C 
HETATM    4  C2  UNL     1       4.616 -67.896 -15.816  1.00  0.00     0.052 C 
HETATM    5  C1  UNL     1       5.022 -66.580 -15.188  1.00  0.00     0.234 C 
HETATM    6  N2  UNL     1       5.798 -66.797 -13.986  1.00  0.00    -0.075 N 
HETATM    7  C14 UNL     1       6.994 -67.547 -14.189  1.00  0.00     0.234 C 
ATOM      8  H22 UNL     1       6.007 -65.909 -13.532  1.00  0.00     0.277 HD
ATOM      9  H21 UNL     1       5.223 -67.231 -13.263  1.00  0.00     0.277 HD
HETATM   10  C13 UNL     1       6.689 -68.814 -14.987  1.00  0.00     0.052 C 
ENDBRANCH   1   3
BRANCH   1  11
HETATM   11  C4  UNL     1       5.657 -71.332 -15.433  1.00  0.00     0.124 C 
BRANCH  11  12
HETATM   12  C5  UNL     1       5.483 -72.280 -14.307  1.00  0.00    -0.017 C 
HETATM   13  C6  UNL     1       4.927 -71.667 -13.029  1.00  0.00     0.016 C 
HETATM   14  C7  UNL     1       4.976 -72.935 -12.181  1.00  0.00    -0.013 C 
HETATM   15  C8  UNL     1       4.221 -73.884 -13.049  1.00  0.00     0.010 C 
HETATM   16  C12 UNL     1       6.452 -73.241 -12.302  1.00  0.00     0.010 C 
HETATM   17  C9  UNL     1       4.759 -73.550 -14.453  1.00  0.00    -0.003 C 
HETATM   18  C10 UNL     1       6.130 -74.241 -14.596  1.00  0.00     0.011 C 
HETATM   19  C11 UNL     1       6.672 -73.043 -13.804  1.00  0.00    -0.003 C 
ENDBRANCH  11  12
ENDBRANCH   1  11
TORSDOF 3
ENDMDL
MODEL 5
REMARK VINA RESULT: -5.891577341      0.721      1.820
REMARK  3 active torsions:
REMARK  status: ('A' for Active; 'I' for Inactive)
REMARK    1  A    between atoms: C3_3  and  N1_4 
REMARK    2  A    between atoms: N1_4  and  C4_6 
REMARK    3  A    between atoms: C4_6  and  C5_7 
ROOT
HETATM    1  N1  UNL     1       6.543 -70.392 -14.749  1.00  0.00    -0.416 N 
ATOM      2  H1  UNL     1       7.428 -70.540 -14.263  1.00  0.00     0.153 HD
ENDROOT
BRANCH   1   3
HETATM    3  C3  UNL     1       6.000 -69.110 -14.888  1.00  0.00     0.079 C 
HETATM    4  C2  UNL     1       6.041 -68.261 -13.633  1.00  0.00     0.052 C 
HETATM    5  C1  UNL     1       5.715 -66.845 -14.058  1.00  0.00     0.234 C 
HETATM    6  N2  UNL     1       5.485 -66.772 -15.484  1.00  0.00    -0.075 N 
HETATM    7  C14 UNL     1       4.422 -67.602 -15.950  1.00  0.00     0.234 C 
ATOM      8  H22 UNL     1       5.335 -65.805 -15.772  1.00  0.00     0.277 HD
ATOM      9  H21 UNL     1       6.345 -66.973 -15.995  1.00  0.00     0.277 HD
HETATM   10  C13 UNL     1       4.587 -69.019 -15.404  1.00  0.00     0.052 C 
ENDBRANCH   1   3
BRANCH   1  11
HETATM   11  C4  UNL     1       5.807 -71.501 -15.318  1.00  0.00     0.124 C 
BRANCH  11  12
HETATM   12  C5  UNL     1       5.557 -72.430 -14.191  1.00  0.00    -0.017 C 
HETATM   13  C6  UNL     1       4.912 -71.797 -12.966  1.00  0.00     0.016 C 
HETATM   14  C7  UNL     1       4.903 -73.050 -12.094  1.00  0.00    -0.013 C 
HETATM   15  C8  UNL     1       4.210 -74.015 -12.996  1.00  0.00     0.010 C 
HETATM   16  C12 UNL     1       6.384 -73.355 -12.106  1.00  0.00     0.010 C 
HETATM   17  C9  UNL     1       4.845 -73.703 -14.365  1.00  0.00    -0.003 C 
HETATM   18  C10 UNL     1       6.223 -74.395 -14.400  1.00  0.00     0.011 C 
HETATM   19  C11 UNL     1       6.707 -73.182 -13.593  1.00  0.00    -0.003 C 
ENDBRANCH  11  12
ENDBRANCH   1  11
TORSDOF 3
ENDMDL
