MODEL 1
REMARK VINA RESULT: -4.019119822      0.000      0.000
REMARK  4 active torsions:
REMARK  status: ('A' for Active; 'I' for Inactive)
REMARK    1  A    between atoms: N1_2  and  C2_4 
REMARK    2  A    between atoms: C3_7  and  C4_8 
REMARK       I    between atoms: C4_8  and  N3_10 
REMARK    3  A    between atoms: N3_10  and  N4_12 
REMARK    4  A    between atoms: C5_17  and  N6_18 
ROOT
HETATM    1  C2  UNL     1      21.422  17.486  22.204  1.00  0.00     0.694 A 
HETATM    2  N2  UNL     1      21.252  18.788  21.930  1.00  0.00    -0.170 N 
ATOM      3  H2  UNL     1      21.896  19.222  21.269  1.00  0.00     0.186 HD
HETATM    4  C3  UNL     1      20.299  19.555  22.463  1.00  0.00     0.205 A 
HETATM    5  N5  UNL     1      19.456  18.956  23.341  1.00  0.00    -0.170 N 
ATOM      6  H5  UNL     1      18.714  19.506  23.773  1.00  0.00     0.186 HD
HETATM    7  C5  UNL     1      19.577  17.656  23.655  1.00  0.00     0.692 A 
HETATM    8  N7  UNL     1      20.556  16.933  23.086  1.00  0.00    -0.023 N 
ATOM      9  H7  UNL     1      20.649  15.946  23.324  1.00  0.00     0.203 HD
ENDROOT
BRANCH   4  10
HETATM   10  C4  UNL     1      20.157  20.964  22.132  1.00  0.00     0.304 C 
HETATM   11  O1  UNL     1      21.042  21.584  21.501  1.00  0.00    -0.263 OA
HETATM   12  N3  UNL     1      18.995  21.652  22.531  1.00  0.00    -0.270 N 
ATOM     13  H3  UNL     1      18.275  21.145  23.046  1.00  0.00     0.189 HD
BRANCH  12  14
HETATM   14  N4  UNL     1      18.794  22.999  22.248  1.00  0.00    -0.342 N 
ATOM     15  H42 UNL     1      18.421  23.591  22.991  1.00  0.00     0.176 HD
ATOM     16  H41 UNL     1      19.006  23.401  21.334  1.00  0.00     0.176 HD
ENDBRANCH  12  14
ENDBRANCH   4  10
BRANCH   1  17
HETATM   17  N1  UNL     1      22.445  16.711  21.616  1.00  0.00    -0.230 N 
HETATM   18  C1  UNL     1      22.838  15.473  22.233  1.00  0.00     0.165 C 
ATOM     19  H1  UNL     1      22.902  17.027  20.761  1.00  0.00     0.177 HD
ENDBRANCH   1  17
BRANCH   7  20
HETATM   20  N6  UNL     1      18.783  17.076  24.487  1.00  0.00    -0.234 N 
ATOM     21  H62 UNL     1      17.783  17.271  24.427  1.00  0.00     0.174 HD
ATOM     22  H61 UNL     1      19.122  16.431  25.200  1.00  0.00     0.174 HD
ENDBRANCH   7  20
TORSDOF 4
ENDMDL
MODEL 2
REMARK VINA RESULT: -3.962718316      0.759      2.810
REMARK  4 active torsions:
REMARK  status: ('A' for Active; 'I' for Inactive)
REMARK    1  A    between atoms: N1_2  and  C2_4 
REMARK    2  A    between atoms: C3_7  and  C4_8 
REMARK       I    between atoms: C4_8  and  N3_10 
REMARK    3  A    between atoms: N3_10  and  N4_12 
REMARK    4  A    between atoms: C5_17  and  N6_18 
ROOT
HETATM    1  C2  UNL     1      19.629  17.784  23.831  1.00  0.00     0.694 A 
HETATM    2  N2  UNL     1      19.579  19.084  23.507  1.00  0.00    -0.170 N 
ATOM      3  H2  UNL     1      18.903  19.670  23.998  1.00  0.00     0.186 HD
HETATM    4  C3  UNL     1      20.351  19.665  22.587  1.00  0.00     0.205 A 
HETATM    5  N5  UNL     1      21.241  18.866  21.947  1.00  0.00    -0.170 N 
ATOM      6  H5  UNL     1      21.850  19.269  21.236  1.00  0.00     0.186 HD
HETATM    7  C5  UNL     1      21.337  17.556  22.228  1.00  0.00     0.692 A 
HETATM    8  N7  UNL     1      20.533  17.027  23.165  1.00  0.00    -0.023 N 
ATOM      9  H7  UNL     1      20.605  16.032  23.379  1.00  0.00     0.203 HD
ENDROOT
BRANCH   4  10
HETATM   10  C4  UNL     1      20.257  21.082  22.273  1.00  0.00     0.304 C 
HETATM   11  O1  UNL     1      21.247  21.733  21.870  1.00  0.00    -0.263 OA
HETATM   12  N3  UNL     1      19.023  21.742  22.425  1.00  0.00    -0.270 N 
ATOM     13  H3  UNL     1      18.218  21.208  22.754  1.00  0.00     0.189 HD
BRANCH  12  14
HETATM   14  N4  UNL     1      18.862  23.094  22.143  1.00  0.00    -0.342 N 
ATOM     15  H42 UNL     1      18.791  23.739  22.930  1.00  0.00     0.176 HD
ATOM     16  H41 UNL     1      18.815  23.449  21.187  1.00  0.00     0.176 HD
ENDBRANCH  12  14
ENDBRANCH   4  10
BRANCH   1  17
HETATM   17  N1  UNL     1      18.792  17.210  24.813  1.00  0.00    -0.230 N 
HETATM   18  C1  UNL     1      18.765  17.771  26.136  1.00  0.00     0.165 C 
ATOM     19  H1  UNL     1      18.212  16.403  24.584  1.00  0.00     0.177 HD
ENDBRANCH   1  17
BRANCH   7  20
HETATM   20  N6  UNL     1      22.178  16.787  21.627  1.00  0.00    -0.234 N 
ATOM     21  H62 UNL     1      21.919  16.386  20.726  1.00  0.00     0.174 HD
ATOM     22  H61 UNL     1      23.091  16.568  22.025  1.00  0.00     0.174 HD
ENDBRANCH   7  20
TORSDOF 4
ENDMDL
MODEL 3
REMARK VINA RESULT: -3.877922856      2.184      4.851
REMARK  4 active torsions:
REMARK  status: ('A' for Active; 'I' for Inactive)
REMARK    1  A    between atoms: N1_2  and  C2_4 
REMARK    2  A    between atoms: C3_7  and  C4_8 
REMARK       I    between atoms: C4_8  and  N3_10 
REMARK    3  A    between atoms: N3_10  and  N4_12 
REMARK    4  A    between atoms: C5_17  and  N6_18 
ROOT
HETATM    1  C2  UNL     1      19.835  19.372  22.048  1.00  0.00     0.694 A 
HETATM    2  N2  UNL     1      19.401  18.878  23.217  1.00  0.00    -0.170 N 
ATOM      3  H2  UNL     1      18.619  19.351  23.670  1.00  0.00     0.186 HD
HETATM    4  C3  UNL     1      19.921  17.812  23.828  1.00  0.00     0.205 A 
HETATM    5  N5  UNL     1      20.961  17.202  23.207  1.00  0.00    -0.170 N 
ATOM      6  H5  UNL     1      21.389  16.384  23.639  1.00  0.00     0.186 HD
HETATM    7  C5  UNL     1      21.440  17.651  22.035  1.00  0.00     0.692 A 
HETATM    8  N7  UNL     1      20.876  18.729  21.466  1.00  0.00    -0.023 N 
ATOM      9  H7  UNL     1      21.239  19.071  20.577  1.00  0.00     0.203 HD
ENDROOT
BRANCH   4  10
HETATM   10  C4  UNL     1      19.413  17.316  25.096  1.00  0.00     0.304 C 
HETATM   11  O1  UNL     1      18.328  17.719  25.573  1.00  0.00    -0.263 OA
HETATM   12  N3  UNL     1      20.157  16.357  25.810  1.00  0.00    -0.270 N 
ATOM     13  H3  UNL     1      21.041  16.030  25.420  1.00  0.00     0.189 HD
BRANCH  12  14
HETATM   14  N4  UNL     1      19.729  15.840  27.029  1.00  0.00    -0.342 N 
ATOM     15  H42 UNL     1      19.389  16.498  27.731  1.00  0.00     0.176 HD
ATOM     16  H41 UNL     1      19.746  14.841  27.233  1.00  0.00     0.176 HD
ENDBRANCH  12  14
ENDBRANCH   4  10
BRANCH   1  17
HETATM   17  N1  UNL     1      19.255  20.504  21.435  1.00  0.00    -0.230 N 
HETATM   18  C1  UNL     1      19.955  21.759  21.460  1.00  0.00     0.165 C 
ATOM     19  H1  UNL     1      18.346  20.432  20.979  1.00  0.00     0.177 HD
ENDBRANCH   1  17
BRANCH   7  20
HETATM   20  N6  UNL     1      22.427  17.080  21.435  1.00  0.00    -0.234 N 
ATOM     21  H62 UNL     1      22.693  16.137  21.718  1.00  0.00     0.174 HD
ATOM     22  H61 UNL     1      22.947  17.541  20.689  1.00  0.00     0.174 HD
ENDBRANCH   7  20
TORSDOF 4
ENDMDL
MODEL 4
REMARK VINA RESULT: -3.732175123      2.126      4.090
REMARK  4 active torsions:
REMARK  status: ('A' for Active; 'I' for Inactive)
REMARK    1  A    between atoms: N1_2  and  C2_4 
REMARK    2  A    between atoms: C3_7  and  C4_8 
REMARK       I    between atoms: C4_8  and  N3_10 
REMARK    3  A    between atoms: N3_10  and  N4_12 
REMARK    4  A    between atoms: C5_17  and  N6_18 
ROOT
HETATM    1  C2  UNL     1      21.447  17.604  22.053  1.00  0.00     0.694 A 
HETATM    2  N2  UNL     1      20.938  17.211  23.230  1.00  0.00    -0.170 N 
ATOM      3  H2  UNL     1      21.365  16.404  23.685  1.00  0.00     0.186 HD
HETATM    4  C3  UNL     1      19.913  17.802  23.846  1.00  0.00     0.205 A 
HETATM    5  N5  UNL     1      19.361  18.871  23.220  1.00  0.00    -0.170 N 
ATOM      6  H5  UNL     1      18.575  19.353  23.656  1.00  0.00     0.186 HD
HETATM    7  C5  UNL     1      19.827  19.311  22.039  1.00  0.00     0.692 A 
HETATM    8  N7  UNL     1      20.863  18.677  21.467  1.00  0.00    -0.023 N 
ATOM      9  H7  UNL     1      21.217  19.010  20.570  1.00  0.00     0.203 HD
ENDROOT
BRANCH   4  10
HETATM   10  C4  UNL     1      19.399  17.336  25.124  1.00  0.00     0.304 C 
HETATM   11  O1  UNL     1      18.326  17.771  25.599  1.00  0.00    -0.263 OA
HETATM   12  N3  UNL     1      20.124  16.371  25.848  1.00  0.00    -0.270 N 
ATOM     13  H3  UNL     1      20.998  16.018  25.459  1.00  0.00     0.189 HD
BRANCH  12  14
HETATM   14  N4  UNL     1      19.690  15.881  27.076  1.00  0.00    -0.342 N 
ATOM     15  H42 UNL     1      18.735  15.527  27.135  1.00  0.00     0.176 HD
ATOM     16  H41 UNL     1      20.290  15.868  27.900  1.00  0.00     0.176 HD
ENDBRANCH  12  14
ENDBRANCH   4  10
BRANCH   1  17
HETATM   17  N1  UNL     1      22.535  16.950  21.435  1.00  0.00    -0.230 N 
HETATM   18  C1  UNL     1      23.096  15.777  22.049  1.00  0.00     0.165 C 
ATOM     19  H1  UNL     1      22.919  17.306  20.560  1.00  0.00     0.177 HD
ENDBRANCH   1  17
BRANCH   7  20
HETATM   20  N6  UNL     1      19.312  20.326  21.436  1.00  0.00    -0.234 N 
ATOM     21  H62 UNL     1      19.934  21.051  21.077  1.00  0.00     0.174 HD
ATOM     22  H61 UNL     1      18.306  20.426  21.307  1.00  0.00     0.174 HD
ENDBRANCH   7  20
TORSDOF 4
ENDMDL
MODEL 5
REMARK VINA RESULT: -3.724108688      2.091      3.331
REMARK  4 active torsions:
REMARK  status: ('A' for Active; 'I' for Inactive)
REMARK    1  A    between atoms: N1_2  and  C2_4 
REMARK    2  A    between atoms: C3_7  and  C4_8 
REMARK       I    between atoms: C4_8  and  N3_10 
REMARK    3  A    between atoms: N3_10  and  N4_12 
REMARK    4  A    between atoms: C5_17  and  N6_18 
ROOT
HETATM    1  C2  UNL     1      20.851  15.399  23.917  1.00  0.00     0.694 A 
HETATM    2  N2  UNL     1      20.348  16.637  23.809  1.00  0.00    -0.170 N 
ATOM      3  H2  UNL     1      19.576  16.892  24.426  1.00  0.00     0.186 HD
HETATM    4  C3  UNL     1      20.786  17.560  22.950  1.00  0.00     0.205 A 
HETATM    5  N5  UNL     1      21.810  17.198  22.139  1.00  0.00    -0.170 N 
ATOM      6  H5  UNL     1      22.176  17.873  21.467  1.00  0.00     0.186 HD
HETATM    7  C5  UNL     1      22.355  15.972  22.200  1.00  0.00     0.692 A 
HETATM    8  N7  UNL     1      21.873  15.085  23.085  1.00  0.00    -0.023 N 
ATOM      9  H7  UNL     1      22.285  14.153  23.132  1.00  0.00     0.203 HD
ENDROOT
BRANCH   4  10
HETATM   10  C4  UNL     1      20.205  18.891  22.874  1.00  0.00     0.304 C 
HETATM   11  O1  UNL     1      20.382  19.739  23.777  1.00  0.00    -0.263 OA
HETATM   12  N3  UNL     1      19.421  19.238  21.757  1.00  0.00    -0.270 N 
ATOM     13  H3  UNL     1      19.278  18.545  21.022  1.00  0.00     0.189 HD
BRANCH  12  14
HETATM   14  N4  UNL     1      18.837  20.493  21.619  1.00  0.00    -0.342 N 
ATOM     15  H42 UNL     1      19.086  21.211  22.300  1.00  0.00     0.176 HD
ATOM     16  H41 UNL     1      18.178  20.708  20.870  1.00  0.00     0.176 HD
ENDBRANCH  12  14
ENDBRANCH   4  10
BRANCH   1  17
HETATM   17  N1  UNL     1      20.357  14.452  24.840  1.00  0.00    -0.230 N 
HETATM   18  C1  UNL     1      20.842  13.099  24.795  1.00  0.00     0.165 C 
ATOM     19  H1  UNL     1      19.661  14.726  25.533  1.00  0.00     0.177 HD
ENDBRANCH   1  17
BRANCH   7  20
HETATM   20  N6  UNL     1      23.329  15.617  21.435  1.00  0.00    -0.234 N 
ATOM     21  H62 UNL     1      23.554  16.197  20.626  1.00  0.00     0.174 HD
ATOM     22  H61 UNL     1      23.879  14.777  21.613  1.00  0.00     0.174 HD
ENDBRANCH   7  20
TORSDOF 4
ENDMDL
