MODEL 1
REMARK VINA RESULT: -3.929655104      0.000      0.000
REMARK  3 active torsions:
REMARK  status: ('A' for Active; 'I' for Inactive)
REMARK    1  A    between atoms: N1_1  and  C1_4 
REMARK    2  A    between atoms: C2_7  and  C3_8 
REMARK       I    between atoms: C3_8  and  N3_10 
REMARK    3  A    between atoms: N3_10  and  N4_12 
ROOT
HETATM    1  C1  UNL     1      21.021  15.648  23.483  1.00  0.00     0.171 A 
HETATM    2  N2  UNL     1      20.605  16.928  23.282  1.00  0.00    -0.319 N 
ATOM      3  H2  UNL     1      19.861  17.305  23.870  1.00  0.00     0.169 HD
HETATM    4  C2  UNL     1      21.138  17.703  22.339  1.00  0.00     0.192 A 
HETATM    5  N5  UNL     1      22.128  17.162  21.577  1.00  0.00    -0.278 N 
ATOM      6  H5  UNL     1      22.548  17.742  20.850  1.00  0.00     0.189 HD
HETATM    7  N6  UNL     1      22.573  15.930  21.726  1.00  0.00    -0.262 N 
ATOM      8  H6  UNL     1      23.317  15.564  21.132  1.00  0.00     0.190 HD
HETATM    9  C4  UNL     1      22.017  15.172  22.682  1.00  0.00     0.303 A 
HETATM   10  O2  UNL     1      22.412  13.989  22.860  1.00  0.00    -0.263 OA
ENDROOT
BRANCH   4  11
HETATM   11  C3  UNL     1      20.710  19.074  22.104  1.00  0.00     0.304 C 
HETATM   12  O1  UNL     1      21.550  20.021  22.034  1.00  0.00    -0.263 OA
HETATM   13  N3  UNL     1      19.345  19.402  21.943  1.00  0.00    -0.270 N 
ATOM     14  H3  UNL     1      18.622  18.683  21.988  1.00  0.00     0.189 HD
BRANCH  13  15
HETATM   15  N4  UNL     1      19.011  20.750  21.720  1.00  0.00    -0.342 N 
ATOM     16  H42 UNL     1      19.733  21.468  21.761  1.00  0.00     0.176 HD
ATOM     17  H41 UNL     1      18.036  20.975  21.519  1.00  0.00     0.176 HD
ENDBRANCH  13  15
ENDBRANCH   4  11
BRANCH   1  18
HETATM   18  N1  UNL     1      20.473  14.940  24.409  1.00  0.00    -0.381 N 
ATOM     19  H12 UNL     1      20.219  15.324  25.319  1.00  0.00     0.157 HD
ATOM     20  H11 UNL     1      20.276  13.955  24.238  1.00  0.00     0.157 HD
ENDBRANCH   1  18
TORSDOF 3
ENDMDL
MODEL 2
REMARK VINA RESULT: -3.875711720      2.369      3.034
REMARK  3 active torsions:
REMARK  status: ('A' for Active; 'I' for Inactive)
REMARK    1  A    between atoms: N1_1  and  C1_4 
REMARK    2  A    between atoms: C2_7  and  C3_8 
REMARK       I    between atoms: C3_8  and  N3_10 
REMARK    3  A    between atoms: N3_10  and  N4_12 
ROOT
HETATM    1  C1  UNL     1      21.581  16.230  22.796  1.00  0.00     0.171 A 
HETATM    2  N2  UNL     1      20.918  17.281  23.350  1.00  0.00    -0.319 N 
ATOM      3  H2  UNL     1      21.060  18.215  22.965  1.00  0.00     0.169 HD
HETATM    4  C2  UNL     1      20.088  17.127  24.381  1.00  0.00     0.192 A 
HETATM    5  N5  UNL     1      19.926  15.865  24.864  1.00  0.00    -0.278 N 
ATOM      6  H5  UNL     1      19.294  15.729  25.653  1.00  0.00     0.189 HD
HETATM    7  N6  UNL     1      20.541  14.809  24.368  1.00  0.00    -0.262 N 
ATOM      8  H6  UNL     1      20.390  13.879  24.762  1.00  0.00     0.190 HD
HETATM    9  C4  UNL     1      21.370  14.993  23.331  1.00  0.00     0.303 A 
HETATM   10  O2  UNL     1      21.978  14.012  22.826  1.00  0.00    -0.263 OA
ENDROOT
BRANCH   4  11
HETATM   11  C3  UNL     1      19.368  18.235  24.991  1.00  0.00     0.304 C 
HETATM   12  O1  UNL     1      18.387  18.030  25.768  1.00  0.00    -0.263 OA
HETATM   13  N3  UNL     1      19.734  19.577  24.743  1.00  0.00    -0.270 N 
ATOM     14  H3  UNL     1      20.515  19.804  24.127  1.00  0.00     0.189 HD
BRANCH  13  15
HETATM   15  N4  UNL     1      18.988  20.591  25.369  1.00  0.00    -0.342 N 
ATOM     16  H42 UNL     1      18.798  20.541  26.370  1.00  0.00     0.176 HD
ATOM     17  H41 UNL     1      18.651  21.364  24.794  1.00  0.00     0.176 HD
ENDBRANCH  13  15
ENDBRANCH   4  11
BRANCH   1  18
HETATM   18  N1  UNL     1      22.372  16.432  21.800  1.00  0.00    -0.381 N 
ATOM     19  H12 UNL     1      22.859  17.317  21.652  1.00  0.00     0.157 HD
ATOM     20  H11 UNL     1      22.530  15.686  21.123  1.00  0.00     0.157 HD
ENDBRANCH   1  18
TORSDOF 3
ENDMDL
MODEL 3
REMARK VINA RESULT: -3.709259125      1.794      2.872
REMARK  3 active torsions:
REMARK  status: ('A' for Active; 'I' for Inactive)
REMARK    1  A    between atoms: N1_1  and  C1_4 
REMARK    2  A    between atoms: C2_7  and  C3_8 
REMARK       I    between atoms: C3_8  and  N3_10 
REMARK    3  A    between atoms: N3_10  and  N4_12 
ROOT
HETATM    1  C1  UNL     1      21.352  17.676  22.185  1.00  0.00     0.171 A 
HETATM    2  N2  UNL     1      21.177  18.982  21.844  1.00  0.00    -0.319 N 
ATOM      3  H2  UNL     1      21.727  19.371  21.078  1.00  0.00     0.169 HD
HETATM    4  C2  UNL     1      20.308  19.767  22.480  1.00  0.00     0.192 A 
HETATM    5  N5  UNL     1      19.593  19.207  23.494  1.00  0.00    -0.278 N 
ATOM      6  H5  UNL     1      18.923  19.794  23.991  1.00  0.00     0.189 HD
HETATM    7  N6  UNL     1      19.719  17.949  23.869  1.00  0.00    -0.262 N 
ATOM      8  H6  UNL     1      19.163  17.571  24.636  1.00  0.00     0.190 HD
HETATM    9  C4  UNL     1      20.601  17.182  23.212  1.00  0.00     0.303 A 
HETATM   10  O2  UNL     1      20.754  15.975  23.537  1.00  0.00    -0.263 OA
ENDROOT
BRANCH   4  11
HETATM   11  C3  UNL     1      20.103  21.165  22.134  1.00  0.00     0.304 C 
HETATM   12  O1  UNL     1      20.951  21.799  21.435  1.00  0.00    -0.263 OA
HETATM   13  N3  UNL     1      18.955  21.869  22.560  1.00  0.00    -0.270 N 
ATOM     14  H3  UNL     1      18.237  21.412  23.123  1.00  0.00     0.189 HD
BRANCH  13  15
HETATM   15  N4  UNL     1      18.829  23.218  22.185  1.00  0.00    -0.342 N 
ATOM     16  H42 UNL     1      18.634  23.462  21.214  1.00  0.00     0.176 HD
ATOM     17  H41 UNL     1      18.940  23.929  22.908  1.00  0.00     0.176 HD
ENDBRANCH  13  15
ENDBRANCH   4  11
BRANCH   1  18
HETATM   18  N1  UNL     1      22.204  16.960  21.538  1.00  0.00    -0.381 N 
ATOM     19  H12 UNL     1      22.045  15.976  21.320  1.00  0.00     0.157 HD
ATOM     20  H11 UNL     1      23.078  17.380  21.223  1.00  0.00     0.157 HD
ENDBRANCH   1  18
TORSDOF 3
ENDMDL
MODEL 4
REMARK VINA RESULT: -3.706331356      2.789      5.645
REMARK  3 active torsions:
REMARK  status: ('A' for Active; 'I' for Inactive)
REMARK    1  A    between atoms: N1_1  and  C1_4 
REMARK    2  A    between atoms: C2_7  and  C3_8 
REMARK       I    between atoms: C3_8  and  N3_10 
REMARK    3  A    between atoms: N3_10  and  N4_12 
ROOT
HETATM    1  C1  UNL     1      21.339  21.917  22.422  1.00  0.00     0.171 A 
HETATM    2  N2  UNL     1      21.227  20.597  22.733  1.00  0.00    -0.319 N 
ATOM      3  H2  UNL     1      21.995  20.138  23.224  1.00  0.00     0.169 HD
HETATM    4  C2  UNL     1      20.146  19.886  22.416  1.00  0.00     0.192 A 
HETATM    5  N5  UNL     1      19.145  20.537  21.763  1.00  0.00    -0.278 N 
ATOM      6  H5  UNL     1      18.310  20.008  21.513  1.00  0.00     0.189 HD
HETATM    7  N6  UNL     1      19.196  21.814  21.435  1.00  0.00    -0.262 N 
ATOM      8  H6  UNL     1      18.421  22.262  20.945  1.00  0.00     0.190 HD
HETATM    9  C4  UNL     1      20.296  22.505  21.767  1.00  0.00     0.303 A 
HETATM   10  O2  UNL     1      20.387  23.726  21.474  1.00  0.00    -0.263 OA
ENDROOT
BRANCH   4  11
HETATM   11  C3  UNL     1      20.004  18.474  22.737  1.00  0.00     0.304 C 
HETATM   12  O1  UNL     1      20.938  17.650  22.499  1.00  0.00    -0.263 OA
HETATM   13  N3  UNL     1      18.824  17.968  23.326  1.00  0.00    -0.270 N 
ATOM     14  H3  UNL     1      18.038  18.583  23.541  1.00  0.00     0.189 HD
BRANCH  13  15
HETATM   15  N4  UNL     1      18.763  16.591  23.606  1.00  0.00    -0.342 N 
ATOM     16  H42 UNL     1      19.621  16.044  23.664  1.00  0.00     0.176 HD
ATOM     17  H41 UNL     1      17.844  16.171  23.745  1.00  0.00     0.176 HD
ENDBRANCH  13  15
ENDBRANCH   4  11
BRANCH   1  18
HETATM   18  N1  UNL     1      22.405  22.560  22.751  1.00  0.00    -0.381 N 
ATOM     19  H12 UNL     1      23.156  22.138  23.299  1.00  0.00     0.157 HD
ATOM     20  H11 UNL     1      22.519  23.530  22.459  1.00  0.00     0.157 HD
ENDBRANCH   1  18
TORSDOF 3
ENDMDL
MODEL 5
REMARK VINA RESULT: -3.687151501      2.421      2.574
REMARK  3 active torsions:
REMARK  status: ('A' for Active; 'I' for Inactive)
REMARK    1  A    between atoms: N1_1  and  C1_4 
REMARK    2  A    between atoms: C2_7  and  C3_8 
REMARK       I    between atoms: C3_8  and  N3_10 
REMARK    3  A    between atoms: N3_10  and  N4_12 
ROOT
HETATM    1  C1  UNL     1      20.688  14.891  24.242  1.00  0.00     0.171 A 
HETATM    2  N2  UNL     1      19.996  15.911  24.819  1.00  0.00    -0.319 N 
ATOM      3  H2  UNL     1      19.369  15.706  25.597  1.00  0.00     0.169 HD
HETATM    4  C2  UNL     1      20.113  17.169  24.398  1.00  0.00     0.192 A 
HETATM    5  N5  UNL     1      20.961  17.400  23.359  1.00  0.00    -0.278 N 
ATOM      6  H5  UNL     1      21.063  18.358  23.024  1.00  0.00     0.189 HD
HETATM    7  N6  UNL     1      21.658  16.453  22.761  1.00  0.00    -0.262 N 
ATOM      8  H6  UNL     1      22.283  16.671  21.984  1.00  0.00     0.190 HD
HETATM    9  C4  UNL     1      21.520  15.195  23.205  1.00  0.00     0.303 A 
HETATM   10  O2  UNL     1      22.167  14.260  22.663  1.00  0.00    -0.263 OA
ENDROOT
BRANCH   4  11
HETATM   11  C3  UNL     1      19.384  18.276  24.998  1.00  0.00     0.304 C 
HETATM   12  O1  UNL     1      18.403  18.071  25.775  1.00  0.00    -0.263 OA
HETATM   13  N3  UNL     1      19.741  19.619  24.741  1.00  0.00    -0.270 N 
ATOM     14  H3  UNL     1      20.522  19.847  24.126  1.00  0.00     0.189 HD
BRANCH  13  15
HETATM   15  N4  UNL     1      18.987  20.633  25.358  1.00  0.00    -0.342 N 
ATOM     16  H42 UNL     1      18.744  20.560  26.346  1.00  0.00     0.176 HD
ATOM     17  H41 UNL     1      18.698  21.429  24.789  1.00  0.00     0.176 HD
ENDBRANCH  13  15
ENDBRANCH   4  11
BRANCH   1  18
HETATM   18  N1  UNL     1      20.540  13.691  24.687  1.00  0.00    -0.381 N 
ATOM     19  H12 UNL     1      20.283  12.908  24.085  1.00  0.00     0.157 HD
ATOM     20  H11 UNL     1      20.684  13.501  25.678  1.00  0.00     0.157 HD
ENDBRANCH   1  18
TORSDOF 3
ENDMDL
