MODEL 1
REMARK VINA RESULT: -3.869180338      0.000      0.000
REMARK  2 active torsions:
REMARK  status: ('A' for Active; 'I' for Inactive)
REMARK    1  A    between atoms: N1_1  and  C1_4 
REMARK    2  A    between atoms: N4_14  and  N5_15 
ROOT
HETATM    1  C1  UNL     1      20.523  19.338  22.935  1.00  0.00     0.680 A 
HETATM    2  N2  UNL     1      19.552  19.017  23.814  1.00  0.00    -0.154 N 
ATOM      3  H2  UNL     1      18.948  19.762  24.160  1.00  0.00     0.187 HD
HETATM    4  C2  UNL     1      19.339  17.770  24.258  1.00  0.00     0.290 A 
HETATM    5  O1  UNL     1      18.427  17.479  25.082  1.00  0.00    -0.265 OA
HETATM    6  C3  UNL     1      20.148  16.760  23.797  1.00  0.00     0.152 A 
HETATM    7  N3  UNL     1      20.226  15.426  24.016  1.00  0.00    -0.299 N 
ATOM      8  H3  UNL     1      19.628  14.877  24.633  1.00  0.00     0.171 HD
HETATM    9  C4  UNL     1      21.251  14.958  23.258  1.00  0.00     0.347 A 
HETATM   10  O2  UNL     1      21.637  13.763  23.190  1.00  0.00    -0.245 OA
HETATM   11  N4  UNL     1      21.815  15.962  22.572  1.00  0.00    -0.192 N 
HETATM   12  C5  UNL     1      21.142  17.089  22.896  1.00  0.00     0.179 A 
HETATM   13  N6  UNL     1      21.322  18.366  22.473  1.00  0.00    -0.172 N 
ATOM     14  H6  UNL     1      22.062  18.586  21.807  1.00  0.00     0.186 HD
ENDROOT
BRANCH   1  15
HETATM   15  N1  UNL     1      20.652  20.570  22.564  1.00  0.00    -0.234 N 
ATOM     16  H12 UNL     1      19.972  21.287  22.817  1.00  0.00     0.174 HD
ATOM     17  H11 UNL     1      21.459  20.836  22.001  1.00  0.00     0.174 HD
ENDBRANCH   1  15
BRANCH  11  18
HETATM   18  N5  UNL     1      22.882  15.852  21.705  1.00  0.00    -0.333 N 
ATOM     19  H52 UNL     1      23.141  15.035  21.151  1.00  0.00     0.177 HD
ATOM     20  H51 UNL     1      23.563  16.582  21.497  1.00  0.00     0.177 HD
ENDBRANCH  11  18
TORSDOF 2
ENDMDL
MODEL 2
REMARK VINA RESULT: -3.772895298      2.072      3.745
REMARK  2 active torsions:
REMARK  status: ('A' for Active; 'I' for Inactive)
REMARK    1  A    between atoms: N1_1  and  C1_4 
REMARK    2  A    between atoms: N4_14  and  N5_15 
ROOT
HETATM    1  C1  UNL     1      22.313  16.585  22.027  1.00  0.00     0.680 A 
HETATM    2  N2  UNL     1      21.837  17.711  21.458  1.00  0.00    -0.154 N 
ATOM      3  H2  UNL     1      22.261  18.028  20.586  1.00  0.00     0.187 HD
HETATM    4  C2  UNL     1      20.837  18.437  21.977  1.00  0.00     0.290 A 
HETATM    5  O1  UNL     1      20.399  19.491  21.436  1.00  0.00    -0.265 OA
HETATM    6  C3  UNL     1      20.260  18.018  23.150  1.00  0.00     0.152 A 
HETATM    7  N3  UNL     1      19.262  18.480  23.940  1.00  0.00    -0.299 N 
ATOM      8  H3  UNL     1      18.702  19.318  23.782  1.00  0.00     0.171 HD
HETATM    9  C4  UNL     1      19.149  17.618  24.984  1.00  0.00     0.347 A 
HETATM   10  O2  UNL     1      18.330  17.708  25.935  1.00  0.00    -0.245 OA
HETATM   11  N4  UNL     1      20.047  16.631  24.867  1.00  0.00    -0.192 N 
HETATM   12  C5  UNL     1      20.746  16.864  23.734  1.00  0.00     0.179 A 
HETATM   13  N6  UNL     1      21.762  16.160  23.173  1.00  0.00    -0.172 N 
ATOM     14  H6  UNL     1      22.104  15.310  23.621  1.00  0.00     0.186 HD
ENDROOT
BRANCH   1  15
HETATM   15  N1  UNL     1      23.281  15.951  21.452  1.00  0.00    -0.234 N 
ATOM     16  H12 UNL     1      24.137  16.419  21.156  1.00  0.00     0.174 HD
ATOM     17  H11 UNL     1      23.190  14.948  21.289  1.00  0.00     0.174 HD
ENDBRANCH   1  15
BRANCH  11  18
HETATM   18  N5  UNL     1      20.216  15.582  25.747  1.00  0.00    -0.333 N 
ATOM     19  H52 UNL     1      20.144  14.586  25.536  1.00  0.00     0.177 HD
ATOM     20  H51 UNL     1      20.440  15.661  26.739  1.00  0.00     0.177 HD
ENDBRANCH  11  18
TORSDOF 2
ENDMDL
MODEL 3
REMARK VINA RESULT: -3.665827533      1.856      2.737
REMARK  2 active torsions:
REMARK  status: ('A' for Active; 'I' for Inactive)
REMARK    1  A    between atoms: N1_1  and  C1_4 
REMARK    2  A    between atoms: N4_14  and  N5_15 
ROOT
HETATM    1  C1  UNL     1      19.228  17.469  24.516  1.00  0.00     0.680 A 
HETATM    2  N2  UNL     1      19.515  18.478  23.668  1.00  0.00    -0.154 N 
ATOM      3  H2  UNL     1      18.981  19.343  23.749  1.00  0.00     0.187 HD
HETATM    4  C2  UNL     1      20.464  18.404  22.725  1.00  0.00     0.290 A 
HETATM    5  O1  UNL     1      20.725  19.354  21.936  1.00  0.00    -0.265 OA
HETATM    6  C3  UNL     1      21.188  17.243  22.609  1.00  0.00     0.152 A 
HETATM    7  N3  UNL     1      22.190  16.820  21.803  1.00  0.00    -0.299 N 
ATOM      8  H3  UNL     1      22.632  17.354  21.054  1.00  0.00     0.171 HD
HETATM    9  C4  UNL     1      22.496  15.551  22.180  1.00  0.00     0.347 A 
HETATM   10  O2  UNL     1      23.379  14.818  21.665  1.00  0.00    -0.245 OA
HETATM   11  N4  UNL     1      21.714  15.171  23.198  1.00  0.00    -0.192 N 
HETATM   12  C5  UNL     1      20.894  16.209  23.478  1.00  0.00     0.179 A 
HETATM   13  N6  UNL     1      19.924  16.328  24.419  1.00  0.00    -0.172 N 
ATOM     14  H6  UNL     1      19.725  15.552  25.050  1.00  0.00     0.186 HD
ENDROOT
BRANCH   1  15
HETATM   15  N1  UNL     1      18.294  17.633  25.395  1.00  0.00    -0.234 N 
ATOM     16  H12 UNL     1      18.420  17.383  26.375  1.00  0.00     0.174 HD
ATOM     17  H11 UNL     1      17.400  18.026  25.100  1.00  0.00     0.174 HD
ENDBRANCH   1  15
BRANCH  11  18
HETATM   18  N5  UNL     1      21.747  13.945  23.832  1.00  0.00    -0.333 N 
ATOM     19  H52 UNL     1      22.397  13.649  24.560  1.00  0.00     0.177 HD
ATOM     20  H51 UNL     1      21.119  13.161  23.655  1.00  0.00     0.177 HD
ENDBRANCH  11  18
TORSDOF 2
ENDMDL
MODEL 4
REMARK VINA RESULT: -3.661832316      2.608      5.003
REMARK  2 active torsions:
REMARK  status: ('A' for Active; 'I' for Inactive)
REMARK    1  A    between atoms: N1_1  and  C1_4 
REMARK    2  A    between atoms: N4_14  and  N5_15 
ROOT
HETATM    1  C1  UNL     1      19.636  17.469  23.305  1.00  0.00     0.680 A 
HETATM    2  N2  UNL     1      20.870  17.063  22.941  1.00  0.00    -0.154 N 
ATOM      3  H2  UNL     1      21.116  16.083  23.078  1.00  0.00     0.187 HD
HETATM    4  C2  UNL     1      21.791  17.879  22.409  1.00  0.00     0.290 A 
HETATM    5  O1  UNL     1      22.944  17.489  22.073  1.00  0.00    -0.265 OA
HETATM    6  C3  UNL     1      21.468  19.201  22.221  1.00  0.00     0.152 A 
HETATM    7  N3  UNL     1      22.119  20.280  21.728  1.00  0.00    -0.299 N 
ATOM      8  H3  UNL     1      23.074  20.300  21.368  1.00  0.00     0.171 HD
HETATM    9  C4  UNL     1      21.261  21.330  21.800  1.00  0.00     0.347 A 
HETATM   10  O2  UNL     1      21.501  22.511  21.436  1.00  0.00    -0.245 OA
HETATM   11  N4  UNL     1      20.093  20.937  22.325  1.00  0.00    -0.192 N 
HETATM   12  C5  UNL     1      20.204  19.617  22.593  1.00  0.00     0.179 A 
HETATM   13  N6  UNL     1      19.303  18.755  23.128  1.00  0.00    -0.172 N 
ATOM     14  H6  UNL     1      18.375  19.084  23.395  1.00  0.00     0.186 HD
ENDROOT
BRANCH   1  15
HETATM   15  N1  UNL     1      18.815  16.607  23.810  1.00  0.00    -0.234 N 
ATOM     16  H12 UNL     1      17.907  16.410  23.388  1.00  0.00     0.174 HD
ATOM     17  H11 UNL     1      19.081  16.106  24.658  1.00  0.00     0.174 HD
ENDBRANCH   1  15
BRANCH  11  18
HETATM   18  N5  UNL     1      18.993  21.740  22.546  1.00  0.00    -0.333 N 
ATOM     19  H52 UNL     1      18.132  21.482  23.028  1.00  0.00     0.177 HD
ATOM     20  H51 UNL     1      18.893  22.713  22.255  1.00  0.00     0.177 HD
ENDBRANCH  11  18
TORSDOF 2
ENDMDL
MODEL 5
REMARK VINA RESULT: -3.633760672      1.946      4.661
REMARK  2 active torsions:
REMARK  status: ('A' for Active; 'I' for Inactive)
REMARK    1  A    between atoms: N1_1  and  C1_4 
REMARK    2  A    between atoms: N4_14  and  N5_15 
ROOT
HETATM    1  C1  UNL     1      20.780  14.335  24.328  1.00  0.00     0.680 A 
HETATM    2  N2  UNL     1      21.784  14.138  23.449  1.00  0.00    -0.154 N 
ATOM      3  H2  UNL     1      22.222  13.218  23.415  1.00  0.00     0.187 HD
HETATM    4  C2  UNL     1      22.237  15.087  22.618  1.00  0.00     0.290 A 
HETATM    5  O1  UNL     1      23.178  14.893  21.798  1.00  0.00    -0.265 OA
HETATM    6  C3  UNL     1      21.652  16.329  22.656  1.00  0.00     0.152 A 
HETATM    7  N3  UNL     1      21.839  17.492  21.989  1.00  0.00    -0.299 N 
ATOM      8  H3  UNL     1      22.528  17.667  21.257  1.00  0.00     0.171 HD
HETATM    9  C4  UNL     1      20.937  18.382  22.479  1.00  0.00     0.347 A 
HETATM   10  O2  UNL     1      20.799  19.577  22.110  1.00  0.00    -0.245 OA
HETATM   11  N4  UNL     1      20.193  17.807  23.433  1.00  0.00    -0.192 N 
HETATM   12  C5  UNL     1      20.624  16.531  23.556  1.00  0.00     0.179 A 
HETATM   13  N6  UNL     1      20.197  15.541  24.380  1.00  0.00    -0.172 N 
ATOM     14  H6  UNL     1      19.436  15.713  25.036  1.00  0.00     0.186 HD
ENDROOT
BRANCH   1  15
HETATM   15  N1  UNL     1      20.412  13.358  25.090  1.00  0.00    -0.234 N 
ATOM     16  H12 UNL     1      21.073  12.846  25.674  1.00  0.00     0.174 HD
ATOM     17  H11 UNL     1      19.428  13.090  25.112  1.00  0.00     0.174 HD
ENDBRANCH   1  15
BRANCH  11  18
HETATM   18  N5  UNL     1      19.181  18.415  24.147  1.00  0.00    -0.333 N 
ATOM     19  H52 UNL     1      18.304  18.782  23.778  1.00  0.00     0.177 HD
ATOM     20  H51 UNL     1      19.173  18.580  25.154  1.00  0.00     0.177 HD
ENDBRANCH  11  18
TORSDOF 2
ENDMDL
