MODEL 1
REMARK VINA RESULT: -7.028144655      0.000      0.000
REMARK  5 active torsions:
REMARK  status: ('A' for Active; 'I' for Inactive)
REMARK    1  A    between atoms: O1_2  and  C2_3 
REMARK    2  A    between atoms: C4_5  and  C5_6 
REMARK    3  A    between atoms: C8_9  and  N1_10 
REMARK    4  A    between atoms: N1_10  and  S1_12 
REMARK    5  A    between atoms: S1_12  and  C10_15 
ROOT
HETATM    1  N1  UNL     1      30.936  18.493  96.858  1.00  0.00    -0.274 N 
HETATM    2  C9  UNL     1      31.601  18.643  95.522  1.00  0.00     0.170 C 
ENDROOT
BRANCH   1   3
HETATM    3  C8  UNL     1      29.608  18.121  96.802  1.00  0.00     0.052 A 
HETATM    4  C4  UNL     1      29.056  16.944  97.157  1.00  0.00    -0.025 A 
HETATM    5  C3  UNL     1      27.681  16.684  97.025  1.00  0.00     0.047 A 
HETATM    6  C2  UNL     1      26.859  17.636  96.526  1.00  0.00     0.074 A 
HETATM    7  C15 UNL     1      27.365  18.850  96.150  1.00  0.00    -0.026 A 
HETATM    8  C14 UNL     1      28.701  19.081  96.285  1.00  0.00     0.040 A 
HETATM    9  C16 UNL     1      26.488  19.902  95.604  1.00  0.00     0.051 C 
BRANCH   4  10
HETATM   10  C5  UNL     1      29.843  15.850  97.750  1.00  0.00     0.013 C 
HETATM   11  C6  UNL     1      29.205  14.515  97.349  1.00  0.00     0.015 C 
HETATM   12  C7  UNL     1      29.502  15.937  99.270  1.00  0.00     0.015 C 
ENDBRANCH   4  10
BRANCH   6  13
HETATM   13  O1  UNL     1      25.495  17.409  96.385  1.00  0.00    -0.355 OA
HETATM   14  C1  UNL     1      25.045  16.084  96.213  1.00  0.00     0.210 C 
ENDBRANCH   6  13
ENDBRANCH   1   3
BRANCH   1  15
HETATM   15  S1  UNL     1      31.927  18.889  98.171  1.00  0.00     0.284 S 
HETATM   16  O2  UNL     1      32.762  17.652  98.532  1.00  0.00    -0.198 OA
HETATM   17  O3  UNL     1      31.057  19.174  99.418  1.00  0.00    -0.198 OA
BRANCH  15  18
HETATM   18  C10 UNL     1      32.925  20.294  98.010  1.00  0.00     0.202 A 
HETATM   19  C11 UNL     1      34.328  20.247  97.986  1.00  0.00     0.190 A 
HETATM   20 CL1  UNL     1      35.399  18.872  98.157  1.00  0.00    -0.053 Cl
HETATM   21  O4  UNL     1      34.773  21.477  97.799  1.00  0.00    -0.245 OA
HETATM   22  C12 UNL     1      33.779  22.293  97.701  1.00  0.00     0.373 A 
HETATM   23  O5  UNL     1      33.854  23.530  97.521  1.00  0.00    -0.237 OA
HETATM   24  N2  UNL     1      32.610  21.583  97.828  1.00  0.00    -0.283 N 
HETATM   25  C13 UNL     1      31.306  22.227  97.704  1.00  0.00     0.163 C 
ENDBRANCH  15  18
ENDBRANCH   1  15
TORSDOF 5
ENDMDL
MODEL 2
REMARK VINA RESULT: -6.894220124      1.352      1.733
REMARK  5 active torsions:
REMARK  status: ('A' for Active; 'I' for Inactive)
REMARK    1  A    between atoms: O1_2  and  C2_3 
REMARK    2  A    between atoms: C4_5  and  C5_6 
REMARK    3  A    between atoms: C8_9  and  N1_10 
REMARK    4  A    between atoms: N1_10  and  S1_12 
REMARK    5  A    between atoms: S1_12  and  C10_15 
ROOT
HETATM    1  N1  UNL     1      30.904  18.478  96.870  1.00  0.00    -0.274 N 
HETATM    2  C9  UNL     1      31.591  18.578  95.541  1.00  0.00     0.170 C 
ENDROOT
BRANCH   1   3
HETATM    3  C8  UNL     1      29.578  18.102  96.806  1.00  0.00     0.052 A 
HETATM    4  C4  UNL     1      29.029  16.920  97.150  1.00  0.00    -0.025 A 
HETATM    5  C3  UNL     1      27.655  16.657  97.012  1.00  0.00     0.047 A 
HETATM    6  C2  UNL     1      26.832  17.610  96.518  1.00  0.00     0.074 A 
HETATM    7  C15 UNL     1      27.334  18.828  96.153  1.00  0.00    -0.026 A 
HETATM    8  C14 UNL     1      28.669  19.063  96.294  1.00  0.00     0.040 A 
HETATM    9  C16 UNL     1      26.456  19.882  95.612  1.00  0.00     0.051 C 
BRANCH   4  10
HETATM   10  C5  UNL     1      29.817  15.824  97.737  1.00  0.00     0.013 C 
HETATM   11  C6  UNL     1      29.175  14.491  97.338  1.00  0.00     0.015 C 
HETATM   12  C7  UNL     1      29.486  15.910  99.260  1.00  0.00     0.015 C 
ENDBRANCH   4  10
BRANCH   6  13
HETATM   13  O1  UNL     1      25.469  17.379  96.370  1.00  0.00    -0.355 OA
HETATM   14  C1  UNL     1      25.022  16.052  96.206  1.00  0.00     0.210 C 
ENDBRANCH   6  13
ENDBRANCH   1   3
BRANCH   1  15
HETATM   15  S1  UNL     1      31.874  18.925  98.183  1.00  0.00     0.284 S 
HETATM   16  O2  UNL     1      32.936  17.835  98.389  1.00  0.00    -0.198 OA
HETATM   17  O3  UNL     1      31.031  18.925  99.481  1.00  0.00    -0.198 OA
BRANCH  15  18
HETATM   18  C10 UNL     1      32.591  20.499  98.134  1.00  0.00     0.202 A 
HETATM   19  C11 UNL     1      31.850  21.689  98.215  1.00  0.00     0.190 A 
HETATM   20 CL1  UNL     1      30.116  21.916  98.322  1.00  0.00    -0.053 Cl
HETATM   21  O4  UNL     1      32.700  22.701  98.203  1.00  0.00    -0.245 OA
HETATM   22  C12 UNL     1      33.908  22.256  98.123  1.00  0.00     0.373 A 
HETATM   23  O5  UNL     1      34.950  22.950  98.090  1.00  0.00    -0.237 OA
HETATM   24  N2  UNL     1      33.873  20.884  98.080  1.00  0.00    -0.283 N 
HETATM   25  C13 UNL     1      35.095  20.087  98.045  1.00  0.00     0.163 C 
ENDBRANCH  15  18
ENDBRANCH   1  15
TORSDOF 5
ENDMDL
MODEL 3
REMARK VINA RESULT: -6.854394935      1.755      2.308
REMARK  5 active torsions:
REMARK  status: ('A' for Active; 'I' for Inactive)
REMARK    1  A    between atoms: O1_2  and  C2_3 
REMARK    2  A    between atoms: C4_5  and  C5_6 
REMARK    3  A    between atoms: C8_9  and  N1_10 
REMARK    4  A    between atoms: N1_10  and  S1_12 
REMARK    5  A    between atoms: S1_12  and  C10_15 
ROOT
HETATM    1  N1  UNL     1      30.520  19.067  96.130  1.00  0.00    -0.274 N 
HETATM    2  C9  UNL     1      31.046  18.790  94.753  1.00  0.00     0.170 C 
ENDROOT
BRANCH   1   3
HETATM    3  C8  UNL     1      29.332  18.433  96.431  1.00  0.00     0.052 A 
HETATM    4  C4  UNL     1      29.152  17.244  97.039  1.00  0.00    -0.025 A 
HETATM    5  C3  UNL     1      27.877  16.696  97.266  1.00  0.00     0.047 A 
HETATM    6  C2  UNL     1      26.773  17.370  96.869  1.00  0.00     0.074 A 
HETATM    7  C15 UNL     1      26.896  18.582  96.248  1.00  0.00    -0.026 A 
HETATM    8  C14 UNL     1      28.141  19.095  96.036  1.00  0.00     0.040 A 
HETATM    9  C16 UNL     1      25.708  19.334  95.806  1.00  0.00     0.051 C 
BRANCH   4  10
HETATM   10  C5  UNL     1      30.275  16.441  97.552  1.00  0.00     0.013 C 
HETATM   11  C6  UNL     1      29.814  14.985  97.686  1.00  0.00     0.015 C 
HETATM   12  C7  UNL     1      30.396  16.890  99.041  1.00  0.00     0.015 C 
ENDBRANCH   4  10
BRANCH   6  13
HETATM   13  O1  UNL     1      25.500  16.855  97.080  1.00  0.00    -0.355 OA
HETATM   14  C1  UNL     1      24.971  15.952  96.135  1.00  0.00     0.210 C 
ENDBRANCH   6  13
ENDBRANCH   1   3
BRANCH   1  15
HETATM   15  S1  UNL     1      31.451  20.168  97.015  1.00  0.00     0.284 S 
HETATM   16  O2  UNL     1      30.503  21.181  97.672  1.00  0.00    -0.198 OA
HETATM   17  O3  UNL     1      32.335  20.999  96.054  1.00  0.00    -0.198 OA
BRANCH  15  18
HETATM   18  C10 UNL     1      32.565  19.512  98.167  1.00  0.00     0.202 A 
HETATM   19  C11 UNL     1      33.590  18.615  97.826  1.00  0.00     0.190 A 
HETATM   20 CL1  UNL     1      33.978  17.905  96.273  1.00  0.00    -0.053 Cl
HETATM   21  O4  UNL     1      34.284  18.356  98.920  1.00  0.00    -0.245 OA
HETATM   22  C12 UNL     1      33.791  19.010  99.917  1.00  0.00     0.373 A 
HETATM   23  O5  UNL     1      34.214  18.988 101.096  1.00  0.00    -0.237 OA
HETATM   24  N2  UNL     1      32.717  19.743  99.477  1.00  0.00    -0.283 N 
HETATM   25  C13 UNL     1      31.981  20.634 100.369  1.00  0.00     0.163 C 
ENDBRANCH  15  18
ENDBRANCH   1  15
TORSDOF 5
ENDMDL
MODEL 4
REMARK VINA RESULT: -6.837943092      1.746      2.341
REMARK  5 active torsions:
REMARK  status: ('A' for Active; 'I' for Inactive)
REMARK    1  A    between atoms: O1_2  and  C2_3 
REMARK    2  A    between atoms: C4_5  and  C5_6 
REMARK    3  A    between atoms: C8_9  and  N1_10 
REMARK    4  A    between atoms: N1_10  and  S1_12 
REMARK    5  A    between atoms: S1_12  and  C10_15 
ROOT
HETATM    1  N1  UNL     1      31.121  18.727  97.627  1.00  0.00    -0.274 N 
HETATM    2  C9  UNL     1      31.207  19.101  99.077  1.00  0.00     0.170 C 
ENDROOT
BRANCH   1   3
HETATM    3  C8  UNL     1      29.888  18.254  97.227  1.00  0.00     0.052 A 
HETATM    4  C4  UNL     1      29.410  16.997  97.308  1.00  0.00    -0.025 A 
HETATM    5  C3  UNL     1      28.134  16.642  96.838  1.00  0.00     0.047 A 
HETATM    6  C2  UNL     1      27.335  17.580  96.279  1.00  0.00     0.074 A 
HETATM    7  C15 UNL     1      27.769  18.873  96.171  1.00  0.00    -0.026 A 
HETATM    8  C14 UNL     1      29.010  19.196  96.632  1.00  0.00     0.040 A 
HETATM    9  C16 UNL     1      26.916  19.912  95.565  1.00  0.00     0.051 C 
BRANCH   4  10
HETATM   10  C5  UNL     1      30.169  15.902  97.934  1.00  0.00     0.013 C 
HETATM   11  C6  UNL     1      29.664  14.570  97.369  1.00  0.00     0.015 C 
HETATM   12  C7  UNL     1      29.627  15.869  99.397  1.00  0.00     0.015 C 
ENDBRANCH   4  10
BRANCH   6  13
HETATM   13  O1  UNL     1      26.069  17.260  95.805  1.00  0.00    -0.355 OA
HETATM   14  C1  UNL     1      25.051  16.973  96.738  1.00  0.00     0.210 C 
ENDBRANCH   6  13
ENDBRANCH   1   3
BRANCH   1  15
HETATM   15  S1  UNL     1      32.581  18.884  96.786  1.00  0.00     0.284 S 
HETATM   16  O2  UNL     1      32.258  19.226  95.324  1.00  0.00    -0.198 OA
HETATM   17  O3  UNL     1      33.307  17.519  96.736  1.00  0.00    -0.198 OA
BRANCH  15  18
HETATM   18  C10 UNL     1      33.755  19.974  97.442  1.00  0.00     0.202 A 
HETATM   19  C11 UNL     1      33.570  21.365  97.500  1.00  0.00     0.190 A 
HETATM   20 CL1  UNL     1      32.233  22.336  96.921  1.00  0.00    -0.053 Cl
HETATM   21  O4  UNL     1      34.623  21.891  98.102  1.00  0.00    -0.245 OA
HETATM   22  C12 UNL     1      35.451  20.957  98.430  1.00  0.00     0.373 A 
HETATM   23  O5  UNL     1      36.548  21.115  99.014  1.00  0.00    -0.237 OA
HETATM   24  N2  UNL     1      34.936  19.748  98.031  1.00  0.00    -0.283 N 
HETATM   25  C13 UNL     1      35.623  18.493  98.314  1.00  0.00     0.163 C 
ENDBRANCH  15  18
ENDBRANCH   1  15
TORSDOF 5
ENDMDL
MODEL 5
REMARK VINA RESULT: -6.740175643      1.928      2.286
REMARK  5 active torsions:
REMARK  status: ('A' for Active; 'I' for Inactive)
REMARK    1  A    between atoms: O1_2  and  C2_3 
REMARK    2  A    between atoms: C4_5  and  C5_6 
REMARK    3  A    between atoms: C8_9  and  N1_10 
REMARK    4  A    between atoms: N1_10  and  S1_12 
REMARK    5  A    between atoms: S1_12  and  C10_15 
ROOT
HETATM    1  N1  UNL     1      30.970  18.733  97.737  1.00  0.00    -0.274 N 
HETATM    2  C9  UNL     1      31.178  18.700  99.222  1.00  0.00     0.170 C 
ENDROOT
BRANCH   1   3
HETATM    3  C8  UNL     1      29.771  18.199  97.312  1.00  0.00     0.052 A 
HETATM    4  C4  UNL     1      29.363  16.916  97.367  1.00  0.00    -0.025 A 
HETATM    5  C3  UNL     1      28.115  16.497  96.873  1.00  0.00     0.047 A 
HETATM    6  C2  UNL     1      27.274  17.398  96.316  1.00  0.00     0.074 A 
HETATM    7  C15 UNL     1      27.635  18.715  96.234  1.00  0.00    -0.026 A 
HETATM    8  C14 UNL     1      28.850  19.099  96.719  1.00  0.00     0.040 A 
HETATM    9  C16 UNL     1      26.735  19.714  95.631  1.00  0.00     0.051 C 
BRANCH   4  10
HETATM   10  C5  UNL     1      30.174  15.855  97.988  1.00  0.00     0.013 C 
HETATM   11  C6  UNL     1      29.767  14.508  97.380  1.00  0.00     0.015 C 
HETATM   12  C7  UNL     1      29.599  15.754  99.435  1.00  0.00     0.015 C 
ENDBRANCH   4  10
BRANCH   6  13
HETATM   13  O1  UNL     1      26.034  17.015  95.819  1.00  0.00    -0.355 OA
HETATM   14  C1  UNL     1      24.921  17.045  96.684  1.00  0.00     0.210 C 
ENDBRANCH   6  13
ENDBRANCH   1   3
BRANCH   1  15
HETATM   15  S1  UNL     1      32.286  19.349  96.870  1.00  0.00     0.284 S 
HETATM   16  O2  UNL     1      32.419  18.549  95.566  1.00  0.00    -0.198 OA
HETATM   17  O3  UNL     1      33.597  19.083  97.649  1.00  0.00    -0.198 OA
BRANCH  15  18
HETATM   18  C10 UNL     1      32.302  21.053  96.566  1.00  0.00     0.202 A 
HETATM   19  C11 UNL     1      31.533  21.665  95.562  1.00  0.00     0.190 A 
HETATM   20 CL1  UNL     1      30.465  20.941  94.379  1.00  0.00    -0.053 Cl
HETATM   21  O4  UNL     1      31.736  22.969  95.634  1.00  0.00    -0.245 OA
HETATM   22  C12 UNL     1      32.559  23.233  96.592  1.00  0.00     0.373 A 
HETATM   23  O5  UNL     1      32.962  24.370  96.927  1.00  0.00    -0.237 OA
HETATM   24  N2  UNL     1      32.929  22.055  97.194  1.00  0.00    -0.283 N 
HETATM   25  C13 UNL     1      33.815  22.034  98.354  1.00  0.00     0.163 C 
ENDBRANCH  15  18
ENDBRANCH   1  15
TORSDOF 5
ENDMDL
