MODEL 1
REMARK VINA RESULT: -6.831407751      0.000      0.000
REMARK  7 active torsions:
REMARK  status: ('A' for Active; 'I' for Inactive)
REMARK    1  A    between atoms: C4_5  and  C5_6 
REMARK    2  A    between atoms: C5_6  and  O1_7 
REMARK    3  A    between atoms: O1_7  and  C6_8 
REMARK    4  A    between atoms: C6_8  and  C7_10 
REMARK    5  A    between atoms: C7_10  and  O3_11 
REMARK    6  A    between atoms: O3_11  and  C8_12 
REMARK    7  A    between atoms: C8_12  and  C9_14 
ROOT
HETATM    1  C6  UNL     1      33.468  18.130  96.453  1.00  0.00     0.283 C 
HETATM    2  O2  UNL     1      33.179  18.877  95.484  1.00  0.00    -0.263 OA
ENDROOT
BRANCH   1   3
HETATM    3  O1  UNL     1      32.485  17.242  96.891  1.00  0.00    -0.315 OA
BRANCH   3   4
HETATM    4  C5  UNL     1      31.544  17.687  97.814  1.00  0.00     0.221 C 
BRANCH   4   5
HETATM    5  C4  UNL     1      30.199  17.871  97.269  1.00  0.00     0.008 A 
HETATM    6  C3  UNL     1      29.262  16.865  97.161  1.00  0.00     0.043 A 
HETATM    7  C2  UNL     1      28.098  17.371  96.605  1.00  0.00     0.025 A 
HETATM    8 BR1  UNL     1      29.436  15.029  97.664  1.00  0.00    -0.048 Br
HETATM    9  C1  UNL     1      26.846  16.638  96.314  1.00  0.00     0.070 C 
HETATM   10  N1  UNL     1      28.320  18.673  96.377  1.00  0.00    -0.357 N 
HETATM   11  C14 UNL     1      29.580  19.000  96.769  1.00  0.00     0.017 A 
HETATM   12  C16 UNL     1      27.348  19.577  95.798  1.00  0.00     0.156 C 
HETATM   13  C15 UNL     1      30.226  20.315  96.695  1.00  0.00     0.069 C 
ENDBRANCH   4   5
ENDBRANCH   3   4
ENDBRANCH   1   3
BRANCH   1  14
HETATM   14  C7  UNL     1      34.790  18.223  97.068  1.00  0.00     0.289 C 
BRANCH  14  15
HETATM   15  O3  UNL     1      35.777  18.367  96.081  1.00  0.00    -0.310 OA
BRANCH  15  16
HETATM   16  C8  UNL     1      36.535  17.358  95.552  1.00  0.00     0.288 C 
HETATM   17  O4  UNL     1      36.000  16.433  94.919  1.00  0.00    -0.262 OA
BRANCH  16  18
HETATM   18  C9  UNL     1      38.024  17.340  95.720  1.00  0.00     0.221 C 
HETATM   19  C10 UNL     1      38.486  18.229  96.828  1.00  0.00     0.045 C 
HETATM   20  C11 UNL     1      38.677  17.270  97.965  1.00  0.00     0.034 C 
HETATM   21  C12 UNL     1      38.707  15.932  97.315  1.00  0.00     0.118 C 
HETATM   22  C13 UNL     1      40.098  15.331  97.487  1.00  0.00     0.039 C 
HETATM   23  O5  UNL     1      38.469  16.074  95.973  1.00  0.00    -0.371 OA
ENDBRANCH  16  18
ENDBRANCH  15  16
ENDBRANCH  14  15
ENDBRANCH   1  14
TORSDOF 7
ENDMDL
MODEL 2
REMARK VINA RESULT: -6.757946083      1.306      1.988
REMARK  7 active torsions:
REMARK  status: ('A' for Active; 'I' for Inactive)
REMARK    1  A    between atoms: C4_5  and  C5_6 
REMARK    2  A    between atoms: C5_6  and  O1_7 
REMARK    3  A    between atoms: O1_7  and  C6_8 
REMARK    4  A    between atoms: C6_8  and  C7_10 
REMARK    5  A    between atoms: C7_10  and  O3_11 
REMARK    6  A    between atoms: O3_11  and  C8_12 
REMARK    7  A    between atoms: C8_12  and  C9_14 
ROOT
HETATM    1  C6  UNL     1      33.412  18.023  96.377  1.00  0.00     0.283 C 
HETATM    2  O2  UNL     1      33.138  18.660  95.328  1.00  0.00    -0.263 OA
ENDROOT
BRANCH   1   3
HETATM    3  O1  UNL     1      32.453  17.125  96.849  1.00  0.00    -0.315 OA
BRANCH   3   4
HETATM    4  C5  UNL     1      31.522  17.570  97.781  1.00  0.00     0.221 C 
BRANCH   4   5
HETATM    5  C4  UNL     1      30.158  17.689  97.268  1.00  0.00     0.008 A 
HETATM    6  C3  UNL     1      29.612  18.858  96.781  1.00  0.00     0.043 A 
HETATM    7  C2  UNL     1      28.306  18.630  96.378  1.00  0.00     0.025 A 
HETATM    8 BR1  UNL     1      30.436  20.577  96.639  1.00  0.00    -0.048 Br
HETATM    9  C1  UNL     1      27.359  19.607  95.797  1.00  0.00     0.070 C 
HETATM   10  N1  UNL     1      28.056  17.335  96.616  1.00  0.00    -0.357 N 
HETATM   11  C14 UNL     1      29.156  16.745  97.153  1.00  0.00     0.017 A 
HETATM   12  C16 UNL     1      26.793  16.684  96.334  1.00  0.00     0.156 C 
HETATM   13  C15 UNL     1      29.310  15.344  97.560  1.00  0.00     0.069 C 
ENDBRANCH   4   5
ENDBRANCH   3   4
ENDBRANCH   1   3
BRANCH   1  14
HETATM   14  C7  UNL     1      34.692  18.245  97.045  1.00  0.00     0.289 C 
BRANCH  14  15
HETATM   15  O3  UNL     1      35.717  18.393  96.098  1.00  0.00    -0.310 OA
BRANCH  15  16
HETATM   16  C8  UNL     1      36.489  17.386  95.587  1.00  0.00     0.288 C 
HETATM   17  O4  UNL     1      35.967  16.440  94.973  1.00  0.00    -0.262 OA
BRANCH  16  18
HETATM   18  C9  UNL     1      37.978  17.392  95.753  1.00  0.00     0.221 C 
HETATM   19  C10 UNL     1      38.422  18.238  96.902  1.00  0.00     0.045 C 
HETATM   20  C11 UNL     1      38.636  17.231  97.992  1.00  0.00     0.034 C 
HETATM   21  C12 UNL     1      38.695  15.926  97.279  1.00  0.00     0.118 C 
HETATM   22  C13 UNL     1      40.099  15.349  97.422  1.00  0.00     0.039 C 
HETATM   23  O5  UNL     1      38.452  16.126  95.945  1.00  0.00    -0.371 OA
ENDBRANCH  16  18
ENDBRANCH  15  16
ENDBRANCH  14  15
ENDBRANCH   1  14
TORSDOF 7
ENDMDL
MODEL 3
REMARK VINA RESULT: -6.562043720      1.600      2.356
REMARK  7 active torsions:
REMARK  status: ('A' for Active; 'I' for Inactive)
REMARK    1  A    between atoms: C4_5  and  C5_6 
REMARK    2  A    between atoms: C5_6  and  O1_7 
REMARK    3  A    between atoms: O1_7  and  C6_8 
REMARK    4  A    between atoms: C6_8  and  C7_10 
REMARK    5  A    between atoms: C7_10  and  O3_11 
REMARK    6  A    between atoms: O3_11  and  C8_12 
REMARK    7  A    between atoms: C8_12  and  C9_14 
ROOT
HETATM    1  C6  UNL     1      33.420  18.075  96.455  1.00  0.00     0.283 C 
HETATM    2  O2  UNL     1      33.240  18.619  95.335  1.00  0.00    -0.263 OA
ENDROOT
BRANCH   1   3
HETATM    3  O1  UNL     1      32.472  17.137  96.870  1.00  0.00    -0.315 OA
BRANCH   3   4
HETATM    4  C5  UNL     1      31.523  17.519  97.812  1.00  0.00     0.221 C 
BRANCH   4   5
HETATM    5  C4  UNL     1      30.168  17.669  97.283  1.00  0.00     0.008 A 
HETATM    6  C3  UNL     1      29.652  18.851  96.794  1.00  0.00     0.043 A 
HETATM    7  C2  UNL     1      28.347  18.652  96.374  1.00  0.00     0.025 A 
HETATM    8 BR1  UNL     1      30.514  20.553  96.669  1.00  0.00    -0.048 Br
HETATM    9  C1  UNL     1      27.428  19.650  95.786  1.00  0.00     0.070 C 
HETATM   10  N1  UNL     1      28.067  17.361  96.603  1.00  0.00    -0.357 N 
HETATM   11  C14 UNL     1      29.149  16.746  97.151  1.00  0.00     0.017 A 
HETATM   12  C16 UNL     1      26.795  16.738  96.304  1.00  0.00     0.156 C 
HETATM   13  C15 UNL     1      29.268  15.341  97.554  1.00  0.00     0.069 C 
ENDBRANCH   4   5
ENDBRANCH   3   4
ENDBRANCH   1   3
BRANCH   1  14
HETATM   14  C7  UNL     1      34.586  18.438  97.256  1.00  0.00     0.289 C 
BRANCH  14  15
HETATM   15  O3  UNL     1      35.725  18.539  96.443  1.00  0.00    -0.310 OA
BRANCH  15  16
HETATM   16  C8  UNL     1      36.544  17.507  96.079  1.00  0.00     0.288 C 
HETATM   17  O4  UNL     1      36.345  16.887  95.021  1.00  0.00    -0.262 OA
BRANCH  16  18
HETATM   18  C9  UNL     1      37.699  17.095  96.940  1.00  0.00     0.221 C 
HETATM   19  C10 UNL     1      38.641  16.176  96.232  1.00  0.00     0.045 C 
HETATM   20  C11 UNL     1      39.733  17.101  95.784  1.00  0.00     0.034 C 
HETATM   21  C12 UNL     1      39.529  18.329  96.598  1.00  0.00     0.118 C 
HETATM   22  C13 UNL     1      40.719  18.502  97.536  1.00  0.00     0.039 C 
HETATM   23  O5  UNL     1      38.403  18.185  97.365  1.00  0.00    -0.371 OA
ENDBRANCH  16  18
ENDBRANCH  15  16
ENDBRANCH  14  15
ENDBRANCH   1  14
TORSDOF 7
ENDMDL
MODEL 4
REMARK VINA RESULT: -6.487241496      1.657      2.324
REMARK  7 active torsions:
REMARK  status: ('A' for Active; 'I' for Inactive)
REMARK    1  A    between atoms: C4_5  and  C5_6 
REMARK    2  A    between atoms: C5_6  and  O1_7 
REMARK    3  A    between atoms: O1_7  and  C6_8 
REMARK    4  A    between atoms: C6_8  and  C7_10 
REMARK    5  A    between atoms: C7_10  and  O3_11 
REMARK    6  A    between atoms: O3_11  and  C8_12 
REMARK    7  A    between atoms: C8_12  and  C9_14 
ROOT
HETATM    1  C6  UNL     1      33.792  17.932  96.479  1.00  0.00     0.283 C 
HETATM    2  O2  UNL     1      34.436  17.794  95.407  1.00  0.00    -0.263 OA
ENDROOT
BRANCH   1   3
HETATM    3  O1  UNL     1      32.573  17.260  96.583  1.00  0.00    -0.315 OA
BRANCH   3   4
HETATM    4  C5  UNL     1      31.685  17.637  97.584  1.00  0.00     0.221 C 
BRANCH   4   5
HETATM    5  C4  UNL     1      30.310  17.843  97.131  1.00  0.00     0.008 A 
HETATM    6  C3  UNL     1      29.336  16.866  97.139  1.00  0.00     0.043 A 
HETATM    7  C2  UNL     1      28.150  17.387  96.647  1.00  0.00     0.025 A 
HETATM    8 BR1  UNL     1      29.490  15.050  97.714  1.00  0.00    -0.048 Br
HETATM    9  C1  UNL     1      26.858  16.686  96.482  1.00  0.00     0.070 C 
HETATM   10  N1  UNL     1      28.396  18.669  96.341  1.00  0.00    -0.357 N 
HETATM   11  C14 UNL     1      29.691  18.969  96.625  1.00  0.00     0.017 A 
HETATM   12  C16 UNL     1      27.412  19.579  95.793  1.00  0.00     0.156 C 
HETATM   13  C15 UNL     1      30.370  20.256  96.442  1.00  0.00     0.069 C 
ENDBRANCH   4   5
ENDBRANCH   3   4
ENDBRANCH   1   3
BRANCH   1  14
HETATM   14  C7  UNL     1      34.333  18.772  97.544  1.00  0.00     0.289 C 
BRANCH  14  15
HETATM   15  O3  UNL     1      35.544  19.353  97.140  1.00  0.00    -0.310 OA
BRANCH  15  16
HETATM   16  C8  UNL     1      36.791  18.994  97.573  1.00  0.00     0.288 C 
HETATM   17  O4  UNL     1      36.957  17.945  98.219  1.00  0.00    -0.262 OA
BRANCH  16  18
HETATM   18  C9  UNL     1      37.987  19.849  97.284  1.00  0.00     0.221 C 
HETATM   19  C10 UNL     1      39.261  19.070  97.286  1.00  0.00     0.045 C 
HETATM   20  C11 UNL     1      39.499  18.820  95.826  1.00  0.00     0.034 C 
HETATM   21  C12 UNL     1      38.606  19.791  95.138  1.00  0.00     0.118 C 
HETATM   22  C13 UNL     1      39.463  20.808  94.393  1.00  0.00     0.039 C 
HETATM   23  O5  UNL     1      37.863  20.465  96.072  1.00  0.00    -0.371 OA
ENDBRANCH  16  18
ENDBRANCH  15  16
ENDBRANCH  14  15
ENDBRANCH   1  14
TORSDOF 7
ENDMDL
MODEL 5
REMARK VINA RESULT: -6.478351394      1.755      2.499
REMARK  7 active torsions:
REMARK  status: ('A' for Active; 'I' for Inactive)
REMARK    1  A    between atoms: C4_5  and  C5_6 
REMARK    2  A    between atoms: C5_6  and  O1_7 
REMARK    3  A    between atoms: O1_7  and  C6_8 
REMARK    4  A    between atoms: C6_8  and  C7_10 
REMARK    5  A    between atoms: C7_10  and  O3_11 
REMARK    6  A    between atoms: O3_11  and  C8_12 
REMARK    7  A    between atoms: C8_12  and  C9_14 
ROOT
HETATM    1  C6  UNL     1      33.391  18.199  96.520  1.00  0.00     0.283 C 
HETATM    2  O2  UNL     1      33.633  18.385  95.299  1.00  0.00    -0.263 OA
ENDROOT
BRANCH   1   3
HETATM    3  O1  UNL     1      32.489  17.184  96.845  1.00  0.00    -0.315 OA
BRANCH   3   4
HETATM    4  C5  UNL     1      31.524  17.434  97.815  1.00  0.00     0.221 C 
BRANCH   4   5
HETATM    5  C4  UNL     1      30.165  17.578  97.295  1.00  0.00     0.008 A 
HETATM    6  C3  UNL     1      29.639  18.758  96.811  1.00  0.00     0.043 A 
HETATM    7  C2  UNL     1      28.332  18.552  96.400  1.00  0.00     0.025 A 
HETATM    8 BR1  UNL     1      30.491  20.464  96.682  1.00  0.00    -0.048 Br
HETATM    9  C1  UNL     1      27.404  19.546  95.819  1.00  0.00     0.070 C 
HETATM   10  N1  UNL     1      28.061  17.259  96.630  1.00  0.00    -0.357 N 
HETATM   11  C14 UNL     1      29.149  16.650  97.169  1.00  0.00     0.017 A 
HETATM   12  C16 UNL     1      26.790  16.630  96.338  1.00  0.00     0.156 C 
HETATM   13  C15 UNL     1      29.279  15.245  97.570  1.00  0.00     0.069 C 
ENDBRANCH   4   5
ENDBRANCH   3   4
ENDBRANCH   1   3
BRANCH   1  14
HETATM   14  C7  UNL     1      34.048  19.034  97.522  1.00  0.00     0.289 C 
BRANCH  14  15
HETATM   15  O3  UNL     1      35.430  19.087  97.284  1.00  0.00    -0.310 OA
BRANCH  15  16
HETATM   16  C8  UNL     1      36.339  18.120  97.616  1.00  0.00     0.288 C 
HETATM   17  O4  UNL     1      36.559  17.844  98.808  1.00  0.00    -0.262 OA
BRANCH  16  18
HETATM   18  C9  UNL     1      37.091  17.370  96.560  1.00  0.00     0.221 C 
HETATM   19  C10 UNL     1      37.242  18.155  95.298  1.00  0.00     0.045 C 
HETATM   20  C11 UNL     1      38.627  18.716  95.420  1.00  0.00     0.034 C 
HETATM   21  C12 UNL     1      39.261  17.898  96.489  1.00  0.00     0.118 C 
HETATM   22  C13 UNL     1      40.395  17.082  95.880  1.00  0.00     0.039 C 
HETATM   23  O5  UNL     1      38.337  17.026  97.001  1.00  0.00    -0.371 OA
ENDBRANCH  16  18
ENDBRANCH  15  16
ENDBRANCH  14  15
ENDBRANCH   1  14
TORSDOF 7
ENDMDL
