MODEL 1
REMARK VINA RESULT: -5.962612276      0.000      0.000
REMARK  6 active torsions:
REMARK  status: ('A' for Active; 'I' for Inactive)
REMARK    1  A    between atoms: O1_2  and  C2_3 
REMARK    2  A    between atoms: C3_4  and  C4_5 
REMARK    3  A    between atoms: C4_5  and  N1_6 
REMARK    4  A    between atoms: C7_10  and  C8_11 
REMARK    5  A    between atoms: C8_11  and  N2_12 
REMARK    6  A    between atoms: C15_22  and  N4_23 
ROOT
HETATM    1  N2  UNL     1      33.208  19.526  96.719  1.00  0.00    -0.143 N 
HETATM    2  C9  UNL     1      34.374  18.779  96.969  1.00  0.00     0.267 A 
HETATM    3  O3  UNL     1      34.799  17.727  96.352  1.00  0.00    -0.270 OA
HETATM    4  C10 UNL     1      35.079  19.425  98.093  1.00  0.00     0.129 A 
HETATM    5  C11 UNL     1      36.499  19.789  97.755  1.00  0.00     0.041 C 
HETATM    6  C12 UNL     1      37.314  18.612  98.216  1.00  0.00     0.003 C 
HETATM    7  C13 UNL     1      36.529  17.808  99.178  1.00  0.00     0.003 C 
HETATM    8  C14 UNL     1      35.196  18.516  99.312  1.00  0.00     0.041 C 
HETATM    9  N3  UNL     1      34.200  20.492  98.447  1.00  0.00    -0.208 N 
ATOM     10  H3  UNL     1      34.401  21.130  99.217  1.00  0.00     0.179 HD
HETATM   11  C15 UNL     1      33.141  20.595  97.731  1.00  0.00     0.681 A 
ENDROOT
BRANCH   1  12
HETATM   12  C8  UNL     1      32.150  19.224  95.814  1.00  0.00     0.217 C 
BRANCH  12  13
HETATM   13  C7  UNL     1      31.011  18.413  96.272  1.00  0.00     0.097 A 
HETATM   14  O2  UNL     1      29.829  18.360  95.538  1.00  0.00    -0.307 OA
HETATM   15  C3  UNL     1      29.002  17.544  96.062  1.00  0.00     0.126 A 
HETATM   16  C2  UNL     1      29.584  17.029  97.184  1.00  0.00     0.127 A 
HETATM   17  C18 UNL     1      30.835  17.576  97.313  1.00  0.00     0.101 A 
HETATM   18 CL1  UNL     1      31.833  17.263  98.729  1.00  0.00    -0.079 Cl
BRANCH  15  19
HETATM   19  C4  UNL     1      27.624  17.067  95.666  1.00  0.00     0.125 C 
BRANCH  19  20
HETATM   20  N1  UNL     1      26.642  17.938  96.117  1.00  0.00    -0.396 N 
HETATM   21  C5  UNL     1      25.468  17.307  96.622  1.00  0.00     0.148 C 
HETATM   22  C6  UNL     1      26.670  19.301  95.911  1.00  0.00     0.148 C 
ENDBRANCH  19  20
ENDBRANCH  15  19
BRANCH  16  23
HETATM   23  O1  UNL     1      29.062  16.095  98.117  1.00  0.00    -0.351 OA
HETATM   24  C1  UNL     1      29.519  14.775  97.907  1.00  0.00     0.210 C 
ENDBRANCH  16  23
ENDBRANCH  12  13
ENDBRANCH   1  12
BRANCH  11  25
HETATM   25  N4  UNL     1      32.086  21.495  98.028  1.00  0.00    -0.226 N 
HETATM   26  C16 UNL     1      31.149  20.962  99.065  1.00  0.00     0.168 C 
HETATM   27  C17 UNL     1      31.677  22.727  97.512  1.00  0.00     0.168 C 
ENDBRANCH  11  25
TORSDOF 6
ENDMDL
MODEL 2
REMARK VINA RESULT: -5.481449162      1.849      2.755
REMARK  6 active torsions:
REMARK  status: ('A' for Active; 'I' for Inactive)
REMARK    1  A    between atoms: O1_2  and  C2_3 
REMARK    2  A    between atoms: C3_4  and  C4_5 
REMARK    3  A    between atoms: C4_5  and  N1_6 
REMARK    4  A    between atoms: C7_10  and  C8_11 
REMARK    5  A    between atoms: C8_11  and  N2_12 
REMARK    6  A    between atoms: C15_22  and  N4_23 
ROOT
HETATM    1  N2  UNL     1      33.493  19.251  96.860  1.00  0.00    -0.143 N 
HETATM    2  C9  UNL     1      34.633  18.628  97.401  1.00  0.00     0.267 A 
HETATM    3  O3  UNL     1      35.359  17.695  96.881  1.00  0.00    -0.270 OA
HETATM    4  C10 UNL     1      34.892  19.248  98.716  1.00  0.00     0.129 A 
HETATM    5  C11 UNL     1      36.283  19.807  98.830  1.00  0.00     0.041 C 
HETATM    6  C12 UNL     1      37.090  18.698  99.447  1.00  0.00     0.003 C 
HETATM    7  C13 UNL     1      36.186  17.722 100.090  1.00  0.00     0.003 C 
HETATM    8  C14 UNL     1      34.784  18.251  99.865  1.00  0.00     0.041 C 
HETATM    9  N3  UNL     1      33.808  20.165  98.852  1.00  0.00    -0.208 N 
ATOM     10  H3  UNL     1      33.690  20.750  99.680  1.00  0.00     0.179 HD
HETATM   11  C15 UNL     1      32.992  20.208  97.863  1.00  0.00     0.681 A 
ENDROOT
BRANCH   1  12
HETATM   12  C8  UNL     1      32.789  18.910  95.669  1.00  0.00     0.217 C 
BRANCH  12  13
HETATM   13  C7  UNL     1      31.360  18.570  95.743  1.00  0.00     0.097 A 
HETATM   14  O2  UNL     1      30.913  17.527  96.551  1.00  0.00    -0.307 OA
HETATM   15  C3  UNL     1      29.642  17.448  96.533  1.00  0.00     0.126 A 
HETATM   16  C2  UNL     1      29.178  18.422  95.696  1.00  0.00     0.127 A 
HETATM   17  C18 UNL     1      30.254  19.115  95.202  1.00  0.00     0.101 A 
HETATM   18 CL1  UNL     1      30.058  20.356  93.968  1.00  0.00    -0.079 Cl
BRANCH  15  19
HETATM   19  C4  UNL     1      28.648  16.562  97.248  1.00  0.00     0.125 C 
BRANCH  19  20
HETATM   20  N1  UNL     1      29.274  15.775  98.205  1.00  0.00    -0.396 N 
HETATM   21  C5  UNL     1      29.684  14.490  97.748  1.00  0.00     0.148 C 
HETATM   22  C6  UNL     1      29.319  16.088  99.548  1.00  0.00     0.148 C 
ENDBRANCH  19  20
ENDBRANCH  15  19
BRANCH  16  23
HETATM   23  O1  UNL     1      27.841  18.730  95.333  1.00  0.00    -0.351 OA
HETATM   24  C1  UNL     1      27.293  19.805  96.066  1.00  0.00     0.210 C 
ENDBRANCH  16  23
ENDBRANCH  12  13
ENDBRANCH   1  12
BRANCH  11  25
HETATM   25  N4  UNL     1      31.781  20.945  97.884  1.00  0.00    -0.226 N 
HETATM   26  C16 UNL     1      31.847  22.184  97.048  1.00  0.00     0.168 C 
HETATM   27  C17 UNL     1      30.572  20.821  98.572  1.00  0.00     0.168 C 
ENDBRANCH  11  25
TORSDOF 6
ENDMDL
MODEL 3
REMARK VINA RESULT: -5.472284704      2.347      4.374
REMARK  6 active torsions:
REMARK  status: ('A' for Active; 'I' for Inactive)
REMARK    1  A    between atoms: O1_2  and  C2_3 
REMARK    2  A    between atoms: C3_4  and  C4_5 
REMARK    3  A    between atoms: C4_5  and  N1_6 
REMARK    4  A    between atoms: C7_10  and  C8_11 
REMARK    5  A    between atoms: C8_11  and  N2_12 
REMARK    6  A    between atoms: C15_22  and  N4_23 
ROOT
HETATM    1  N2  UNL     1      31.985  21.956  97.301  1.00  0.00    -0.143 N 
HETATM    2  C9  UNL     1      31.847  23.245  96.753  1.00  0.00     0.267 A 
HETATM    3  O3  UNL     1      31.954  23.604  95.517  1.00  0.00    -0.270 OA
HETATM    4  C10 UNL     1      31.532  24.165  97.863  1.00  0.00     0.129 A 
HETATM    5  C11 UNL     1      30.264  24.940  97.631  1.00  0.00     0.041 C 
HETATM    6  C12 UNL     1      30.714  26.225  96.993  1.00  0.00     0.003 C 
HETATM    7  C13 UNL     1      32.157  26.427  97.242  1.00  0.00     0.003 C 
HETATM    8  C14 UNL     1      32.603  25.232  98.061  1.00  0.00     0.041 C 
HETATM    9  N3  UNL     1      31.573  23.310  99.004  1.00  0.00    -0.208 N 
ATOM     10  H3  UNL     1      31.410  23.656  99.949  1.00  0.00     0.179 HD
HETATM   11  C15 UNL     1      31.829  22.077  98.762  1.00  0.00     0.681 A 
ENDROOT
BRANCH   1  12
HETATM   12  C8  UNL     1      32.405  20.764  96.645  1.00  0.00     0.217 C 
BRANCH  12  13
HETATM   13  C7  UNL     1      31.555  19.564  96.703  1.00  0.00     0.097 A 
HETATM   14  O2  UNL     1      30.376  19.487  95.967  1.00  0.00    -0.307 OA
HETATM   15  C3  UNL     1      29.832  18.342  96.095  1.00  0.00     0.126 A 
HETATM   16  C2  UNL     1      30.612  17.605  96.940  1.00  0.00     0.127 A 
HETATM   17  C18 UNL     1      31.682  18.373  97.320  1.00  0.00     0.101 A 
HETATM   18 CL1  UNL     1      32.833  17.812  98.528  1.00  0.00    -0.079 Cl
BRANCH  15  19
HETATM   19  C4  UNL     1      28.599  17.705  95.494  1.00  0.00     0.125 C 
BRANCH  19  20
HETATM   20  N1  UNL     1      27.441  18.222  96.059  1.00  0.00    -0.396 N 
HETATM   21  C5  UNL     1      26.570  17.250  96.631  1.00  0.00     0.148 C 
HETATM   22  C6  UNL     1      27.029  19.529  95.909  1.00  0.00     0.148 C 
ENDBRANCH  19  20
ENDBRANCH  15  19
BRANCH  16  23
HETATM   23  O1  UNL     1      30.423  16.278  97.406  1.00  0.00    -0.351 OA
HETATM   24  C1  UNL     1      29.639  16.199  98.577  1.00  0.00     0.210 C 
ENDBRANCH  16  23
ENDBRANCH  12  13
ENDBRANCH   1  12
BRANCH  11  25
HETATM   25  N4  UNL     1      32.058  21.115  99.778  1.00  0.00    -0.226 N 
HETATM   26  C16 UNL     1      33.509  20.955 100.103  1.00  0.00     0.168 C 
HETATM   27  C17 UNL     1      31.244  20.226 100.484  1.00  0.00     0.168 C 
ENDBRANCH  11  25
TORSDOF 6
ENDMDL
MODEL 4
REMARK VINA RESULT: -5.436085820      2.390      6.833
REMARK  6 active torsions:
REMARK  status: ('A' for Active; 'I' for Inactive)
REMARK    1  A    between atoms: O1_2  and  C2_3 
REMARK    2  A    between atoms: C3_4  and  C4_5 
REMARK    3  A    between atoms: C4_5  and  N1_6 
REMARK    4  A    between atoms: C7_10  and  C8_11 
REMARK    5  A    between atoms: C8_11  and  N2_12 
REMARK    6  A    between atoms: C15_22  and  N4_23 
ROOT
HETATM    1  N2  UNL     1      31.352  20.028  98.105  1.00  0.00    -0.143 N 
HETATM    2  C9  UNL     1      30.742  18.923  97.481  1.00  0.00     0.267 A 
HETATM    3  O3  UNL     1      30.914  17.668  97.731  1.00  0.00    -0.270 OA
HETATM    4  C10 UNL     1      29.820  19.449  96.456  1.00  0.00     0.129 A 
HETATM    5  C11 UNL     1      28.412  18.950  96.631  1.00  0.00     0.041 C 
HETATM    6  C12 UNL     1      28.329  17.729  95.756  1.00  0.00     0.003 C 
HETATM    7  C13 UNL     1      29.429  17.747  94.769  1.00  0.00     0.003 C 
HETATM    8  C14 UNL     1      30.206  19.018  95.045  1.00  0.00     0.041 C 
HETATM    9  N3  UNL     1      30.026  20.858  96.537  1.00  0.00    -0.208 N 
ATOM     10  H3  UNL     1      29.535  21.516  95.931  1.00  0.00     0.179 HD
HETATM   11  C15 UNL     1      30.870  21.242  97.423  1.00  0.00     0.681 A 
ENDROOT
BRANCH   1  12
HETATM   12  C8  UNL     1      32.400  20.023  99.069  1.00  0.00     0.217 C 
BRANCH  12  13
HETATM   13  C7  UNL     1      33.799  19.948  98.619  1.00  0.00     0.097 A 
HETATM   14  O2  UNL     1      34.404  18.720  98.363  1.00  0.00    -0.307 OA
HETATM   15  C3  UNL     1      35.585  18.878  97.911  1.00  0.00     0.126 A 
HETATM   16  C2  UNL     1      35.833  20.220  97.863  1.00  0.00     0.127 A 
HETATM   17  C18 UNL     1      34.719  20.882  98.309  1.00  0.00     0.101 A 
HETATM   18 CL1  UNL     1      34.716  22.629  98.531  1.00  0.00    -0.079 Cl
BRANCH  15  19
HETATM   19  C4  UNL     1      36.647  17.918  97.428  1.00  0.00     0.125 C 
BRANCH  19  20
HETATM   20  N1  UNL     1      36.742  17.930  96.042  1.00  0.00    -0.396 N 
HETATM   21  C5  UNL     1      35.683  17.261  95.364  1.00  0.00     0.148 C 
HETATM   22  C6  UNL     1      37.858  18.352  95.352  1.00  0.00     0.148 C 
ENDBRANCH  19  20
ENDBRANCH  15  19
BRANCH  16  23
HETATM   23  O1  UNL     1      37.008  20.899  97.448  1.00  0.00    -0.351 OA
HETATM   24  C1  UNL     1      37.939  21.101  98.490  1.00  0.00     0.210 C 
ENDBRANCH  16  23
ENDBRANCH  12  13
ENDBRANCH   1  12
BRANCH  11  25
HETATM   25  N4  UNL     1      31.312  22.584  97.547  1.00  0.00    -0.226 N 
HETATM   26  C16 UNL     1      32.041  23.064  96.331  1.00  0.00     0.168 C 
HETATM   27  C17 UNL     1      31.294  23.529  98.575  1.00  0.00     0.168 C 
ENDBRANCH  11  25
TORSDOF 6
ENDMDL
MODEL 5
REMARK VINA RESULT: -5.392121411      2.062      3.317
REMARK  6 active torsions:
REMARK  status: ('A' for Active; 'I' for Inactive)
REMARK    1  A    between atoms: O1_2  and  C2_3 
REMARK    2  A    between atoms: C3_4  and  C4_5 
REMARK    3  A    between atoms: C4_5  and  N1_6 
REMARK    4  A    between atoms: C7_10  and  C8_11 
REMARK    5  A    between atoms: C8_11  and  N2_12 
REMARK    6  A    between atoms: C15_22  and  N4_23 
ROOT
HETATM    1  N2  UNL     1      34.378  18.245  98.177  1.00  0.00    -0.143 N 
HETATM    2  C9  UNL     1      35.175  17.978  97.048  1.00  0.00     0.267 A 
HETATM    3  O3  UNL     1      34.810  17.495  95.908  1.00  0.00    -0.270 OA
HETATM    4  C10 UNL     1      36.559  18.367  97.383  1.00  0.00     0.129 A 
HETATM    5  C11 UNL     1      37.136  19.353  96.405  1.00  0.00     0.041 C 
HETATM    6  C12 UNL     1      37.859  18.507  95.393  1.00  0.00     0.003 C 
HETATM    7  C13 UNL     1      38.107  17.162  95.954  1.00  0.00     0.003 C 
HETATM    8  C14 UNL     1      37.523  17.186  97.352  1.00  0.00     0.041 C 
HETATM    9  N3  UNL     1      36.450  18.786  98.742  1.00  0.00    -0.208 N 
ATOM     10  H3  UNL     1      37.256  19.106  99.279  1.00  0.00     0.179 HD
HETATM   11  C15 UNL     1      35.271  18.732  99.244  1.00  0.00     0.681 A 
ENDROOT
BRANCH   1  12
HETATM   12  C8  UNL     1      33.005  17.925  98.378  1.00  0.00     0.217 C 
BRANCH  12  13
HETATM   13  C7  UNL     1      32.000  18.397  97.412  1.00  0.00     0.097 A 
HETATM   14  O2  UNL     1      31.066  17.522  96.866  1.00  0.00    -0.307 OA
HETATM   15  C3  UNL     1      30.242  18.142  96.118  1.00  0.00     0.126 A 
HETATM   16  C2  UNL     1      30.599  19.460  96.112  1.00  0.00     0.127 A 
HETATM   17  C18 UNL     1      31.698  19.613  96.917  1.00  0.00     0.101 A 
HETATM   18 CL1  UNL     1      32.539  21.156  97.041  1.00  0.00    -0.079 Cl
BRANCH  15  19
HETATM   19  C4  UNL     1      29.023  17.710  95.335  1.00  0.00     0.125 C 
BRANCH  19  20
HETATM   20  N1  UNL     1      27.869  17.825  96.100  1.00  0.00    -0.396 N 
HETATM   21  C5  UNL     1      27.530  16.663  96.850  1.00  0.00     0.148 C 
HETATM   22  C6  UNL     1      26.983  18.877  96.000  1.00  0.00     0.148 C 
ENDBRANCH  19  20
ENDBRANCH  15  19
BRANCH  16  23
HETATM   23  O1  UNL     1      30.004  20.547  95.420  1.00  0.00    -0.351 OA
HETATM   24  C1  UNL     1      30.404  20.639  94.069  1.00  0.00     0.210 C 
ENDBRANCH  16  23
ENDBRANCH  12  13
ENDBRANCH   1  12
BRANCH  11  25
HETATM   25  N4  UNL     1      34.997  18.964 100.616  1.00  0.00    -0.226 N 
HETATM   26  C16 UNL     1      34.329  20.282 100.855  1.00  0.00     0.168 C 
HETATM   27  C17 UNL     1      35.284  18.281 101.800  1.00  0.00     0.168 C 
ENDBRANCH  11  25
TORSDOF 6
ENDMDL
