MODEL 1
REMARK VINA RESULT: -5.712154670      0.000      0.000
REMARK  7 active torsions:
REMARK  status: ('A' for Active; 'I' for Inactive)
REMARK    1  A    between atoms: C2_2  and  C3_3 
REMARK    2  A    between atoms: C3_3  and  N1_4 
REMARK    3  A    between atoms: C4_9  and  C5_10 
REMARK       I    between atoms: C5_10  and  N4_12 
REMARK    4  A    between atoms: N4_12  and  N5_14 
REMARK    5  A    between atoms: C6_16  and  C7_17 
REMARK    6  A    between atoms: C7_17  and  N7_21 
REMARK    7  A    between atoms: N7_21  and  N8_23 
ROOT
HETATM    1  C5  UNL     1      31.695  -7.471  68.699  1.00  0.00     0.290 C 
HETATM    2  O1  UNL     1      31.357  -6.664  69.603  1.00  0.00    -0.264 OA
HETATM    3  N4  UNL     1      30.705  -7.931  67.797  1.00  0.00    -0.265 N 
ATOM      4  H4  UNL     1      30.974  -8.585  67.062  1.00  0.00     0.190 HD
ENDROOT
BRANCH   3   5
HETATM    5  N5  UNL     1      29.401  -7.532  67.876  1.00  0.00    -0.305 N 
HETATM    6  C6  UNL     1      28.421  -7.870  68.557  1.00  0.00     0.156 C 
ATOM      7  H5  UNL     1      29.182  -6.780  67.222  1.00  0.00     0.186 HD
BRANCH   6   8
HETATM    8  C7  UNL     1      28.406  -8.897  69.567  1.00  0.00     0.130 C 
HETATM    9  N6  UNL     1      27.883 -10.057  69.479  1.00  0.00    -0.383 N 
ATOM     10  H62 UNL     1      27.442 -10.223  68.575  1.00  0.00     0.157 HD
ATOM     11  H61 UNL     1      27.872 -10.784  70.193  1.00  0.00     0.157 HD
BRANCH   8  12
HETATM   12  N7  UNL     1      29.037  -8.659  70.857  1.00  0.00    -0.291 N 
ATOM     13  H7  UNL     1      29.458  -9.428  71.377  1.00  0.00     0.188 HD
BRANCH  12  14
HETATM   14  N8  UNL     1      29.057  -7.385  71.364  1.00  0.00    -0.344 N 
ATOM     15  H82 UNL     1      28.253  -7.041  71.891  1.00  0.00     0.176 HD
ATOM     16  H81 UNL     1      29.878  -6.801  71.206  1.00  0.00     0.176 HD
ENDBRANCH  12  14
ENDBRANCH   8  12
ENDBRANCH   6   8
ENDBRANCH   3   5
BRANCH   1  17
HETATM   17  C4  UNL     1      33.097  -7.906  68.606  1.00  0.00     0.154 A 
HETATM   18  N3  UNL     1      33.723  -8.853  69.325  1.00  0.00    -0.278 N 
HETATM   19  N2  UNL     1      34.998  -8.929  68.919  1.00  0.00    -0.239 N 
ATOM     20  H3  UNL     1      33.299  -9.420  70.059  1.00  0.00     0.189 HD
HETATM   21  N1  UNL     1      35.229  -8.068  67.960  1.00  0.00    -0.269 N 
ATOM     22  H2  UNL     1      35.692  -9.570  69.304  1.00  0.00     0.208 HD
HETATM   23  C8  UNL     1      34.055  -7.414  67.745  1.00  0.00     0.132 A 
HETATM   24 BR1  UNL     1      33.729  -6.035  66.473  1.00  0.00    -0.027 Br
BRANCH  21  25
HETATM   25  C3  UNL     1      36.461  -7.815  67.236  1.00  0.00     0.151 C 
BRANCH  25  26
HETATM   26  C2  UNL     1      37.660  -8.424  67.900  1.00  0.00     0.017 C 
HETATM   27  C1  UNL     1      38.412  -7.314  68.600  1.00  0.00     0.007 C 
ENDBRANCH  25  26
ENDBRANCH  21  25
ENDBRANCH   1  17
TORSDOF 7
ENDMDL
MODEL 2
REMARK VINA RESULT: -5.673038435      0.783      1.180
REMARK  7 active torsions:
REMARK  status: ('A' for Active; 'I' for Inactive)
REMARK    1  A    between atoms: C2_2  and  C3_3 
REMARK    2  A    between atoms: C3_3  and  N1_4 
REMARK    3  A    between atoms: C4_9  and  C5_10 
REMARK       I    between atoms: C5_10  and  N4_12 
REMARK    4  A    between atoms: N4_12  and  N5_14 
REMARK    5  A    between atoms: C6_16  and  C7_17 
REMARK    6  A    between atoms: C7_17  and  N7_21 
REMARK    7  A    between atoms: N7_21  and  N8_23 
ROOT
HETATM    1  C5  UNL     1      31.499  -7.483  68.752  1.00  0.00     0.290 C 
HETATM    2  O1  UNL     1      31.154  -6.708  69.681  1.00  0.00    -0.264 OA
HETATM    3  N4  UNL     1      30.504  -7.961  67.864  1.00  0.00    -0.265 N 
ATOM      4  H4  UNL     1      30.779  -8.589  67.109  1.00  0.00     0.190 HD
ENDROOT
BRANCH   3   5
HETATM    5  N5  UNL     1      29.189  -7.611  67.982  1.00  0.00    -0.305 N 
HETATM    6  C6  UNL     1      28.239  -7.998  68.679  1.00  0.00     0.156 C 
ATOM      7  H5  UNL     1      28.927  -6.855  67.349  1.00  0.00     0.186 HD
BRANCH   6   8
HETATM    8  C7  UNL     1      28.286  -9.043  69.668  1.00  0.00     0.130 C 
HETATM    9  N6  UNL     1      27.785 -10.213  69.577  1.00  0.00    -0.383 N 
ATOM     10  H62 UNL     1      27.313 -10.372  68.688  1.00  0.00     0.157 HD
ATOM     11  H61 UNL     1      27.818 -10.954  70.278  1.00  0.00     0.157 HD
BRANCH   8  12
HETATM   12  N7  UNL     1      28.961  -8.816  70.938  1.00  0.00    -0.291 N 
ATOM     13  H7  UNL     1      29.443  -9.579  71.411  1.00  0.00     0.188 HD
BRANCH  12  14
HETATM   14  N8  UNL     1      28.940  -7.559  71.488  1.00  0.00    -0.344 N 
ATOM     15  H82 UNL     1      28.319  -7.365  72.273  1.00  0.00     0.176 HD
ATOM     16  H81 UNL     1      29.549  -6.839  71.100  1.00  0.00     0.176 HD
ENDBRANCH  12  14
ENDBRANCH   8  12
ENDBRANCH   6   8
ENDBRANCH   3   5
BRANCH   1  17
HETATM   17  C4  UNL     1      32.912  -7.865  68.617  1.00  0.00     0.154 A 
HETATM   18  N3  UNL     1      33.594  -8.792  69.312  1.00  0.00    -0.278 N 
HETATM   19  N2  UNL     1      34.858  -8.818  68.870  1.00  0.00    -0.239 N 
ATOM     20  H3  UNL     1      33.212  -9.378  70.054  1.00  0.00     0.189 HD
HETATM   21  N1  UNL     1      35.030  -7.944  67.911  1.00  0.00    -0.269 N 
ATOM     22  H2  UNL     1      35.587  -9.434  69.231  1.00  0.00     0.208 HD
HETATM   23  C8  UNL     1      33.827  -7.333  67.732  1.00  0.00     0.132 A 
HETATM   24 BR1  UNL     1      33.414  -5.960  66.479  1.00  0.00    -0.027 Br
BRANCH  21  25
HETATM   25  C3  UNL     1      36.231  -7.641  67.154  1.00  0.00     0.151 C 
BRANCH  25  26
HETATM   26  C2  UNL     1      36.746  -8.822  66.386  1.00  0.00     0.017 C 
HETATM   27  C1  UNL     1      35.924  -8.943  65.122  1.00  0.00     0.007 C 
ENDBRANCH  25  26
ENDBRANCH  21  25
ENDBRANCH   1  17
TORSDOF 7
ENDMDL
MODEL 3
REMARK VINA RESULT: -5.528941509      4.717      7.095
REMARK  7 active torsions:
REMARK  status: ('A' for Active; 'I' for Inactive)
REMARK    1  A    between atoms: C2_2  and  C3_3 
REMARK    2  A    between atoms: C3_3  and  N1_4 
REMARK    3  A    between atoms: C4_9  and  C5_10 
REMARK       I    between atoms: C5_10  and  N4_12 
REMARK    4  A    between atoms: N4_12  and  N5_14 
REMARK    5  A    between atoms: C6_16  and  C7_17 
REMARK    6  A    between atoms: C7_17  and  N7_21 
REMARK    7  A    between atoms: N7_21  and  N8_23 
ROOT
HETATM    1  C5  UNL     1      39.181  -7.408  67.273  1.00  0.00     0.290 C 
HETATM    2  O1  UNL     1      39.707  -8.427  66.754  1.00  0.00    -0.264 OA
HETATM    3  N4  UNL     1      38.116  -7.588  68.188  1.00  0.00    -0.265 N 
ATOM      4  H4  UNL     1      37.687  -6.765  68.612  1.00  0.00     0.190 HD
ENDROOT
BRANCH   3   5
HETATM    5  N5  UNL     1      37.641  -8.823  68.526  1.00  0.00    -0.305 N 
HETATM    6  C6  UNL     1      36.514  -9.334  68.617  1.00  0.00     0.156 C 
ATOM      7  H5  UNL     1      38.388  -9.479  68.757  1.00  0.00     0.186 HD
BRANCH   6   8
HETATM    8  C7  UNL     1      35.262  -8.672  68.356  1.00  0.00     0.130 C 
HETATM    9  N6  UNL     1      34.952  -7.990  67.324  1.00  0.00    -0.383 N 
ATOM     10  H62 UNL     1      35.707  -7.942  66.641  1.00  0.00     0.157 HD
ATOM     11  H61 UNL     1      34.065  -7.521  67.139  1.00  0.00     0.157 HD
BRANCH   8  12
HETATM   12  N7  UNL     1      34.184  -8.742  69.332  1.00  0.00    -0.291 N 
ATOM     13  H7  UNL     1      34.380  -8.982  70.303  1.00  0.00     0.188 HD
BRANCH  12  14
HETATM   14  N8  UNL     1      32.900  -8.480  68.926  1.00  0.00    -0.344 N 
ATOM     15  H82 UNL     1      32.180  -9.192  69.050  1.00  0.00     0.176 HD
ATOM     16  H81 UNL     1      32.688  -7.576  68.507  1.00  0.00     0.176 HD
ENDBRANCH  12  14
ENDBRANCH   8  12
ENDBRANCH   6   8
ENDBRANCH   3   5
BRANCH   1  17
HETATM   17  C4  UNL     1      39.686  -6.074  66.915  1.00  0.00     0.154 A 
HETATM   18  N3  UNL     1      40.620  -5.341  67.545  1.00  0.00    -0.278 N 
HETATM   19  N2  UNL     1      40.778  -4.186  66.885  1.00  0.00    -0.239 N 
ATOM     20  H3  UNL     1      41.126  -5.619  68.386  1.00  0.00     0.189 HD
HETATM   21  N1  UNL     1      39.982  -4.135  65.847  1.00  0.00    -0.269 N 
ATOM     22  H2  UNL     1      41.428  -3.448  67.155  1.00  0.00     0.208 HD
HETATM   23  C8  UNL     1      39.288  -5.305  65.842  1.00  0.00     0.132 A 
HETATM   24 BR1  UNL     1      37.966  -5.847  64.582  1.00  0.00    -0.027 Br
BRANCH  21  25
HETATM   25  C3  UNL     1      39.827  -3.078  64.865  1.00  0.00     0.151 C 
BRANCH  25  26
HETATM   26  C2  UNL     1      38.660  -2.182  65.156  1.00  0.00     0.017 C 
HETATM   27  C1  UNL     1      38.348  -1.407  63.895  1.00  0.00     0.007 C 
ENDBRANCH  25  26
ENDBRANCH  21  25
ENDBRANCH   1  17
TORSDOF 7
ENDMDL
MODEL 4
REMARK VINA RESULT: -5.517757782      0.563      1.314
REMARK  7 active torsions:
REMARK  status: ('A' for Active; 'I' for Inactive)
REMARK    1  A    between atoms: C2_2  and  C3_3 
REMARK    2  A    between atoms: C3_3  and  N1_4 
REMARK    3  A    between atoms: C4_9  and  C5_10 
REMARK       I    between atoms: C5_10  and  N4_12 
REMARK    4  A    between atoms: N4_12  and  N5_14 
REMARK    5  A    between atoms: C6_16  and  C7_17 
REMARK    6  A    between atoms: C7_17  and  N7_21 
REMARK    7  A    between atoms: N7_21  and  N8_23 
ROOT
HETATM    1  C5  UNL     1      31.604  -7.516  68.651  1.00  0.00     0.290 C 
HETATM    2  O1  UNL     1      31.313  -6.405  69.164  1.00  0.00    -0.264 OA
HETATM    3  N4  UNL     1      30.559  -8.316  68.128  1.00  0.00    -0.265 N 
ATOM      4  H4  UNL     1      30.790  -9.217  67.711  1.00  0.00     0.190 HD
ENDROOT
BRANCH   3   5
HETATM    5  N5  UNL     1      29.251  -7.924  68.163  1.00  0.00    -0.305 N 
HETATM    6  C6  UNL     1      28.261  -8.232  68.845  1.00  0.00     0.156 C 
ATOM      7  H5  UNL     1      29.038  -7.212  67.464  1.00  0.00     0.186 HD
BRANCH   6   8
HETATM    8  C7  UNL     1      28.237  -9.201  69.910  1.00  0.00     0.130 C 
HETATM    9  N6  UNL     1      28.711  -9.066  71.086  1.00  0.00    -0.383 N 
ATOM     10  H62 UNL     1      29.141  -8.154  71.235  1.00  0.00     0.157 HD
ATOM     11  H61 UNL     1      28.694  -9.752  71.840  1.00  0.00     0.157 HD
BRANCH   8  12
HETATM   12  N7  UNL     1      27.622 -10.503  69.695  1.00  0.00    -0.291 N 
ATOM     13  H7  UNL     1      27.485 -10.861  68.750  1.00  0.00     0.188 HD
BRANCH  12  14
HETATM   14  N8  UNL     1      27.230 -11.243  70.782  1.00  0.00    -0.344 N 
ATOM     15  H82 UNL     1      26.255 -11.219  71.079  1.00  0.00     0.176 HD
ATOM     16  H81 UNL     1      27.923 -11.804  71.275  1.00  0.00     0.176 HD
ENDBRANCH  12  14
ENDBRANCH   8  12
ENDBRANCH   6   8
ENDBRANCH   3   5
BRANCH   1  17
HETATM   17  C4  UNL     1      33.010  -7.946  68.610  1.00  0.00     0.154 A 
HETATM   18  N3  UNL     1      33.617  -8.879  69.363  1.00  0.00    -0.278 N 
HETATM   19  N2  UNL     1      34.904  -8.955  68.998  1.00  0.00    -0.239 N 
ATOM     20  H3  UNL     1      33.172  -9.437  70.091  1.00  0.00     0.189 HD
HETATM   21  N1  UNL     1      35.162  -8.108  68.034  1.00  0.00    -0.269 N 
ATOM     22  H2  UNL     1      35.589  -9.587  69.414  1.00  0.00     0.208 HD
HETATM   23  C8  UNL     1      33.993  -7.463  67.771  1.00  0.00     0.132 A 
HETATM   24 BR1  UNL     1      33.701  -6.104  66.469  1.00  0.00    -0.027 Br
BRANCH  21  25
HETATM   25  C3  UNL     1      36.415  -7.860  67.345  1.00  0.00     0.151 C 
BRANCH  25  26
HETATM   26  C2  UNL     1      37.610  -8.299  68.139  1.00  0.00     0.017 C 
HETATM   27  C1  UNL     1      38.445  -7.072  68.431  1.00  0.00     0.007 C 
ENDBRANCH  25  26
ENDBRANCH  21  25
ENDBRANCH   1  17
TORSDOF 7
ENDMDL
MODEL 5
REMARK VINA RESULT: -5.509379534      1.278      1.714
REMARK  7 active torsions:
REMARK  status: ('A' for Active; 'I' for Inactive)
REMARK    1  A    between atoms: C2_2  and  C3_3 
REMARK    2  A    between atoms: C3_3  and  N1_4 
REMARK    3  A    between atoms: C4_9  and  C5_10 
REMARK       I    between atoms: C5_10  and  N4_12 
REMARK    4  A    between atoms: N4_12  and  N5_14 
REMARK    5  A    between atoms: C6_16  and  C7_17 
REMARK    6  A    between atoms: C7_17  and  N7_21 
REMARK    7  A    between atoms: N7_21  and  N8_23 
ROOT
HETATM    1  C5  UNL     1      31.830  -8.005  68.263  1.00  0.00     0.290 C 
HETATM    2  O1  UNL     1      30.997  -8.843  67.830  1.00  0.00    -0.264 OA
HETATM    3  N4  UNL     1      31.362  -6.728  68.658  1.00  0.00    -0.265 N 
ATOM      4  H4  UNL     1      32.033  -6.045  69.011  1.00  0.00     0.190 HD
ENDROOT
BRANCH   3   5
HETATM    5  N5  UNL     1      30.044  -6.376  68.584  1.00  0.00    -0.305 N 
HETATM    6  C6  UNL     1      29.027  -6.646  69.241  1.00  0.00     0.156 C 
ATOM      7  H5  UNL     1      29.851  -5.744  67.807  1.00  0.00     0.186 HD
BRANCH   6   8
HETATM    8  C7  UNL     1      28.969  -7.505  70.395  1.00  0.00     0.130 C 
HETATM    9  N6  UNL     1      29.034  -7.155  71.620  1.00  0.00    -0.383 N 
ATOM     10  H62 UNL     1      29.136  -6.148  71.738  1.00  0.00     0.157 HD
ATOM     11  H61 UNL     1      28.993  -7.764  72.438  1.00  0.00     0.157 HD
BRANCH   8  12
HETATM   12  N7  UNL     1      28.823  -8.944  70.226  1.00  0.00    -0.291 N 
ATOM     13  H7  UNL     1      29.038  -9.579  70.994  1.00  0.00     0.188 HD
BRANCH  12  14
HETATM   14  N8  UNL     1      28.392  -9.433  69.020  1.00  0.00    -0.344 N 
ATOM     15  H82 UNL     1      28.813  -9.086  68.158  1.00  0.00     0.176 HD
ATOM     16  H81 UNL     1      27.654 -10.136  69.006  1.00  0.00     0.176 HD
ENDBRANCH  12  14
ENDBRANCH   8  12
ENDBRANCH   6   8
ENDBRANCH   3   5
BRANCH   1  17
HETATM   17  C4  UNL     1      33.250  -8.375  68.347  1.00  0.00     0.154 A 
HETATM   18  N3  UNL     1      33.941  -8.786  69.424  1.00  0.00    -0.278 N 
HETATM   19  N2  UNL     1      35.210  -9.017  69.059  1.00  0.00    -0.239 N 
ATOM     20  H3  UNL     1      33.563  -8.902  70.364  1.00  0.00     0.189 HD
HETATM   21  N1  UNL     1      35.374  -8.774  67.783  1.00  0.00    -0.269 N 
ATOM     22  H2  UNL     1      35.945  -9.339  69.688  1.00  0.00     0.208 HD
HETATM   23  C8  UNL     1      34.163  -8.370  67.313  1.00  0.00     0.132 A 
HETATM   24 BR1  UNL     1      33.737  -7.868  65.526  1.00  0.00    -0.027 Br
BRANCH  21  25
HETATM   25  C3  UNL     1      36.576  -8.892  66.977  1.00  0.00     0.151 C 
BRANCH  25  26
HETATM   26  C2  UNL     1      37.800  -8.392  67.685  1.00  0.00     0.017 C 
HETATM   27  C1  UNL     1      37.805  -6.882  67.583  1.00  0.00     0.007 C 
ENDBRANCH  25  26
ENDBRANCH  21  25
ENDBRANCH   1  17
TORSDOF 7
ENDMDL
