MODEL 1
REMARK VINA RESULT: -6.550476299      0.000      0.000
REMARK  7 active torsions:
REMARK  status: ('A' for Active; 'I' for Inactive)
REMARK       I    between atoms: N1_2  and  C2_4 
REMARK    1  A    between atoms: C2_4  and  C3_6 
REMARK    2  A    between atoms: C4_12  and  N5_13 
REMARK    3  A    between atoms: N5_13  and  C5_15 
REMARK    4  A    between atoms: C5_15  and  C6_16 
REMARK    5  A    between atoms: C6_16  and  N6_17 
REMARK    6  A    between atoms: C11_23  and  N7_24 
REMARK    7  A    between atoms: N7_24  and  N8_26 
ROOT
HETATM    1  C3  UNL     1      31.658  -8.357  68.237  1.00  0.00     0.192 A 
HETATM    2  N2  UNL     1      32.803  -8.376  68.946  1.00  0.00    -0.259 N 
ATOM      3  H2  UNL     1      32.746  -8.248  69.956  1.00  0.00     0.191 HD
HETATM    4  N3  UNL     1      34.005  -8.552  68.403  1.00  0.00    -0.188 N 
HETATM    5  N4  UNL     1      35.198  -8.595  68.939  1.00  0.00    -0.262 N 
ATOM      6  H4  UNL     1      35.411  -8.494  69.931  1.00  0.00     0.191 HD
HETATM    7  C4  UNL     1      36.118  -8.801  67.932  1.00  0.00     0.142 A 
HETATM    8  C9  UNL     1      35.424  -8.884  66.740  1.00  0.00     0.113 A 
HETATM    9 CL1  UNL     1      36.064  -9.138  65.127  1.00  0.00    -0.077 Cl
HETATM   10  C10 UNL     1      34.081  -8.720  67.074  1.00  0.00     0.145 A 
HETATM   11  C11 UNL     1      32.956  -8.712  66.306  1.00  0.00     0.154 A 
HETATM   12  N9  UNL     1      31.759  -8.532  66.885  1.00  0.00    -0.320 N 
ATOM     13  H9  UNL     1      30.916  -8.526  66.310  1.00  0.00     0.169 HD
ENDROOT
BRANCH   7  14
HETATM   14  N5  UNL     1      37.354  -8.880  68.177  1.00  0.00    -0.372 N 
ATOM     15  H5  UNL     1      37.625  -9.682  68.746  1.00  0.00     0.161 HD
BRANCH  14  16
HETATM   16  C5  UNL     1      38.418  -8.043  67.793  1.00  0.00     0.151 C 
BRANCH  16  17
HETATM   17  C6  UNL     1      38.663  -6.951  68.839  1.00  0.00     0.290 C 
BRANCH  17  18
HETATM   18  N6  UNL     1      38.666  -5.634  68.287  1.00  0.00     0.081 N 
HETATM   19  C7  UNL     1      37.549  -5.337  67.443  1.00  0.00     0.309 C 
HETATM   20  C8  UNL     1      38.981  -4.609  69.233  1.00  0.00     0.309 C 
ENDBRANCH  17  18
ENDBRANCH  16  17
ENDBRANCH  14  16
ENDBRANCH   7  14
BRANCH  11  21
HETATM   21  N7  UNL     1      33.000  -8.875  65.012  1.00  0.00    -0.290 N 
ATOM     22  H7  UNL     1      33.853  -9.226  64.578  1.00  0.00     0.188 HD
BRANCH  21  23
HETATM   23  N8  UNL     1      31.895  -8.576  64.218  1.00  0.00    -0.344 N 
ATOM     24  H82 UNL     1      31.048  -9.134  64.328  1.00  0.00     0.176 HD
ATOM     25  H81 UNL     1      31.930  -7.815  63.540  1.00  0.00     0.176 HD
ENDBRANCH  21  23
ENDBRANCH  11  21
BRANCH   1  26
HETATM   26  C2  UNL     1      30.354  -8.164  68.855  1.00  0.00     0.286 C 
HETATM   27  N1  UNL     1      30.123  -7.124  69.771  1.00  0.00    -0.359 N 
HETATM   28  C1  UNL     1      28.837  -6.910  70.391  1.00  0.00     0.149 C 
ATOM     29  H1  UNL     1      30.893  -6.497  70.006  1.00  0.00     0.162 HD
HETATM   30  O1  UNL     1      29.421  -8.946  68.557  1.00  0.00    -0.264 OA
ENDBRANCH   1  26
TORSDOF 7
ENDMDL
MODEL 2
REMARK VINA RESULT: -6.237422991      1.465      1.804
REMARK  7 active torsions:
REMARK  status: ('A' for Active; 'I' for Inactive)
REMARK       I    between atoms: N1_2  and  C2_4 
REMARK    1  A    between atoms: C2_4  and  C3_6 
REMARK    2  A    between atoms: C4_12  and  N5_13 
REMARK    3  A    between atoms: N5_13  and  C5_15 
REMARK    4  A    between atoms: C5_15  and  C6_16 
REMARK    5  A    between atoms: C6_16  and  N6_17 
REMARK    6  A    between atoms: C11_23  and  N7_24 
REMARK    7  A    between atoms: N7_24  and  N8_26 
ROOT
HETATM    1  C3  UNL     1      30.583  -7.498  68.211  1.00  0.00     0.192 A 
HETATM    2  N2  UNL     1      31.553  -7.883  69.064  1.00  0.00    -0.259 N 
ATOM      3  H2  UNL     1      31.325  -7.940  70.056  1.00  0.00     0.191 HD
HETATM    4  N3  UNL     1      32.790  -8.192  68.685  1.00  0.00    -0.188 N 
HETATM    5  N4  UNL     1      33.834  -8.577  69.373  1.00  0.00    -0.262 N 
ATOM      6  H4  UNL     1      33.867  -8.712  70.384  1.00  0.00     0.191 HD
HETATM    7  C4  UNL     1      34.882  -8.770  68.498  1.00  0.00     0.142 A 
HETATM    8  C9  UNL     1      34.426  -8.482  67.226  1.00  0.00     0.113 A 
HETATM    9 CL1  UNL     1      35.312  -8.550  65.714  1.00  0.00    -0.077 Cl
HETATM   10  C10 UNL     1      33.090  -8.117  67.380  1.00  0.00     0.145 A 
HETATM   11  C11 UNL     1      32.150  -7.735  66.470  1.00  0.00     0.154 A 
HETATM   12  N9  UNL     1      30.911  -7.430  66.885  1.00  0.00    -0.320 N 
ATOM     13  H9  UNL     1      30.207  -7.145  66.205  1.00  0.00     0.169 HD
ENDROOT
BRANCH   7  14
HETATM   14  N5  UNL     1      36.018  -9.142  68.905  1.00  0.00    -0.372 N 
ATOM     15  H5  UNL     1      36.015  -9.608  69.812  1.00  0.00     0.161 HD
BRANCH  14  16
HETATM   16  C5  UNL     1      37.288  -9.020  68.311  1.00  0.00     0.151 C 
BRANCH  16  17
HETATM   17  C6  UNL     1      37.927  -7.670  68.654  1.00  0.00     0.290 C 
BRANCH  17  18
HETATM   18  N6  UNL     1      38.641  -7.092  67.560  1.00  0.00     0.081 N 
HETATM   19  C7  UNL     1      39.655  -6.155  67.937  1.00  0.00     0.309 C 
HETATM   20  C8  UNL     1      39.049  -8.038  66.569  1.00  0.00     0.309 C 
ENDBRANCH  17  18
ENDBRANCH  16  17
ENDBRANCH  14  16
ENDBRANCH   7  14
BRANCH  11  21
HETATM   21  N7  UNL     1      32.413  -7.655  65.195  1.00  0.00    -0.290 N 
ATOM     22  H7  UNL     1      33.167  -7.049  64.873  1.00  0.00     0.188 HD
BRANCH  21  23
HETATM   23  N8  UNL     1      31.676  -8.389  64.267  1.00  0.00    -0.344 N 
ATOM     24  H82 UNL     1      31.684  -9.406  64.332  1.00  0.00     0.176 HD
ATOM     25  H81 UNL     1      31.139  -7.919  63.538  1.00  0.00     0.176 HD
ENDBRANCH  21  23
ENDBRANCH  11  21
BRANCH   1  26
HETATM   26  C2  UNL     1      29.235  -7.166  68.650  1.00  0.00     0.286 C 
HETATM   27  N1  UNL     1      28.411  -8.119  69.271  1.00  0.00    -0.359 N 
HETATM   28  C1  UNL     1      27.074  -7.811  69.719  1.00  0.00     0.149 C 
ATOM     29  H1  UNL     1      28.771  -9.064  69.411  1.00  0.00     0.162 HD
HETATM   30  O1  UNL     1      28.809  -6.003  68.466  1.00  0.00    -0.264 OA
ENDBRANCH   1  26
TORSDOF 7
ENDMDL
MODEL 3
REMARK VINA RESULT: -6.090840232      5.935      7.660
REMARK  7 active torsions:
REMARK  status: ('A' for Active; 'I' for Inactive)
REMARK       I    between atoms: N1_2  and  C2_4 
REMARK    1  A    between atoms: C2_4  and  C3_6 
REMARK    2  A    between atoms: C4_12  and  N5_13 
REMARK    3  A    between atoms: N5_13  and  C5_15 
REMARK    4  A    between atoms: C5_15  and  C6_16 
REMARK    5  A    between atoms: C6_16  and  N6_17 
REMARK    6  A    between atoms: C11_23  and  N7_24 
REMARK    7  A    between atoms: N7_24  and  N8_26 
ROOT
HETATM    1  C3  UNL     1      38.893  -4.190  68.135  1.00  0.00     0.192 A 
HETATM    2  N2  UNL     1      39.701  -3.950  67.084  1.00  0.00    -0.259 N 
ATOM      3  H2  UNL     1      39.908  -2.979  66.849  1.00  0.00     0.191 HD
HETATM    4  N3  UNL     1      40.243  -4.907  66.336  1.00  0.00    -0.188 N 
HETATM    5  N4  UNL     1      41.036  -4.846  65.296  1.00  0.00    -0.262 N 
ATOM      6  H4  UNL     1      41.390  -3.992  64.864  1.00  0.00     0.191 HD
HETATM    7  C4  UNL     1      41.311  -6.133  64.886  1.00  0.00     0.142 A 
HETATM    8  C9  UNL     1      40.642  -6.996  65.733  1.00  0.00     0.113 A 
HETATM    9 CL1  UNL     1      40.617  -8.749  65.698  1.00  0.00    -0.077 Cl
HETATM   10  C10 UNL     1      39.971  -6.183  66.644  1.00  0.00     0.145 A 
HETATM   11  C11 UNL     1      39.161  -6.488  67.697  1.00  0.00     0.154 A 
HETATM   12  N9  UNL     1      38.630  -5.499  68.432  1.00  0.00    -0.320 N 
ATOM     13  H9  UNL     1      38.024  -5.726  69.221  1.00  0.00     0.169 HD
ENDROOT
BRANCH   7  14
HETATM   14  N5  UNL     1      42.056  -6.362  63.892  1.00  0.00    -0.372 N 
ATOM     15  H5  UNL     1      42.943  -5.858  63.900  1.00  0.00     0.161 HD
BRANCH  14  16
HETATM   16  C5  UNL     1      41.863  -7.197  62.777  1.00  0.00     0.151 C 
BRANCH  16  17
HETATM   17  C6  UNL     1      40.497  -6.945  62.131  1.00  0.00     0.290 C 
BRANCH  17  18
HETATM   18  N6  UNL     1      39.690  -8.120  62.044  1.00  0.00     0.081 N 
HETATM   19  C7  UNL     1      40.412  -9.351  62.166  1.00  0.00     0.309 C 
HETATM   20  C8  UNL     1      38.491  -8.059  62.819  1.00  0.00     0.309 C 
ENDBRANCH  17  18
ENDBRANCH  16  17
ENDBRANCH  14  16
ENDBRANCH   7  14
BRANCH  11  21
HETATM   21  N7  UNL     1      38.881  -7.720  68.021  1.00  0.00    -0.290 N 
ATOM     22  H7  UNL     1      39.242  -8.485  67.452  1.00  0.00     0.188 HD
BRANCH  21  23
HETATM   23  N8  UNL     1      38.094  -8.002  69.136  1.00  0.00    -0.344 N 
ATOM     24  H82 UNL     1      37.165  -7.585  69.197  1.00  0.00     0.176 HD
ATOM     25  H81 UNL     1      38.438  -8.614  69.876  1.00  0.00     0.176 HD
ENDBRANCH  21  23
ENDBRANCH  11  21
BRANCH   1  26
HETATM   26  C2  UNL     1      38.311  -3.126  68.940  1.00  0.00     0.286 C 
HETATM   27  N1  UNL     1      37.832  -1.942  68.354  1.00  0.00    -0.359 N 
HETATM   28  C1  UNL     1      37.247  -0.876  69.132  1.00  0.00     0.149 C 
ATOM     29  H1  UNL     1      37.900  -1.832  67.342  1.00  0.00     0.162 HD
HETATM   30  O1  UNL     1      38.239  -3.277  70.181  1.00  0.00    -0.264 OA
ENDBRANCH   1  26
TORSDOF 7
ENDMDL
MODEL 4
REMARK VINA RESULT: -5.903914052      4.910      7.719
REMARK  7 active torsions:
REMARK  status: ('A' for Active; 'I' for Inactive)
REMARK       I    between atoms: N1_2  and  C2_4 
REMARK    1  A    between atoms: C2_4  and  C3_6 
REMARK    2  A    between atoms: C4_12  and  N5_13 
REMARK    3  A    between atoms: N5_13  and  C5_15 
REMARK    4  A    between atoms: C5_15  and  C6_16 
REMARK    5  A    between atoms: C6_16  and  N6_17 
REMARK    6  A    between atoms: C11_23  and  N7_24 
REMARK    7  A    between atoms: N7_24  and  N8_26 
ROOT
HETATM    1  C3  UNL     1      38.854  -3.964  67.595  1.00  0.00     0.192 A 
HETATM    2  N2  UNL     1      38.043  -4.559  66.699  1.00  0.00    -0.259 N 
ATOM      3  H2  UNL     1      37.043  -4.364  66.752  1.00  0.00     0.191 HD
HETATM    4  N3  UNL     1      38.472  -5.385  65.749  1.00  0.00    -0.188 N 
HETATM    5  N4  UNL     1      37.828  -6.036  64.814  1.00  0.00    -0.262 N 
ATOM      6  H4  UNL     1      36.821  -6.011  64.654  1.00  0.00     0.191 HD
HETATM    7  C4  UNL     1      38.744  -6.762  64.082  1.00  0.00     0.142 A 
HETATM    8  C9  UNL     1      39.995  -6.522  64.618  1.00  0.00     0.113 A 
HETATM    9 CL1  UNL     1      41.540  -7.171  64.102  1.00  0.00    -0.077 Cl
HETATM   10  C10 UNL     1      39.787  -5.641  65.678  1.00  0.00     0.145 A 
HETATM   11  C11 UNL     1      40.656  -5.068  66.557  1.00  0.00     0.154 A 
HETATM   12  N9  UNL     1      40.190  -4.239  67.504  1.00  0.00    -0.320 N 
ATOM     13  H9  UNL     1      40.841  -3.809  68.162  1.00  0.00     0.169 HD
ENDROOT
BRANCH   7  14
HETATM   14  N5  UNL     1      38.385  -7.489  63.114  1.00  0.00    -0.372 N 
ATOM     15  H5  UNL     1      39.105  -7.645  62.408  1.00  0.00     0.161 HD
BRANCH  14  16
HETATM   16  C5  UNL     1      37.155  -8.117  62.848  1.00  0.00     0.151 C 
BRANCH  16  17
HETATM   17  C6  UNL     1      36.957  -9.341  63.747  1.00  0.00     0.290 C 
BRANCH  17  18
HETATM   18  N6  UNL     1      35.910  -9.174  64.703  1.00  0.00     0.081 N 
HETATM   19  C7  UNL     1      36.355  -8.983  66.050  1.00  0.00     0.309 C 
HETATM   20  C8  UNL     1      34.883  -8.271  64.287  1.00  0.00     0.309 C 
ENDBRANCH  17  18
ENDBRANCH  16  17
ENDBRANCH  14  16
ENDBRANCH   7  14
BRANCH  11  21
HETATM   21  N7  UNL     1      41.939  -5.298  66.511  1.00  0.00    -0.290 N 
ATOM     22  H7  UNL     1      42.433  -5.219  65.623  1.00  0.00     0.188 HD
BRANCH  21  23
HETATM   23  N8  UNL     1      42.643  -5.649  67.662  1.00  0.00    -0.344 N 
ATOM     24  H82 UNL     1      42.367  -6.493  68.164  1.00  0.00     0.176 HD
ATOM     25  H81 UNL     1      43.417  -5.075  67.995  1.00  0.00     0.176 HD
ENDBRANCH  21  23
ENDBRANCH  11  21
BRANCH   1  26
HETATM   26  C2  UNL     1      38.361  -3.063  68.626  1.00  0.00     0.286 C 
HETATM   27  N1  UNL     1      37.804  -1.813  68.302  1.00  0.00    -0.359 N 
HETATM   28  C1  UNL     1      37.305  -0.906  69.307  1.00  0.00     0.149 C 
ATOM     29  H1  UNL     1      37.752  -1.539  67.321  1.00  0.00     0.162 HD
HETATM   30  O1  UNL     1      38.437  -3.415  69.826  1.00  0.00    -0.264 OA
ENDBRANCH   1  26
TORSDOF 7
ENDMDL
MODEL 5
REMARK VINA RESULT: -5.836811588      2.133      3.561
REMARK  7 active torsions:
REMARK  status: ('A' for Active; 'I' for Inactive)
REMARK       I    between atoms: N1_2  and  C2_4 
REMARK    1  A    between atoms: C2_4  and  C3_6 
REMARK    2  A    between atoms: C4_12  and  N5_13 
REMARK    3  A    between atoms: N5_13  and  C5_15 
REMARK    4  A    between atoms: C5_15  and  C6_16 
REMARK    5  A    between atoms: C6_16  and  N6_17 
REMARK    6  A    between atoms: C11_23  and  N7_24 
REMARK    7  A    between atoms: N7_24  and  N8_26 
ROOT
HETATM    1  C3  UNL     1      33.422  -8.030  67.867  1.00  0.00     0.192 A 
HETATM    2  N2  UNL     1      33.821  -6.992  67.107  1.00  0.00    -0.259 N 
ATOM      3  H2  UNL     1      33.108  -6.458  66.610  1.00  0.00     0.191 HD
HETATM    4  N3  UNL     1      35.091  -6.623  66.967  1.00  0.00    -0.188 N 
HETATM    5  N4  UNL     1      35.640  -5.655  66.278  1.00  0.00    -0.262 N 
ATOM      6  H4  UNL     1      35.143  -4.980  65.697  1.00  0.00     0.191 HD
HETATM    7  C4  UNL     1      37.004  -5.705  66.473  1.00  0.00     0.142 A 
HETATM    8  C9  UNL     1      37.269  -6.760  67.325  1.00  0.00     0.113 A 
HETATM    9 CL1  UNL     1      38.823  -7.305  67.927  1.00  0.00    -0.077 Cl
HETATM   10  C10 UNL     1      36.030  -7.324  67.620  1.00  0.00     0.145 A 
HETATM   11  C11 UNL     1      35.687  -8.384  68.405  1.00  0.00     0.154 A 
HETATM   12  N9  UNL     1      34.396  -8.730  68.525  1.00  0.00    -0.320 N 
ATOM     13  H9  UNL     1      34.138  -9.523  69.113  1.00  0.00     0.169 HD
ENDROOT
BRANCH   7  14
HETATM   14  N5  UNL     1      37.779  -4.878  65.915  1.00  0.00    -0.372 N 
ATOM     15  H5  UNL     1      37.737  -4.876  64.896  1.00  0.00     0.161 HD
BRANCH  14  16
HETATM   16  C5  UNL     1      38.689  -3.960  66.469  1.00  0.00     0.151 C 
BRANCH  16  17
HETATM   17  C6  UNL     1      37.960  -2.877  67.270  1.00  0.00     0.290 C 
BRANCH  17  18
HETATM   18  N6  UNL     1      38.495  -2.692  68.582  1.00  0.00     0.081 N 
HETATM   19  C7  UNL     1      37.760  -1.779  69.403  1.00  0.00     0.309 C 
HETATM   20  C8  UNL     1      38.863  -3.909  69.235  1.00  0.00     0.309 C 
ENDBRANCH  17  18
ENDBRANCH  16  17
ENDBRANCH  14  16
ENDBRANCH   7  14
BRANCH  11  21
HETATM   21  N7  UNL     1      36.578  -9.082  69.053  1.00  0.00    -0.290 N 
ATOM     22  H7  UNL     1      36.892  -8.771  69.972  1.00  0.00     0.188 HD
BRANCH  21  23
HETATM   23  N8  UNL     1      37.105 -10.251  68.505  1.00  0.00    -0.344 N 
ATOM     24  H82 UNL     1      37.808 -10.172  67.771  1.00  0.00     0.176 HD
ATOM     25  H81 UNL     1      36.795 -11.166  68.831  1.00  0.00     0.176 HD
ENDBRANCH  21  23
ENDBRANCH  11  21
BRANCH   1  26
HETATM   26  C2  UNL     1      32.025  -8.414  68.006  1.00  0.00     0.286 C 
HETATM   27  N1  UNL     1      31.159  -7.728  68.874  1.00  0.00    -0.359 N 
HETATM   28  C1  UNL     1      29.769  -8.088  69.023  1.00  0.00     0.149 C 
ATOM     29  H1  UNL     1      31.526  -6.948  69.419  1.00  0.00     0.162 HD
HETATM   30  O1  UNL     1      31.593  -9.377  67.331  1.00  0.00    -0.264 OA
ENDBRANCH   1  26
TORSDOF 7
ENDMDL
