MODEL 1
REMARK VINA RESULT: -6.613609360      0.000      0.000
REMARK  8 active torsions:
REMARK  status: ('A' for Active; 'I' for Inactive)
REMARK    1  A    between atoms: N2_3  and  C2_5 
REMARK    2  A    between atoms: C2_5  and  N3_6 
REMARK    3  A    between atoms: C2_5  and  C7_20 
REMARK    4  A    between atoms: N3_6  and  N4_8 
REMARK    5  A    between atoms: N4_8  and  C3_10 
REMARK    6  A    between atoms: C7_20  and  N8_21 
REMARK    7  A    between atoms: C7_20  and  C8_25 
REMARK    8  A    between atoms: C8_25  and  S1_26 
ROOT
HETATM    1  N1  UNL     1      31.268  -4.262  68.132  1.00  0.00    -0.172 NA
HETATM    2  C1  UNL     1      31.412  -5.290  68.658  1.00  0.00     0.183 C 
HETATM    3  N2  UNL     1      31.585  -6.547  69.278  1.00  0.00    -0.280 N 
ATOM      4  H2  UNL     1      31.685  -6.577  70.293  1.00  0.00     0.179 HD
ENDROOT
BRANCH   3   5
HETATM    5  C2  UNL     1      31.627  -7.758  68.569  1.00  0.00     0.136 C 
BRANCH   5   6
HETATM    6  N3  UNL     1      30.560  -8.405  68.325  1.00  0.00    -0.285 N 
ATOM      7  H3  UNL     1      30.652  -9.294  67.833  1.00  0.00     0.188 HD
BRANCH   6   8
HETATM    8  N4  UNL     1      29.279  -7.998  68.675  1.00  0.00    -0.282 N 
ATOM      9  H4  UNL     1      28.770  -7.318  68.111  1.00  0.00     0.188 HD
BRANCH   8  10
HETATM   10  C3  UNL     1      28.756  -8.510  69.738  1.00  0.00     0.148 A 
HETATM   11  N5  UNL     1      28.807  -7.883  70.946  1.00  0.00    -0.336 N 
HETATM   12  C4  UNL     1      28.257  -8.429  72.042  1.00  0.00     0.183 A 
ATOM     13  H5  UNL     1      29.274  -6.979  71.019  1.00  0.00     0.168 HD
HETATM   14  N6  UNL     1      27.642  -9.617  71.951  1.00  0.00    -0.341 N 
HETATM   15  C5  UNL     1      27.547 -10.301  70.798  1.00  0.00     0.132 A 
ATOM     16  H6  UNL     1      27.229 -10.019  72.794  1.00  0.00     0.167 HD
HETATM   17 CL1  UNL     1      26.747 -11.854  70.670  1.00  0.00    -0.062 Cl
HETATM   18  C6  UNL     1      28.116  -9.734  69.671  1.00  0.00     0.130 A 
HETATM   19  N7  UNL     1      28.050 -10.409  68.417  1.00  0.00    -0.095 NA
ENDBRANCH   8  10
ENDBRANCH   6   8
ENDBRANCH   5   6
BRANCH   5  20
HETATM   20  C7  UNL     1      32.931  -8.283  68.102  1.00  0.00     0.263 C 
BRANCH  20  21
HETATM   21  N8  UNL     1      33.563  -8.896  69.248  1.00  0.00    -0.067 N 
ATOM     22  H83 UNL     1      32.925  -9.466  69.805  1.00  0.00     0.275 HD
ATOM     23  H82 UNL     1      34.214  -9.640  68.999  1.00  0.00     0.275 HD
ATOM     24  H81 UNL     1      33.997  -8.141  69.779  1.00  0.00     0.275 HD
ENDBRANCH  20  21
BRANCH  20  25
HETATM   25  C8  UNL     1      32.770  -9.184  66.927  1.00  0.00     0.132 C 
BRANCH  25  26
HETATM   26  S1  UNL     1      32.611  -8.333  65.424  1.00  0.00    -0.085 SA
HETATM   27  C9  UNL     1      32.982  -6.634  65.416  1.00  0.00     0.119 C 
HETATM   28  C10 UNL     1      31.775  -6.618  64.464  1.00  0.00     0.195 C 
HETATM   29  O1  UNL     1      31.115  -7.619  65.185  1.00  0.00    -0.331 OA
ENDBRANCH  25  26
ENDBRANCH  20  25
ENDBRANCH   5  20
ENDBRANCH   3   5
TORSDOF 8
ENDMDL
MODEL 2
REMARK VINA RESULT: -6.563676507      1.067      1.725
REMARK  8 active torsions:
REMARK  status: ('A' for Active; 'I' for Inactive)
REMARK    1  A    between atoms: N2_3  and  C2_5 
REMARK    2  A    between atoms: C2_5  and  N3_6 
REMARK    3  A    between atoms: C2_5  and  C7_20 
REMARK    4  A    between atoms: N3_6  and  N4_8 
REMARK    5  A    between atoms: N4_8  and  C3_10 
REMARK    6  A    between atoms: C7_20  and  N8_21 
REMARK    7  A    between atoms: C7_20  and  C8_25 
REMARK    8  A    between atoms: C8_25  and  S1_26 
ROOT
HETATM    1  N1  UNL     1      31.268  -4.265  68.182  1.00  0.00    -0.172 NA
HETATM    2  C1  UNL     1      31.353  -5.316  68.674  1.00  0.00     0.183 C 
HETATM    3  N2  UNL     1      31.457  -6.601  69.252  1.00  0.00    -0.280 N 
ATOM      4  H2  UNL     1      31.427  -6.678  70.269  1.00  0.00     0.179 HD
ENDROOT
BRANCH   3   5
HETATM    5  C2  UNL     1      31.597  -7.777  68.499  1.00  0.00     0.136 C 
BRANCH   5   6
HETATM    6  N3  UNL     1      30.579  -8.464  68.170  1.00  0.00    -0.285 N 
ATOM      7  H3  UNL     1      30.743  -9.329  67.655  1.00  0.00     0.188 HD
BRANCH   6   8
HETATM    8  N4  UNL     1      29.263  -8.130  68.455  1.00  0.00    -0.282 N 
ATOM      9  H4  UNL     1      28.810  -7.336  68.002  1.00  0.00     0.188 HD
BRANCH   8  10
HETATM   10  C3  UNL     1      28.631  -8.858  69.313  1.00  0.00     0.148 A 
HETATM   11  N5  UNL     1      28.052 -10.043  68.973  1.00  0.00    -0.336 N 
HETATM   12  C4  UNL     1      27.400 -10.789  69.879  1.00  0.00     0.183 A 
ATOM     13  H5  UNL     1      28.114 -10.370  68.009  1.00  0.00     0.168 HD
HETATM   14  N6  UNL     1      27.314 -10.364  71.147  1.00  0.00    -0.341 N 
HETATM   15  C5  UNL     1      27.858  -9.208  71.566  1.00  0.00     0.132 A 
ATOM     16  H6  UNL     1      26.814 -10.943  71.823  1.00  0.00     0.167 HD
HETATM   17 CL1  UNL     1      27.750  -8.645  73.220  1.00  0.00    -0.062 Cl
HETATM   18  C6  UNL     1      28.529  -8.442  70.628  1.00  0.00     0.130 A 
HETATM   19  N7  UNL     1      29.128  -7.206  71.008  1.00  0.00    -0.095 NA
ENDBRANCH   8  10
ENDBRANCH   6   8
ENDBRANCH   5   6
BRANCH   5  20
HETATM   20  C7  UNL     1      32.950  -8.219  68.086  1.00  0.00     0.263 C 
BRANCH  20  21
HETATM   21  N8  UNL     1      33.574  -8.788  69.258  1.00  0.00    -0.067 N 
ATOM     22  H83 UNL     1      33.234  -9.724  69.482  1.00  0.00     0.275 HD
ATOM     23  H82 UNL     1      34.552  -9.040  69.112  1.00  0.00     0.275 HD
ATOM     24  H81 UNL     1      33.439  -8.118  70.015  1.00  0.00     0.275 HD
ENDBRANCH  20  21
BRANCH  20  25
HETATM   25  C8  UNL     1      32.893  -9.130  66.909  1.00  0.00     0.132 C 
BRANCH  25  26
HETATM   26  S1  UNL     1      32.705  -8.293  65.400  1.00  0.00    -0.085 SA
HETATM   27  C9  UNL     1      32.937  -6.570  65.399  1.00  0.00     0.119 C 
HETATM   28  C10 UNL     1      31.758  -6.652  64.416  1.00  0.00     0.195 C 
HETATM   29  O1  UNL     1      31.163  -7.703  65.121  1.00  0.00    -0.331 OA
ENDBRANCH  25  26
ENDBRANCH  20  25
ENDBRANCH   5  20
ENDBRANCH   3   5
TORSDOF 8
ENDMDL
MODEL 3
REMARK VINA RESULT: -6.504055740      2.085      2.540
REMARK  8 active torsions:
REMARK  status: ('A' for Active; 'I' for Inactive)
REMARK    1  A    between atoms: N2_3  and  C2_5 
REMARK    2  A    between atoms: C2_5  and  N3_6 
REMARK    3  A    between atoms: C2_5  and  C7_20 
REMARK    4  A    between atoms: N3_6  and  N4_8 
REMARK    5  A    between atoms: N4_8  and  C3_10 
REMARK    6  A    between atoms: C7_20  and  N8_21 
REMARK    7  A    between atoms: C7_20  and  C8_25 
REMARK    8  A    between atoms: C8_25  and  S1_26 
ROOT
HETATM    1  N1  UNL     1      30.201  -4.979  70.788  1.00  0.00    -0.172 NA
HETATM    2  C1  UNL     1      30.755  -5.317  69.822  1.00  0.00     0.183 C 
HETATM    3  N2  UNL     1      31.423  -5.746  68.653  1.00  0.00    -0.280 N 
ATOM      4  H2  UNL     1      31.910  -5.050  68.090  1.00  0.00     0.179 HD
ENDROOT
BRANCH   3   5
HETATM    5  C2  UNL     1      31.449  -7.083  68.227  1.00  0.00     0.136 C 
BRANCH   5   6
HETATM    6  N3  UNL     1      30.861  -7.990  68.896  1.00  0.00    -0.285 N 
ATOM      7  H3  UNL     1      31.394  -8.451  69.633  1.00  0.00     0.188 HD
BRANCH   6   8
HETATM    8  N4  UNL     1      29.550  -8.404  68.703  1.00  0.00    -0.282 N 
ATOM      9  H4  UNL     1      29.140  -8.440  67.769  1.00  0.00     0.188 HD
BRANCH   8  10
HETATM   10  C3  UNL     1      28.867  -8.741  69.745  1.00  0.00     0.148 A 
HETATM   11  N5  UNL     1      28.931  -8.041  70.911  1.00  0.00    -0.336 N 
HETATM   12  C4  UNL     1      28.212  -8.405  71.986  1.00  0.00     0.183 A 
ATOM     13  H5  UNL     1      29.537  -7.223  70.970  1.00  0.00     0.168 HD
HETATM   14  N6  UNL     1      27.414  -9.479  71.915  1.00  0.00    -0.341 N 
HETATM   15  C5  UNL     1      27.294 -10.224  70.802  1.00  0.00     0.132 A 
ATOM     16  H6  UNL     1      26.875  -9.743  72.741  1.00  0.00     0.167 HD
HETATM   17 CL1  UNL     1      26.253 -11.629  70.701  1.00  0.00    -0.062 Cl
HETATM   18  C6  UNL     1      28.035  -9.845  69.697  1.00  0.00     0.130 A 
HETATM   19  N7  UNL     1      27.953 -10.593  68.487  1.00  0.00    -0.095 NA
ENDBRANCH   8  10
ENDBRANCH   6   8
ENDBRANCH   5   6
BRANCH   5  20
HETATM   20  C7  UNL     1      32.173  -7.436  66.983  1.00  0.00     0.263 C 
BRANCH  20  21
HETATM   21  N8  UNL     1      32.868  -6.244  66.557  1.00  0.00    -0.067 N 
ATOM     22  H83 UNL     1      33.435  -5.822  67.294  1.00  0.00     0.275 HD
ATOM     23  H82 UNL     1      33.628  -6.432  65.904  1.00  0.00     0.275 HD
ATOM     24  H81 UNL     1      32.160  -5.612  66.182  1.00  0.00     0.275 HD
ENDBRANCH  20  21
BRANCH  20  25
HETATM   25  C8  UNL     1      33.046  -8.628  67.177  1.00  0.00     0.132 C 
BRANCH  25  26
HETATM   26  S1  UNL     1      34.570  -8.251  67.917  1.00  0.00    -0.085 SA
HETATM   27  C9  UNL     1      36.015  -8.708  67.066  1.00  0.00     0.119 C 
HETATM   28  C10 UNL     1      36.472  -9.027  68.498  1.00  0.00     0.195 C 
HETATM   29  O1  UNL     1      35.200  -9.475  68.870  1.00  0.00    -0.331 OA
ENDBRANCH  25  26
ENDBRANCH  20  25
ENDBRANCH   5  20
ENDBRANCH   3   5
TORSDOF 8
ENDMDL
MODEL 4
REMARK VINA RESULT: -6.497260097      2.441      3.114
REMARK  8 active torsions:
REMARK  status: ('A' for Active; 'I' for Inactive)
REMARK    1  A    between atoms: N2_3  and  C2_5 
REMARK    2  A    between atoms: C2_5  and  N3_6 
REMARK    3  A    between atoms: C2_5  and  C7_20 
REMARK    4  A    between atoms: N3_6  and  N4_8 
REMARK    5  A    between atoms: N4_8  and  C3_10 
REMARK    6  A    between atoms: C7_20  and  N8_21 
REMARK    7  A    between atoms: C7_20  and  C8_25 
REMARK    8  A    between atoms: C8_25  and  S1_26 
ROOT
HETATM    1  N1  UNL     1      32.876  -8.406  64.436  1.00  0.00    -0.172 NA
HETATM    2  C1  UNL     1      32.202  -8.018  65.302  1.00  0.00     0.183 C 
HETATM    3  N2  UNL     1      31.394  -7.559  66.366  1.00  0.00    -0.280 N 
ATOM      4  H2  UNL     1      30.639  -6.907  66.154  1.00  0.00     0.179 HD
ENDROOT
BRANCH   3   5
HETATM    5  C2  UNL     1      31.577  -7.954  67.700  1.00  0.00     0.136 C 
BRANCH   5   6
HETATM    6  N3  UNL     1      30.682  -8.622  68.309  1.00  0.00    -0.285 N 
ATOM      7  H3  UNL     1      30.930  -9.559  68.625  1.00  0.00     0.188 HD
BRANCH   6   8
HETATM    8  N4  UNL     1      29.395  -8.177  68.577  1.00  0.00    -0.282 N 
ATOM      9  H4  UNL     1      28.919  -7.529  67.948  1.00  0.00     0.188 HD
BRANCH   8  10
HETATM   10  C3  UNL     1      28.821  -8.610  69.648  1.00  0.00     0.148 A 
HETATM   11  N5  UNL     1      28.874  -7.929  70.826  1.00  0.00    -0.336 N 
HETATM   12  C4  UNL     1      28.270  -8.393  71.931  1.00  0.00     0.183 A 
ATOM     13  H5  UNL     1      29.384  -7.046  70.870  1.00  0.00     0.168 HD
HETATM   14  N6  UNL     1      27.599  -9.553  71.881  1.00  0.00    -0.341 N 
HETATM   15  C5  UNL     1      27.498 -10.287  70.759  1.00  0.00     0.132 A 
ATOM     16  H6  UNL     1      27.146  -9.893  72.730  1.00  0.00     0.167 HD
HETATM   17 CL1  UNL     1      26.624 -11.802  70.683  1.00  0.00    -0.062 Cl
HETATM   18  C6  UNL     1      28.122  -9.803  69.622  1.00  0.00     0.130 A 
HETATM   19  N7  UNL     1      28.053 -10.534  68.400  1.00  0.00    -0.095 NA
ENDBRANCH   8  10
ENDBRANCH   6   8
ENDBRANCH   5   6
BRANCH   5  20
HETATM   20  C7  UNL     1      32.829  -7.587  68.402  1.00  0.00     0.263 C 
BRANCH  20  21
HETATM   21  N8  UNL     1      32.446  -6.765  69.527  1.00  0.00    -0.067 N 
ATOM     22  H83 UNL     1      33.224  -6.544  70.149  1.00  0.00     0.275 HD
ATOM     23  H82 UNL     1      32.215  -5.807  69.266  1.00  0.00     0.275 HD
ATOM     24  H81 UNL     1      31.681  -7.252  69.995  1.00  0.00     0.275 HD
ENDBRANCH  20  21
BRANCH  20  25
HETATM   25  C8  UNL     1      33.631  -8.791  68.758  1.00  0.00     0.132 C 
BRANCH  25  26
HETATM   26  S1  UNL     1      35.340  -8.560  68.570  1.00  0.00    -0.085 SA
HETATM   27  C9  UNL     1      36.042  -8.948  67.028  1.00  0.00     0.119 C 
HETATM   28  C10 UNL     1      37.168  -9.463  67.937  1.00  0.00     0.195 C 
HETATM   29  O1  UNL     1      36.265  -9.915  68.904  1.00  0.00    -0.331 OA
ENDBRANCH  25  26
ENDBRANCH  20  25
ENDBRANCH   5  20
ENDBRANCH   3   5
TORSDOF 8
ENDMDL
MODEL 5
REMARK VINA RESULT: -6.473370093      1.727      2.775
REMARK  8 active torsions:
REMARK  status: ('A' for Active; 'I' for Inactive)
REMARK    1  A    between atoms: N2_3  and  C2_5 
REMARK    2  A    between atoms: C2_5  and  N3_6 
REMARK    3  A    between atoms: C2_5  and  C7_20 
REMARK    4  A    between atoms: N3_6  and  N4_8 
REMARK    5  A    between atoms: N4_8  and  C3_10 
REMARK    6  A    between atoms: C7_20  and  N8_21 
REMARK    7  A    between atoms: C7_20  and  C8_25 
REMARK    8  A    between atoms: C8_25  and  S1_26 
ROOT
HETATM    1  N1  UNL     1      34.982  -9.249  68.913  1.00  0.00    -0.172 NA
HETATM    2  C1  UNL     1      33.949  -8.715  68.944  1.00  0.00     0.183 C 
HETATM    3  N2  UNL     1      32.691  -8.071  68.962  1.00  0.00    -0.280 N 
ATOM      4  H2  UNL     1      32.434  -7.533  69.789  1.00  0.00     0.179 HD
ENDROOT
BRANCH   3   5
HETATM    5  C2  UNL     1      31.776  -8.136  67.899  1.00  0.00     0.136 C 
BRANCH   5   6
HETATM    6  N3  UNL     1      30.595  -8.568  68.084  1.00  0.00    -0.285 N 
ATOM      7  H3  UNL     1      30.393  -9.523  67.788  1.00  0.00     0.188 HD
BRANCH   6   8
HETATM    8  N4  UNL     1      29.558  -7.843  68.655  1.00  0.00    -0.282 N 
ATOM      9  H4  UNL     1      29.241  -6.964  68.247  1.00  0.00     0.188 HD
BRANCH   8  10
HETATM   10  C3  UNL     1      29.009  -8.321  69.722  1.00  0.00     0.148 A 
HETATM   11  N5  UNL     1      29.093  -7.688  70.925  1.00  0.00    -0.336 N 
HETATM   12  C4  UNL     1      28.515  -8.198  72.025  1.00  0.00     0.183 A 
ATOM     13  H5  UNL     1      29.605  -6.809  70.993  1.00  0.00     0.168 HD
HETATM   14  N6  UNL     1      27.840  -9.353  71.943  1.00  0.00    -0.341 N 
HETATM   15  C5  UNL     1      27.710 -10.040  70.794  1.00  0.00     0.132 A 
ATOM     16  H6  UNL     1      27.407  -9.728  72.787  1.00  0.00     0.167 HD
HETATM   17 CL1  UNL     1      26.831 -11.550  70.677  1.00  0.00    -0.062 Cl
HETATM   18  C6  UNL     1      28.307  -9.511  69.663  1.00  0.00     0.130 A 
HETATM   19  N7  UNL     1      28.206 -10.190  68.414  1.00  0.00    -0.095 NA
ENDBRANCH   8  10
ENDBRANCH   6   8
ENDBRANCH   5   6
BRANCH   5  20
HETATM   20  C7  UNL     1      32.198  -7.695  66.549  1.00  0.00     0.263 C 
BRANCH  20  21
HETATM   21  N8  UNL     1      30.989  -7.479  65.789  1.00  0.00    -0.067 N 
ATOM     22  H83 UNL     1      30.194  -7.200  66.365  1.00  0.00     0.275 HD
ATOM     23  H82 UNL     1      31.022  -6.644  65.205  1.00  0.00     0.275 HD
ATOM     24  H81 UNL     1      30.821  -8.335  65.259  1.00  0.00     0.275 HD
ENDBRANCH  20  21
BRANCH  20  25
HETATM   25  C8  UNL     1      33.107  -6.516  66.617  1.00  0.00     0.132 C 
BRANCH  25  26
HETATM   26  S1  UNL     1      32.312  -5.064  67.137  1.00  0.00    -0.085 SA
HETATM   27  C9  UNL     1      32.753  -4.414  68.688  1.00  0.00     0.119 C 
HETATM   28  C10 UNL     1      31.243  -4.129  68.731  1.00  0.00     0.195 C 
HETATM   29  O1  UNL     1      30.937  -5.317  68.058  1.00  0.00    -0.331 OA
ENDBRANCH  25  26
ENDBRANCH  20  25
ENDBRANCH   5  20
ENDBRANCH   3   5
TORSDOF 8
ENDMDL
