MODEL 1
REMARK VINA RESULT: -6.273487590      0.000      0.000
REMARK  6 active torsions:
REMARK  status: ('A' for Active; 'I' for Inactive)
REMARK    1  A    between atoms: N1_1  and  C1_4 
REMARK    2  A    between atoms: C2_5  and  C3_6 
REMARK    3  A    between atoms: N5_13  and  C4_14 
REMARK    4  A    between atoms: C4_14  and  C5_15 
REMARK    5  A    between atoms: C5_15  and  N6_16 
REMARK    6  A    between atoms: N6_16  and  C6_18 
ROOT
HETATM    1  C1  UNL     1      28.801  -7.807  69.155  1.00  0.00     0.151 A 
HETATM    2  C2  UNL     1      28.538  -8.872  69.962  1.00  0.00     0.159 A 
HETATM    3  N3  UNL     1      28.920  -8.469  71.215  1.00  0.00    -0.278 N 
ATOM      4  H3  UNL     1      28.860  -9.030  72.066  1.00  0.00     0.189 HD
HETATM    5  N4  UNL     1      29.379  -7.235  71.137  1.00  0.00    -0.238 N 
ATOM      6  H4  UNL     1      29.728  -6.699  71.932  1.00  0.00     0.208 HD
HETATM    7  N5  UNL     1      29.328  -6.789  69.911  1.00  0.00    -0.259 N 
ENDROOT
BRANCH   7   8
HETATM    8  C4  UNL     1      29.726  -5.501  69.384  1.00  0.00     0.172 C 
BRANCH   8   9
HETATM    9  C5  UNL     1      31.220  -5.356  69.248  1.00  0.00     0.143 C 
BRANCH   9  10
HETATM   10  N6  UNL     1      31.765  -6.108  68.151  1.00  0.00    -0.368 N 
ATOM     11  H6  UNL     1      31.381  -5.978  67.214  1.00  0.00     0.161 HD
BRANCH  10  12
HETATM   12  C6  UNL     1      32.745  -6.956  68.333  1.00  0.00     0.161 A 
HETATM   13  N7  UNL     1      32.817  -7.953  69.223  1.00  0.00    -0.279 N 
HETATM   14  N8  UNL     1      33.870  -8.675  69.244  1.00  0.00    -0.286 N 
ATOM     15  H7  UNL     1      32.049  -8.132  69.870  1.00  0.00     0.189 HD
HETATM   16  C7  UNL     1      34.859  -8.438  68.402  1.00  0.00     0.139 A 
ATOM     17  H8  UNL     1      33.947  -9.441  69.914  1.00  0.00     0.188 HD
HETATM   18 BR1  UNL     1      36.527  -9.364  68.228  1.00  0.00    -0.021 Br
HETATM   19  S1  UNL     1      34.245  -7.103  67.534  1.00  0.00    -0.026 SA
ENDBRANCH  10  12
ENDBRANCH   9  10
ENDBRANCH   8   9
ENDBRANCH   7   8
BRANCH   1  20
HETATM   20  N1  UNL     1      28.609  -7.720  67.909  1.00  0.00    -0.382 N 
ATOM     21  H12 UNL     1      29.070  -8.322  67.227  1.00  0.00     0.157 HD
ATOM     22  H11 UNL     1      27.995  -7.068  67.420  1.00  0.00     0.157 HD
ENDBRANCH   1  20
BRANCH   2  23
HETATM   23  C3  UNL     1      27.979 -10.196  69.673  1.00  0.00     0.286 C 
HETATM   24  N2  UNL     1      27.408 -11.055  70.626  1.00  0.00    -0.056 NA
HETATM   25  O1  UNL     1      28.027 -10.580  68.447  1.00  0.00    -0.269 OA
ENDBRANCH   2  23
TORSDOF 6
ENDMDL
MODEL 2
REMARK VINA RESULT: -6.132036329      1.591      2.142
REMARK  6 active torsions:
REMARK  status: ('A' for Active; 'I' for Inactive)
REMARK    1  A    between atoms: N1_1  and  C1_4 
REMARK    2  A    between atoms: C2_5  and  C3_6 
REMARK    3  A    between atoms: N5_13  and  C4_14 
REMARK    4  A    between atoms: C4_14  and  C5_15 
REMARK    5  A    between atoms: C5_15  and  N6_16 
REMARK    6  A    between atoms: N6_16  and  C6_18 
ROOT
HETATM    1  C1  UNL     1      27.883  -8.970  70.519  1.00  0.00     0.151 A 
HETATM    2  C2  UNL     1      27.363 -10.146  70.071  1.00  0.00     0.159 A 
HETATM    3  N3  UNL     1      27.895 -10.314  68.818  1.00  0.00    -0.278 N 
ATOM      4  H3  UNL     1      27.713 -11.100  68.194  1.00  0.00     0.189 HD
HETATM    5  N4  UNL     1      28.682  -9.288  68.557  1.00  0.00    -0.238 N 
ATOM      6  H4  UNL     1      29.203  -9.168  67.688  1.00  0.00     0.208 HD
HETATM    7  N5  UNL     1      28.709  -8.446  69.555  1.00  0.00    -0.259 N 
ENDROOT
BRANCH   7   8
HETATM    8  C4  UNL     1      29.434  -7.201  69.688  1.00  0.00     0.172 C 
BRANCH   8   9
HETATM    9  C5  UNL     1      30.560  -7.065  68.696  1.00  0.00     0.143 C 
BRANCH   9  10
HETATM   10  N6  UNL     1      31.831  -6.807  69.315  1.00  0.00    -0.368 N 
ATOM     11  H6  UNL     1      31.885  -6.153  70.097  1.00  0.00     0.161 HD
BRANCH  10  12
HETATM   12  C6  UNL     1      32.921  -7.397  68.893  1.00  0.00     0.161 A 
HETATM   13  N7  UNL     1      33.561  -8.436  69.443  1.00  0.00    -0.279 N 
HETATM   14  N8  UNL     1      34.619  -8.869  68.874  1.00  0.00    -0.286 N 
ATOM     15  H7  UNL     1      33.212  -8.872  70.297  1.00  0.00     0.189 HD
HETATM   16  C7  UNL     1      35.063  -8.301  67.769  1.00  0.00     0.139 A 
ATOM     17  H8  UNL     1      35.123  -9.660  69.276  1.00  0.00     0.188 HD
HETATM   18 BR1  UNL     1      36.608  -8.754  66.730  1.00  0.00    -0.021 Br
HETATM   19  S1  UNL     1      33.899  -7.075  67.533  1.00  0.00    -0.026 SA
ENDBRANCH  10  12
ENDBRANCH   9  10
ENDBRANCH   8   9
ENDBRANCH   7   8
BRANCH   1  20
HETATM   20  N1  UNL     1      27.671  -8.410  71.632  1.00  0.00    -0.382 N 
ATOM     21  H12 UNL     1      26.953  -7.699  71.775  1.00  0.00     0.157 HD
ATOM     22  H11 UNL     1      28.160  -8.574  72.512  1.00  0.00     0.157 HD
ENDBRANCH   1  20
BRANCH   2  23
HETATM   23  C3  UNL     1      26.438 -11.100  70.691  1.00  0.00     0.286 C 
HETATM   24  N2  UNL     1      26.630 -12.490  70.745  1.00  0.00    -0.056 NA
HETATM   25  O1  UNL     1      25.376 -10.603  71.218  1.00  0.00    -0.269 OA
ENDBRANCH   2  23
TORSDOF 6
ENDMDL
MODEL 3
REMARK VINA RESULT: -5.969623871      3.948      6.407
REMARK  6 active torsions:
REMARK  status: ('A' for Active; 'I' for Inactive)
REMARK    1  A    between atoms: N1_1  and  C1_4 
REMARK    2  A    between atoms: C2_5  and  C3_6 
REMARK    3  A    between atoms: N5_13  and  C4_14 
REMARK    4  A    between atoms: C4_14  and  C5_15 
REMARK    5  A    between atoms: C5_15  and  N6_16 
REMARK    6  A    between atoms: N6_16  and  C6_18 
ROOT
HETATM    1  C1  UNL     1      34.106  -7.378  67.994  1.00  0.00     0.151 A 
HETATM    2  C2  UNL     1      34.780  -8.490  68.398  1.00  0.00     0.159 A 
HETATM    3  N3  UNL     1      33.905  -9.155  69.218  1.00  0.00    -0.278 N 
ATOM      4  H3  UNL     1      34.091 -10.037  69.697  1.00  0.00     0.189 HD
HETATM    5  N4  UNL     1      32.784  -8.464  69.284  1.00  0.00    -0.238 N 
ATOM      6  H4  UNL     1      31.968  -8.740  69.829  1.00  0.00     0.208 HD
HETATM    7  N5  UNL     1      32.855  -7.379  68.561  1.00  0.00    -0.259 N 
ENDROOT
BRANCH   7   8
HETATM    8  C4  UNL     1      31.863  -6.346  68.352  1.00  0.00     0.172 C 
BRANCH   8   9
HETATM    9  C5  UNL     1      30.465  -6.891  68.216  1.00  0.00     0.143 C 
BRANCH   9  10
HETATM   10  N6  UNL     1      29.896  -7.310  69.468  1.00  0.00    -0.368 N 
ATOM     11  H6  UNL     1      30.114  -6.788  70.318  1.00  0.00     0.161 HD
BRANCH  10  12
HETATM   12  C6  UNL     1      29.103  -8.349  69.537  1.00  0.00     0.161 A 
HETATM   13  N7  UNL     1      28.710  -9.152  68.541  1.00  0.00    -0.279 N 
HETATM   14  N8  UNL     1      27.926 -10.122  68.815  1.00  0.00    -0.286 N 
ATOM     15  H7  UNL     1      29.030  -8.995  67.586  1.00  0.00     0.189 HD
HETATM   16  C7  UNL     1      27.517 -10.321  70.054  1.00  0.00     0.139 A 
ATOM     17  H8  UNL     1      27.613 -10.747  68.072  1.00  0.00     0.188 HD
HETATM   18 BR1  UNL     1      26.353 -11.687  70.724  1.00  0.00    -0.021 Br
HETATM   19  S1  UNL     1      28.302  -9.044  70.873  1.00  0.00    -0.026 SA
ENDBRANCH  10  12
ENDBRANCH   9  10
ENDBRANCH   8   9
ENDBRANCH   7   8
BRANCH   1  20
HETATM   20  N1  UNL     1      34.521  -6.464  67.225  1.00  0.00    -0.382 N 
ATOM     21  H12 UNL     1      34.547  -6.555  66.209  1.00  0.00     0.157 HD
ATOM     22  H11 UNL     1      34.874  -5.544  67.488  1.00  0.00     0.157 HD
ENDBRANCH   1  20
BRANCH   2  23
HETATM   23  C3  UNL     1      36.130  -8.973  68.095  1.00  0.00     0.286 C 
HETATM   24  N2  UNL     1      36.954  -8.476  67.071  1.00  0.00    -0.056 NA
HETATM   25  O1  UNL     1      36.575  -9.925  68.836  1.00  0.00    -0.269 OA
ENDBRANCH   2  23
TORSDOF 6
ENDMDL
MODEL 4
REMARK VINA RESULT: -5.961970694      4.259      6.276
REMARK  6 active torsions:
REMARK  status: ('A' for Active; 'I' for Inactive)
REMARK    1  A    between atoms: N1_1  and  C1_4 
REMARK    2  A    between atoms: C2_5  and  C3_6 
REMARK    3  A    between atoms: N5_13  and  C4_14 
REMARK    4  A    between atoms: C4_14  and  C5_15 
REMARK    5  A    between atoms: C5_15  and  N6_16 
REMARK    6  A    between atoms: N6_16  and  C6_18 
ROOT
HETATM    1  C1  UNL     1      34.541  -8.523  67.248  1.00  0.00     0.151 A 
HETATM    2  C2  UNL     1      33.446  -8.603  68.055  1.00  0.00     0.159 A 
HETATM    3  N3  UNL     1      33.947  -8.861  69.305  1.00  0.00    -0.278 N 
ATOM      4  H3  UNL     1      33.395  -8.983  70.155  1.00  0.00     0.189 HD
HETATM    5  N4  UNL     1      35.262  -8.926  69.225  1.00  0.00    -0.238 N 
ATOM      6  H4  UNL     1      35.879  -9.107  70.017  1.00  0.00     0.208 HD
HETATM    7  N5  UNL     1      35.671  -8.728  68.001  1.00  0.00    -0.259 N 
ENDROOT
BRANCH   7   8
HETATM    8  C4  UNL     1      37.018  -8.714  67.473  1.00  0.00     0.172 C 
BRANCH   8   9
HETATM    9  C5  UNL     1      37.967  -7.884  68.298  1.00  0.00     0.143 C 
BRANCH   9  10
HETATM   10  N6  UNL     1      38.442  -6.714  67.610  1.00  0.00    -0.368 N 
ATOM     11  H6  UNL     1      38.834  -6.809  66.672  1.00  0.00     0.161 HD
BRANCH  10  12
HETATM   12  C6  UNL     1      38.380  -5.531  68.165  1.00  0.00     0.161 A 
HETATM   13  N7  UNL     1      38.966  -5.120  69.296  1.00  0.00    -0.279 N 
HETATM   14  N8  UNL     1      38.781  -3.914  69.674  1.00  0.00    -0.286 N 
ATOM     15  H7  UNL     1      39.548  -5.754  69.843  1.00  0.00     0.189 HD
HETATM   16  C7  UNL     1      38.028  -3.099  68.960  1.00  0.00     0.139 A 
ATOM     17  H8  UNL     1      39.217  -3.579  70.533  1.00  0.00     0.188 HD
HETATM   18 BR1  UNL     1      37.596  -1.264  69.303  1.00  0.00    -0.021 Br
HETATM   19  S1  UNL     1      37.558  -4.119  67.674  1.00  0.00    -0.026 SA
ENDBRANCH  10  12
ENDBRANCH   9  10
ENDBRANCH   8   9
ENDBRANCH   7   8
BRANCH   1  20
HETATM   20  N1  UNL     1      34.565  -8.298  66.005  1.00  0.00    -0.382 N 
ATOM     21  H12 UNL     1      34.168  -7.460  65.578  1.00  0.00     0.157 HD
ATOM     22  H11 UNL     1      34.964  -8.888  65.275  1.00  0.00     0.157 HD
ENDBRANCH   1  20
BRANCH   2  23
HETATM   23  C3  UNL     1      32.016  -8.465  67.770  1.00  0.00     0.286 C 
HETATM   24  N2  UNL     1      31.000  -8.422  68.739  1.00  0.00    -0.056 NA
HETATM   25  O1  UNL     1      31.688  -8.378  66.529  1.00  0.00    -0.269 OA
ENDBRANCH   2  23
TORSDOF 6
ENDMDL
MODEL 5
REMARK VINA RESULT: -5.939848022      1.317      1.391
REMARK  6 active torsions:
REMARK  status: ('A' for Active; 'I' for Inactive)
REMARK    1  A    between atoms: N1_1  and  C1_4 
REMARK    2  A    between atoms: C2_5  and  C3_6 
REMARK    3  A    between atoms: N5_13  and  C4_14 
REMARK    4  A    between atoms: C4_14  and  C5_15 
REMARK    5  A    between atoms: C5_15  and  N6_16 
REMARK    6  A    between atoms: N6_16  and  C6_18 
ROOT
HETATM    1  C1  UNL     1      28.578  -8.246  69.556  1.00  0.00     0.151 A 
HETATM    2  C2  UNL     1      28.125  -8.830  70.700  1.00  0.00     0.159 A 
HETATM    3  N3  UNL     1      28.676  -8.092  71.716  1.00  0.00    -0.278 N 
ATOM      4  H3  UNL     1      28.543  -8.258  72.714  1.00  0.00     0.189 HD
HETATM    5  N4  UNL     1      29.409  -7.131  71.187  1.00  0.00    -0.238 N 
ATOM      6  H4  UNL     1      29.929  -6.439  71.726  1.00  0.00     0.208 HD
HETATM    7  N5  UNL     1      29.382  -7.181  69.882  1.00  0.00    -0.259 N 
ENDROOT
BRANCH   7   8
HETATM    8  C4  UNL     1      30.038  -6.327  68.916  1.00  0.00     0.172 C 
BRANCH   8   9
HETATM    9  C5  UNL     1      31.540  -6.448  68.945  1.00  0.00     0.143 C 
BRANCH   9  10
HETATM   10  N6  UNL     1      32.003  -7.797  68.761  1.00  0.00    -0.368 N 
ATOM     11  H6  UNL     1      31.327  -8.561  68.739  1.00  0.00     0.161 HD
BRANCH  10  12
HETATM   12  C6  UNL     1      33.277  -8.061  68.621  1.00  0.00     0.161 A 
HETATM   13  N7  UNL     1      34.037  -8.871  69.367  1.00  0.00    -0.279 N 
HETATM   14  N8  UNL     1      35.272  -8.995  69.066  1.00  0.00    -0.286 N 
ATOM     15  H7  UNL     1      33.640  -9.379  70.158  1.00  0.00     0.189 HD
HETATM   16  C7  UNL     1      35.779  -8.337  68.041  1.00  0.00     0.139 A 
ATOM     17  H8  UNL     1      35.870  -9.608  69.621  1.00  0.00     0.188 HD
HETATM   18 BR1  UNL     1      37.579  -8.349  67.385  1.00  0.00    -0.021 Br
HETATM   19  S1  UNL     1      34.407  -7.491  67.477  1.00  0.00    -0.026 SA
ENDBRANCH  10  12
ENDBRANCH   9  10
ENDBRANCH   8   9
ENDBRANCH   7   8
BRANCH   1  20
HETATM   20  N1  UNL     1      28.328  -8.590  68.366  1.00  0.00    -0.382 N 
ATOM     21  H12 UNL     1      27.822  -7.999  67.706  1.00  0.00     0.157 HD
ATOM     22  H11 UNL     1      28.580  -9.465  67.907  1.00  0.00     0.157 HD
ENDBRANCH   1  20
BRANCH   2  23
HETATM   23  C3  UNL     1      27.249  -9.983  70.923  1.00  0.00     0.286 C 
HETATM   24  N2  UNL     1      27.484 -11.280  70.437  1.00  0.00    -0.056 NA
HETATM   25  O1  UNL     1      26.189  -9.769  71.618  1.00  0.00    -0.269 OA
ENDBRANCH   2  23
TORSDOF 6
ENDMDL
