MODEL 1
REMARK VINA RESULT: -6.013265101      0.000      0.000
REMARK  11 active torsions:
REMARK  status: ('A' for Active; 'I' for Inactive)
REMARK    1  A    between atoms: N1_1  and  C1_5 
REMARK    2  A    between atoms: C1_5  and  C2_6 
REMARK    3  A    between atoms: C2_6  and  C3_7 
REMARK    4  A    between atoms: C3_7  and  C4_8 
REMARK    5  A    between atoms: C4_8  and  N2_9 
REMARK    6  A    between atoms: N2_9  and  C5_11 
REMARK    7  A    between atoms: C5_11  and  N3_13 
REMARK    8  A    between atoms: N3_13  and  C6_15 
REMARK    9  A    between atoms: C6_15  and  C7_16 
REMARK   10  A    between atoms: C7_16  and  C8_17 
REMARK   11  A    between atoms: C8_17  and  N4_18 
ROOT
HETATM    1  C5  UNL     1     -11.405  38.647 -26.145  1.00  0.00     0.167 C 
HETATM    2  S1  UNL     1     -10.048  39.360 -26.641  1.00  0.00    -0.041 SA
ENDROOT
BRANCH   1   3
HETATM    3  N2  UNL     1     -11.647  38.680 -24.721  1.00  0.00    -0.367 N 
ATOM      4  H2  UNL     1     -12.159  37.920 -24.275  1.00  0.00     0.161 HD
BRANCH   3   5
HETATM    5  C4  UNL     1     -11.169  39.779 -23.930  1.00  0.00     0.122 C 
BRANCH   5   6
HETATM    6  C3  UNL     1     -10.165  39.299 -22.871  1.00  0.00     0.021 C 
BRANCH   6   7
HETATM    7  C2  UNL     1     -10.213  40.353 -21.789  1.00  0.00     0.029 C 
BRANCH   7   8
HETATM    8  C1  UNL     1     -10.551  41.727 -22.259  1.00  0.00     0.229 C 
BRANCH   8   9
HETATM    9  N1  UNL     1     -10.725  42.626 -21.149  1.00  0.00    -0.079 N 
ATOM     10  H13 UNL     1     -11.176  42.164 -20.359  1.00  0.00     0.274 HD
ATOM     11  H12 UNL     1      -9.834  42.854 -20.708  1.00  0.00     0.274 HD
ATOM     12  H11 UNL     1     -11.230  43.466 -21.433  1.00  0.00     0.274 HD
ENDBRANCH   8   9
ENDBRANCH   7   8
ENDBRANCH   6   7
ENDBRANCH   5   6
ENDBRANCH   3   5
ENDBRANCH   1   3
BRANCH   1  13
HETATM   13  N3  UNL     1     -12.311  37.933 -26.948  1.00  0.00    -0.367 N 
ATOM     14  H3  UNL     1     -12.819  38.454 -27.663  1.00  0.00     0.161 HD
BRANCH  13  15
HETATM   15  C6  UNL     1     -12.571  36.538 -26.839  1.00  0.00     0.123 C 
BRANCH  15  16
HETATM   16  C7  UNL     1     -11.910  35.587 -27.732  1.00  0.00     0.041 C 
BRANCH  16  17
HETATM   17  C8  UNL     1     -10.471  35.696 -28.059  1.00  0.00     0.151 C 
BRANCH  17  18
HETATM   18  N4  UNL     1      -9.725  34.697 -27.236  1.00  0.00    -0.287 N 
HETATM   19  C9  UNL     1      -9.679  33.388 -27.501  1.00  0.00     0.201 A 
HETATM   20  N5  UNL     1      -8.906  32.855 -26.519  1.00  0.00    -0.346 N 
HETATM   21  C10 UNL     1      -8.501  33.842 -25.689  1.00  0.00     0.198 A 
ATOM     22  H5  UNL     1      -8.668  31.868 -26.424  1.00  0.00     0.167 HD
HETATM   23  N6  UNL     1      -9.017  34.991 -26.144  1.00  0.00    -0.293 N 
ATOM     24  H6  UNL     1      -8.892  35.917 -25.733  1.00  0.00     0.188 HD
ENDBRANCH  17  18
ENDBRANCH  16  17
ENDBRANCH  15  16
ENDBRANCH  13  15
ENDBRANCH   1  13
TORSDOF 11
ENDMDL
MODEL 2
REMARK VINA RESULT: -5.992270057      3.673      5.484
REMARK  11 active torsions:
REMARK  status: ('A' for Active; 'I' for Inactive)
REMARK    1  A    between atoms: N1_1  and  C1_5 
REMARK    2  A    between atoms: C1_5  and  C2_6 
REMARK    3  A    between atoms: C2_6  and  C3_7 
REMARK    4  A    between atoms: C3_7  and  C4_8 
REMARK    5  A    between atoms: C4_8  and  N2_9 
REMARK    6  A    between atoms: N2_9  and  C5_11 
REMARK    7  A    between atoms: C5_11  and  N3_13 
REMARK    8  A    between atoms: N3_13  and  C6_15 
REMARK    9  A    between atoms: C6_15  and  C7_16 
REMARK   10  A    between atoms: C7_16  and  C8_17 
REMARK   11  A    between atoms: C8_17  and  N4_18 
ROOT
HETATM    1  C5  UNL     1      -7.172  34.449 -25.517  1.00  0.00     0.167 C 
HETATM    2  S1  UNL     1      -5.606  34.274 -25.855  1.00  0.00    -0.041 SA
ENDROOT
BRANCH   1   3
HETATM    3  N2  UNL     1      -7.613  35.804 -25.277  1.00  0.00    -0.367 N 
ATOM      4  H2  UNL     1      -8.610  36.013 -25.236  1.00  0.00     0.161 HD
BRANCH   3   5
HETATM    5  C4  UNL     1      -6.655  36.857 -25.094  1.00  0.00     0.122 C 
BRANCH   5   6
HETATM    6  C3  UNL     1      -6.552  37.257 -23.615  1.00  0.00     0.021 C 
BRANCH   6   7
HETATM    7  C2  UNL     1      -5.102  37.030 -23.254  1.00  0.00     0.029 C 
BRANCH   7   8
HETATM    8  C1  UNL     1      -4.123  37.850 -24.023  1.00  0.00     0.229 C 
BRANCH   8   9
HETATM    9  N1  UNL     1      -3.086  37.026 -24.584  1.00  0.00    -0.079 N 
ATOM     10  H13 UNL     1      -3.419  36.080 -24.774  1.00  0.00     0.274 HD
ATOM     11  H12 UNL     1      -2.858  37.306 -25.538  1.00  0.00     0.274 HD
ATOM     12  H11 UNL     1      -2.258  37.021 -23.987  1.00  0.00     0.274 HD
ENDBRANCH   8   9
ENDBRANCH   7   8
ENDBRANCH   6   7
ENDBRANCH   5   6
ENDBRANCH   3   5
ENDBRANCH   1   3
BRANCH   1  13
HETATM   13  N3  UNL     1      -8.108  33.415 -25.353  1.00  0.00    -0.367 N 
ATOM     14  H3  UNL     1      -7.783  32.548 -24.924  1.00  0.00     0.161 HD
BRANCH  13  15
HETATM   15  C6  UNL     1      -9.476  33.486 -25.740  1.00  0.00     0.123 C 
BRANCH  15  16
HETATM   16  C7  UNL     1      -9.849  33.489 -27.154  1.00  0.00     0.041 C 
BRANCH  16  17
HETATM   17  C8  UNL     1      -9.903  34.738 -27.944  1.00  0.00     0.151 C 
BRANCH  17  18
HETATM   18  N4  UNL     1     -11.019  35.580 -27.415  1.00  0.00    -0.287 N 
HETATM   19  C9  UNL     1     -10.845  36.698 -26.704  1.00  0.00     0.201 A 
HETATM   20  N5  UNL     1     -12.100  37.140 -26.429  1.00  0.00    -0.346 N 
HETATM   21  C10 UNL     1     -12.999  36.292 -26.975  1.00  0.00     0.198 A 
ATOM     22  H5  UNL     1     -12.327  37.980 -25.895  1.00  0.00     0.167 HD
HETATM   23  N6  UNL     1     -12.315  35.319 -27.591  1.00  0.00    -0.293 N 
ATOM     24  H6  UNL     1     -12.711  34.527 -28.098  1.00  0.00     0.188 HD
ENDBRANCH  17  18
ENDBRANCH  16  17
ENDBRANCH  15  16
ENDBRANCH  13  15
ENDBRANCH   1  13
TORSDOF 11
ENDMDL
MODEL 3
REMARK VINA RESULT: -5.923686327      2.435      6.482
REMARK  11 active torsions:
REMARK  status: ('A' for Active; 'I' for Inactive)
REMARK    1  A    between atoms: N1_1  and  C1_5 
REMARK    2  A    between atoms: C1_5  and  C2_6 
REMARK    3  A    between atoms: C2_6  and  C3_7 
REMARK    4  A    between atoms: C3_7  and  C4_8 
REMARK    5  A    between atoms: C4_8  and  N2_9 
REMARK    6  A    between atoms: N2_9  and  C5_11 
REMARK    7  A    between atoms: C5_11  and  N3_13 
REMARK    8  A    between atoms: N3_13  and  C6_15 
REMARK    9  A    between atoms: C6_15  and  C7_16 
REMARK   10  A    between atoms: C7_16  and  C8_17 
REMARK   11  A    between atoms: C8_17  and  N4_18 
ROOT
HETATM    1  C5  UNL     1      -7.484  34.532 -25.529  1.00  0.00     0.167 C 
HETATM    2  S1  UNL     1      -5.956  34.109 -25.819  1.00  0.00    -0.041 SA
ENDROOT
BRANCH   1   3
HETATM    3  N2  UNL     1      -8.429  33.443 -25.442  1.00  0.00    -0.367 N 
ATOM      4  H2  UNL     1      -8.131  32.541 -25.071  1.00  0.00     0.161 HD
BRANCH   3   5
HETATM    5  C4  UNL     1      -9.786  33.624 -25.874  1.00  0.00     0.122 C 
BRANCH   5   6
HETATM    6  C3  UNL     1      -9.909  33.437 -27.394  1.00  0.00     0.021 C 
BRANCH   6   7
HETATM    7  C2  UNL     1     -10.452  34.753 -27.901  1.00  0.00     0.029 C 
BRANCH   7   8
HETATM    8  C1  UNL     1     -11.445  35.415 -27.008  1.00  0.00     0.229 C 
BRANCH   8   9
HETATM    9  N1  UNL     1     -12.612  35.823 -27.743  1.00  0.00    -0.079 N 
ATOM     10  H13 UNL     1     -13.065  36.628 -27.310  1.00  0.00     0.274 HD
ATOM     11  H12 UNL     1     -12.363  36.247 -28.637  1.00  0.00     0.274 HD
ATOM     12  H11 UNL     1     -13.261  35.045 -27.864  1.00  0.00     0.274 HD
ENDBRANCH   8   9
ENDBRANCH   7   8
ENDBRANCH   6   7
ENDBRANCH   5   6
ENDBRANCH   3   5
ENDBRANCH   1   3
BRANCH   1  13
HETATM   13  N3  UNL     1      -7.982  35.843 -25.443  1.00  0.00    -0.367 N 
ATOM     14  H3  UNL     1      -8.991  35.969 -25.511  1.00  0.00     0.161 HD
BRANCH  13  15
HETATM   15  C6  UNL     1      -7.182  37.007 -25.268  1.00  0.00     0.123 C 
BRANCH  15  16
HETATM   16  C7  UNL     1      -7.665  38.314 -25.716  1.00  0.00     0.041 C 
BRANCH  16  17
HETATM   17  C8  UNL     1      -8.995  38.480 -26.342  1.00  0.00     0.151 C 
BRANCH  17  18
HETATM   18  N4  UNL     1      -9.978  38.828 -25.271  1.00  0.00    -0.287 N 
HETATM   19  C9  UNL     1     -11.300  38.676 -25.386  1.00  0.00     0.201 A 
HETATM   20  N5  UNL     1     -11.810  39.107 -24.203  1.00  0.00    -0.346 N 
HETATM   21  C10 UNL     1     -10.796  39.504 -23.402  1.00  0.00     0.198 A 
ATOM     22  H5  UNL     1     -12.800  39.126 -23.957  1.00  0.00     0.167 HD
HETATM   23  N6  UNL     1      -9.653  39.327 -24.077  1.00  0.00    -0.293 N 
ATOM     24  H6  UNL     1      -8.712  39.534 -23.741  1.00  0.00     0.188 HD
ENDBRANCH  17  18
ENDBRANCH  16  17
ENDBRANCH  15  16
ENDBRANCH  13  15
ENDBRANCH   1  13
TORSDOF 11
ENDMDL
MODEL 4
REMARK VINA RESULT: -5.871001583      2.366      5.306
REMARK  11 active torsions:
REMARK  status: ('A' for Active; 'I' for Inactive)
REMARK    1  A    between atoms: N1_1  and  C1_5 
REMARK    2  A    between atoms: C1_5  and  C2_6 
REMARK    3  A    between atoms: C2_6  and  C3_7 
REMARK    4  A    between atoms: C3_7  and  C4_8 
REMARK    5  A    between atoms: C4_8  and  N2_9 
REMARK    6  A    between atoms: N2_9  and  C5_11 
REMARK    7  A    between atoms: C5_11  and  N3_13 
REMARK    8  A    between atoms: N3_13  and  C6_15 
REMARK    9  A    between atoms: C6_15  and  C7_16 
REMARK   10  A    between atoms: C7_16  and  C8_17 
REMARK   11  A    between atoms: C8_17  and  N4_18 
ROOT
HETATM    1  C5  UNL     1     -11.307  38.556 -26.539  1.00  0.00     0.167 C 
HETATM    2  S1  UNL     1     -10.966  39.658 -27.665  1.00  0.00    -0.041 SA
ENDROOT
BRANCH   1   3
HETATM    3  N2  UNL     1     -12.330  37.598 -26.890  1.00  0.00    -0.367 N 
ATOM      4  H2  UNL     1     -13.200  37.918 -27.316  1.00  0.00     0.161 HD
BRANCH   3   5
HETATM    5  C4  UNL     1     -12.130  36.199 -26.643  1.00  0.00     0.122 C 
BRANCH   5   6
HETATM    6  C3  UNL     1     -11.660  35.477 -27.915  1.00  0.00     0.021 C 
BRANCH   6   7
HETATM    7  C2  UNL     1     -10.280  34.961 -27.577  1.00  0.00     0.029 C 
BRANCH   7   8
HETATM    8  C1  UNL     1     -10.144  33.476 -27.570  1.00  0.00     0.229 C 
BRANCH   8   9
HETATM    9  N1  UNL     1     -10.062  32.970 -26.226  1.00  0.00    -0.079 N 
ATOM     10  H13 UNL     1      -9.986  31.953 -26.212  1.00  0.00     0.274 HD
ATOM     11  H12 UNL     1      -9.168  33.199 -25.792  1.00  0.00     0.274 HD
ATOM     12  H11 UNL     1     -10.847  33.297 -25.662  1.00  0.00     0.274 HD
ENDBRANCH   8   9
ENDBRANCH   7   8
ENDBRANCH   6   7
ENDBRANCH   5   6
ENDBRANCH   3   5
ENDBRANCH   1   3
BRANCH   1  13
HETATM   13  N3  UNL     1     -10.773  38.500 -25.241  1.00  0.00    -0.367 N 
ATOM     14  H3  UNL     1     -11.427  38.398 -24.466  1.00  0.00     0.161 HD
BRANCH  13  15
HETATM   15  C6  UNL     1      -9.386  38.574 -24.928  1.00  0.00     0.123 C 
BRANCH  15  16
HETATM   16  C7  UNL     1      -8.440  37.629 -25.521  1.00  0.00     0.041 C 
BRANCH  16  17
HETATM   17  C8  UNL     1      -7.070  37.460 -24.989  1.00  0.00     0.151 C 
BRANCH  17  18
HETATM   18  N4  UNL     1      -6.635  36.054 -25.245  1.00  0.00    -0.287 N 
HETATM   19  C9  UNL     1      -7.443  34.993 -25.175  1.00  0.00     0.201 A 
HETATM   20  N5  UNL     1      -6.655  33.928 -25.475  1.00  0.00    -0.346 N 
HETATM   21  C10 UNL     1      -5.399  34.361 -25.721  1.00  0.00     0.198 A 
ATOM     22  H5  UNL     1      -6.962  32.955 -25.510  1.00  0.00     0.167 HD
HETATM   23  N6  UNL     1      -5.394  35.693 -25.576  1.00  0.00    -0.293 N 
ATOM     24  H6  UNL     1      -4.592  36.313 -25.695  1.00  0.00     0.188 HD
ENDBRANCH  17  18
ENDBRANCH  16  17
ENDBRANCH  15  16
ENDBRANCH  13  15
ENDBRANCH   1  13
TORSDOF 11
ENDMDL
MODEL 5
REMARK VINA RESULT: -5.821773474      2.462      6.608
REMARK  11 active torsions:
REMARK  status: ('A' for Active; 'I' for Inactive)
REMARK    1  A    between atoms: N1_1  and  C1_5 
REMARK    2  A    between atoms: C1_5  and  C2_6 
REMARK    3  A    between atoms: C2_6  and  C3_7 
REMARK    4  A    between atoms: C3_7  and  C4_8 
REMARK    5  A    between atoms: C4_8  and  N2_9 
REMARK    6  A    between atoms: N2_9  and  C5_11 
REMARK    7  A    between atoms: C5_11  and  N3_13 
REMARK    8  A    between atoms: N3_13  and  C6_15 
REMARK    9  A    between atoms: C6_15  and  C7_16 
REMARK   10  A    between atoms: C7_16  and  C8_17 
REMARK   11  A    between atoms: C8_17  and  N4_18 
ROOT
HETATM    1  C5  UNL     1      -7.482  34.603 -25.498  1.00  0.00     0.167 C 
HETATM    2  S1  UNL     1      -5.964  34.161 -25.813  1.00  0.00    -0.041 SA
ENDROOT
BRANCH   1   3
HETATM    3  N2  UNL     1      -8.441  33.526 -25.404  1.00  0.00    -0.367 N 
ATOM      4  H2  UNL     1      -8.174  32.646 -24.962  1.00  0.00     0.161 HD
BRANCH   3   5
HETATM    5  C4  UNL     1      -9.767  33.687 -25.928  1.00  0.00     0.122 C 
BRANCH   5   6
HETATM    6  C3  UNL     1      -9.767  33.598 -27.462  1.00  0.00     0.021 C 
BRANCH   6   7
HETATM    7  C2  UNL     1     -10.497  34.840 -27.920  1.00  0.00     0.029 C 
BRANCH   7   8
HETATM    8  C1  UNL     1     -11.470  35.399 -26.940  1.00  0.00     0.229 C 
BRANCH   8   9
HETATM    9  N1  UNL     1     -12.649  35.889 -27.602  1.00  0.00    -0.079 N 
ATOM     10  H13 UNL     1     -13.221  35.126 -27.965  1.00  0.00     0.274 HD
ATOM     11  H12 UNL     1     -13.317  36.282 -26.938  1.00  0.00     0.274 HD
ATOM     12  H11 UNL     1     -12.408  36.560 -28.333  1.00  0.00     0.274 HD
ENDBRANCH   8   9
ENDBRANCH   7   8
ENDBRANCH   6   7
ENDBRANCH   5   6
ENDBRANCH   3   5
ENDBRANCH   1   3
BRANCH   1  13
HETATM   13  N3  UNL     1      -7.961  35.920 -25.398  1.00  0.00    -0.367 N 
ATOM     14  H3  UNL     1      -8.956  36.073 -25.558  1.00  0.00     0.161 HD
BRANCH  13  15
HETATM   15  C6  UNL     1      -7.160  37.055 -25.087  1.00  0.00     0.123 C 
BRANCH  15  16
HETATM   16  C7  UNL     1      -7.538  37.954 -23.997  1.00  0.00     0.041 C 
BRANCH  16  17
HETATM   17  C8  UNL     1      -8.090  39.303 -24.254  1.00  0.00     0.151 C 
BRANCH  17  18
HETATM   18  N4  UNL     1      -9.552  39.169 -24.529  1.00  0.00    -0.287 N 
HETATM   19  C9  UNL     1     -10.507  39.314 -23.605  1.00  0.00     0.201 A 
HETATM   20  N5  UNL     1     -11.675  39.112 -24.269  1.00  0.00    -0.346 N 
HETATM   21  C10 UNL     1     -11.407  38.853 -25.568  1.00  0.00     0.198 A 
ATOM     22  H5  UNL     1     -12.606  39.150 -23.854  1.00  0.00     0.167 HD
HETATM   23  N6  UNL     1     -10.077  38.890 -25.723  1.00  0.00    -0.293 N 
ATOM     24  H6  UNL     1      -9.563  38.736 -26.591  1.00  0.00     0.188 HD
ENDBRANCH  17  18
ENDBRANCH  16  17
ENDBRANCH  15  16
ENDBRANCH  13  15
ENDBRANCH   1  13
TORSDOF 11
ENDMDL
