MODEL 1
REMARK VINA RESULT: -6.253698199      0.000      0.000
REMARK  11 active torsions:
REMARK  status: ('A' for Active; 'I' for Inactive)
REMARK    1  A    between atoms: N1_1  and  C1_5 
REMARK    2  A    between atoms: C1_5  and  C2_6 
REMARK    3  A    between atoms: C2_6  and  C3_7 
REMARK    4  A    between atoms: C3_7  and  N2_8 
REMARK    5  A    between atoms: N3_11  and  C6_12 
REMARK    6  A    between atoms: C6_12  and  C7_13 
REMARK    7  A    between atoms: C7_13  and  C8_14 
REMARK    8  A    between atoms: C8_14  and  C9_15 
REMARK    9  A    between atoms: C9_15  and  C10_16 
REMARK   10  A    between atoms: C10_16  and  N5_18 
REMARK   11  A    between atoms: N5_18  and  N6_19 
ROOT
HETATM    1  N2  UNL     1      -9.617  39.542 -24.486  1.00  0.00     0.091 N 
HETATM    2  C4  UNL     1      -8.703  39.125 -25.509  1.00  0.00     0.302 C 
HETATM    3  C5  UNL     1      -9.200  38.014 -26.370  1.00  0.00     0.302 C 
HETATM    4  N3  UNL     1     -10.456  38.333 -27.044  1.00  0.00     0.091 N 
HETATM    5  C11 UNL     1     -11.228  39.237 -26.206  1.00  0.00     0.302 C 
HETATM    6  C12 UNL     1     -10.896  38.894 -24.766  1.00  0.00     0.302 C 
ENDROOT
BRANCH   4   7
HETATM    7  C6  UNL     1     -11.215  37.119 -27.212  1.00  0.00     0.272 C 
BRANCH   7   8
HETATM    8  C7  UNL     1     -10.454  36.149 -28.068  1.00  0.00     0.031 C 
BRANCH   8   9
HETATM    9  C8  UNL     1     -10.915  34.737 -27.683  1.00  0.00     0.010 C 
BRANCH   9  10
HETATM   10  C9  UNL     1     -10.329  34.420 -26.342  1.00  0.00     0.091 C 
BRANCH  10  11
HETATM   11  C10 UNL     1      -8.950  33.819 -26.496  1.00  0.00     0.189 C 
HETATM   12  N4  UNL     1      -8.735  32.945 -27.617  1.00  0.00    -0.070 NA
BRANCH  11  13
HETATM   13  N5  UNL     1      -8.077  34.093 -25.731  1.00  0.00    -0.322 NA
BRANCH  13  14
HETATM   14  N6  UNL     1      -7.085  34.323 -24.956  1.00  0.00    -0.279 N 
ATOM     15  H62 UNL     1      -6.631  34.122 -25.847  1.00  0.00     0.191 HD
ATOM     16  H61 UNL     1      -6.344  34.518 -24.281  1.00  0.00     0.191 HD
ENDBRANCH  13  14
ENDBRANCH  11  13
ENDBRANCH  10  11
ENDBRANCH   9  10
ENDBRANCH   8   9
ENDBRANCH   7   8
ENDBRANCH   4   7
BRANCH   1  17
HETATM   17  C3  UNL     1      -9.212  39.087 -23.162  1.00  0.00     0.274 C 
BRANCH  17  18
HETATM   18  C2  UNL     1     -10.149  39.539 -22.091  1.00  0.00     0.057 C 
BRANCH  18  19
HETATM   19  C1  UNL     1     -10.184  41.042 -22.054  1.00  0.00     0.231 C 
BRANCH  19  20
HETATM   20  N1  UNL     1     -10.531  41.601 -20.782  1.00  0.00    -0.079 N 
ATOM     21  H13 UNL     1     -11.505  41.395 -20.558  1.00  0.00     0.274 HD
ATOM     22  H12 UNL     1     -10.066  41.090 -20.031  1.00  0.00     0.274 HD
ATOM     23  H11 UNL     1     -10.353  42.602 -20.693  1.00  0.00     0.274 HD
ENDBRANCH  19  20
ENDBRANCH  18  19
ENDBRANCH  17  18
ENDBRANCH   1  17
TORSDOF 11
ENDMDL
MODEL 2
REMARK VINA RESULT: -6.194303925      1.558      2.371
REMARK  11 active torsions:
REMARK  status: ('A' for Active; 'I' for Inactive)
REMARK    1  A    between atoms: N1_1  and  C1_5 
REMARK    2  A    between atoms: C1_5  and  C2_6 
REMARK    3  A    between atoms: C2_6  and  C3_7 
REMARK    4  A    between atoms: C3_7  and  N2_8 
REMARK    5  A    between atoms: N3_11  and  C6_12 
REMARK    6  A    between atoms: C6_12  and  C7_13 
REMARK    7  A    between atoms: C7_13  and  C8_14 
REMARK    8  A    between atoms: C8_14  and  C9_15 
REMARK    9  A    between atoms: C9_15  and  C10_16 
REMARK   10  A    between atoms: C10_16  and  N5_18 
REMARK   11  A    between atoms: N5_18  and  N6_19 
ROOT
HETATM    1  N2  UNL     1     -11.265  38.339 -26.298  1.00  0.00     0.091 N 
HETATM    2  C4  UNL     1     -10.727  38.220 -27.622  1.00  0.00     0.302 C 
HETATM    3  C5  UNL     1     -10.472  36.819 -28.064  1.00  0.00     0.302 C 
HETATM    4  N3  UNL     1     -11.668  35.981 -28.027  1.00  0.00     0.091 N 
HETATM    5  C11 UNL     1     -12.538  36.443 -26.956  1.00  0.00     0.302 C 
HETATM    6  C12 UNL     1     -11.639  36.994 -25.866  1.00  0.00     0.302 C 
ENDROOT
BRANCH   4   7
HETATM    7  C6  UNL     1     -11.277  34.625 -27.735  1.00  0.00     0.272 C 
BRANCH   7   8
HETATM    8  C7  UNL     1      -9.799  34.459 -27.937  1.00  0.00     0.031 C 
BRANCH   8   9
HETATM    9  C8  UNL     1      -9.355  33.249 -27.104  1.00  0.00     0.010 C 
BRANCH   9  10
HETATM   10  C9  UNL     1      -9.095  33.731 -25.711  1.00  0.00     0.091 C 
BRANCH  10  11
HETATM   11  C10 UNL     1      -7.691  34.281 -25.595  1.00  0.00     0.189 C 
HETATM   12  N4  UNL     1      -6.606  33.365 -25.817  1.00  0.00    -0.070 NA
BRANCH  11  13
HETATM   13  N5  UNL     1      -7.506  35.436 -25.362  1.00  0.00    -0.322 NA
BRANCH  13  14
HETATM   14  N6  UNL     1      -7.311  36.692 -25.206  1.00  0.00    -0.279 N 
ATOM     15  H62 UNL     1      -6.716  36.281 -24.486  1.00  0.00     0.191 HD
ATOM     16  H61 UNL     1      -7.204  37.704 -25.139  1.00  0.00     0.191 HD
ENDBRANCH  13  14
ENDBRANCH  11  13
ENDBRANCH  10  11
ENDBRANCH   9  10
ENDBRANCH   8   9
ENDBRANCH   7   8
ENDBRANCH   4   7
BRANCH   1  17
HETATM   17  C3  UNL     1     -10.276  38.814 -25.339  1.00  0.00     0.274 C 
BRANCH  17  18
HETATM   18  C2  UNL     1     -10.891  39.247 -24.049  1.00  0.00     0.057 C 
BRANCH  18  19
HETATM   19  C1  UNL     1      -9.834  39.295 -22.980  1.00  0.00     0.231 C 
BRANCH  19  20
HETATM   20  N1  UNL     1     -10.324  39.603 -21.669  1.00  0.00    -0.079 N 
ATOM     21  H13 UNL     1      -9.547  39.812 -21.041  1.00  0.00     0.274 HD
ATOM     22  H12 UNL     1     -10.798  40.506 -21.671  1.00  0.00     0.274 HD
ATOM     23  H11 UNL     1     -10.925  38.887 -21.260  1.00  0.00     0.274 HD
ENDBRANCH  19  20
ENDBRANCH  18  19
ENDBRANCH  17  18
ENDBRANCH   1  17
TORSDOF 11
ENDMDL
MODEL 3
REMARK VINA RESULT: -6.111170787      2.425      4.974
REMARK  11 active torsions:
REMARK  status: ('A' for Active; 'I' for Inactive)
REMARK    1  A    between atoms: N1_1  and  C1_5 
REMARK    2  A    between atoms: C1_5  and  C2_6 
REMARK    3  A    between atoms: C2_6  and  C3_7 
REMARK    4  A    between atoms: C3_7  and  N2_8 
REMARK    5  A    between atoms: N3_11  and  C6_12 
REMARK    6  A    between atoms: C6_12  and  C7_13 
REMARK    7  A    between atoms: C7_13  and  C8_14 
REMARK    8  A    between atoms: C8_14  and  C9_15 
REMARK    9  A    between atoms: C9_15  and  C10_16 
REMARK   10  A    between atoms: C10_16  and  N5_18 
REMARK   11  A    between atoms: N5_18  and  N6_19 
ROOT
HETATM    1  N2  UNL     1     -11.682  36.591 -27.585  1.00  0.00     0.091 N 
HETATM    2  C4  UNL     1     -11.871  37.008 -26.226  1.00  0.00     0.302 C 
HETATM    3  C5  UNL     1     -10.669  37.620 -25.593  1.00  0.00     0.302 C 
HETATM    4  N3  UNL     1     -10.172  38.787 -26.318  1.00  0.00     0.091 N 
HETATM    5  C11 UNL     1     -10.458  38.622 -27.735  1.00  0.00     0.302 C 
HETATM    6  C12 UNL     1     -10.399  37.134 -28.025  1.00  0.00     0.302 C 
ENDROOT
BRANCH   4   7
HETATM    7  C6  UNL     1      -8.743  38.864 -26.153  1.00  0.00     0.272 C 
BRANCH   7   8
HETATM    8  C7  UNL     1      -8.319  38.083 -24.943  1.00  0.00     0.031 C 
BRANCH   8   9
HETATM    9  C8  UNL     1      -7.118  37.220 -25.350  1.00  0.00     0.010 C 
BRANCH   9  10
HETATM   10  C9  UNL     1      -7.560  35.790 -25.328  1.00  0.00     0.091 C 
BRANCH  10  11
HETATM   11  C10 UNL     1      -6.364  34.867 -25.285  1.00  0.00     0.189 C 
HETATM   12  N4  UNL     1      -6.564  33.510 -25.717  1.00  0.00    -0.070 NA
BRANCH  11  13
HETATM   13  N5  UNL     1      -5.296  35.269 -24.937  1.00  0.00    -0.322 NA
BRANCH  13  14
HETATM   14  N6  UNL     1      -4.111  35.639 -24.626  1.00  0.00    -0.279 N 
ATOM     15  H62 UNL     1      -4.343  36.259 -25.402  1.00  0.00     0.191 HD
ATOM     16  H61 UNL     1      -3.167  35.881 -24.323  1.00  0.00     0.191 HD
ENDBRANCH  13  14
ENDBRANCH  11  13
ENDBRANCH  10  11
ENDBRANCH   9  10
ENDBRANCH   8   9
ENDBRANCH   7   8
ENDBRANCH   4   7
BRANCH   1  17
HETATM   17  C3  UNL     1     -11.575  35.143 -27.710  1.00  0.00     0.274 C 
BRANCH  17  18
HETATM   18  C2  UNL     1     -10.161  34.682 -27.836  1.00  0.00     0.057 C 
BRANCH  18  19
HETATM   19  C1  UNL     1     -10.040  33.279 -27.306  1.00  0.00     0.231 C 
BRANCH  19  20
HETATM   20  N1  UNL     1      -9.865  33.190 -25.886  1.00  0.00    -0.079 N 
ATOM     21  H13 UNL     1      -9.112  32.538 -25.663  1.00  0.00     0.274 HD
ATOM     22  H12 UNL     1      -9.462  34.055 -25.524  1.00  0.00     0.274 HD
ATOM     23  H11 UNL     1     -10.709  32.947 -25.367  1.00  0.00     0.274 HD
ENDBRANCH  19  20
ENDBRANCH  18  19
ENDBRANCH  17  18
ENDBRANCH   1  17
TORSDOF 11
ENDMDL
MODEL 4
REMARK VINA RESULT: -6.074001901      2.313      4.696
REMARK  11 active torsions:
REMARK  status: ('A' for Active; 'I' for Inactive)
REMARK    1  A    between atoms: N1_1  and  C1_5 
REMARK    2  A    between atoms: C1_5  and  C2_6 
REMARK    3  A    between atoms: C2_6  and  C3_7 
REMARK    4  A    between atoms: C3_7  and  N2_8 
REMARK    5  A    between atoms: N3_11  and  C6_12 
REMARK    6  A    between atoms: C6_12  and  C7_13 
REMARK    7  A    between atoms: C7_13  and  C8_14 
REMARK    8  A    between atoms: C8_14  and  C9_15 
REMARK    9  A    between atoms: C9_15  and  C10_16 
REMARK   10  A    between atoms: C10_16  and  N5_18 
REMARK   11  A    between atoms: N5_18  and  N6_19 
ROOT
HETATM    1  N2  UNL     1     -10.079  38.607 -25.989  1.00  0.00     0.091 N 
HETATM    2  C4  UNL     1      -9.874  39.005 -24.627  1.00  0.00     0.302 C 
HETATM    3  C5  UNL     1      -8.566  38.583 -24.048  1.00  0.00     0.302 C 
HETATM    4  N3  UNL     1      -7.420  39.084 -24.802  1.00  0.00     0.091 N 
HETATM    5  C11 UNL     1      -7.788  39.200 -26.205  1.00  0.00     0.302 C 
HETATM    6  C12 UNL     1      -8.800  38.105 -26.485  1.00  0.00     0.302 C 
ENDROOT
BRANCH   4   7
HETATM    7  C6  UNL     1      -6.343  38.133 -24.697  1.00  0.00     0.272 C 
BRANCH   7   8
HETATM    8  C7  UNL     1      -6.540  37.258 -23.493  1.00  0.00     0.031 C 
BRANCH   8   9
HETATM    9  C8  UNL     1      -5.958  35.878 -23.827  1.00  0.00     0.010 C 
BRANCH   9  10
HETATM   10  C9  UNL     1      -6.045  35.699 -25.310  1.00  0.00     0.091 C 
BRANCH  10  11
HETATM   11  C10 UNL     1      -6.010  34.230 -25.668  1.00  0.00     0.189 C 
HETATM   12  N4  UNL     1      -4.731  33.666 -26.005  1.00  0.00    -0.070 NA
BRANCH  11  13
HETATM   13  N5  UNL     1      -7.004  33.571 -25.635  1.00  0.00    -0.322 NA
BRANCH  13  14
HETATM   14  N6  UNL     1      -8.098  32.917 -25.527  1.00  0.00    -0.279 N 
ATOM     15  H62 UNL     1      -8.363  33.850 -25.212  1.00  0.00     0.191 HD
ATOM     16  H61 UNL     1      -8.934  32.334 -25.466  1.00  0.00     0.191 HD
ENDBRANCH  13  14
ENDBRANCH  11  13
ENDBRANCH  10  11
ENDBRANCH   9  10
ENDBRANCH   8   9
ENDBRANCH   7   8
ENDBRANCH   4   7
BRANCH   1  17
HETATM   17  C3  UNL     1     -11.023  37.503 -26.107  1.00  0.00     0.274 C 
BRANCH  17  18
HETATM   18  C2  UNL     1     -10.677  36.571 -27.222  1.00  0.00     0.057 C 
BRANCH  18  19
HETATM   19  C1  UNL     1     -11.889  35.762 -27.595  1.00  0.00     0.231 C 
BRANCH  19  20
HETATM   20  N1  UNL     1     -13.138  36.332 -27.183  1.00  0.00    -0.079 N 
ATOM     21  H13 UNL     1     -13.104  37.349 -27.256  1.00  0.00     0.274 HD
ATOM     22  H12 UNL     1     -13.863  36.130 -27.872  1.00  0.00     0.274 HD
ATOM     23  H11 UNL     1     -13.446  36.054 -26.251  1.00  0.00     0.274 HD
ENDBRANCH  19  20
ENDBRANCH  18  19
ENDBRANCH  17  18
ENDBRANCH   1  17
TORSDOF 11
ENDMDL
MODEL 5
REMARK VINA RESULT: -5.981245165      2.503      4.672
REMARK  11 active torsions:
REMARK  status: ('A' for Active; 'I' for Inactive)
REMARK    1  A    between atoms: N1_1  and  C1_5 
REMARK    2  A    between atoms: C1_5  and  C2_6 
REMARK    3  A    between atoms: C2_6  and  C3_7 
REMARK    4  A    between atoms: C3_7  and  N2_8 
REMARK    5  A    between atoms: N3_11  and  C6_12 
REMARK    6  A    between atoms: C6_12  and  C7_13 
REMARK    7  A    between atoms: C7_13  and  C8_14 
REMARK    8  A    between atoms: C8_14  and  C9_15 
REMARK    9  A    between atoms: C9_15  and  C10_16 
REMARK   10  A    between atoms: C10_16  and  N5_18 
REMARK   11  A    between atoms: N5_18  and  N6_19 
ROOT
HETATM    1  N2  UNL     1      -5.844  37.946 -24.293  1.00  0.00     0.091 N 
HETATM    2  C4  UNL     1      -5.966  38.479 -25.618  1.00  0.00     0.302 C 
HETATM    3  C5  UNL     1      -7.352  38.466 -26.167  1.00  0.00     0.302 C 
HETATM    4  N3  UNL     1      -8.302  39.202 -25.336  1.00  0.00     0.091 N 
HETATM    5  C11 UNL     1      -7.884  39.116 -23.946  1.00  0.00     0.302 C 
HETATM    6  C12 UNL     1      -7.199  37.773 -23.775  1.00  0.00     0.302 C 
ENDROOT
BRANCH   4   7
HETATM    7  C6  UNL     1      -9.599  38.585 -25.454  1.00  0.00     0.272 C 
BRANCH   7   8
HETATM    8  C7  UNL     1      -9.503  37.333 -26.276  1.00  0.00     0.031 C 
BRANCH   8   9
HETATM    9  C8  UNL     1     -10.659  37.356 -27.285  1.00  0.00     0.010 C 
BRANCH   9  10
HETATM   10  C9  UNL     1     -10.459  36.209 -28.226  1.00  0.00     0.091 C 
BRANCH  10  11
HETATM   11  C10 UNL     1     -11.247  35.004 -27.766  1.00  0.00     0.189 C 
HETATM   12  N4  UNL     1     -12.640  35.202 -27.475  1.00  0.00    -0.070 NA
BRANCH  11  13
HETATM   13  N5  UNL     1     -10.730  33.931 -27.685  1.00  0.00    -0.322 NA
BRANCH  13  14
HETATM   14  N6  UNL     1     -10.215  32.773 -27.512  1.00  0.00    -0.279 N 
ATOM     15  H62 UNL     1     -10.448  33.059 -26.561  1.00  0.00     0.191 HD
ATOM     16  H61 UNL     1      -9.795  31.845 -27.449  1.00  0.00     0.191 HD
ENDBRANCH  13  14
ENDBRANCH  11  13
ENDBRANCH  10  11
ENDBRANCH   9  10
ENDBRANCH   8   9
ENDBRANCH   7   8
ENDBRANCH   4   7
BRANCH   1  17
HETATM   17  C3  UNL     1      -5.232  36.624 -24.281  1.00  0.00     0.274 C 
BRANCH  17  18
HETATM   18  C2  UNL     1      -6.243  35.525 -24.246  1.00  0.00     0.057 C 
BRANCH  18  19
HETATM   19  C1  UNL     1      -6.072  34.646 -25.454  1.00  0.00     0.231 C 
BRANCH  19  20
HETATM   20  N1  UNL     1      -4.729  34.561 -25.946  1.00  0.00    -0.079 N 
ATOM     21  H13 UNL     1      -4.467  33.586 -26.092  1.00  0.00     0.274 HD
ATOM     22  H12 UNL     1      -4.682  34.901 -26.907  1.00  0.00     0.274 HD
ATOM     23  H11 UNL     1      -4.033  35.032 -25.369  1.00  0.00     0.274 HD
ENDBRANCH  19  20
ENDBRANCH  18  19
ENDBRANCH  17  18
ENDBRANCH   1  17
TORSDOF 11
ENDMDL
