MODEL 1
REMARK VINA RESULT: -7.144793008      0.000      0.000
REMARK  9 active torsions:
REMARK  status: ('A' for Active; 'I' for Inactive)
REMARK    1  A    between atoms: C1_2  and  N1_3 
REMARK    2  A    between atoms: N1_3  and  C2_5 
REMARK    3  A    between atoms: C2_5  and  C3_6 
REMARK    4  A    between atoms: C3_6  and  C4_7 
REMARK    5  A    between atoms: C4_7  and  N2_8 
REMARK    6  A    between atoms: N2_8  and  C5_10 
REMARK    7  A    between atoms: C5_10  and  C6_11 
REMARK       I    between atoms: C6_11  and  N3_13 
REMARK    8  A    between atoms: N3_13  and  N4_15 
REMARK    9  A    between atoms: C7_17  and  C8_18 
ROOT
HETATM    1  C6  UNL     1     -12.109  36.628 -26.710  1.00  0.00     0.253 C 
HETATM    2  O2  UNL     1     -12.757  36.254 -25.714  1.00  0.00    -0.270 OA
HETATM    3  N3  UNL     1     -11.462  37.879 -26.712  1.00  0.00    -0.269 N 
ATOM      4  H3  UNL     1     -10.955  38.122 -27.564  1.00  0.00     0.190 HD
ENDROOT
BRANCH   1   5
HETATM    5  C5  UNL     1     -12.002  35.761 -27.911  1.00  0.00     0.218 C 
BRANCH   5   6
HETATM    6  N2  UNL     1     -10.740  35.130 -27.969  1.00  0.00    -0.413 N 
ATOM      7  H2  UNL     1      -9.904  35.652 -28.227  1.00  0.00     0.153 HD
BRANCH   6   8
HETATM    8  C4  UNL     1     -10.672  33.746 -27.659  1.00  0.00     0.115 C 
BRANCH   8   9
HETATM    9  C3  UNL     1      -9.189  33.455 -27.314  1.00  0.00     0.039 C 
BRANCH   9  10
HETATM   10  C2  UNL     1      -8.991  33.743 -25.845  1.00  0.00     0.123 C 
BRANCH  10  11
HETATM   11  N1  UNL     1      -7.709  33.301 -25.406  1.00  0.00    -0.368 N 
ATOM     12  H1  UNL     1      -7.641  32.388 -24.956  1.00  0.00     0.161 HD
BRANCH  11  13
HETATM   13  C1  UNL     1      -6.546  34.050 -25.560  1.00  0.00     0.348 C 
HETATM   14  O1  UNL     1      -5.478  33.591 -26.066  1.00  0.00    -0.284 OA
ENDBRANCH  11  13
ENDBRANCH  10  11
ENDBRANCH   9  10
ENDBRANCH   8   9
ENDBRANCH   6   8
ENDBRANCH   5   6
ENDBRANCH   1   5
BRANCH   3  15
HETATM   15  N4  UNL     1     -11.433  38.810 -25.704  1.00  0.00    -0.308 N 
HETATM   16  C7  UNL     1     -10.560  38.833 -24.769  1.00  0.00     0.120 C 
ATOM     17  H4  UNL     1     -12.155  39.530 -25.699  1.00  0.00     0.186 HD
BRANCH  16  18
HETATM   18  C8  UNL     1     -10.634  39.894 -23.732  1.00  0.00    -0.004 A 
HETATM   19  C9  UNL     1     -10.273  39.642 -22.426  1.00  0.00     0.015 A 
HETATM   20  C10 UNL     1     -10.359  40.656 -21.469  1.00  0.00     0.018 A 
HETATM   21  C11 UNL     1     -10.802  41.921 -21.801  1.00  0.00     0.087 A 
HETATM   22  N5  UNL     1     -11.147  42.138 -23.082  1.00  0.00    -0.374 N 
HETATM   23  C12 UNL     1     -11.071  41.170 -24.022  1.00  0.00     0.100 A 
ATOM     24  H5  UNL     1     -11.478  43.064 -23.354  1.00  0.00     0.164 HD
ENDBRANCH  16  18
ENDBRANCH   3  15
TORSDOF 9
ENDMDL
MODEL 2
REMARK VINA RESULT: -7.117782784      1.224      1.580
REMARK  9 active torsions:
REMARK  status: ('A' for Active; 'I' for Inactive)
REMARK    1  A    between atoms: C1_2  and  N1_3 
REMARK    2  A    between atoms: N1_3  and  C2_5 
REMARK    3  A    between atoms: C2_5  and  C3_6 
REMARK    4  A    between atoms: C3_6  and  C4_7 
REMARK    5  A    between atoms: C4_7  and  N2_8 
REMARK    6  A    between atoms: N2_8  and  C5_10 
REMARK    7  A    between atoms: C5_10  and  C6_11 
REMARK       I    between atoms: C6_11  and  N3_13 
REMARK    8  A    between atoms: N3_13  and  N4_15 
REMARK    9  A    between atoms: C7_17  and  C8_18 
ROOT
HETATM    1  C6  UNL     1     -12.259  37.554 -26.610  1.00  0.00     0.253 C 
HETATM    2  O2  UNL     1     -12.786  38.509 -27.213  1.00  0.00    -0.270 OA
HETATM    3  N3  UNL     1     -11.707  37.735 -25.327  1.00  0.00    -0.269 N 
ATOM      4  H3  UNL     1     -11.287  36.911 -24.897  1.00  0.00     0.190 HD
ENDROOT
BRANCH   1   5
HETATM    5  C5  UNL     1     -12.205  36.205 -27.232  1.00  0.00     0.218 C 
BRANCH   5   6
HETATM    6  N2  UNL     1     -11.008  35.537 -26.889  1.00  0.00    -0.413 N 
ATOM      7  H2  UNL     1     -10.653  35.555 -25.933  1.00  0.00     0.153 HD
BRANCH   6   8
HETATM    8  C4  UNL     1     -10.315  34.842 -27.914  1.00  0.00     0.115 C 
BRANCH   8   9
HETATM    9  C3  UNL     1     -10.001  33.435 -27.344  1.00  0.00     0.039 C 
BRANCH   9  10
HETATM   10  C2  UNL     1      -9.967  33.545 -25.838  1.00  0.00     0.123 C 
BRANCH  10  11
HETATM   11  N1  UNL     1      -8.672  33.230 -25.332  1.00  0.00    -0.368 N 
ATOM     12  H1  UNL     1      -8.586  32.461 -24.668  1.00  0.00     0.161 HD
BRANCH  11  13
HETATM   13  C1  UNL     1      -7.518  33.917 -25.698  1.00  0.00     0.348 C 
HETATM   14  O1  UNL     1      -6.370  33.382 -25.754  1.00  0.00    -0.284 OA
ENDBRANCH  11  13
ENDBRANCH  10  11
ENDBRANCH   9  10
ENDBRANCH   8   9
ENDBRANCH   6   8
ENDBRANCH   5   6
ENDBRANCH   1   5
BRANCH   3  15
HETATM   15  N4  UNL     1     -11.669  38.891 -24.587  1.00  0.00    -0.308 N 
HETATM   16  C7  UNL     1     -10.670  39.261 -23.879  1.00  0.00     0.120 C 
ATOM     17  H4  UNL     1     -12.491  39.493 -24.602  1.00  0.00     0.186 HD
BRANCH  16  18
HETATM   18  C8  UNL     1     -10.748  40.535 -23.121  1.00  0.00    -0.004 A 
HETATM   19  C9  UNL     1     -11.141  41.707 -23.732  1.00  0.00     0.015 A 
HETATM   20  C10 UNL     1     -11.199  42.893 -22.997  1.00  0.00     0.018 A 
HETATM   21  C11 UNL     1     -10.869  42.925 -21.657  1.00  0.00     0.087 A 
HETATM   22  N5  UNL     1     -10.488  41.767 -21.087  1.00  0.00    -0.374 N 
HETATM   23  C12 UNL     1     -10.426  40.610 -21.781  1.00  0.00     0.100 A 
ATOM     24  H5  UNL     1     -10.239  41.763 -20.098  1.00  0.00     0.164 HD
ENDBRANCH  16  18
ENDBRANCH   3  15
TORSDOF 9
ENDMDL
MODEL 3
REMARK VINA RESULT: -7.104431971      0.646      1.079
REMARK  9 active torsions:
REMARK  status: ('A' for Active; 'I' for Inactive)
REMARK    1  A    between atoms: C1_2  and  N1_3 
REMARK    2  A    between atoms: N1_3  and  C2_5 
REMARK    3  A    between atoms: C2_5  and  C3_6 
REMARK    4  A    between atoms: C3_6  and  C4_7 
REMARK    5  A    between atoms: C4_7  and  N2_8 
REMARK    6  A    between atoms: N2_8  and  C5_10 
REMARK    7  A    between atoms: C5_10  and  C6_11 
REMARK       I    between atoms: C6_11  and  N3_13 
REMARK    8  A    between atoms: N3_13  and  N4_15 
REMARK    9  A    between atoms: C7_17  and  C8_18 
ROOT
HETATM    1  C6  UNL     1     -12.040  36.691 -26.701  1.00  0.00     0.253 C 
HETATM    2  O2  UNL     1     -12.683  36.280 -25.716  1.00  0.00    -0.270 OA
HETATM    3  N3  UNL     1     -11.408  37.950 -26.668  1.00  0.00    -0.269 N 
ATOM      4  H3  UNL     1     -10.905  38.223 -27.512  1.00  0.00     0.190 HD
ENDROOT
BRANCH   1   5
HETATM    5  C5  UNL     1     -11.925  35.861 -27.928  1.00  0.00     0.218 C 
BRANCH   5   6
HETATM    6  N2  UNL     1     -10.689  35.179 -27.963  1.00  0.00    -0.413 N 
ATOM      7  H2  UNL     1      -9.827  35.667 -28.205  1.00  0.00     0.153 HD
BRANCH   6   8
HETATM    8  C4  UNL     1     -10.682  33.794 -27.653  1.00  0.00     0.115 C 
BRANCH   8   9
HETATM    9  C3  UNL     1      -9.214  33.437 -27.304  1.00  0.00     0.039 C 
BRANCH   9  10
HETATM   10  C2  UNL     1      -9.018  33.682 -25.827  1.00  0.00     0.123 C 
BRANCH  10  11
HETATM   11  N1  UNL     1      -7.713  33.286 -25.413  1.00  0.00    -0.368 N 
ATOM     12  H1  UNL     1      -7.602  32.372 -24.973  1.00  0.00     0.161 HD
BRANCH  11  13
HETATM   13  C1  UNL     1      -6.582  34.080 -25.579  1.00  0.00     0.348 C 
HETATM   14  O1  UNL     1      -5.425  33.616 -25.809  1.00  0.00    -0.284 OA
ENDBRANCH  11  13
ENDBRANCH  10  11
ENDBRANCH   9  10
ENDBRANCH   8   9
ENDBRANCH   6   8
ENDBRANCH   5   6
ENDBRANCH   1   5
BRANCH   3  15
HETATM   15  N4  UNL     1     -11.389  38.851 -25.632  1.00  0.00    -0.308 N 
HETATM   16  C7  UNL     1     -10.506  38.865 -24.706  1.00  0.00     0.120 C 
ATOM     17  H4  UNL     1     -12.126  39.554 -25.600  1.00  0.00     0.186 HD
BRANCH  16  18
HETATM   18  C8  UNL     1     -10.592  39.893 -23.637  1.00  0.00    -0.004 A 
HETATM   19  C9  UNL     1     -10.913  41.201 -23.928  1.00  0.00     0.015 A 
HETATM   20  C10 UNL     1     -10.978  42.148 -22.904  1.00  0.00     0.018 A 
HETATM   21  C11 UNL     1     -10.728  41.806 -21.591  1.00  0.00     0.087 A 
HETATM   22  N5  UNL     1     -10.418  40.522 -21.336  1.00  0.00    -0.374 N 
HETATM   23  C12 UNL     1     -10.348  39.591 -22.313  1.00  0.00     0.100 A 
ATOM     24  H5  UNL     1     -10.228  40.242 -20.374  1.00  0.00     0.164 HD
ENDBRANCH  16  18
ENDBRANCH   3  15
TORSDOF 9
ENDMDL
MODEL 4
REMARK VINA RESULT: -6.592855495      2.916      7.735
REMARK  9 active torsions:
REMARK  status: ('A' for Active; 'I' for Inactive)
REMARK    1  A    between atoms: C1_2  and  N1_3 
REMARK    2  A    between atoms: N1_3  and  C2_5 
REMARK    3  A    between atoms: C2_5  and  C3_6 
REMARK    4  A    between atoms: C3_6  and  C4_7 
REMARK    5  A    between atoms: C4_7  and  N2_8 
REMARK    6  A    between atoms: N2_8  and  C5_10 
REMARK    7  A    between atoms: C5_10  and  C6_11 
REMARK       I    between atoms: C6_11  and  N3_13 
REMARK    8  A    between atoms: N3_13  and  N4_15 
REMARK    9  A    between atoms: C7_17  and  C8_18 
ROOT
HETATM    1  C6  UNL     1     -10.380  39.885 -22.757  1.00  0.00     0.253 C 
HETATM    2  O2  UNL     1      -9.525  39.019 -22.492  1.00  0.00    -0.270 OA
HETATM    3  N3  UNL     1     -11.320  39.671 -23.785  1.00  0.00    -0.269 N 
ATOM      4  H3  UNL     1     -11.986  40.426 -23.950  1.00  0.00     0.190 HD
ENDROOT
BRANCH   1   5
HETATM    5  C5  UNL     1     -10.429  41.158 -21.992  1.00  0.00     0.218 C 
BRANCH   5   6
HETATM    6  N2  UNL     1     -10.157  42.262 -22.829  1.00  0.00    -0.413 N 
ATOM      7  H2  UNL     1      -9.215  42.436 -23.179  1.00  0.00     0.153 HD
BRANCH   6   8
HETATM    8  C4  UNL     1     -11.233  43.123 -23.170  1.00  0.00     0.115 C 
BRANCH   8   9
HETATM    9  C3  UNL     1     -10.885  43.721 -24.556  1.00  0.00     0.039 C 
BRANCH   9  10
HETATM   10  C2  UNL     1     -10.924  42.599 -25.567  1.00  0.00     0.123 C 
BRANCH  10  11
HETATM   11  N1  UNL     1     -12.139  42.623 -26.310  1.00  0.00    -0.368 N 
ATOM     12  H1  UNL     1     -12.394  43.485 -26.793  1.00  0.00     0.161 HD
BRANCH  11  13
HETATM   13  C1  UNL     1     -12.998  41.532 -26.410  1.00  0.00     0.348 C 
HETATM   14  O1  UNL     1     -13.308  40.790 -25.431  1.00  0.00    -0.284 OA
ENDBRANCH  11  13
ENDBRANCH  10  11
ENDBRANCH   9  10
ENDBRANCH   8   9
ENDBRANCH   6   8
ENDBRANCH   5   6
ENDBRANCH   1   5
BRANCH   3  15
HETATM   15  N4  UNL     1     -11.444  38.566 -24.590  1.00  0.00    -0.308 N 
HETATM   16  C7  UNL     1     -10.754  38.365 -25.649  1.00  0.00     0.120 C 
ATOM     17  H4  UNL     1     -12.131  37.860 -24.328  1.00  0.00     0.186 HD
BRANCH  16  18
HETATM   18  C8  UNL     1     -10.980  37.128 -26.438  1.00  0.00    -0.004 A 
HETATM   19  C9  UNL     1      -9.928  36.321 -26.817  1.00  0.00     0.015 A 
HETATM   20  C10 UNL     1     -10.169  35.167 -27.567  1.00  0.00     0.018 A 
HETATM   21  C11 UNL     1     -11.447  34.807 -27.943  1.00  0.00     0.087 A 
HETATM   22  N5  UNL     1     -12.454  35.614 -27.560  1.00  0.00    -0.374 N 
HETATM   23  C12 UNL     1     -12.241  36.735 -26.835  1.00  0.00     0.100 A 
ATOM     24  H5  UNL     1     -13.408  35.371 -27.825  1.00  0.00     0.164 HD
ENDBRANCH  16  18
ENDBRANCH   3  15
TORSDOF 9
ENDMDL
MODEL 5
REMARK VINA RESULT: -6.531316180      2.310      4.259
REMARK  9 active torsions:
REMARK  status: ('A' for Active; 'I' for Inactive)
REMARK    1  A    between atoms: C1_2  and  N1_3 
REMARK    2  A    between atoms: N1_3  and  C2_5 
REMARK    3  A    between atoms: C2_5  and  C3_6 
REMARK    4  A    between atoms: C3_6  and  C4_7 
REMARK    5  A    between atoms: C4_7  and  N2_8 
REMARK    6  A    between atoms: N2_8  and  C5_10 
REMARK    7  A    between atoms: C5_10  and  C6_11 
REMARK       I    between atoms: C6_11  and  N3_13 
REMARK    8  A    between atoms: N3_13  and  N4_15 
REMARK    9  A    between atoms: C7_17  and  C8_18 
ROOT
HETATM    1  C6  UNL     1      -6.388  36.749 -23.701  1.00  0.00     0.253 C 
HETATM    2  O2  UNL     1      -5.878  37.003 -22.593  1.00  0.00    -0.270 OA
HETATM    3  N3  UNL     1      -7.454  37.526 -24.194  1.00  0.00    -0.269 N 
ATOM      4  H3  UNL     1      -7.825  37.256 -25.105  1.00  0.00     0.190 HD
ENDROOT
BRANCH   1   5
HETATM    5  C5  UNL     1      -5.879  35.623 -24.526  1.00  0.00     0.218 C 
BRANCH   5   6
HETATM    6  N2  UNL     1      -6.807  34.559 -24.559  1.00  0.00    -0.413 N 
ATOM      7  H2  UNL     1      -7.161  34.144 -23.697  1.00  0.00     0.153 HD
BRANCH   6   8
HETATM    8  C4  UNL     1      -7.234  34.084 -25.827  1.00  0.00     0.115 C 
BRANCH   8   9
HETATM    9  C3  UNL     1      -8.764  33.867 -25.714  1.00  0.00     0.039 C 
BRANCH   9  10
HETATM   10  C2  UNL     1      -9.244  33.272 -27.017  1.00  0.00     0.123 C 
BRANCH  10  11
HETATM   11  N1  UNL     1      -9.767  34.282 -27.876  1.00  0.00    -0.368 N 
ATOM     12  H1  UNL     1      -9.266  34.489 -28.740  1.00  0.00     0.161 HD
BRANCH  11  13
HETATM   13  C1  UNL     1     -10.927  35.000 -27.598  1.00  0.00     0.348 C 
HETATM   14  O1  UNL     1     -12.095  34.561 -27.820  1.00  0.00    -0.284 OA
ENDBRANCH  11  13
ENDBRANCH  10  11
ENDBRANCH   9  10
ENDBRANCH   8   9
ENDBRANCH   6   8
ENDBRANCH   5   6
ENDBRANCH   1   5
BRANCH   3  15
HETATM   15  N4  UNL     1      -8.052  38.605 -23.592  1.00  0.00    -0.308 N 
HETATM   16  C7  UNL     1      -9.254  38.981 -23.816  1.00  0.00     0.120 C 
ATOM     17  H4  UNL     1      -7.502  39.142 -22.922  1.00  0.00     0.186 HD
BRANCH  16  18
HETATM   18  C8  UNL     1      -9.790  40.167 -23.101  1.00  0.00    -0.004 A 
HETATM   19  C9  UNL     1     -10.064  41.341 -23.769  1.00  0.00     0.015 A 
HETATM   20  C10 UNL     1     -10.560  42.443 -23.069  1.00  0.00     0.018 A 
HETATM   21  C11 UNL     1     -10.788  42.388 -21.709  1.00  0.00     0.087 A 
HETATM   22  N5  UNL     1     -10.512  41.230 -21.083  1.00  0.00    -0.374 N 
HETATM   23  C12 UNL     1     -10.030  40.153 -21.742  1.00  0.00     0.100 A 
ATOM     24  H5  UNL     1     -10.670  41.163 -20.078  1.00  0.00     0.164 HD
ENDBRANCH  16  18
ENDBRANCH   3  15
TORSDOF 9
ENDMDL
