MODEL 1
REMARK VINA RESULT: -6.411014624      0.000      0.000
REMARK  6 active torsions:
REMARK  status: ('A' for Active; 'I' for Inactive)
REMARK    1  A    between atoms: N2_5  and  C3_6 
REMARK    2  A    between atoms: C3_6  and  C4_7 
REMARK    3  A    between atoms: C4_7  and  C5_8 
REMARK    4  A    between atoms: C5_8  and  N3_9 
REMARK    5  A    between atoms: N3_9  and  C6_12 
REMARK    6  A    between atoms: C6_12  and  C7_13 
ROOT
HETATM    1  C5  UNL     1       2.947  17.928 -40.833  1.00  0.00     0.234 C 
ENDROOT
BRANCH   1   2
HETATM    2  C4  UNL     1       2.480  17.876 -42.265  1.00  0.00     0.049 C 
BRANCH   2   3
HETATM    3  C3  UNL     1       2.673  16.546 -42.927  1.00  0.00     0.151 C 
BRANCH   3   4
HETATM    4  N2  UNL     1       3.311  16.602 -44.207  1.00  0.00    -0.287 N 
HETATM    5  C2  UNL     1       2.899  17.302 -45.268  1.00  0.00     0.201 A 
HETATM    6  N1  UNL     1       3.764  17.092 -46.279  1.00  0.00    -0.346 N 
HETATM    7  C1  UNL     1       4.712  16.265 -45.855  1.00  0.00     0.198 A 
ATOM      8  H1  UNL     1       3.701  17.499 -47.212  1.00  0.00     0.167 HD
HETATM    9  N5  UNL     1       4.412  15.976 -44.575  1.00  0.00    -0.293 N 
ATOM     10  H5  UNL     1       4.960  15.359 -43.974  1.00  0.00     0.188 HD
ENDBRANCH   3   4
ENDBRANCH   2   3
ENDBRANCH   1   2
BRANCH   1  11
HETATM   11  N3  UNL     1       3.892  16.902 -40.504  1.00  0.00    -0.071 N 
ATOM     12  H32 UNL     1       4.256  16.456 -41.346  1.00  0.00     0.277 HD
ATOM     13  H31 UNL     1       4.757  17.305 -40.143  1.00  0.00     0.277 HD
BRANCH  11  14
HETATM   14  C6  UNL     1       3.356  15.917 -39.586  1.00  0.00     0.272 C 
BRANCH  14  15
HETATM   15  C7  UNL     1       3.867  14.578 -40.038  1.00  0.00    -0.016 A 
HETATM   16  C8  UNL     1       3.268  13.354 -39.787  1.00  0.00     0.027 A 
HETATM   17  C9  UNL     1       4.053  12.383 -40.381  1.00  0.00     0.088 A 
HETATM   18  N4  UNL     1       5.111  12.973 -40.989  1.00  0.00    -0.375 N 
HETATM   19  C10 UNL     1       5.002  14.310 -40.782  1.00  0.00     0.096 A 
ATOM     20  H4  UNL     1       5.853  12.500 -41.506  1.00  0.00     0.164 HD
ENDBRANCH  14  15
ENDBRANCH  11  14
ENDBRANCH   1  11
TORSDOF 6
ENDMDL
MODEL 2
REMARK VINA RESULT: -6.102630609      2.106      3.622
REMARK  6 active torsions:
REMARK  status: ('A' for Active; 'I' for Inactive)
REMARK    1  A    between atoms: N2_5  and  C3_6 
REMARK    2  A    between atoms: C3_6  and  C4_7 
REMARK    3  A    between atoms: C4_7  and  C5_8 
REMARK    4  A    between atoms: C5_8  and  N3_9 
REMARK    5  A    between atoms: N3_9  and  C6_12 
REMARK    6  A    between atoms: C6_12  and  C7_13 
ROOT
HETATM    1  C5  UNL     1       3.248  15.655 -42.616  1.00  0.00     0.234 C 
ENDROOT
BRANCH   1   2
HETATM    2  C4  UNL     1       2.778  17.033 -43.005  1.00  0.00     0.049 C 
BRANCH   2   3
HETATM    3  C3  UNL     1       1.951  17.719 -41.961  1.00  0.00     0.151 C 
BRANCH   3   4
HETATM    4  N2  UNL     1       2.702  18.454 -40.990  1.00  0.00    -0.287 N 
HETATM    5  C2  UNL     1       2.351  18.679 -39.721  1.00  0.00     0.201 A 
HETATM    6  N1  UNL     1       3.318  19.411 -39.135  1.00  0.00    -0.346 N 
HETATM    7  C1  UNL     1       4.269  19.644 -40.031  1.00  0.00     0.198 A 
ATOM      8  H1  UNL     1       3.319  19.731 -38.166  1.00  0.00     0.167 HD
HETATM    9  N5  UNL     1       3.868  19.045 -41.168  1.00  0.00    -0.293 N 
ATOM     10  H5  UNL     1       4.392  19.048 -42.043  1.00  0.00     0.188 HD
ENDBRANCH   3   4
ENDBRANCH   2   3
ENDBRANCH   1   2
BRANCH   1  11
HETATM   11  N3  UNL     1       4.569  15.639 -42.059  1.00  0.00    -0.071 N 
ATOM     12  H32 UNL     1       5.155  14.949 -42.529  1.00  0.00     0.277 HD
ATOM     13  H31 UNL     1       5.079  16.486 -42.306  1.00  0.00     0.277 HD
BRANCH  11  14
HETATM   14  C6  UNL     1       4.571  15.430 -40.625  1.00  0.00     0.272 C 
BRANCH  14  15
HETATM   15  C7  UNL     1       4.260  13.978 -40.396  1.00  0.00    -0.016 A 
HETATM   16  C8  UNL     1       3.185  13.482 -39.676  1.00  0.00     0.027 A 
HETATM   17  C9  UNL     1       3.266  12.102 -39.716  1.00  0.00     0.088 A 
HETATM   18  N4  UNL     1       4.354  11.738 -40.439  1.00  0.00    -0.375 N 
HETATM   19  C10 UNL     1       4.963  12.877 -40.855  1.00  0.00     0.096 A 
ATOM     20  H4  UNL     1       4.659  10.784 -40.634  1.00  0.00     0.164 HD
ENDBRANCH  14  15
ENDBRANCH  11  14
ENDBRANCH   1  11
TORSDOF 6
ENDMDL
MODEL 3
REMARK VINA RESULT: -6.047887109      2.806      5.128
REMARK  6 active torsions:
REMARK  status: ('A' for Active; 'I' for Inactive)
REMARK    1  A    between atoms: N2_5  and  C3_6 
REMARK    2  A    between atoms: C3_6  and  C4_7 
REMARK    3  A    between atoms: C4_7  and  C5_8 
REMARK    4  A    between atoms: C5_8  and  N3_9 
REMARK    5  A    between atoms: N3_9  and  C6_12 
REMARK    6  A    between atoms: C6_12  and  C7_13 
ROOT
HETATM    1  C5  UNL     1       2.958  18.132 -40.766  1.00  0.00     0.234 C 
ENDROOT
BRANCH   1   2
HETATM    2  C4  UNL     1       1.469  17.911 -40.832  1.00  0.00     0.049 C 
BRANCH   2   3
HETATM    3  C3  UNL     1       0.689  18.657 -39.792  1.00  0.00     0.151 C 
BRANCH   3   4
HETATM    4  N2  UNL     1       0.646  18.024 -38.509  1.00  0.00    -0.287 N 
HETATM    5  C2  UNL     1      -0.190  17.051 -38.133  1.00  0.00     0.201 A 
HETATM    6  N1  UNL     1       0.083  16.726 -36.854  1.00  0.00    -0.346 N 
HETATM    7  C1  UNL     1       1.082  17.490 -36.431  1.00  0.00     0.198 A 
ATOM      8  H1  UNL     1      -0.398  16.014 -36.305  1.00  0.00     0.167 HD
HETATM    9  N5  UNL     1       1.413  18.283 -37.467  1.00  0.00    -0.293 N 
ATOM     10  H5  UNL     1       2.154  18.985 -37.450  1.00  0.00     0.188 HD
ENDBRANCH   3   4
ENDBRANCH   2   3
ENDBRANCH   1   2
BRANCH   1  11
HETATM   11  N3  UNL     1       3.716  16.916 -40.787  1.00  0.00    -0.071 N 
ATOM     12  H32 UNL     1       3.688  16.484 -41.711  1.00  0.00     0.277 HD
ATOM     13  H31 UNL     1       4.715  17.109 -40.724  1.00  0.00     0.277 HD
BRANCH  11  14
HETATM   14  C6  UNL     1       3.303  15.978 -39.764  1.00  0.00     0.272 C 
BRANCH  14  15
HETATM   15  C7  UNL     1       3.884  14.643 -40.137  1.00  0.00    -0.016 A 
HETATM   16  C8  UNL     1       3.312  13.408 -39.878  1.00  0.00     0.027 A 
HETATM   17  C9  UNL     1       4.164  12.446 -40.391  1.00  0.00     0.088 A 
HETATM   18  N4  UNL     1       5.236  13.053 -40.955  1.00  0.00    -0.375 N 
HETATM   19  C10 UNL     1       5.070  14.391 -40.803  1.00  0.00     0.096 A 
ATOM     20  H4  UNL     1       6.023  12.589 -41.410  1.00  0.00     0.164 HD
ENDBRANCH  14  15
ENDBRANCH  11  14
ENDBRANCH   1  11
TORSDOF 6
ENDMDL
MODEL 4
REMARK VINA RESULT: -6.041752827      3.334      5.200
REMARK  6 active torsions:
REMARK  status: ('A' for Active; 'I' for Inactive)
REMARK    1  A    between atoms: N2_5  and  C3_6 
REMARK    2  A    between atoms: C3_6  and  C4_7 
REMARK    3  A    between atoms: C4_7  and  C5_8 
REMARK    4  A    between atoms: C5_8  and  N3_9 
REMARK    5  A    between atoms: N3_9  and  C6_12 
REMARK    6  A    between atoms: C6_12  and  C7_13 
ROOT
HETATM    1  C5  UNL     1       4.434  17.867 -39.070  1.00  0.00     0.234 C 
ENDROOT
BRANCH   1   2
HETATM    2  C4  UNL     1       3.478  19.021 -39.223  1.00  0.00     0.049 C 
BRANCH   2   3
HETATM    3  C3  UNL     1       2.607  19.261 -38.028  1.00  0.00     0.151 C 
BRANCH   3   4
HETATM    4  N2  UNL     1       1.566  18.297 -37.843  1.00  0.00    -0.287 N 
HETATM    5  C2  UNL     1       1.460  17.427 -36.834  1.00  0.00     0.201 A 
HETATM    6  N1  UNL     1       0.347  16.692 -37.020  1.00  0.00    -0.346 N 
HETATM    7  C1  UNL     1      -0.241  17.097 -38.140  1.00  0.00     0.198 A 
ATOM      8  H1  UNL     1       0.013  15.950 -36.406  1.00  0.00     0.167 HD
HETATM    9  N5  UNL     1       0.528  18.087 -38.630  1.00  0.00    -0.293 N 
ATOM     10  H5  UNL     1       0.335  18.602 -39.489  1.00  0.00     0.188 HD
ENDBRANCH   3   4
ENDBRANCH   2   3
ENDBRANCH   1   2
BRANCH   1  11
HETATM   11  N3  UNL     1       4.286  16.865 -40.084  1.00  0.00    -0.071 N 
ATOM     12  H32 UNL     1       4.080  17.289 -40.989  1.00  0.00     0.277 HD
ATOM     13  H31 UNL     1       5.182  16.432 -40.303  1.00  0.00     0.277 HD
BRANCH  11  14
HETATM   14  C6  UNL     1       3.295  15.864 -39.744  1.00  0.00     0.272 C 
BRANCH  14  15
HETATM   15  C7  UNL     1       3.876  14.531 -40.124  1.00  0.00    -0.016 A 
HETATM   16  C8  UNL     1       3.301  13.295 -39.877  1.00  0.00     0.027 A 
HETATM   17  C9  UNL     1       4.153  12.335 -40.392  1.00  0.00     0.088 A 
HETATM   18  N4  UNL     1       5.230  12.944 -40.947  1.00  0.00    -0.375 N 
HETATM   19  C10 UNL     1       5.065  14.282 -40.786  1.00  0.00     0.096 A 
ATOM     20  H4  UNL     1       6.018  12.482 -41.401  1.00  0.00     0.164 HD
ENDBRANCH  14  15
ENDBRANCH  11  14
ENDBRANCH   1  11
TORSDOF 6
ENDMDL
MODEL 5
REMARK VINA RESULT: -6.027084620      3.410      4.308
REMARK  6 active torsions:
REMARK  status: ('A' for Active; 'I' for Inactive)
REMARK    1  A    between atoms: N2_5  and  C3_6 
REMARK    2  A    between atoms: C3_6  and  C4_7 
REMARK    3  A    between atoms: C4_7  and  C5_8 
REMARK    4  A    between atoms: C5_8  and  N3_9 
REMARK    5  A    between atoms: N3_9  and  C6_12 
REMARK    6  A    between atoms: C6_12  and  C7_13 
ROOT
HETATM    1  C5  UNL     1       1.922  16.456 -37.684  1.00  0.00     0.234 C 
ENDROOT
BRANCH   1   2
HETATM    2  C4  UNL     1       1.671  17.681 -38.524  1.00  0.00     0.049 C 
BRANCH   2   3
HETATM    3  C3  UNL     1       2.387  18.909 -38.050  1.00  0.00     0.151 C 
BRANCH   3   4
HETATM    4  N2  UNL     1       3.358  19.427 -38.965  1.00  0.00    -0.287 N 
HETATM    5  C2  UNL     1       3.477  19.110 -40.257  1.00  0.00     0.201 A 
HETATM    6  N1  UNL     1       4.509  19.805 -40.773  1.00  0.00    -0.346 N 
HETATM    7  C1  UNL     1       5.034  20.553 -39.810  1.00  0.00     0.198 A 
ATOM      8  H1  UNL     1       4.832  19.764 -41.740  1.00  0.00     0.167 HD
HETATM    9  N5  UNL     1       4.309  20.303 -38.704  1.00  0.00    -0.293 N 
ATOM     10  H5  UNL     1       4.472  20.732 -37.792  1.00  0.00     0.188 HD
ENDBRANCH   3   4
ENDBRANCH   2   3
ENDBRANCH   1   2
BRANCH   1  11
HETATM   11  N3  UNL     1       2.193  15.280 -38.458  1.00  0.00    -0.071 N 
ATOM     12  H32 UNL     1       2.674  14.577 -37.897  1.00  0.00     0.277 HD
ATOM     13  H31 UNL     1       1.333  14.771 -38.660  1.00  0.00     0.277 HD
BRANCH  11  14
HETATM   14  C6  UNL     1       2.927  15.564 -39.674  1.00  0.00     0.272 C 
BRANCH  14  15
HETATM   15  C7  UNL     1       3.633  14.296 -40.063  1.00  0.00    -0.016 A 
HETATM   16  C8  UNL     1       3.194  13.008 -39.797  1.00  0.00     0.027 A 
HETATM   17  C9  UNL     1       4.128  12.138 -40.328  1.00  0.00     0.088 A 
HETATM   18  N4  UNL     1       5.123  12.851 -40.910  1.00  0.00    -0.375 N 
HETATM   19  C10 UNL     1       4.826  14.165 -40.751  1.00  0.00     0.096 A 
ATOM     20  H4  UNL     1       5.944  12.469 -41.382  1.00  0.00     0.164 HD
ENDBRANCH  14  15
ENDBRANCH  11  14
ENDBRANCH   1  11
TORSDOF 6
ENDMDL
