MODEL 1
REMARK VINA RESULT: -5.722512928      0.000      0.000
REMARK  6 active torsions:
REMARK  status: ('A' for Active; 'I' for Inactive)
REMARK    1  A    between atoms: C2_2  and  C4_4 
REMARK    2  A    between atoms: C4_4  and  N1_5 
REMARK    3  A    between atoms: C4_4  and  O3_14 
REMARK    4  A    between atoms: N1_5  and  C5_7 
REMARK    5  A    between atoms: C5_7  and  C6_8 
REMARK    6  A    between atoms: O3_14  and  C10_15 
ROOT
HETATM    1  C4  UNL     1       3.643  15.178 -40.082  1.00  0.00     0.227 C 
ENDROOT
BRANCH   1   2
HETATM    2  C2  UNL     1       3.498  13.705 -40.445  1.00  0.00     0.026 C 
HETATM    3  C1  UNL     1       4.906  13.170 -40.702  1.00  0.00     0.014 C 
HETATM    4  C3  UNL     1       2.924  12.894 -39.325  1.00  0.00     0.014 C 
ENDBRANCH   1   2
BRANCH   1   5
HETATM    5  N1  UNL     1       2.440  15.623 -39.474  1.00  0.00    -0.394 N 
ATOM      6  H1  UNL     1       1.543  15.510 -39.946  1.00  0.00     0.155 HD
BRANCH   5   7
HETATM    7  C5  UNL     1       2.513  16.227 -38.197  1.00  0.00     0.151 C 
BRANCH   7   8
HETATM    8  C6  UNL     1       2.643  17.728 -38.276  1.00  0.00     0.169 A 
HETATM    9  C7  UNL     1       1.860  18.224 -39.456  1.00  0.00     0.208 A 
HETATM   10  O1  UNL     1       2.567  18.955 -40.394  1.00  0.00    -0.359 OA
HETATM   11  C8  UNL     1       3.871  19.312 -40.264  1.00  0.00     0.158 A 
HETATM   12  C9  UNL     1       4.580  18.917 -39.227  1.00  0.00     0.159 A 
HETATM   13  O2  UNL     1       3.974  18.133 -38.276  1.00  0.00    -0.352 OA
ENDBRANCH   7   8
ENDBRANCH   5   7
ENDBRANCH   1   5
BRANCH   1  14
HETATM   14  O3  UNL     1       4.045  15.948 -41.174  1.00  0.00    -0.322 OA
BRANCH  14  15
HETATM   15  C10 UNL     1       3.434  15.929 -42.410  1.00  0.00     0.222 C 
HETATM   16  N2  UNL     1       4.164  15.693 -43.434  1.00  0.00    -0.390 N 
ATOM     17  H22 UNL     1       5.164  15.526 -43.323  1.00  0.00     0.157 HD
ATOM     18  H21 UNL     1       3.712  15.679 -44.349  1.00  0.00     0.157 HD
ENDBRANCH  14  15
ENDBRANCH   1  14
TORSDOF 6
ENDMDL
MODEL 2
REMARK VINA RESULT: -5.656965561      1.322      1.552
REMARK  6 active torsions:
REMARK  status: ('A' for Active; 'I' for Inactive)
REMARK    1  A    between atoms: C2_2  and  C4_4 
REMARK    2  A    between atoms: C4_4  and  N1_5 
REMARK    3  A    between atoms: C4_4  and  O3_14 
REMARK    4  A    between atoms: N1_5  and  C5_7 
REMARK    5  A    between atoms: C5_7  and  C6_8 
REMARK    6  A    between atoms: O3_14  and  C10_15 
ROOT
HETATM    1  C4  UNL     1       3.809  15.486 -40.880  1.00  0.00     0.227 C 
ENDROOT
BRANCH   1   2
HETATM    2  C2  UNL     1       3.585  13.989 -40.708  1.00  0.00     0.026 C 
HETATM    3  C1  UNL     1       4.962  13.328 -40.729  1.00  0.00     0.014 C 
HETATM    4  C3  UNL     1       2.962  13.652 -39.389  1.00  0.00     0.014 C 
ENDBRANCH   1   2
BRANCH   1   5
HETATM    5  N1  UNL     1       3.756  16.110 -39.605  1.00  0.00    -0.394 N 
ATOM      6  H1  UNL     1       3.171  15.729 -38.862  1.00  0.00     0.155 HD
BRANCH   5   7
HETATM    7  C5  UNL     1       4.534  17.272 -39.390  1.00  0.00     0.151 C 
BRANCH   7   8
HETATM    8  C6  UNL     1       3.690  18.515 -39.261  1.00  0.00     0.169 A 
HETATM    9  C7  UNL     1       3.710  19.257 -40.565  1.00  0.00     0.208 A 
HETATM   10  O1  UNL     1       4.151  20.566 -40.516  1.00  0.00    -0.359 OA
HETATM   11  C8  UNL     1       4.472  21.225 -39.373  1.00  0.00     0.158 A 
HETATM   12  C9  UNL     1       4.439  20.613 -38.207  1.00  0.00     0.159 A 
HETATM   13  O2  UNL     1       4.072  19.289 -38.170  1.00  0.00    -0.352 OA
ENDBRANCH   7   8
ENDBRANCH   5   7
ENDBRANCH   1   5
BRANCH   1  14
HETATM   14  O3  UNL     1       2.937  16.041 -41.819  1.00  0.00    -0.322 OA
BRANCH  14  15
HETATM   15  C10 UNL     1       3.195  16.125 -43.170  1.00  0.00     0.222 C 
HETATM   16  N2  UNL     1       4.355  15.775 -43.581  1.00  0.00    -0.390 N 
ATOM     17  H22 UNL     1       5.055  15.447 -42.917  1.00  0.00     0.157 HD
ATOM     18  H21 UNL     1       4.546  15.838 -44.581  1.00  0.00     0.157 HD
ENDBRANCH  14  15
ENDBRANCH   1  14
TORSDOF 6
ENDMDL
MODEL 3
REMARK VINA RESULT: -5.597350468      1.399      1.709
REMARK  6 active torsions:
REMARK  status: ('A' for Active; 'I' for Inactive)
REMARK    1  A    between atoms: C2_2  and  C4_4 
REMARK    2  A    between atoms: C4_4  and  N1_5 
REMARK    3  A    between atoms: C4_4  and  O3_14 
REMARK    4  A    between atoms: N1_5  and  C5_7 
REMARK    5  A    between atoms: C5_7  and  C6_8 
REMARK    6  A    between atoms: O3_14  and  C10_15 
ROOT
HETATM    1  C4  UNL     1       4.233  15.442 -41.087  1.00  0.00     0.227 C 
ENDROOT
BRANCH   1   2
HETATM    2  C2  UNL     1       4.315  14.245 -40.148  1.00  0.00     0.026 C 
HETATM    3  C1  UNL     1       2.941  14.095 -39.497  1.00  0.00     0.014 C 
HETATM    4  C3  UNL     1       4.593  12.966 -40.875  1.00  0.00     0.014 C 
ENDBRANCH   1   2
BRANCH   1   5
HETATM    5  N1  UNL     1       3.614  16.522 -40.404  1.00  0.00    -0.394 N 
ATOM      6  H1  UNL     1       2.605  16.665 -40.459  1.00  0.00     0.155 HD
BRANCH   5   7
HETATM    7  C5  UNL     1       4.427  17.394 -39.644  1.00  0.00     0.151 C 
BRANCH   7   8
HETATM    8  C6  UNL     1       3.622  18.286 -38.732  1.00  0.00     0.169 A 
HETATM    9  C7  UNL     1       2.486  18.882 -39.512  1.00  0.00     0.208 A 
HETATM   10  O1  UNL     1       2.420  20.263 -39.536  1.00  0.00    -0.359 OA
HETATM   11  C8  UNL     1       3.250  21.082 -38.841  1.00  0.00     0.158 A 
HETATM   12  C9  UNL     1       4.241  20.592 -38.124  1.00  0.00     0.159 A 
HETATM   13  O2  UNL     1       4.419  19.230 -38.095  1.00  0.00    -0.352 OA
ENDBRANCH   7   8
ENDBRANCH   5   7
ENDBRANCH   1   5
BRANCH   1  14
HETATM   14  O3  UNL     1       3.623  15.114 -42.299  1.00  0.00    -0.322 OA
BRANCH  14  15
HETATM   15  C10 UNL     1       3.518  15.968 -43.377  1.00  0.00     0.222 C 
HETATM   16  N2  UNL     1       4.465  15.967 -44.236  1.00  0.00    -0.390 N 
ATOM     17  H22 UNL     1       5.267  15.347 -44.113  1.00  0.00     0.157 HD
ATOM     18  H21 UNL     1       4.388  16.598 -45.033  1.00  0.00     0.157 HD
ENDBRANCH  14  15
ENDBRANCH   1  14
TORSDOF 6
ENDMDL
MODEL 4
REMARK VINA RESULT: -5.586249963      2.845      3.731
REMARK  6 active torsions:
REMARK  status: ('A' for Active; 'I' for Inactive)
REMARK    1  A    between atoms: C2_2  and  C4_4 
REMARK    2  A    between atoms: C4_4  and  N1_5 
REMARK    3  A    between atoms: C4_4  and  O3_14 
REMARK    4  A    between atoms: N1_5  and  C5_7 
REMARK    5  A    between atoms: C5_7  and  C6_8 
REMARK    6  A    between atoms: O3_14  and  C10_15 
ROOT
HETATM    1  C4  UNL     1       2.915  15.930 -39.736  1.00  0.00     0.227 C 
ENDROOT
BRANCH   1   2
HETATM    2  C2  UNL     1       3.326  14.612 -40.379  1.00  0.00     0.026 C 
HETATM    3  C1  UNL     1       4.832  14.687 -40.625  1.00  0.00     0.014 C 
HETATM    4  C3  UNL     1       3.092  13.439 -39.479  1.00  0.00     0.014 C 
ENDBRANCH   1   2
BRANCH   1   5
HETATM    5  N1  UNL     1       2.211  15.657 -38.533  1.00  0.00    -0.394 N 
ATOM      6  H1  UNL     1       1.676  14.795 -38.426  1.00  0.00     0.155 HD
BRANCH   5   7
HETATM    7  C5  UNL     1       2.269  16.607 -37.487  1.00  0.00     0.151 C 
BRANCH   7   8
HETATM    8  C6  UNL     1       0.956  17.321 -37.284  1.00  0.00     0.169 A 
HETATM    9  C7  UNL     1       0.869  17.786 -35.859  1.00  0.00     0.208 A 
HETATM   10  O1  UNL     1      -0.222  17.341 -35.137  1.00  0.00    -0.359 OA
HETATM   11  C8  UNL     1      -1.236  16.601 -35.657  1.00  0.00     0.158 A 
HETATM   12  C9  UNL     1      -1.205  16.199 -36.911  1.00  0.00     0.159 A 
HETATM   13  O2  UNL     1      -0.124  16.544 -37.686  1.00  0.00    -0.352 OA
ENDBRANCH   7   8
ENDBRANCH   5   7
ENDBRANCH   1   5
BRANCH   1  14
HETATM   14  O3  UNL     1       2.220  16.752 -40.625  1.00  0.00    -0.322 OA
BRANCH  14  15
HETATM   15  C10 UNL     1       2.716  17.922 -41.157  1.00  0.00     0.222 C 
HETATM   16  N2  UNL     1       3.775  18.416 -40.636  1.00  0.00    -0.390 N 
ATOM     17  H22 UNL     1       4.227  17.945 -39.852  1.00  0.00     0.157 HD
ATOM     18  H21 UNL     1       4.142  19.282 -41.030  1.00  0.00     0.157 HD
ENDBRANCH  14  15
ENDBRANCH   1  14
TORSDOF 6
ENDMDL
MODEL 5
REMARK VINA RESULT: -5.540395274      2.013      2.358
REMARK  6 active torsions:
REMARK  status: ('A' for Active; 'I' for Inactive)
REMARK    1  A    between atoms: C2_2  and  C4_4 
REMARK    2  A    between atoms: C4_4  and  N1_5 
REMARK    3  A    between atoms: C4_4  and  O3_14 
REMARK    4  A    between atoms: N1_5  and  C5_7 
REMARK    5  A    between atoms: C5_7  and  C6_8 
REMARK    6  A    between atoms: O3_14  and  C10_15 
ROOT
HETATM    1  C4  UNL     1       3.264  15.827 -39.394  1.00  0.00     0.227 C 
ENDROOT
BRANCH   1   2
HETATM    2  C2  UNL     1       3.342  14.552 -40.225  1.00  0.00     0.026 C 
HETATM    3  C1  UNL     1       4.796  14.403 -40.674  1.00  0.00     0.014 C 
HETATM    4  C3  UNL     1       3.006  13.330 -39.430  1.00  0.00     0.014 C 
ENDBRANCH   1   2
BRANCH   1   5
HETATM    5  N1  UNL     1       2.087  15.790 -38.602  1.00  0.00    -0.394 N 
ATOM      6  H1  UNL     1       1.230  15.367 -38.960  1.00  0.00     0.155 HD
BRANCH   5   7
HETATM    7  C5  UNL     1       2.129  16.351 -37.304  1.00  0.00     0.151 C 
BRANCH   7   8
HETATM    8  C6  UNL     1       1.298  17.605 -37.191  1.00  0.00     0.169 A 
HETATM    9  C7  UNL     1       0.316  17.644 -38.326  1.00  0.00     0.208 A 
HETATM   10  O1  UNL     1       0.370  18.759 -39.142  1.00  0.00    -0.359 OA
HETATM   11  C8  UNL     1       1.176  19.830 -38.924  1.00  0.00     0.158 A 
HETATM   12  C9  UNL     1       2.030  19.841 -37.921  1.00  0.00     0.159 A 
HETATM   13  O2  UNL     1       2.089  18.744 -37.096  1.00  0.00    -0.352 OA
ENDBRANCH   7   8
ENDBRANCH   5   7
ENDBRANCH   1   5
BRANCH   1  14
HETATM   14  O3  UNL     1       3.380  16.973 -40.183  1.00  0.00    -0.322 OA
BRANCH  14  15
HETATM   15  C10 UNL     1       4.239  18.019 -39.921  1.00  0.00     0.222 C 
HETATM   16  N2  UNL     1       4.889  17.998 -38.819  1.00  0.00    -0.390 N 
ATOM     17  H22 UNL     1       4.765  17.223 -38.167  1.00  0.00     0.157 HD
ATOM     18  H21 UNL     1       5.525  18.772 -38.625  1.00  0.00     0.157 HD
ENDBRANCH  14  15
ENDBRANCH   1  14
TORSDOF 6
ENDMDL
