MODEL 1
REMARK VINA RESULT: -4.077020862      0.000      0.000
REMARK  16 active torsions:
REMARK  status: ('A' for Active; 'I' for Inactive)
REMARK    1  A    between atoms: C2_2  and  C3_3 
REMARK    2  A    between atoms: C3_3  and  C4_4 
REMARK    3  A    between atoms: C4_4  and  N1_5 
REMARK       I    between atoms: N1_5  and  C5_7 
REMARK    4  A    between atoms: C5_7  and  C6_9 
REMARK    5  A    between atoms: C6_9  and  C7_10 
REMARK    6  A    between atoms: C6_9  and  C14_17 
REMARK    7  A    between atoms: C7_10  and  C8_11 
REMARK    8  A    between atoms: C14_17  and  C15_18 
REMARK    9  A    between atoms: C14_17  and  N2_22 
REMARK   10  A    between atoms: C15_18  and  C16_19 
REMARK   11  A    between atoms: C19_24  and  C21_26 
REMARK   12  A    between atoms: C21_26  and  C22_27 
REMARK   13  A    between atoms: C22_27  and  C23_28 
REMARK   14  A    between atoms: C23_28  and  N3_29 
REMARK   15  A    between atoms: C23_28  and  C24_33 
REMARK   16  A    between atoms: C24_33  and  O3_35 
ROOT
HETATM    1  C14 UNL     1      -1.045  -6.510  32.047  1.00  0.00     0.094 C 
ENDROOT
BRANCH   1   2
HETATM    2  C6  UNL     1      -2.135  -6.156  33.026  1.00  0.00     0.101 C 
BRANCH   2   3
HETATM    3  C5  UNL     1      -3.313  -5.643  32.201  1.00  0.00     0.223 C 
HETATM    4  N1  UNL     1      -4.639  -5.919  32.545  1.00  0.00    -0.361 N 
ATOM      5  H1  UNL     1      -4.774  -6.486  33.381  1.00  0.00     0.162 HD
HETATM    6  O1  UNL     1      -3.051  -4.960  31.193  1.00  0.00    -0.273 OA
BRANCH   4   7
HETATM    7  C4  UNL     1      -5.822  -5.511  31.879  1.00  0.00     0.122 C 
BRANCH   7   8
HETATM    8  C3  UNL     1      -7.005  -6.270  32.437  1.00  0.00     0.019 C 
BRANCH   8   9
HETATM    9  C2  UNL     1      -6.633  -6.887  33.786  1.00  0.00    -0.003 C 
HETATM   10  C1  UNL     1      -7.870  -7.577  34.312  1.00  0.00     0.005 C 
ENDBRANCH   8   9
ENDBRANCH   7   8
ENDBRANCH   4   7
ENDBRANCH   2   3
BRANCH   2  11
HETATM   11  C7  UNL     1      -1.825  -5.073  33.981  1.00  0.00     0.020 C 
BRANCH  11  12
HETATM   12  C8  UNL     1      -2.073  -5.335  35.436  1.00  0.00    -0.014 C 
HETATM   13  C9  UNL     1      -2.885  -6.580  35.695  1.00  0.00     0.005 C 
HETATM   14  C10 UNL     1      -3.639  -6.346  37.000  1.00  0.00     0.000 C 
HETATM   15  C11 UNL     1      -4.795  -5.414  36.773  1.00  0.00     0.000 C 
HETATM   16  C12 UNL     1      -4.337  -4.441  35.681  1.00  0.00     0.000 C 
HETATM   17  C13 UNL     1      -2.901  -4.136  35.947  1.00  0.00     0.005 C 
ENDBRANCH  11  12
ENDBRANCH   2  11
ENDBRANCH   1   2
BRANCH   1  18
HETATM   18  C15 UNL     1       0.311  -6.529  32.614  1.00  0.00     0.029 C 
BRANCH  18  19
HETATM   19  C16 UNL     1       0.832  -7.843  33.124  1.00  0.00    -0.021 C 
HETATM   20  C17 UNL     1       2.379  -7.762  33.074  1.00  0.00     0.009 C 
HETATM   21  C18 UNL     1       0.542  -8.097  34.589  1.00  0.00     0.009 C 
ENDBRANCH  18  19
ENDBRANCH   1  18
BRANCH   1  22
HETATM   22  N2  UNL     1      -1.352  -7.681  31.338  1.00  0.00    -0.391 N 
HETATM   23  C19 UNL     1      -1.180  -7.868  30.092  1.00  0.00    -0.022 C 
HETATM   24  C20 UNL     1      -0.610  -6.825  29.204  1.00  0.00     0.062 C 
ATOM     25  H2  UNL     1      -1.750  -8.455  31.871  1.00  0.00     0.159 HD
BRANCH  23  26
HETATM   26  C21 UNL     1      -1.541  -9.179  29.508  1.00  0.00     0.054 C 
BRANCH  26  27
HETATM   27  C22 UNL     1      -2.148 -10.073  30.533  1.00  0.00     0.049 C 
BRANCH  27  28
HETATM   28  C23 UNL     1      -3.581 -10.406  30.180  1.00  0.00     0.282 C 
BRANCH  28  29
HETATM   29  N3  UNL     1      -3.653 -10.691  28.777  1.00  0.00    -0.066 N 
ATOM     30  H33 UNL     1      -3.761 -11.687  28.585  1.00  0.00     0.275 HD
ATOM     31  H32 UNL     1      -4.527 -10.373  28.357  1.00  0.00     0.275 HD
ATOM     32  H31 UNL     1      -2.833 -10.292  28.321  1.00  0.00     0.275 HD
ENDBRANCH  28  29
BRANCH  28  33
HETATM   33  C24 UNL     1      -4.397  -9.193  30.538  1.00  0.00     0.289 C 
HETATM   34  O2  UNL     1      -4.356  -8.786  31.725  1.00  0.00    -0.263 OA
BRANCH  33  35
HETATM   35  O3  UNL     1      -5.147  -8.581  29.566  1.00  0.00    -0.325 OA
HETATM   36  C25 UNL     1      -4.708  -7.317  29.055  1.00  0.00     0.213 C 
ENDBRANCH  33  35
ENDBRANCH  28  33
ENDBRANCH  27  28
ENDBRANCH  26  27
ENDBRANCH  23  26
ENDBRANCH   1  22
TORSDOF 16
ENDMDL
MODEL 2
REMARK VINA RESULT: -4.058289263      2.337      4.998
REMARK  16 active torsions:
REMARK  status: ('A' for Active; 'I' for Inactive)
REMARK    1  A    between atoms: C2_2  and  C3_3 
REMARK    2  A    between atoms: C3_3  and  C4_4 
REMARK    3  A    between atoms: C4_4  and  N1_5 
REMARK       I    between atoms: N1_5  and  C5_7 
REMARK    4  A    between atoms: C5_7  and  C6_9 
REMARK    5  A    between atoms: C6_9  and  C7_10 
REMARK    6  A    between atoms: C6_9  and  C14_17 
REMARK    7  A    between atoms: C7_10  and  C8_11 
REMARK    8  A    between atoms: C14_17  and  C15_18 
REMARK    9  A    between atoms: C14_17  and  N2_22 
REMARK   10  A    between atoms: C15_18  and  C16_19 
REMARK   11  A    between atoms: C19_24  and  C21_26 
REMARK   12  A    between atoms: C21_26  and  C22_27 
REMARK   13  A    between atoms: C22_27  and  C23_28 
REMARK   14  A    between atoms: C23_28  and  N3_29 
REMARK   15  A    between atoms: C23_28  and  C24_33 
REMARK   16  A    between atoms: C24_33  and  O3_35 
ROOT
HETATM    1  C14 UNL     1       0.210  -6.787  31.917  1.00  0.00     0.094 C 
ENDROOT
BRANCH   1   2
HETATM    2  C6  UNL     1       0.488  -7.175  33.347  1.00  0.00     0.101 C 
BRANCH   2   3
HETATM    3  C5  UNL     1      -0.787  -6.882  34.135  1.00  0.00     0.223 C 
HETATM    4  N1  UNL     1      -0.822  -6.914  35.531  1.00  0.00    -0.361 N 
ATOM      5  H1  UNL     1       0.056  -7.146  35.994  1.00  0.00     0.162 HD
HETATM    6  O1  UNL     1      -1.812  -6.611  33.483  1.00  0.00    -0.273 OA
BRANCH   4   7
HETATM    7  C4  UNL     1      -1.924  -6.664  36.387  1.00  0.00     0.122 C 
BRANCH   7   8
HETATM    8  C3  UNL     1      -1.531  -6.957  37.818  1.00  0.00     0.019 C 
BRANCH   8   9
HETATM    9  C2  UNL     1      -0.124  -7.554  37.854  1.00  0.00    -0.003 C 
HETATM   10  C1  UNL     1      -0.019  -8.360  39.128  1.00  0.00     0.005 C 
ENDBRANCH   8   9
ENDBRANCH   7   8
ENDBRANCH   4   7
ENDBRANCH   2   3
BRANCH   2  11
HETATM   11  C7  UNL     1       1.554  -6.417  34.031  1.00  0.00     0.020 C 
BRANCH  11  12
HETATM   12  C8  UNL     1       2.515  -7.184  34.889  1.00  0.00    -0.014 C 
HETATM   13  C9  UNL     1       3.024  -6.400  36.074  1.00  0.00     0.005 C 
HETATM   14  C10 UNL     1       4.412  -6.944  36.393  1.00  0.00     0.000 C 
HETATM   15  C11 UNL     1       5.412  -6.437  35.392  1.00  0.00     0.000 C 
HETATM   16  C12 UNL     1       4.651  -6.321  34.067  1.00  0.00     0.000 C 
HETATM   17  C13 UNL     1       3.732  -7.494  33.991  1.00  0.00     0.005 C 
ENDBRANCH  11  12
ENDBRANCH   2  11
ENDBRANCH   1   2
BRANCH   1  18
HETATM   18  C15 UNL     1       1.322  -6.111  31.234  1.00  0.00     0.029 C 
BRANCH  18  19
HETATM   19  C16 UNL     1       2.202  -6.945  30.346  1.00  0.00    -0.021 C 
HETATM   20  C17 UNL     1       1.907  -6.511  28.887  1.00  0.00     0.009 C 
HETATM   21  C18 UNL     1       3.682  -6.665  30.502  1.00  0.00     0.009 C 
ENDBRANCH  18  19
ENDBRANCH   1  18
BRANCH   1  22
HETATM   22  N2  UNL     1      -0.301  -7.867  31.181  1.00  0.00    -0.391 N 
HETATM   23  C19 UNL     1      -1.242  -7.812  30.327  1.00  0.00    -0.022 C 
HETATM   24  C20 UNL     1      -1.939  -6.545  29.994  1.00  0.00     0.062 C 
ATOM     25  H2  UNL     1       0.121  -8.781  31.347  1.00  0.00     0.159 HD
BRANCH  23  26
HETATM   26  C21 UNL     1      -1.643  -9.050  29.624  1.00  0.00     0.054 C 
BRANCH  26  27
HETATM   27  C22 UNL     1      -2.172 -10.062  30.580  1.00  0.00     0.049 C 
BRANCH  27  28
HETATM   28  C23 UNL     1      -3.590 -10.454  30.225  1.00  0.00     0.282 C 
BRANCH  28  29
HETATM   29  N3  UNL     1      -3.652 -10.720  28.817  1.00  0.00    -0.066 N 
ATOM     30  H33 UNL     1      -2.791 -10.467  28.333  1.00  0.00     0.275 HD
ATOM     31  H32 UNL     1      -3.642 -11.719  28.607  1.00  0.00     0.275 HD
ATOM     32  H31 UNL     1      -4.470 -10.248  28.433  1.00  0.00     0.275 HD
ENDBRANCH  28  29
BRANCH  28  33
HETATM   33  C24 UNL     1      -4.458  -9.284  30.603  1.00  0.00     0.289 C 
HETATM   34  O2  UNL     1      -5.201  -8.792  29.718  1.00  0.00    -0.263 OA
BRANCH  33  35
HETATM   35  O3  UNL     1      -4.410  -8.803  31.887  1.00  0.00    -0.325 OA
HETATM   36  C25 UNL     1      -5.182  -7.641  32.214  1.00  0.00     0.213 C 
ENDBRANCH  33  35
ENDBRANCH  28  33
ENDBRANCH  27  28
ENDBRANCH  26  27
ENDBRANCH  23  26
ENDBRANCH   1  22
TORSDOF 16
ENDMDL
MODEL 3
REMARK VINA RESULT: -4.020627620      2.404      5.058
REMARK  16 active torsions:
REMARK  status: ('A' for Active; 'I' for Inactive)
REMARK    1  A    between atoms: C2_2  and  C3_3 
REMARK    2  A    between atoms: C3_3  and  C4_4 
REMARK    3  A    between atoms: C4_4  and  N1_5 
REMARK       I    between atoms: N1_5  and  C5_7 
REMARK    4  A    between atoms: C5_7  and  C6_9 
REMARK    5  A    between atoms: C6_9  and  C7_10 
REMARK    6  A    between atoms: C6_9  and  C14_17 
REMARK    7  A    between atoms: C7_10  and  C8_11 
REMARK    8  A    between atoms: C14_17  and  C15_18 
REMARK    9  A    between atoms: C14_17  and  N2_22 
REMARK   10  A    between atoms: C15_18  and  C16_19 
REMARK   11  A    between atoms: C19_24  and  C21_26 
REMARK   12  A    between atoms: C21_26  and  C22_27 
REMARK   13  A    between atoms: C22_27  and  C23_28 
REMARK   14  A    between atoms: C23_28  and  N3_29 
REMARK   15  A    between atoms: C23_28  and  C24_33 
REMARK   16  A    between atoms: C24_33  and  O3_35 
ROOT
HETATM    1  C14 UNL     1      -1.131  -5.784  33.077  1.00  0.00     0.094 C 
ENDROOT
BRANCH   1   2
HETATM    2  C6  UNL     1      -0.644  -6.661  34.202  1.00  0.00     0.101 C 
BRANCH   2   3
HETATM    3  C5  UNL     1      -1.772  -6.719  35.230  1.00  0.00     0.223 C 
HETATM    4  N1  UNL     1      -1.525  -6.780  36.604  1.00  0.00    -0.361 N 
ATOM      5  H1  UNL     1      -0.543  -6.785  36.880  1.00  0.00     0.162 HD
HETATM    6  O1  UNL     1      -2.940  -6.712  34.798  1.00  0.00    -0.273 OA
BRANCH   4   7
HETATM    7  C4  UNL     1      -2.464  -6.837  37.663  1.00  0.00     0.122 C 
BRANCH   7   8
HETATM    8  C3  UNL     1      -1.946  -7.749  38.752  1.00  0.00     0.019 C 
BRANCH   8   9
HETATM    9  C2  UNL     1      -0.459  -8.028  38.527  1.00  0.00    -0.003 C 
HETATM   10  C1  UNL     1       0.084  -8.594  39.819  1.00  0.00     0.005 C 
ENDBRANCH   8   9
ENDBRANCH   7   8
ENDBRANCH   4   7
ENDBRANCH   2   3
BRANCH   2  11
HETATM   11  C7  UNL     1       0.536  -6.173  34.943  1.00  0.00     0.020 C 
BRANCH  11  12
HETATM   12  C8  UNL     1       1.716  -7.090  35.055  1.00  0.00    -0.014 C 
HETATM   13  C9  UNL     1       3.044  -6.374  35.008  1.00  0.00     0.005 C 
HETATM   14  C10 UNL     1       4.050  -7.357  34.421  1.00  0.00     0.000 C 
HETATM   15  C11 UNL     1       3.853  -7.480  32.937  1.00  0.00     0.000 C 
HETATM   16  C12 UNL     1       2.348  -7.312  32.702  1.00  0.00     0.000 C 
HETATM   17  C13 UNL     1       1.654  -8.015  33.821  1.00  0.00     0.005 C 
ENDBRANCH  11  12
ENDBRANCH   2  11
ENDBRANCH   1   2
BRANCH   1  18
HETATM   18  C15 UNL     1      -0.467  -4.476  32.982  1.00  0.00     0.029 C 
BRANCH  18  19
HETATM   19  C16 UNL     1       0.515  -4.276  31.862  1.00  0.00    -0.021 C 
HETATM   20  C17 UNL     1      -0.057  -3.150  30.961  1.00  0.00     0.009 C 
HETATM   21  C18 UNL     1       1.854  -3.724  32.303  1.00  0.00     0.009 C 
ENDBRANCH  18  19
ENDBRANCH   1  18
BRANCH   1  22
HETATM   22  N2  UNL     1      -1.145  -6.474  31.856  1.00  0.00    -0.391 N 
HETATM   23  C19 UNL     1      -2.129  -6.561  31.055  1.00  0.00    -0.022 C 
HETATM   24  C20 UNL     1      -3.436  -5.913  31.332  1.00  0.00     0.062 C 
ATOM     25  H2  UNL     1      -0.285  -6.952  31.584  1.00  0.00     0.159 HD
BRANCH  23  26
HETATM   26  C21 UNL     1      -1.963  -7.315  29.794  1.00  0.00     0.054 C 
BRANCH  26  27
HETATM   27  C22 UNL     1      -1.054  -8.480  29.982  1.00  0.00     0.049 C 
BRANCH  27  28
HETATM   28  C23 UNL     1      -1.617  -9.719  29.320  1.00  0.00     0.282 C 
BRANCH  28  29
HETATM   29  N3  UNL     1      -2.217  -9.339  28.074  1.00  0.00    -0.066 N 
ATOM     30  H33 UNL     1      -1.835  -8.469  27.706  1.00  0.00     0.275 HD
ATOM     31  H32 UNL     1      -1.941  -9.950  27.305  1.00  0.00     0.275 HD
ATOM     32  H31 UNL     1      -3.229  -9.301  28.199  1.00  0.00     0.275 HD
ENDBRANCH  28  29
BRANCH  28  33
HETATM   33  C24 UNL     1      -2.636 -10.281  30.274  1.00  0.00     0.289 C 
HETATM   34  O2  UNL     1      -2.220 -10.844  31.316  1.00  0.00    -0.263 OA
BRANCH  33  35
HETATM   35  O3  UNL     1      -3.970 -10.159  29.975  1.00  0.00    -0.325 OA
HETATM   36  C25 UNL     1      -4.791  -9.345  30.821  1.00  0.00     0.213 C 
ENDBRANCH  33  35
ENDBRANCH  28  33
ENDBRANCH  27  28
ENDBRANCH  26  27
ENDBRANCH  23  26
ENDBRANCH   1  22
TORSDOF 16
ENDMDL
MODEL 4
REMARK VINA RESULT: -3.910215726      2.610      3.778
REMARK  16 active torsions:
REMARK  status: ('A' for Active; 'I' for Inactive)
REMARK    1  A    between atoms: C2_2  and  C3_3 
REMARK    2  A    between atoms: C3_3  and  C4_4 
REMARK    3  A    between atoms: C4_4  and  N1_5 
REMARK       I    between atoms: N1_5  and  C5_7 
REMARK    4  A    between atoms: C5_7  and  C6_9 
REMARK    5  A    between atoms: C6_9  and  C7_10 
REMARK    6  A    between atoms: C6_9  and  C14_17 
REMARK    7  A    between atoms: C7_10  and  C8_11 
REMARK    8  A    between atoms: C14_17  and  C15_18 
REMARK    9  A    between atoms: C14_17  and  N2_22 
REMARK   10  A    between atoms: C15_18  and  C16_19 
REMARK   11  A    between atoms: C19_24  and  C21_26 
REMARK   12  A    between atoms: C21_26  and  C22_27 
REMARK   13  A    between atoms: C22_27  and  C23_28 
REMARK   14  A    between atoms: C23_28  and  N3_29 
REMARK   15  A    between atoms: C23_28  and  C24_33 
REMARK   16  A    between atoms: C24_33  and  O3_35 
ROOT
HETATM    1  C14 UNL     1       0.170  -6.599  34.215  1.00  0.00     0.094 C 
ENDROOT
BRANCH   1   2
HETATM    2  C6  UNL     1      -0.460  -6.969  35.534  1.00  0.00     0.101 C 
BRANCH   2   3
HETATM    3  C5  UNL     1      -1.907  -6.483  35.478  1.00  0.00     0.223 C 
HETATM    4  N1  UNL     1      -2.927  -7.096  36.210  1.00  0.00    -0.361 N 
ATOM      5  H1  UNL     1      -2.647  -7.891  36.784  1.00  0.00     0.162 HD
HETATM    6  O1  UNL     1      -2.155  -5.507  34.746  1.00  0.00    -0.273 OA
BRANCH   4   7
HETATM    7  C4  UNL     1      -4.301  -6.755  36.257  1.00  0.00     0.122 C 
BRANCH   7   8
HETATM    8  C3  UNL     1      -4.807  -6.882  37.677  1.00  0.00     0.019 C 
BRANCH   8   9
HETATM    9  C2  UNL     1      -3.672  -6.584  38.657  1.00  0.00    -0.003 C 
HETATM   10  C1  UNL     1      -3.888  -7.468  39.864  1.00  0.00     0.005 C 
ENDBRANCH   8   9
ENDBRANCH   7   8
ENDBRANCH   4   7
ENDBRANCH   2   3
BRANCH   2  11
HETATM   11  C7  UNL     1       0.120  -6.333  36.733  1.00  0.00     0.020 C 
BRANCH  11  12
HETATM   12  C8  UNL     1       0.679  -7.231  37.796  1.00  0.00    -0.014 C 
HETATM   13  C9  UNL     1      -0.319  -8.228  38.330  1.00  0.00     0.005 C 
HETATM   14  C10 UNL     1       0.087  -8.526  39.768  1.00  0.00     0.000 C 
HETATM   15  C11 UNL     1      -0.297  -7.383  40.665  1.00  0.00     0.000 C 
HETATM   16  C12 UNL     1      -0.147  -6.118  39.812  1.00  0.00     0.000 C 
HETATM   17  C13 UNL     1       1.070  -6.305  38.969  1.00  0.00     0.005 C 
ENDBRANCH  11  12
ENDBRANCH   2  11
ENDBRANCH   1   2
BRANCH   1  18
HETATM   18  C15 UNL     1       1.616  -6.347  34.272  1.00  0.00     0.029 C 
BRANCH  18  19
HETATM   19  C16 UNL     1       2.533  -7.530  34.133  1.00  0.00    -0.021 C 
HETATM   20  C17 UNL     1       3.124  -7.473  32.700  1.00  0.00     0.009 C 
HETATM   21  C18 UNL     1       3.759  -7.470  35.020  1.00  0.00     0.009 C 
ENDBRANCH  18  19
ENDBRANCH   1  18
BRANCH   1  22
HETATM   22  N2  UNL     1      -0.183  -7.506  33.205  1.00  0.00    -0.391 N 
HETATM   23  C19 UNL     1      -0.562  -7.206  32.028  1.00  0.00    -0.022 C 
HETATM   24  C20 UNL     1      -0.681  -5.801  31.567  1.00  0.00     0.062 C 
ATOM     25  H2  UNL     1      -0.131  -8.499  33.434  1.00  0.00     0.159 HD
BRANCH  23  26
HETATM   26  C21 UNL     1      -0.876  -8.295  31.078  1.00  0.00     0.054 C 
BRANCH  26  27
HETATM   27  C22 UNL     1      -2.274  -8.181  30.575  1.00  0.00     0.049 C 
BRANCH  27  28
HETATM   28  C23 UNL     1      -2.914  -9.545  30.437  1.00  0.00     0.282 C 
BRANCH  28  29
HETATM   29  N3  UNL     1      -2.664 -10.037  29.114  1.00  0.00    -0.066 N 
ATOM     30  H33 UNL     1      -1.668 -10.120  28.909  1.00  0.00     0.275 HD
ATOM     31  H32 UNL     1      -2.911 -11.021  29.009  1.00  0.00     0.275 HD
ATOM     32  H31 UNL     1      -3.151  -9.438  28.447  1.00  0.00     0.275 HD
ENDBRANCH  28  29
BRANCH  28  33
HETATM   33  C24 UNL     1      -4.385  -9.348  30.682  1.00  0.00     0.289 C 
HETATM   34  O2  UNL     1      -5.166  -9.468  29.706  1.00  0.00    -0.263 OA
BRANCH  33  35
HETATM   35  O3  UNL     1      -4.818  -9.048  31.950  1.00  0.00    -0.325 OA
HETATM   36  C25 UNL     1      -5.535  -7.826  32.159  1.00  0.00     0.213 C 
ENDBRANCH  33  35
ENDBRANCH  28  33
ENDBRANCH  27  28
ENDBRANCH  26  27
ENDBRANCH  23  26
ENDBRANCH   1  22
TORSDOF 16
ENDMDL
MODEL 5
REMARK VINA RESULT: -3.885387171      1.466      2.130
REMARK  16 active torsions:
REMARK  status: ('A' for Active; 'I' for Inactive)
REMARK    1  A    between atoms: C2_2  and  C3_3 
REMARK    2  A    between atoms: C3_3  and  C4_4 
REMARK    3  A    between atoms: C4_4  and  N1_5 
REMARK       I    between atoms: N1_5  and  C5_7 
REMARK    4  A    between atoms: C5_7  and  C6_9 
REMARK    5  A    between atoms: C6_9  and  C7_10 
REMARK    6  A    between atoms: C6_9  and  C14_17 
REMARK    7  A    between atoms: C7_10  and  C8_11 
REMARK    8  A    between atoms: C14_17  and  C15_18 
REMARK    9  A    between atoms: C14_17  and  N2_22 
REMARK   10  A    between atoms: C15_18  and  C16_19 
REMARK   11  A    between atoms: C19_24  and  C21_26 
REMARK   12  A    between atoms: C21_26  and  C22_27 
REMARK   13  A    between atoms: C22_27  and  C23_28 
REMARK   14  A    between atoms: C23_28  and  N3_29 
REMARK   15  A    between atoms: C23_28  and  C24_33 
REMARK   16  A    between atoms: C24_33  and  O3_35 
ROOT
HETATM    1  C14 UNL     1      -0.320  -6.428  32.034  1.00  0.00     0.094 C 
ENDROOT
BRANCH   1   2
HETATM    2  C6  UNL     1      -0.926  -6.371  33.413  1.00  0.00     0.101 C 
BRANCH   2   3
HETATM    3  C5  UNL     1      -2.394  -5.991  33.229  1.00  0.00     0.223 C 
HETATM    4  N1  UNL     1      -3.381  -6.373  34.141  1.00  0.00    -0.361 N 
ATOM      5  H1  UNL     1      -3.063  -6.924  34.938  1.00  0.00     0.162 HD
HETATM    6  O1  UNL     1      -2.689  -5.319  32.224  1.00  0.00    -0.273 OA
BRANCH   4   7
HETATM    7  C4  UNL     1      -4.770  -6.093  34.100  1.00  0.00     0.122 C 
BRANCH   7   8
HETATM    8  C3  UNL     1      -5.459  -6.774  35.261  1.00  0.00     0.019 C 
BRANCH   8   9
HETATM    9  C2  UNL     1      -4.413  -7.350  36.216  1.00  0.00    -0.003 C 
HETATM   10  C1  UNL     1      -4.859  -7.007  37.619  1.00  0.00     0.005 C 
ENDBRANCH   8   9
ENDBRANCH   7   8
ENDBRANCH   4   7
ENDBRANCH   2   3
BRANCH   2  11
HETATM   11  C7  UNL     1      -0.370  -5.354  34.326  1.00  0.00     0.020 C 
BRANCH  11  12
HETATM   12  C8  UNL     1       0.286  -5.834  35.587  1.00  0.00    -0.014 C 
HETATM   13  C9  UNL     1      -0.145  -7.219  36.002  1.00  0.00     0.005 C 
HETATM   14  C10 UNL     1      -0.021  -7.278  37.520  1.00  0.00     0.000 C 
HETATM   15  C11 UNL     1      -1.153  -6.531  38.165  1.00  0.00     0.000 C 
HETATM   16  C12 UNL     1      -1.473  -5.367  37.222  1.00  0.00     0.000 C 
HETATM   17  C13 UNL     1      -0.171  -4.863  36.697  1.00  0.00     0.005 C 
ENDBRANCH  11  12
ENDBRANCH   2  11
ENDBRANCH   1   2
BRANCH   1  18
HETATM   18  C15 UNL     1       1.127  -6.179  31.985  1.00  0.00     0.029 C 
BRANCH  18  19
HETATM   19  C16 UNL     1       2.038  -7.374  31.972  1.00  0.00    -0.021 C 
HETATM   20  C17 UNL     1       3.369  -6.917  31.320  1.00  0.00     0.009 C 
HETATM   21  C18 UNL     1       2.464  -7.843  33.347  1.00  0.00     0.009 C 
ENDBRANCH  18  19
ENDBRANCH   1  18
BRANCH   1  22
HETATM   22  N2  UNL     1      -0.691  -7.600  31.357  1.00  0.00    -0.391 N 
HETATM   23  C19 UNL     1      -1.067  -7.677  30.145  1.00  0.00    -0.022 C 
HETATM   24  C20 UNL     1      -1.162  -6.485  29.266  1.00  0.00     0.062 C 
ATOM     25  H2  UNL     1      -0.655  -8.471  31.886  1.00  0.00     0.159 HD
BRANCH  23  26
HETATM   26  C21 UNL     1      -1.403  -9.004  29.582  1.00  0.00     0.054 C 
BRANCH  26  27
HETATM   27  C22 UNL     1      -1.981  -9.897  30.624  1.00  0.00     0.049 C 
BRANCH  27  28
HETATM   28  C23 UNL     1      -3.405 -10.277  30.283  1.00  0.00     0.282 C 
BRANCH  28  29
HETATM   29  N3  UNL     1      -3.467 -10.617  28.891  1.00  0.00    -0.066 N 
ATOM     30  H33 UNL     1      -3.307 -11.610  28.724  1.00  0.00     0.275 HD
ATOM     31  H32 UNL     1      -4.415 -10.562  28.517  1.00  0.00     0.275 HD
ATOM     32  H31 UNL     1      -2.811 -10.024  28.382  1.00  0.00     0.275 HD
ENDBRANCH  28  29
BRANCH  28  33
HETATM   33  C24 UNL     1      -4.249  -9.070  30.593  1.00  0.00     0.289 C 
HETATM   34  O2  UNL     1      -4.166  -8.573  31.743  1.00  0.00    -0.263 OA
BRANCH  33  35
HETATM   35  O3  UNL     1      -5.070  -8.560  29.618  1.00  0.00    -0.325 OA
HETATM   36  C25 UNL     1      -4.808  -7.243  29.121  1.00  0.00     0.213 C 
ENDBRANCH  33  35
ENDBRANCH  28  33
ENDBRANCH  27  28
ENDBRANCH  26  27
ENDBRANCH  23  26
ENDBRANCH   1  22
TORSDOF 16
ENDMDL
