MODEL 1
REMARK VINA RESULT: -4.629066323      0.000      0.000
REMARK  15 active torsions:
REMARK  status: ('A' for Active; 'I' for Inactive)
REMARK    1  A    between atoms: C2_2  and  O1_3 
REMARK    2  A    between atoms: O1_3  and  C3_4 
REMARK       I    between atoms: C3_4  and  N1_6 
REMARK    3  A    between atoms: N1_6  and  C4_8 
REMARK    4  A    between atoms: C4_8  and  C5_9 
REMARK    5  A    between atoms: C5_9  and  C6_10 
REMARK    6  A    between atoms: C5_9  and  C14_19 
REMARK    7  A    between atoms: C6_10  and  C7_11 
REMARK    8  A    between atoms: C7_11  and  C8_12 
REMARK    9  A    between atoms: C8_12  and  C9_13 
REMARK   10  A    between atoms: C9_13  and  N2_14 
REMARK   11  A    between atoms: C14_19  and  C15_20 
REMARK       I    between atoms: C15_20  and  N3_22 
REMARK   12  A    between atoms: N3_22  and  C16_24 
REMARK   13  A    between atoms: C16_24  and  C18_26 
REMARK   14  A    between atoms: C18_26  and  C19_27 
REMARK   15  A    between atoms: C19_27  and  C20_28 
ROOT
HETATM    1  C5  UNL     1      -3.768  -6.346  33.321  1.00  0.00     0.012 C 
ENDROOT
BRANCH   1   2
HETATM    2  C4  UNL     1      -5.078  -7.138  33.069  1.00  0.00     0.130 C 
BRANCH   2   3
HETATM    3  N1  UNL     1      -5.059  -7.654  31.742  1.00  0.00    -0.337 N 
HETATM    4  C3  UNL     1      -5.061  -9.083  31.529  1.00  0.00     0.360 C 
HETATM    5  O2  UNL     1      -5.083  -9.858  32.523  1.00  0.00    -0.239 OA
ATOM      6  H1  UNL     1      -5.043  -7.018  30.945  1.00  0.00     0.164 HD
BRANCH   4   7
HETATM    7  O1  UNL     1      -5.038  -9.648  30.266  1.00  0.00    -0.304 OA
BRANCH   7   8
HETATM    8  C2  UNL     1      -3.868  -9.491  29.469  1.00  0.00     0.176 C 
HETATM    9  C1  UNL     1      -2.767 -10.339  30.062  1.00  0.00     0.034 C 
ENDBRANCH   7   8
ENDBRANCH   4   7
ENDBRANCH   2   3
ENDBRANCH   1   2
BRANCH   1  10
HETATM   10  C6  UNL     1      -3.726  -6.066  34.800  1.00  0.00     0.007 C 
BRANCH  10  11
HETATM   11  C7  UNL     1      -4.391  -7.140  35.605  1.00  0.00     0.002 C 
BRANCH  11  12
HETATM   12  C8  UNL     1      -3.830  -7.158  37.012  1.00  0.00     0.030 C 
BRANCH  12  13
HETATM   13  C9  UNL     1      -2.405  -6.696  36.992  1.00  0.00     0.272 C 
BRANCH  13  14
HETATM   14  N2  UNL     1      -1.771  -6.910  38.301  1.00  0.00     0.088 N 
HETATM   15  C10 UNL     1      -0.407  -7.384  38.127  1.00  0.00     0.272 C 
HETATM   16  C11 UNL     1      -0.181  -8.349  39.272  1.00  0.00     0.032 C 
HETATM   17  C12 UNL     1      -1.542  -8.990  39.371  1.00  0.00     0.032 C 
HETATM   18  C13 UNL     1      -2.498  -7.885  39.032  1.00  0.00     0.272 C 
ENDBRANCH  13  14
ENDBRANCH  12  13
ENDBRANCH  11  12
ENDBRANCH  10  11
ENDBRANCH   1  10
BRANCH   1  19
HETATM   19  C14 UNL     1      -3.754  -5.124  32.498  1.00  0.00     0.109 C 
BRANCH  19  20
HETATM   20  C15 UNL     1      -2.583  -4.993  31.614  1.00  0.00     0.218 C 
HETATM   21  O3  UNL     1      -2.690  -4.447  30.500  1.00  0.00    -0.274 OA
HETATM   22  N3  UNL     1      -1.350  -5.508  32.073  1.00  0.00    -0.357 N 
ATOM     23  H3  UNL     1      -1.332  -5.917  33.007  1.00  0.00     0.162 HD
BRANCH  22  24
HETATM   24  C16 UNL     1      -0.135  -5.502  31.338  1.00  0.00     0.080 C 
HETATM   25  C17 UNL     1       0.806  -4.408  31.815  1.00  0.00     0.032 C 
BRANCH  24  26
HETATM   26  C18 UNL     1       0.532  -6.829  31.256  1.00  0.00     0.025 C 
BRANCH  26  27
HETATM   27  C19 UNL     1      -0.092  -7.857  32.169  1.00  0.00     0.006 C 
BRANCH  27  28
HETATM   28  C20 UNL     1       0.869  -8.153  33.296  1.00  0.00    -0.014 C 
HETATM   29  C21 UNL     1       0.453  -7.491  34.580  1.00  0.00     0.004 C 
HETATM   30  C22 UNL     1       1.340  -6.366  35.024  1.00  0.00     0.000 C 
HETATM   31  C23 UNL     1       2.787  -6.791  35.153  1.00  0.00     0.000 C 
HETATM   32  C24 UNL     1       3.144  -7.837  34.119  1.00  0.00     0.000 C 
HETATM   33  C25 UNL     1       2.249  -7.725  32.897  1.00  0.00     0.004 C 
ENDBRANCH  27  28
ENDBRANCH  26  27
ENDBRANCH  24  26
ENDBRANCH  22  24
ENDBRANCH  19  20
ENDBRANCH   1  19
TORSDOF 15
ENDMDL
MODEL 2
REMARK VINA RESULT: -4.535511845      5.379      9.615
REMARK  15 active torsions:
REMARK  status: ('A' for Active; 'I' for Inactive)
REMARK    1  A    between atoms: C2_2  and  O1_3 
REMARK    2  A    between atoms: O1_3  and  C3_4 
REMARK       I    between atoms: C3_4  and  N1_6 
REMARK    3  A    between atoms: N1_6  and  C4_8 
REMARK    4  A    between atoms: C4_8  and  C5_9 
REMARK    5  A    between atoms: C5_9  and  C6_10 
REMARK    6  A    between atoms: C5_9  and  C14_19 
REMARK    7  A    between atoms: C6_10  and  C7_11 
REMARK    8  A    between atoms: C7_11  and  C8_12 
REMARK    9  A    between atoms: C8_12  and  C9_13 
REMARK   10  A    between atoms: C9_13  and  N2_14 
REMARK   11  A    between atoms: C14_19  and  C15_20 
REMARK       I    between atoms: C15_20  and  N3_22 
REMARK   12  A    between atoms: N3_22  and  C16_24 
REMARK   13  A    between atoms: C16_24  and  C18_26 
REMARK   14  A    between atoms: C18_26  and  C19_27 
REMARK   15  A    between atoms: C19_27  and  C20_28 
ROOT
HETATM    1  C5  UNL     1      -1.118  -7.523  39.800  1.00  0.00     0.012 C 
ENDROOT
BRANCH   1   2
HETATM    2  C4  UNL     1      -2.605  -7.701  39.393  1.00  0.00     0.130 C 
BRANCH   2   3
HETATM    3  N1  UNL     1      -2.692  -7.758  37.973  1.00  0.00    -0.337 N 
HETATM    4  C3  UNL     1      -3.939  -7.438  37.319  1.00  0.00     0.360 C 
HETATM    5  O2  UNL     1      -4.938  -7.108  38.014  1.00  0.00    -0.239 OA
ATOM      6  H1  UNL     1      -1.878  -8.024  37.420  1.00  0.00     0.164 HD
BRANCH   4   7
HETATM    7  O1  UNL     1      -4.091  -7.479  35.944  1.00  0.00    -0.304 OA
BRANCH   7   8
HETATM    8  C2  UNL     1      -5.208  -6.816  35.360  1.00  0.00     0.176 C 
HETATM    9  C1  UNL     1      -5.619  -7.573  34.118  1.00  0.00     0.034 C 
ENDBRANCH   7   8
ENDBRANCH   4   7
ENDBRANCH   2   3
ENDBRANCH   1   2
BRANCH   1  10
HETATM   10  C6  UNL     1      -0.304  -8.054  38.649  1.00  0.00     0.007 C 
BRANCH  10  11
HETATM   11  C7  UNL     1       1.059  -7.434  38.579  1.00  0.00     0.002 C 
BRANCH  11  12
HETATM   12  C8  UNL     1       1.158  -6.532  37.366  1.00  0.00     0.030 C 
BRANCH  12  13
HETATM   13  C9  UNL     1       0.370  -7.119  36.235  1.00  0.00     0.272 C 
BRANCH  13  14
HETATM   14  N2  UNL     1       0.990  -6.789  34.944  1.00  0.00     0.088 N 
HETATM   15  C10 UNL     1       0.654  -7.800  33.953  1.00  0.00     0.272 C 
HETATM   16  C11 UNL     1       1.889  -7.920  33.085  1.00  0.00     0.032 C 
HETATM   17  C12 UNL     1       2.975  -7.738  34.114  1.00  0.00     0.032 C 
HETATM   18  C13 UNL     1       2.402  -6.750  35.086  1.00  0.00     0.272 C 
ENDBRANCH  13  14
ENDBRANCH  12  13
ENDBRANCH  11  12
ENDBRANCH  10  11
ENDBRANCH   1  10
BRANCH   1  19
HETATM   19  C14 UNL     1      -0.857  -8.227  41.067  1.00  0.00     0.109 C 
BRANCH  19  20
HETATM   20  C15 UNL     1      -0.273  -7.386  42.127  1.00  0.00     0.218 C 
HETATM   21  O3  UNL     1       0.307  -6.321  41.840  1.00  0.00    -0.274 OA
HETATM   22  N3  UNL     1      -0.392  -7.830  43.461  1.00  0.00    -0.357 N 
ATOM     23  H3  UNL     1      -0.904  -8.697  43.623  1.00  0.00     0.162 HD
BRANCH  22  24
HETATM   24  C16 UNL     1       0.144  -7.166  44.597  1.00  0.00     0.080 C 
HETATM   25  C17 UNL     1      -0.866  -7.083  45.729  1.00  0.00     0.032 C 
BRANCH  24  26
HETATM   26  C18 UNL     1       1.458  -7.698  45.048  1.00  0.00     0.025 C 
BRANCH  26  27
HETATM   27  C19 UNL     1       2.568  -6.678  44.951  1.00  0.00     0.006 C 
BRANCH  27  28
HETATM   28  C20 UNL     1       3.389  -6.731  46.217  1.00  0.00    -0.014 C 
HETATM   29  C21 UNL     1       4.855  -6.536  45.947  1.00  0.00     0.004 C 
HETATM   30  C22 UNL     1       5.700  -7.757  46.153  1.00  0.00     0.000 C 
HETATM   31  C23 UNL     1       5.544  -8.338  47.541  1.00  0.00     0.000 C 
HETATM   32  C24 UNL     1       4.134  -8.148  48.059  1.00  0.00     0.000 C 
HETATM   33  C25 UNL     1       3.143  -8.035  46.914  1.00  0.00     0.004 C 
ENDBRANCH  27  28
ENDBRANCH  26  27
ENDBRANCH  24  26
ENDBRANCH  22  24
ENDBRANCH  19  20
ENDBRANCH   1  19
TORSDOF 15
ENDMDL
MODEL 3
REMARK VINA RESULT: -4.495363882      1.411      1.739
REMARK  15 active torsions:
REMARK  status: ('A' for Active; 'I' for Inactive)
REMARK    1  A    between atoms: C2_2  and  O1_3 
REMARK    2  A    between atoms: O1_3  and  C3_4 
REMARK       I    between atoms: C3_4  and  N1_6 
REMARK    3  A    between atoms: N1_6  and  C4_8 
REMARK    4  A    between atoms: C4_8  and  C5_9 
REMARK    5  A    between atoms: C5_9  and  C6_10 
REMARK    6  A    between atoms: C5_9  and  C14_19 
REMARK    7  A    between atoms: C6_10  and  C7_11 
REMARK    8  A    between atoms: C7_11  and  C8_12 
REMARK    9  A    between atoms: C8_12  and  C9_13 
REMARK   10  A    between atoms: C9_13  and  N2_14 
REMARK   11  A    between atoms: C14_19  and  C15_20 
REMARK       I    between atoms: C15_20  and  N3_22 
REMARK   12  A    between atoms: N3_22  and  C16_24 
REMARK   13  A    between atoms: C16_24  and  C18_26 
REMARK   14  A    between atoms: C18_26  and  C19_27 
REMARK   15  A    between atoms: C19_27  and  C20_28 
ROOT
HETATM    1  C5  UNL     1      -4.884  -7.398  34.033  1.00  0.00     0.012 C 
ENDROOT
BRANCH   1   2
HETATM    2  C4  UNL     1      -5.857  -8.091  33.042  1.00  0.00     0.130 C 
BRANCH   2   3
HETATM    3  N1  UNL     1      -5.172  -8.338  31.819  1.00  0.00    -0.337 N 
HETATM    4  C3  UNL     1      -4.824  -9.692  31.454  1.00  0.00     0.360 C 
HETATM    5  O2  UNL     1      -5.133 -10.641  32.223  1.00  0.00    -0.239 OA
ATOM      6  H1  UNL     1      -4.927  -7.563  31.203  1.00  0.00     0.164 HD
BRANCH   4   7
HETATM    7  O1  UNL     1      -4.154  -9.999  30.283  1.00  0.00    -0.304 OA
BRANCH   7   8
HETATM    8  C2  UNL     1      -2.819 -10.487  30.367  1.00  0.00     0.176 C 
HETATM    9  C1  UNL     1      -1.931  -9.603  29.523  1.00  0.00     0.034 C 
ENDBRANCH   7   8
ENDBRANCH   4   7
ENDBRANCH   2   3
ENDBRANCH   1   2
BRANCH   1  10
HETATM   10  C6  UNL     1      -5.701  -7.058  35.252  1.00  0.00     0.007 C 
BRANCH  10  11
HETATM   11  C7  UNL     1      -4.899  -6.346  36.298  1.00  0.00     0.002 C 
BRANCH  11  12
HETATM   12  C8  UNL     1      -3.918  -7.304  36.942  1.00  0.00     0.030 C 
BRANCH  12  13
HETATM   13  C9  UNL     1      -3.911  -7.097  38.426  1.00  0.00     0.272 C 
BRANCH  13  14
HETATM   14  N2  UNL     1      -2.533  -7.018  38.933  1.00  0.00     0.088 N 
HETATM   15  C10 UNL     1      -1.591  -7.008  37.824  1.00  0.00     0.272 C 
HETATM   16  C11 UNL     1      -0.390  -7.782  38.327  1.00  0.00     0.032 C 
HETATM   17  C12 UNL     1      -1.067  -8.841  39.159  1.00  0.00     0.032 C 
HETATM   18  C13 UNL     1      -2.256  -8.145  39.749  1.00  0.00     0.272 C 
ENDBRANCH  13  14
ENDBRANCH  12  13
ENDBRANCH  11  12
ENDBRANCH  10  11
ENDBRANCH   1  10
BRANCH   1  19
HETATM   19  C14 UNL     1      -4.276  -6.217  33.396  1.00  0.00     0.109 C 
BRANCH  19  20
HETATM   20  C15 UNL     1      -2.839  -6.350  33.102  1.00  0.00     0.218 C 
HETATM   21  O3  UNL     1      -2.455  -6.987  32.102  1.00  0.00    -0.274 OA
HETATM   22  N3  UNL     1      -1.926  -5.739  33.988  1.00  0.00    -0.357 N 
ATOM     23  H3  UNL     1      -2.314  -5.210  34.769  1.00  0.00     0.162 HD
BRANCH  22  24
HETATM   24  C16 UNL     1      -0.511  -5.800  33.878  1.00  0.00     0.080 C 
HETATM   25  C17 UNL     1       0.145  -4.507  34.332  1.00  0.00     0.032 C 
BRANCH  24  26
HETATM   26  C18 UNL     1       0.096  -6.999  34.516  1.00  0.00     0.025 C 
BRANCH  26  27
HETATM   27  C19 UNL     1       0.615  -7.999  33.510  1.00  0.00     0.006 C 
BRANCH  27  28
HETATM   28  C20 UNL     1       2.121  -8.052  33.609  1.00  0.00    -0.014 C 
HETATM   29  C21 UNL     1       2.627  -7.396  34.864  1.00  0.00     0.004 C 
HETATM   30  C22 UNL     1       3.363  -6.108  34.647  1.00  0.00     0.000 C 
HETATM   31  C23 UNL     1       4.524  -6.263  33.688  1.00  0.00     0.000 C 
HETATM   32  C24 UNL     1       4.218  -7.291  32.620  1.00  0.00     0.000 C 
HETATM   33  C25 UNL     1       2.721  -7.413  32.393  1.00  0.00     0.004 C 
ENDBRANCH  27  28
ENDBRANCH  26  27
ENDBRANCH  24  26
ENDBRANCH  22  24
ENDBRANCH  19  20
ENDBRANCH   1  19
TORSDOF 15
ENDMDL
MODEL 4
REMARK VINA RESULT: -4.412734353      6.196     10.758
REMARK  15 active torsions:
REMARK  status: ('A' for Active; 'I' for Inactive)
REMARK    1  A    between atoms: C2_2  and  O1_3 
REMARK    2  A    between atoms: O1_3  and  C3_4 
REMARK       I    between atoms: C3_4  and  N1_6 
REMARK    3  A    between atoms: N1_6  and  C4_8 
REMARK    4  A    between atoms: C4_8  and  C5_9 
REMARK    5  A    between atoms: C5_9  and  C6_10 
REMARK    6  A    between atoms: C5_9  and  C14_19 
REMARK    7  A    between atoms: C6_10  and  C7_11 
REMARK    8  A    between atoms: C7_11  and  C8_12 
REMARK    9  A    between atoms: C8_12  and  C9_13 
REMARK   10  A    between atoms: C9_13  and  N2_14 
REMARK   11  A    between atoms: C14_19  and  C15_20 
REMARK       I    between atoms: C15_20  and  N3_22 
REMARK   12  A    between atoms: N3_22  and  C16_24 
REMARK   13  A    between atoms: C16_24  and  C18_26 
REMARK   14  A    between atoms: C18_26  and  C19_27 
REMARK   15  A    between atoms: C19_27  and  C20_28 
ROOT
HETATM    1  C5  UNL     1      -0.874  -7.255  40.227  1.00  0.00     0.012 C 
ENDROOT
BRANCH   1   2
HETATM    2  C4  UNL     1      -2.417  -7.287  40.064  1.00  0.00     0.130 C 
BRANCH   2   3
HETATM    3  N1  UNL     1      -2.905  -8.543  40.523  1.00  0.00    -0.337 N 
HETATM    4  C3  UNL     1      -3.940  -8.585  41.529  1.00  0.00     0.360 C 
HETATM    5  O2  UNL     1      -4.403  -7.506  41.988  1.00  0.00    -0.239 OA
ATOM      6  H1  UNL     1      -2.525  -9.410  40.143  1.00  0.00     0.164 HD
BRANCH   4   7
HETATM    7  O1  UNL     1      -4.453  -9.772  42.021  1.00  0.00    -0.304 OA
BRANCH   7   8
HETATM    8  C2  UNL     1      -5.533  -9.718  42.947  1.00  0.00     0.176 C 
HETATM    9  C1  UNL     1      -5.333 -10.800  43.982  1.00  0.00     0.034 C 
ENDBRANCH   7   8
ENDBRANCH   4   7
ENDBRANCH   2   3
ENDBRANCH   1   2
BRANCH   1  10
HETATM   10  C6  UNL     1      -0.306  -7.768  38.929  1.00  0.00     0.007 C 
BRANCH  10  11
HETATM   11  C7  UNL     1       1.047  -7.197  38.632  1.00  0.00     0.002 C 
BRANCH  11  12
HETATM   12  C8  UNL     1       0.990  -6.358  37.372  1.00  0.00     0.030 C 
BRANCH  12  13
HETATM   13  C9  UNL     1       0.293  -7.122  36.288  1.00  0.00     0.272 C 
BRANCH  13  14
HETATM   14  N2  UNL     1       0.887  -6.823  34.978  1.00  0.00     0.088 N 
HETATM   15  C10 UNL     1       0.572  -7.882  34.030  1.00  0.00     0.272 C 
HETATM   16  C11 UNL     1       1.800  -7.996  33.151  1.00  0.00     0.032 C 
HETATM   17  C12 UNL     1       2.892  -7.740  34.159  1.00  0.00     0.032 C 
HETATM   18  C13 UNL     1       2.298  -6.734  35.099  1.00  0.00     0.272 C 
ENDBRANCH  13  14
ENDBRANCH  12  13
ENDBRANCH  11  12
ENDBRANCH  10  11
ENDBRANCH   1  10
BRANCH   1  19
HETATM   19  C14 UNL     1      -0.476  -8.062  41.393  1.00  0.00     0.109 C 
BRANCH  19  20
HETATM   20  C15 UNL     1       0.011  -7.280  42.543  1.00  0.00     0.218 C 
HETATM   21  O3  UNL     1       0.577  -6.185  42.367  1.00  0.00    -0.274 OA
HETATM   22  N3  UNL     1      -0.183  -7.816  43.834  1.00  0.00    -0.357 N 
ATOM     23  H3  UNL     1      -0.680  -8.705  43.903  1.00  0.00     0.162 HD
BRANCH  22  24
HETATM   24  C16 UNL     1       0.256  -7.218  45.045  1.00  0.00     0.080 C 
HETATM   25  C17 UNL     1      -0.849  -7.178  46.086  1.00  0.00     0.032 C 
BRANCH  24  26
HETATM   26  C18 UNL     1       1.521  -7.788  45.581  1.00  0.00     0.025 C 
BRANCH  26  27
HETATM   27  C19 UNL     1       2.731  -6.949  45.246  1.00  0.00     0.006 C 
BRANCH  27  28
HETATM   28  C20 UNL     1       3.631  -6.889  46.458  1.00  0.00    -0.014 C 
HETATM   29  C21 UNL     1       5.086  -6.892  46.080  1.00  0.00     0.004 C 
HETATM   30  C22 UNL     1       5.825  -8.147  46.434  1.00  0.00     0.000 C 
HETATM   31  C23 UNL     1       5.714  -8.485  47.905  1.00  0.00     0.000 C 
HETATM   32  C24 UNL     1       4.368  -8.070  48.462  1.00  0.00     0.000 C 
HETATM   33  C25 UNL     1       3.314  -8.036  47.369  1.00  0.00     0.004 C 
ENDBRANCH  27  28
ENDBRANCH  26  27
ENDBRANCH  24  26
ENDBRANCH  22  24
ENDBRANCH  19  20
ENDBRANCH   1  19
TORSDOF 15
ENDMDL
MODEL 5
REMARK VINA RESULT: -4.405051782      6.358     10.814
REMARK  15 active torsions:
REMARK  status: ('A' for Active; 'I' for Inactive)
REMARK    1  A    between atoms: C2_2  and  O1_3 
REMARK    2  A    between atoms: O1_3  and  C3_4 
REMARK       I    between atoms: C3_4  and  N1_6 
REMARK    3  A    between atoms: N1_6  and  C4_8 
REMARK    4  A    between atoms: C4_8  and  C5_9 
REMARK    5  A    between atoms: C5_9  and  C6_10 
REMARK    6  A    between atoms: C5_9  and  C14_19 
REMARK    7  A    between atoms: C6_10  and  C7_11 
REMARK    8  A    between atoms: C7_11  and  C8_12 
REMARK    9  A    between atoms: C8_12  and  C9_13 
REMARK   10  A    between atoms: C9_13  and  N2_14 
REMARK   11  A    between atoms: C14_19  and  C15_20 
REMARK       I    between atoms: C15_20  and  N3_22 
REMARK   12  A    between atoms: N3_22  and  C16_24 
REMARK   13  A    between atoms: C16_24  and  C18_26 
REMARK   14  A    between atoms: C18_26  and  C19_27 
REMARK   15  A    between atoms: C19_27  and  C20_28 
ROOT
HETATM    1  C5  UNL     1      -1.251  -7.267  40.369  1.00  0.00     0.012 C 
ENDROOT
BRANCH   1   2
HETATM    2  C4  UNL     1      -2.677  -6.921  40.873  1.00  0.00     0.130 C 
BRANCH   2   3
HETATM    3  N1  UNL     1      -3.446  -8.117  40.941  1.00  0.00    -0.337 N 
HETATM    4  C3  UNL     1      -3.843  -8.641  42.226  1.00  0.00     0.360 C 
HETATM    5  O2  UNL     1      -3.505  -8.031  43.276  1.00  0.00    -0.239 OA
ATOM      6  H1  UNL     1      -3.716  -8.602  40.085  1.00  0.00     0.164 HD
BRANCH   4   7
HETATM    7  O1  UNL     1      -4.586  -9.801  42.361  1.00  0.00    -0.304 OA
BRANCH   7   8
HETATM    8  C2  UNL     1      -5.695  -9.802  43.255  1.00  0.00     0.176 C 
HETATM    9  C1  UNL     1      -5.545 -10.969  44.202  1.00  0.00     0.034 C 
ENDBRANCH   7   8
ENDBRANCH   4   7
ENDBRANCH   2   3
ENDBRANCH   1   2
BRANCH   1  10
HETATM   10  C6  UNL     1      -1.434  -7.993  39.062  1.00  0.00     0.007 C 
BRANCH  10  11
HETATM   11  C7  UNL     1      -0.145  -8.165  38.317  1.00  0.00     0.002 C 
BRANCH  11  12
HETATM   12  C8  UNL     1       0.586  -6.841  38.232  1.00  0.00     0.030 C 
BRANCH  12  13
HETATM   13  C9  UNL     1       1.068  -6.620  36.831  1.00  0.00     0.272 C 
BRANCH  13  14
HETATM   14  N2  UNL     1       2.436  -6.083  36.831  1.00  0.00     0.088 N 
HETATM   15  C10 UNL     1       3.195  -6.642  35.723  1.00  0.00     0.272 C 
HETATM   16  C11 UNL     1       4.605  -6.794  36.254  1.00  0.00     0.032 C 
HETATM   17  C12 UNL     1       4.326  -7.193  37.681  1.00  0.00     0.032 C 
HETATM   18  C13 UNL     1       3.088  -6.429  38.043  1.00  0.00     0.272 C 
ENDBRANCH  13  14
ENDBRANCH  12  13
ENDBRANCH  11  12
ENDBRANCH  10  11
ENDBRANCH   1  10
BRANCH   1  19
HETATM   19  C14 UNL     1      -0.541  -8.067  41.382  1.00  0.00     0.109 C 
BRANCH  19  20
HETATM   20  C15 UNL     1      -0.055  -7.298  42.541  1.00  0.00     0.218 C 
HETATM   21  O3  UNL     1       0.573  -6.235  42.375  1.00  0.00    -0.274 OA
HETATM   22  N3  UNL     1      -0.324  -7.809  43.829  1.00  0.00    -0.357 N 
ATOM     23  H3  UNL     1      -0.868  -8.669  43.888  1.00  0.00     0.162 HD
BRANCH  22  24
HETATM   24  C16 UNL     1       0.103  -7.220  45.049  1.00  0.00     0.080 C 
HETATM   25  C17 UNL     1      -1.018  -7.175  46.074  1.00  0.00     0.032 C 
BRANCH  24  26
HETATM   26  C18 UNL     1       1.354  -7.804  45.602  1.00  0.00     0.025 C 
BRANCH  26  27
HETATM   27  C19 UNL     1       2.586  -7.020  45.219  1.00  0.00     0.006 C 
BRANCH  27  28
HETATM   28  C20 UNL     1       3.489  -6.913  46.425  1.00  0.00    -0.014 C 
HETATM   29  C21 UNL     1       4.941  -6.862  46.040  1.00  0.00     0.004 C 
HETATM   30  C22 UNL     1       5.731  -8.084  46.402  1.00  0.00     0.000 C 
HETATM   31  C23 UNL     1       5.640  -8.413  47.876  1.00  0.00     0.000 C 
HETATM   32  C24 UNL     1       4.282  -8.047  48.436  1.00  0.00     0.000 C 
HETATM   33  C25 UNL     1       3.222  -8.064  47.348  1.00  0.00     0.004 C 
ENDBRANCH  27  28
ENDBRANCH  26  27
ENDBRANCH  24  26
ENDBRANCH  22  24
ENDBRANCH  19  20
ENDBRANCH   1  19
TORSDOF 15
ENDMDL
