MODEL 1
REMARK VINA RESULT: -7.513176893      0.000      0.000
REMARK  10 active torsions:
REMARK  status: ('A' for Active; 'I' for Inactive)
REMARK    1  A    between atoms: C2_2  and  C3_3 
REMARK    2  A    between atoms: C4_6  and  C5_7 
REMARK    3  A    between atoms: C5_7  and  C6_8 
REMARK    4  A    between atoms: C6_8  and  C8_10 
REMARK    5  A    between atoms: C8_10  and  N2_11 
REMARK    6  A    between atoms: C8_10  and  N3_15 
REMARK    7  A    between atoms: N3_15  and  C9_18 
REMARK    8  A    between atoms: C9_18  and  C10_19 
REMARK    9  A    between atoms: C9_18  and  C14_27 
REMARK   10  A    between atoms: C10_19  and  C11_20 
ROOT
HETATM    1  C8  UNL     1      91.023  44.346  64.604  1.00  0.00     0.385 C 
ENDROOT
BRANCH   1   2
HETATM    2  C6  UNL     1      90.709  44.637  66.075  1.00  0.00     0.045 C 
HETATM    3  C7  UNL     1      90.555  46.162  66.246  1.00  0.00     0.014 C 
BRANCH   2   4
HETATM    4  C5  UNL     1      91.867  44.236  66.911  1.00  0.00     0.066 C 
BRANCH   4   5
HETATM    5  C4  UNL     1      91.754  44.601  68.352  1.00  0.00     0.026 A 
HETATM    6  N1  UNL     1      90.711  44.345  69.178  1.00  0.00    -0.345 N 
HETATM    7  C3  UNL     1      91.016  44.860  70.391  1.00  0.00     0.104 A 
ATOM      8  H1  UNL     1      89.853  43.854  68.930  1.00  0.00     0.167 HD
HETATM    9  N6  UNL     1      92.251  45.431  70.303  1.00  0.00    -0.350 N 
HETATM   10  C15 UNL     1      92.706  45.277  69.061  1.00  0.00     0.114 A 
ATOM     11  H6  UNL     1      92.744  45.900  71.063  1.00  0.00     0.166 HD
BRANCH   7  12
HETATM   12  C2  UNL     1      90.205  44.832  71.601  1.00  0.00     0.038 C 
HETATM   13  C1  UNL     1      89.709  45.932  72.118  1.00  0.00     0.015 C 
ENDBRANCH   7  12
ENDBRANCH   4   5
ENDBRANCH   2   4
ENDBRANCH   1   2
BRANCH   1  14
HETATM   14  N2  UNL     1      90.130  43.353  64.096  1.00  0.00    -0.050 N 
ATOM     15  H23 UNL     1      90.573  42.766  63.389  1.00  0.00     0.276 HD
ATOM     16  H22 UNL     1      89.930  42.629  64.787  1.00  0.00     0.276 HD
ATOM     17  H21 UNL     1      89.278  43.792  63.748  1.00  0.00     0.276 HD
ENDBRANCH   1  14
BRANCH   1  18
HETATM   18  N3  UNL     1      92.373  43.903  64.447  1.00  0.00    -0.032 N 
ATOM     19  H32 UNL     1      92.845  43.805  65.346  1.00  0.00     0.280 HD
ATOM     20  H31 UNL     1      92.418  42.930  64.144  1.00  0.00     0.280 HD
BRANCH  18  21
HETATM   21  C9  UNL     1      93.102  44.778  63.550  1.00  0.00     0.293 C 
BRANCH  21  22
HETATM   22  C10 UNL     1      94.452  45.039  64.129  1.00  0.00     0.103 C 
BRANCH  22  23
HETATM   23  C11 UNL     1      94.463  46.119  65.139  1.00  0.00     0.028 A 
HETATM   24  C12 UNL     1      93.772  47.299  65.249  1.00  0.00     0.114 A 
HETATM   25  N4  UNL     1      94.127  47.959  66.360  1.00  0.00    -0.360 N 
HETATM   26  C13 UNL     1      95.047  47.216  66.975  1.00  0.00     0.180 A 
ATOM     27  H4  UNL     1      93.763  48.858  66.674  1.00  0.00     0.166 HD
HETATM   28  N5  UNL     1      95.263  46.094  66.246  1.00  0.00    -0.355 N 
ATOM     29  H5  UNL     1      95.917  45.350  66.486  1.00  0.00     0.166 HD
ENDBRANCH  22  23
ENDBRANCH  21  22
BRANCH  21  30
HETATM   30  C14 UNL     1      93.133  44.105  62.234  1.00  0.00     0.205 C 
HETATM   31  O1  UNL     1      93.930  44.550  61.347  1.00  0.00    -0.646 OA
HETATM   32  O2  UNL     1      92.368  43.018  61.867  1.00  0.00    -0.646 OA
ENDBRANCH  21  30
ENDBRANCH  18  21
ENDBRANCH   1  18
TORSDOF 10
ENDMDL
MODEL 2
REMARK VINA RESULT: -7.330800839      0.706      1.061
REMARK  10 active torsions:
REMARK  status: ('A' for Active; 'I' for Inactive)
REMARK    1  A    between atoms: C2_2  and  C3_3 
REMARK    2  A    between atoms: C4_6  and  C5_7 
REMARK    3  A    between atoms: C5_7  and  C6_8 
REMARK    4  A    between atoms: C6_8  and  C8_10 
REMARK    5  A    between atoms: C8_10  and  N2_11 
REMARK    6  A    between atoms: C8_10  and  N3_15 
REMARK    7  A    between atoms: N3_15  and  C9_18 
REMARK    8  A    between atoms: C9_18  and  C10_19 
REMARK    9  A    between atoms: C9_18  and  C14_27 
REMARK   10  A    between atoms: C10_19  and  C11_20 
ROOT
HETATM    1  C8  UNL     1      90.807  44.308  64.380  1.00  0.00     0.385 C 
ENDROOT
BRANCH   1   2
HETATM    2  C6  UNL     1      90.318  44.711  65.776  1.00  0.00     0.045 C 
HETATM    3  C7  UNL     1      90.298  46.251  65.856  1.00  0.00     0.014 C 
BRANCH   2   4
HETATM    4  C5  UNL     1      91.300  44.253  66.789  1.00  0.00     0.066 C 
BRANCH   4   5
HETATM    5  C4  UNL     1      90.798  44.258  68.193  1.00  0.00     0.026 A 
HETATM    6  N1  UNL     1      91.339  44.913  69.248  1.00  0.00    -0.345 N 
HETATM    7  C3  UNL     1      90.580  44.636  70.333  1.00  0.00     0.104 A 
ATOM      8  H1  UNL     1      92.168  45.507  69.229  1.00  0.00     0.167 HD
HETATM    9  N6  UNL     1      89.571  43.809  69.935  1.00  0.00    -0.350 N 
HETATM   10  C15 UNL     1      89.699  43.575  68.630  1.00  0.00     0.114 A 
ATOM     11  H6  UNL     1      88.840  43.431  70.537  1.00  0.00     0.166 HD
BRANCH   7  12
HETATM   12  C2  UNL     1      90.766  45.111  71.697  1.00  0.00     0.038 C 
HETATM   13  C1  UNL     1      89.761  45.577  72.402  1.00  0.00     0.015 C 
ENDBRANCH   7  12
ENDBRANCH   4   5
ENDBRANCH   2   4
ENDBRANCH   1   2
BRANCH   1  14
HETATM   14  N2  UNL     1      90.007  43.240  63.868  1.00  0.00    -0.050 N 
ATOM     15  H23 UNL     1      90.574  42.445  63.574  1.00  0.00     0.276 HD
ATOM     16  H22 UNL     1      89.471  42.778  64.603  1.00  0.00     0.276 HD
ATOM     17  H21 UNL     1      89.407  43.580  63.116  1.00  0.00     0.276 HD
ENDBRANCH   1  14
BRANCH   1  18
HETATM   18  N3  UNL     1      92.178  43.906  64.415  1.00  0.00    -0.032 N 
ATOM     19  H32 UNL     1      92.544  43.891  65.367  1.00  0.00     0.280 HD
ATOM     20  H31 UNL     1      92.287  42.916  64.193  1.00  0.00     0.280 HD
BRANCH  18  21
HETATM   21  C9  UNL     1      92.982  44.742  63.545  1.00  0.00     0.293 C 
BRANCH  21  22
HETATM   22  C10 UNL     1      94.318  44.943  64.177  1.00  0.00     0.103 C 
BRANCH  22  23
HETATM   23  C11 UNL     1      94.352  46.059  65.147  1.00  0.00     0.028 A 
HETATM   24  C12 UNL     1      93.684  47.255  65.214  1.00  0.00     0.114 A 
HETATM   25  N4  UNL     1      94.053  47.948  66.299  1.00  0.00    -0.360 N 
HETATM   26  C13 UNL     1      94.959  47.211  66.941  1.00  0.00     0.180 A 
ATOM     27  H4  UNL     1      93.707  48.865  66.581  1.00  0.00     0.166 HD
HETATM   28  N5  UNL     1      95.152  46.059  66.254  1.00  0.00    -0.355 N 
ATOM     29  H5  UNL     1      95.792  45.311  66.520  1.00  0.00     0.166 HD
ENDBRANCH  22  23
ENDBRANCH  21  22
BRANCH  21  30
HETATM   30  C14 UNL     1      93.035  44.061  62.233  1.00  0.00     0.205 C 
HETATM   31  O1  UNL     1      93.803  44.537  61.337  1.00  0.00    -0.646 OA
HETATM   32  O2  UNL     1      92.318  42.937  61.881  1.00  0.00    -0.646 OA
ENDBRANCH  21  30
ENDBRANCH  18  21
ENDBRANCH   1  18
TORSDOF 10
ENDMDL
MODEL 3
REMARK VINA RESULT: -7.245253045      1.128      1.625
REMARK  10 active torsions:
REMARK  status: ('A' for Active; 'I' for Inactive)
REMARK    1  A    between atoms: C2_2  and  C3_3 
REMARK    2  A    between atoms: C4_6  and  C5_7 
REMARK    3  A    between atoms: C5_7  and  C6_8 
REMARK    4  A    between atoms: C6_8  and  C8_10 
REMARK    5  A    between atoms: C8_10  and  N2_11 
REMARK    6  A    between atoms: C8_10  and  N3_15 
REMARK    7  A    between atoms: N3_15  and  C9_18 
REMARK    8  A    between atoms: C9_18  and  C10_19 
REMARK    9  A    between atoms: C9_18  and  C14_27 
REMARK   10  A    between atoms: C10_19  and  C11_20 
ROOT
HETATM    1  C8  UNL     1      91.314  44.448  65.299  1.00  0.00     0.385 C 
ENDROOT
BRANCH   1   2
HETATM    2  C6  UNL     1      91.444  44.631  66.815  1.00  0.00     0.045 C 
HETATM    3  C7  UNL     1      92.734  43.926  67.280  1.00  0.00     0.014 C 
BRANCH   2   4
HETATM    4  C5  UNL     1      90.321  43.935  67.489  1.00  0.00     0.066 C 
BRANCH   4   5
HETATM    5  C4  UNL     1      89.899  44.539  68.786  1.00  0.00     0.026 A 
HETATM    6  N1  UNL     1      90.550  44.458  69.971  1.00  0.00    -0.345 N 
HETATM    7  C3  UNL     1      89.816  45.133  70.886  1.00  0.00     0.104 A 
ATOM      8  H1  UNL     1      91.432  43.976  70.143  1.00  0.00     0.167 HD
HETATM    9  N6  UNL     1      88.714  45.627  70.254  1.00  0.00    -0.350 N 
HETATM   10  C15 UNL     1      88.760  45.268  68.972  1.00  0.00     0.114 A 
ATOM     11  H6  UNL     1      87.977  46.181  70.689  1.00  0.00     0.166 HD
BRANCH   7  12
HETATM   12  C2  UNL     1      90.110  45.324  72.300  1.00  0.00     0.038 C 
HETATM   13  C1  UNL     1      89.266  45.935  73.098  1.00  0.00     0.015 C 
ENDBRANCH   7  12
ENDBRANCH   4   5
ENDBRANCH   2   4
ENDBRANCH   1   2
BRANCH   1  14
HETATM   14  N2  UNL     1      90.230  43.565  65.001  1.00  0.00    -0.050 N 
ATOM     15  H23 UNL     1      90.554  42.682  64.608  1.00  0.00     0.276 HD
ATOM     16  H22 UNL     1      89.791  43.200  65.847  1.00  0.00     0.276 HD
ATOM     17  H21 UNL     1      89.556  44.030  64.392  1.00  0.00     0.276 HD
ENDBRANCH   1  14
BRANCH   1  18
HETATM   18  N3  UNL     1      92.523  43.929  64.741  1.00  0.00    -0.032 N 
ATOM     19  H32 UNL     1      93.194  43.672  65.465  1.00  0.00     0.280 HD
ATOM     20  H31 UNL     1      92.382  43.007  64.328  1.00  0.00     0.280 HD
BRANCH  18  21
HETATM   21  C9  UNL     1      93.093  44.862  63.789  1.00  0.00     0.293 C 
BRANCH  21  22
HETATM   22  C10 UNL     1      94.479  45.199  64.221  1.00  0.00     0.103 C 
BRANCH  22  23
HETATM   23  C11 UNL     1      94.537  46.263  65.248  1.00  0.00     0.028 A 
HETATM   24  C12 UNL     1      93.838  47.431  65.417  1.00  0.00     0.114 A 
HETATM   25  N4  UNL     1      94.249  48.078  66.516  1.00  0.00    -0.360 N 
HETATM   26  C13 UNL     1      95.213  47.338  67.064  1.00  0.00     0.180 A 
ATOM     27  H4  UNL     1      93.893  48.966  66.867  1.00  0.00     0.166 HD
HETATM   28  N5  UNL     1      95.400  46.231  66.305  1.00  0.00    -0.355 N 
ATOM     29  H5  UNL     1      96.077  45.491  66.494  1.00  0.00     0.166 HD
ENDBRANCH  22  23
ENDBRANCH  21  22
BRANCH  21  30
HETATM   30  C14 UNL     1      93.019  44.211  62.462  1.00  0.00     0.205 C 
HETATM   31  O1  UNL     1      93.217  42.956  62.395  1.00  0.00    -0.646 OA
HETATM   32  O2  UNL     1      92.749  44.846  61.269  1.00  0.00    -0.646 OA
ENDBRANCH  21  30
ENDBRANCH  18  21
ENDBRANCH   1  18
TORSDOF 10
ENDMDL
MODEL 4
REMARK VINA RESULT: -7.205610616      1.739      3.895
REMARK  10 active torsions:
REMARK  status: ('A' for Active; 'I' for Inactive)
REMARK    1  A    between atoms: C2_2  and  C3_3 
REMARK    2  A    between atoms: C4_6  and  C5_7 
REMARK    3  A    between atoms: C5_7  and  C6_8 
REMARK    4  A    between atoms: C6_8  and  C8_10 
REMARK    5  A    between atoms: C8_10  and  N2_11 
REMARK    6  A    between atoms: C8_10  and  N3_15 
REMARK    7  A    between atoms: N3_15  and  C9_18 
REMARK    8  A    between atoms: C9_18  and  C10_19 
REMARK    9  A    between atoms: C9_18  and  C14_27 
REMARK   10  A    between atoms: C10_19  and  C11_20 
ROOT
HETATM    1  C8  UNL     1      93.715  45.830  64.946  1.00  0.00     0.385 C 
ENDROOT
BRANCH   1   2
HETATM    2  C6  UNL     1      93.837  46.779  66.143  1.00  0.00     0.045 C 
HETATM    3  C7  UNL     1      95.080  47.667  65.933  1.00  0.00     0.014 C 
BRANCH   2   4
HETATM    4  C5  UNL     1      94.090  45.987  67.371  1.00  0.00     0.066 C 
BRANCH   4   5
HETATM    5  C4  UNL     1      92.915  45.848  68.279  1.00  0.00     0.026 A 
HETATM    6  N1  UNL     1      92.904  45.300  69.518  1.00  0.00    -0.345 N 
HETATM    7  C3  UNL     1      91.634  45.363  69.980  1.00  0.00     0.104 A 
ATOM      8  H1  UNL     1      93.707  44.912  70.012  1.00  0.00     0.167 HD
HETATM    9  N6  UNL     1      90.869  45.952  69.017  1.00  0.00    -0.350 N 
HETATM   10  C15 UNL     1      91.646  46.250  67.977  1.00  0.00     0.114 A 
ATOM     11  H6  UNL     1      89.868  46.134  69.082  1.00  0.00     0.166 HD
BRANCH   7  12
HETATM   12  C2  UNL     1      91.129  44.900  71.265  1.00  0.00     0.038 C 
HETATM   13  C1  UNL     1      90.144  45.517  71.875  1.00  0.00     0.015 C 
ENDBRANCH   7  12
ENDBRANCH   4   5
ENDBRANCH   2   4
ENDBRANCH   1   2
BRANCH   1  14
HETATM   14  N2  UNL     1      95.012  45.500  64.446  1.00  0.00    -0.050 N 
ATOM     15  H23 UNL     1      95.316  46.146  63.717  1.00  0.00     0.276 HD
ATOM     16  H22 UNL     1      95.745  45.689  65.129  1.00  0.00     0.276 HD
ATOM     17  H21 UNL     1      95.029  44.531  64.127  1.00  0.00     0.276 HD
ENDBRANCH   1  14
BRANCH   1  18
HETATM   18  N3  UNL     1      92.934  46.419  63.904  1.00  0.00    -0.032 N 
ATOM     19  H32 UNL     1      92.551  47.322  64.183  1.00  0.00     0.280 HD
ATOM     20  H31 UNL     1      93.516  46.733  63.127  1.00  0.00     0.280 HD
BRANCH  18  21
HETATM   21  C9  UNL     1      91.895  45.509  63.462  1.00  0.00     0.293 C 
BRANCH  21  22
HETATM   22  C10 UNL     1      90.708  45.671  64.351  1.00  0.00     0.103 C 
BRANCH  22  23
HETATM   23  C11 UNL     1      90.126  44.388  64.801  1.00  0.00     0.028 A 
HETATM   24  C12 UNL     1      89.794  43.233  64.139  1.00  0.00     0.114 A 
HETATM   25  N4  UNL     1      89.290  42.326  64.986  1.00  0.00    -0.360 N 
HETATM   26  C13 UNL     1      89.289  42.883  66.197  1.00  0.00     0.180 A 
ATOM     27  H4  UNL     1      88.967  41.388  64.749  1.00  0.00     0.166 HD
HETATM   28  N5  UNL     1      89.795  44.137  66.102  1.00  0.00    -0.355 N 
ATOM     29  H5  UNL     1      89.910  44.789  66.877  1.00  0.00     0.166 HD
ENDBRANCH  22  23
ENDBRANCH  21  22
BRANCH  21  30
HETATM   30  C14 UNL     1      91.630  45.826  62.042  1.00  0.00     0.205 C 
HETATM   31  O1  UNL     1      92.279  45.190  61.151  1.00  0.00    -0.646 OA
HETATM   32  O2  UNL     1      90.729  46.762  61.581  1.00  0.00    -0.646 OA
ENDBRANCH  21  30
ENDBRANCH  18  21
ENDBRANCH   1  18
TORSDOF 10
ENDMDL
MODEL 5
REMARK VINA RESULT: -7.200077540      1.401      3.781
REMARK  10 active torsions:
REMARK  status: ('A' for Active; 'I' for Inactive)
REMARK    1  A    between atoms: C2_2  and  C3_3 
REMARK    2  A    between atoms: C4_6  and  C5_7 
REMARK    3  A    between atoms: C5_7  and  C6_8 
REMARK    4  A    between atoms: C6_8  and  C8_10 
REMARK    5  A    between atoms: C8_10  and  N2_11 
REMARK    6  A    between atoms: C8_10  and  N3_15 
REMARK    7  A    between atoms: N3_15  and  C9_18 
REMARK    8  A    between atoms: C9_18  and  C10_19 
REMARK    9  A    between atoms: C9_18  and  C14_27 
REMARK   10  A    between atoms: C10_19  and  C11_20 
ROOT
HETATM    1  C8  UNL     1      93.746  45.455  65.008  1.00  0.00     0.385 C 
ENDROOT
BRANCH   1   2
HETATM    2  C6  UNL     1      93.687  46.503  66.125  1.00  0.00     0.045 C 
HETATM    3  C7  UNL     1      94.833  47.511  65.905  1.00  0.00     0.014 C 
BRANCH   2   4
HETATM    4  C5  UNL     1      93.953  45.845  67.427  1.00  0.00     0.066 C 
BRANCH   4   5
HETATM    5  C4  UNL     1      92.757  45.691  68.305  1.00  0.00     0.026 A 
HETATM    6  N1  UNL     1      92.741  45.264  69.590  1.00  0.00    -0.345 N 
HETATM    7  C3  UNL     1      91.452  45.262  70.002  1.00  0.00     0.104 A 
ATOM      8  H1  UNL     1      93.552  44.994  70.146  1.00  0.00     0.167 HD
HETATM    9  N6  UNL     1      90.681  45.690  68.963  1.00  0.00    -0.350 N 
HETATM   10  C15 UNL     1      91.472  45.953  67.924  1.00  0.00     0.114 A 
ATOM     11  H6  UNL     1      89.667  45.791  68.977  1.00  0.00     0.166 HD
BRANCH   7  12
HETATM   12  C2  UNL     1      90.935  44.880  71.309  1.00  0.00     0.038 C 
HETATM   13  C1  UNL     1      90.037  45.610  71.930  1.00  0.00     0.015 C 
ENDBRANCH   7  12
ENDBRANCH   4   5
ENDBRANCH   2   4
ENDBRANCH   1   2
BRANCH   1  14
HETATM   14  N2  UNL     1      95.048  45.437  64.419  1.00  0.00    -0.050 N 
ATOM     15  H23 UNL     1      95.782  45.320  65.117  1.00  0.00     0.276 HD
ATOM     16  H22 UNL     1      95.214  44.584  63.885  1.00  0.00     0.276 HD
ATOM     17  H21 UNL     1      95.190  46.274  63.853  1.00  0.00     0.276 HD
ENDBRANCH   1  14
BRANCH   1  18
HETATM   18  N3  UNL     1      92.768  45.725  64.002  1.00  0.00    -0.032 N 
ATOM     19  H32 UNL     1      92.108  46.443  64.299  1.00  0.00     0.280 HD
ATOM     20  H31 UNL     1      93.173  46.210  63.201  1.00  0.00     0.280 HD
BRANCH  18  21
HETATM   21  C9  UNL     1      92.090  44.506  63.603  1.00  0.00     0.293 C 
BRANCH  21  22
HETATM   22  C10 UNL     1      90.626  44.779  63.518  1.00  0.00     0.103 C 
BRANCH  22  23
HETATM   23  C11 UNL     1      89.846  44.172  64.617  1.00  0.00     0.028 A 
HETATM   24  C12 UNL     1      89.041  44.704  65.592  1.00  0.00     0.114 A 
HETATM   25  N4  UNL     1      88.539  43.741  66.375  1.00  0.00    -0.360 N 
HETATM   26  C13 UNL     1      89.012  42.582  65.917  1.00  0.00     0.180 A 
ATOM     27  H4  UNL     1      87.914  43.869  67.171  1.00  0.00     0.166 HD
HETATM   28  N5  UNL     1      89.808  42.827  64.848  1.00  0.00    -0.355 N 
ATOM     29  H5  UNL     1      90.300  42.119  64.303  1.00  0.00     0.166 HD
ENDBRANCH  22  23
ENDBRANCH  21  22
BRANCH  21  30
HETATM   30  C14 UNL     1      92.698  44.082  62.323  1.00  0.00     0.205 C 
HETATM   31  O1  UNL     1      92.288  43.003  61.789  1.00  0.00    -0.646 OA
HETATM   32  O2  UNL     1      93.685  44.759  61.638  1.00  0.00    -0.646 OA
ENDBRANCH  21  30
ENDBRANCH  18  21
ENDBRANCH   1  18
TORSDOF 10
ENDMDL
