MODEL 1
REMARK VINA RESULT: -6.594001675      0.000      0.000
REMARK  10 active torsions:
REMARK  status: ('A' for Active; 'I' for Inactive)
REMARK    1  A    between atoms: C2_2  and  N1_4 
REMARK    2  A    between atoms: N1_4  and  C4_7 
REMARK    3  A    between atoms: C4_7  and  C6_9 
REMARK    4  A    between atoms: C6_9  and  N2_10 
REMARK    5  A    between atoms: N2_10  and  C7_12 
REMARK    6  A    between atoms: C7_12  and  C8_13 
REMARK    7  A    between atoms: C7_12  and  C11_16 
REMARK    8  A    between atoms: N3_19  and  C14_20 
REMARK    9  A    between atoms: C14_20  and  C15_21 
REMARK   10  A    between atoms: C15_21  and  N4_22 
REMARK       I    between atoms: N4_22  and  C16_24 
ROOT
HETATM    1  C7  UNL     1      93.439  47.031  65.654  1.00  0.00     0.090 C 
ENDROOT
BRANCH   1   2
HETATM    2  N2  UNL     1      92.687  47.240  66.814  1.00  0.00    -0.395 N 
ATOM      3  H2  UNL     1      92.929  48.035  67.405  1.00  0.00     0.159 HD
BRANCH   2   4
HETATM    4  C6  UNL     1      91.628  46.428  67.210  1.00  0.00     0.088 C 
BRANCH   4   5
HETATM    5  C4  UNL     1      91.618  45.710  68.499  1.00  0.00     0.220 C 
HETATM    6  C5  UNL     1      92.720  44.654  68.500  1.00  0.00     0.046 C 
BRANCH   5   7
HETATM    7  N1  UNL     1      90.354  45.245  68.914  1.00  0.00    -0.063 N 
ATOM      8  H12 UNL     1      89.822  44.903  68.113  1.00  0.00     0.278 HD
ATOM      9  H11 UNL     1      89.764  46.028  69.197  1.00  0.00     0.278 HD
BRANCH   7  10
HETATM   10  C2  UNL     1      90.389  44.241  69.957  1.00  0.00     0.178 C 
HETATM   11  C1  UNL     1      89.194  43.336  69.743  1.00  0.00     0.039 C 
HETATM   12  C3  UNL     1      90.300  44.808  71.341  1.00  0.00     0.039 C 
ENDBRANCH   7  10
ENDBRANCH   5   7
ENDBRANCH   4   5
ENDBRANCH   2   4
ENDBRANCH   1   2
BRANCH   1  13
HETATM   13  C8  UNL     1      94.912  47.027  65.799  1.00  0.00     0.009 A 
HETATM   14  C9  UNL     1      95.684  48.201  66.247  1.00  0.00     0.007 A 
HETATM   15  C10 UNL     1      95.480  47.031  67.198  1.00  0.00     0.007 A 
ENDBRANCH   1  13
BRANCH   1  16
HETATM   16  C11 UNL     1      92.881  45.789  64.944  1.00  0.00     0.038 C 
HETATM   17  C12 UNL     1      94.103  45.058  64.383  1.00  0.00     0.038 C 
HETATM   18  C13 UNL     1      93.738  44.696  62.966  1.00  0.00     0.273 C 
HETATM   19  N3  UNL     1      92.375  45.076  62.774  1.00  0.00     0.090 N 
HETATM   20  C17 UNL     1      92.101  46.102  63.722  1.00  0.00     0.279 C 
BRANCH  19  21
HETATM   21  C14 UNL     1      91.542  43.918  62.822  1.00  0.00     0.292 C 
BRANCH  21  22
HETATM   22  C15 UNL     1      90.116  44.158  63.181  1.00  0.00     0.152 C 
BRANCH  22  23
HETATM   23  N4  UNL     1      89.718  43.227  64.212  1.00  0.00    -0.363 N 
HETATM   24  C16 UNL     1      89.633  43.520  65.592  1.00  0.00     0.181 C 
HETATM   25  N5  UNL     1      90.444  42.882  66.394  1.00  0.00    -0.374 N 
HETATM   26  N6  UNL     1      88.744  44.442  66.188  1.00  0.00    -0.064 NA
ATOM     27  H52 UNL     1      91.086  42.217  65.963  1.00  0.00     0.158 HD
ATOM     28  H51 UNL     1      90.382  43.094  67.390  1.00  0.00     0.158 HD
ATOM     29  H4  UNL     1      89.477  42.280  63.919  1.00  0.00     0.162 HD
ENDBRANCH  22  23
ENDBRANCH  21  22
ENDBRANCH  19  21
ENDBRANCH   1  16
TORSDOF 10
ENDMDL
MODEL 2
REMARK VINA RESULT: -6.308007758      1.250      1.779
REMARK  10 active torsions:
REMARK  status: ('A' for Active; 'I' for Inactive)
REMARK    1  A    between atoms: C2_2  and  N1_4 
REMARK    2  A    between atoms: N1_4  and  C4_7 
REMARK    3  A    between atoms: C4_7  and  C6_9 
REMARK    4  A    between atoms: C6_9  and  N2_10 
REMARK    5  A    between atoms: N2_10  and  C7_12 
REMARK    6  A    between atoms: C7_12  and  C8_13 
REMARK    7  A    between atoms: C7_12  and  C11_16 
REMARK    8  A    between atoms: N3_19  and  C14_20 
REMARK    9  A    between atoms: C14_20  and  C15_21 
REMARK   10  A    between atoms: C15_21  and  N4_22 
REMARK       I    between atoms: N4_22  and  C16_24 
ROOT
HETATM    1  C7  UNL     1      93.498  47.065  65.724  1.00  0.00     0.090 C 
ENDROOT
BRANCH   1   2
HETATM    2  N2  UNL     1      92.802  47.246  66.923  1.00  0.00    -0.395 N 
ATOM      3  H2  UNL     1      93.138  47.959  67.570  1.00  0.00     0.159 HD
BRANCH   2   4
HETATM    4  C6  UNL     1      91.678  46.510  67.287  1.00  0.00     0.088 C 
BRANCH   4   5
HETATM    5  C4  UNL     1      91.631  45.683  68.508  1.00  0.00     0.220 C 
HETATM    6  C5  UNL     1      92.753  44.649  68.462  1.00  0.00     0.046 C 
BRANCH   5   7
HETATM    7  N1  UNL     1      90.362  45.163  68.830  1.00  0.00    -0.063 N 
ATOM      8  H12 UNL     1      89.915  44.779  67.998  1.00  0.00     0.278 HD
ATOM      9  H11 UNL     1      89.714  45.921  69.045  1.00  0.00     0.278 HD
BRANCH   7  10
HETATM   10  C2  UNL     1      90.359  44.185  69.897  1.00  0.00     0.178 C 
HETATM   11  C1  UNL     1      89.132  43.320  69.705  1.00  0.00     0.039 C 
HETATM   12  C3  UNL     1      90.292  44.788  71.267  1.00  0.00     0.039 C 
ENDBRANCH   7  10
ENDBRANCH   5   7
ENDBRANCH   4   5
ENDBRANCH   2   4
ENDBRANCH   1   2
BRANCH   1  13
HETATM   13  C8  UNL     1      94.976  47.075  65.796  1.00  0.00     0.009 A 
HETATM   14  C9  UNL     1      95.755  48.233  66.272  1.00  0.00     0.007 A 
HETATM   15  C10 UNL     1      95.614  47.008  67.163  1.00  0.00     0.007 A 
ENDBRANCH   1  13
BRANCH   1  16
HETATM   16  C11 UNL     1      92.918  45.829  65.020  1.00  0.00     0.038 C 
HETATM   17  C12 UNL     1      94.118  45.125  64.382  1.00  0.00     0.038 C 
HETATM   18  C13 UNL     1      93.683  44.784  62.980  1.00  0.00     0.273 C 
HETATM   19  N3  UNL     1      92.307  45.150  62.867  1.00  0.00     0.090 N 
HETATM   20  C17 UNL     1      92.072  46.155  63.847  1.00  0.00     0.279 C 
BRANCH  19  21
HETATM   21  C14 UNL     1      91.492  43.981  62.936  1.00  0.00     0.292 C 
BRANCH  21  22
HETATM   22  C15 UNL     1      90.247  44.104  63.744  1.00  0.00     0.152 C 
BRANCH  22  23
HETATM   23  N4  UNL     1      89.109  44.217  62.861  1.00  0.00    -0.363 N 
HETATM   24  C16 UNL     1      88.489  45.426  62.474  1.00  0.00     0.181 C 
HETATM   25  N5  UNL     1      87.251  45.614  62.850  1.00  0.00    -0.374 N 
HETATM   26  N6  UNL     1      89.086  46.455  61.712  1.00  0.00    -0.064 NA
ATOM     27  H52 UNL     1      86.820  44.872  63.400  1.00  0.00     0.158 HD
ATOM     28  H51 UNL     1      86.803  46.487  62.570  1.00  0.00     0.158 HD
ATOM     29  H4  UNL     1      88.722  43.351  62.484  1.00  0.00     0.162 HD
ENDBRANCH  22  23
ENDBRANCH  21  22
ENDBRANCH  19  21
ENDBRANCH   1  16
TORSDOF 10
ENDMDL
MODEL 3
REMARK VINA RESULT: -6.239294764      2.432      6.480
REMARK  10 active torsions:
REMARK  status: ('A' for Active; 'I' for Inactive)
REMARK    1  A    between atoms: C2_2  and  N1_4 
REMARK    2  A    between atoms: N1_4  and  C4_7 
REMARK    3  A    between atoms: C4_7  and  C6_9 
REMARK    4  A    between atoms: C6_9  and  N2_10 
REMARK    5  A    between atoms: N2_10  and  C7_12 
REMARK    6  A    between atoms: C7_12  and  C8_13 
REMARK    7  A    between atoms: C7_12  and  C11_16 
REMARK    8  A    between atoms: N3_19  and  C14_20 
REMARK    9  A    between atoms: C14_20  and  C15_21 
REMARK   10  A    between atoms: C15_21  and  N4_22 
REMARK       I    between atoms: N4_22  and  C16_24 
ROOT
HETATM    1  C7  UNL     1      91.436  45.691  69.122  1.00  0.00     0.090 C 
ENDROOT
BRANCH   1   2
HETATM    2  N2  UNL     1      91.177  44.545  68.366  1.00  0.00    -0.395 N 
ATOM      3  H2  UNL     1      91.895  43.822  68.329  1.00  0.00     0.159 HD
BRANCH   2   4
HETATM    4  C6  UNL     1      89.996  44.330  67.661  1.00  0.00     0.088 C 
BRANCH   4   5
HETATM    5  C4  UNL     1      89.979  43.811  66.280  1.00  0.00     0.220 C 
HETATM    6  C5  UNL     1      89.219  42.488  66.245  1.00  0.00     0.046 C 
BRANCH   5   7
HETATM    7  N1  UNL     1      91.232  43.790  65.635  1.00  0.00    -0.063 N 
ATOM      8  H12 UNL     1      91.625  42.848  65.656  1.00  0.00     0.278 HD
ATOM      9  H11 UNL     1      91.927  44.284  66.195  1.00  0.00     0.278 HD
BRANCH   7  10
HETATM   10  C2  UNL     1      91.227  44.300  64.280  1.00  0.00     0.178 C 
HETATM   11  C1  UNL     1      92.671  44.406  63.839  1.00  0.00     0.039 C 
HETATM   12  C3  UNL     1      90.601  45.655  64.150  1.00  0.00     0.039 C 
ENDBRANCH   7  10
ENDBRANCH   5   7
ENDBRANCH   4   5
ENDBRANCH   2   4
ENDBRANCH   1   2
BRANCH   1  13
HETATM   13  C8  UNL     1      91.392  45.552  70.594  1.00  0.00     0.009 A 
HETATM   14  C9  UNL     1      90.249  45.993  71.415  1.00  0.00     0.007 A 
HETATM   15  C10 UNL     1      90.468  44.507  71.173  1.00  0.00     0.007 A 
ENDBRANCH   1  13
BRANCH   1  16
HETATM   16  C11 UNL     1      92.734  46.323  68.595  1.00  0.00     0.038 C 
HETATM   17  C12 UNL     1      92.297  47.287  67.490  1.00  0.00     0.038 C 
HETATM   18  C13 UNL     1      93.236  47.029  66.339  1.00  0.00     0.273 C 
HETATM   19  N3  UNL     1      94.207  46.086  66.794  1.00  0.00     0.090 N 
HETATM   20  C17 UNL     1      93.607  45.370  67.868  1.00  0.00     0.279 C 
BRANCH  19  21
HETATM   21  C14 UNL     1      95.434  46.757  67.075  1.00  0.00     0.292 C 
BRANCH  21  22
HETATM   22  C15 UNL     1      95.704  47.982  66.271  1.00  0.00     0.152 C 
BRANCH  22  23
HETATM   23  N4  UNL     1      96.564  48.869  67.021  1.00  0.00    -0.363 N 
HETATM   24  C16 UNL     1      97.909  49.165  66.706  1.00  0.00     0.181 C 
HETATM   25  N5  UNL     1      98.824  48.791  67.562  1.00  0.00    -0.374 N 
HETATM   26  N6  UNL     1      98.359  49.834  65.547  1.00  0.00    -0.064 NA
ATOM     27  H52 UNL     1      98.499  48.308  68.399  1.00  0.00     0.158 HD
ATOM     28  H51 UNL     1      99.795  49.006  67.335  1.00  0.00     0.158 HD
ATOM     29  H4  UNL     1      96.166  49.319  67.846  1.00  0.00     0.162 HD
ENDBRANCH  22  23
ENDBRANCH  21  22
ENDBRANCH  19  21
ENDBRANCH   1  16
TORSDOF 10
ENDMDL
MODEL 4
REMARK VINA RESULT: -6.217787916      2.215      4.923
REMARK  10 active torsions:
REMARK  status: ('A' for Active; 'I' for Inactive)
REMARK    1  A    between atoms: C2_2  and  N1_4 
REMARK    2  A    between atoms: N1_4  and  C4_7 
REMARK    3  A    between atoms: C4_7  and  C6_9 
REMARK    4  A    between atoms: C6_9  and  N2_10 
REMARK    5  A    between atoms: N2_10  and  C7_12 
REMARK    6  A    between atoms: C7_12  and  C8_13 
REMARK    7  A    between atoms: C7_12  and  C11_16 
REMARK    8  A    between atoms: N3_19  and  C14_20 
REMARK    9  A    between atoms: C14_20  and  C15_21 
REMARK   10  A    between atoms: C15_21  and  N4_22 
REMARK       I    between atoms: N4_22  and  C16_24 
ROOT
HETATM    1  C7  UNL     1      90.482  45.483  68.434  1.00  0.00     0.090 C 
ENDROOT
BRANCH   1   2
HETATM    2  N2  UNL     1      90.192  44.121  68.312  1.00  0.00    -0.395 N 
ATOM      3  H2  UNL     1      90.972  43.473  68.196  1.00  0.00     0.159 HD
BRANCH   2   4
HETATM    4  C6  UNL     1      88.903  43.595  68.340  1.00  0.00     0.088 C 
BRANCH   4   5
HETATM    5  C4  UNL     1      88.172  43.222  67.114  1.00  0.00     0.220 C 
HETATM    6  C5  UNL     1      89.093  42.414  66.202  1.00  0.00     0.046 C 
BRANCH   5   7
HETATM    7  N1  UNL     1      87.491  44.279  66.478  1.00  0.00    -0.063 N 
ATOM      8  H12 UNL     1      87.061  43.954  65.613  1.00  0.00     0.278 HD
ATOM      9  H11 UNL     1      88.158  44.953  66.101  1.00  0.00     0.278 HD
BRANCH   7  10
HETATM   10  C2  UNL     1      86.511  44.953  67.303  1.00  0.00     0.178 C 
HETATM   11  C1  UNL     1      85.160  44.736  66.655  1.00  0.00     0.039 C 
HETATM   12  C3  UNL     1      86.736  46.429  67.422  1.00  0.00     0.039 C 
ENDBRANCH   7  10
ENDBRANCH   5   7
ENDBRANCH   4   5
ENDBRANCH   2   4
ENDBRANCH   1   2
BRANCH   1  13
HETATM   13  C8  UNL     1      91.101  45.929  69.701  1.00  0.00     0.009 A 
HETATM   14  C9  UNL     1      91.083  45.125  70.938  1.00  0.00     0.007 A 
HETATM   15  C10 UNL     1      92.373  45.244  70.141  1.00  0.00     0.007 A 
ENDBRANCH   1  13
BRANCH   1  16
HETATM   16  C11 UNL     1      91.252  45.918  67.178  1.00  0.00     0.038 C 
HETATM   17  C12 UNL     1      90.189  46.449  66.213  1.00  0.00     0.038 C 
HETATM   18  C13 UNL     1      90.516  45.833  64.877  1.00  0.00     0.273 C 
HETATM   19  N3  UNL     1      91.737  45.110  65.037  1.00  0.00     0.090 N 
HETATM   20  C17 UNL     1      91.842  44.788  66.420  1.00  0.00     0.279 C 
BRANCH  19  21
HETATM   21  C14 UNL     1      92.813  45.852  64.467  1.00  0.00     0.292 C 
BRANCH  21  22
HETATM   22  C15 UNL     1      94.182  45.339  64.755  1.00  0.00     0.152 C 
BRANCH  22  23
HETATM   23  N4  UNL     1      95.020  46.429  65.199  1.00  0.00    -0.363 N 
HETATM   24  C16 UNL     1      94.743  47.284  66.289  1.00  0.00     0.181 C 
HETATM   25  N5  UNL     1      94.546  48.550  66.026  1.00  0.00    -0.374 N 
HETATM   26  N6  UNL     1      94.661  46.896  67.644  1.00  0.00    -0.064 NA
ATOM     27  H52 UNL     1      94.604  48.830  65.047  1.00  0.00     0.158 HD
ATOM     28  H51 UNL     1      94.345  49.167  66.813  1.00  0.00     0.158 HD
ATOM     29  H4  UNL     1      95.885  46.595  64.682  1.00  0.00     0.162 HD
ENDBRANCH  22  23
ENDBRANCH  21  22
ENDBRANCH  19  21
ENDBRANCH   1  16
TORSDOF 10
ENDMDL
MODEL 5
REMARK VINA RESULT: -6.208295655      1.672      2.527
REMARK  10 active torsions:
REMARK  status: ('A' for Active; 'I' for Inactive)
REMARK    1  A    between atoms: C2_2  and  N1_4 
REMARK    2  A    between atoms: N1_4  and  C4_7 
REMARK    3  A    between atoms: C4_7  and  C6_9 
REMARK    4  A    between atoms: C6_9  and  N2_10 
REMARK    5  A    between atoms: N2_10  and  C7_12 
REMARK    6  A    between atoms: C7_12  and  C8_13 
REMARK    7  A    between atoms: C7_12  and  C11_16 
REMARK    8  A    between atoms: N3_19  and  C14_20 
REMARK    9  A    between atoms: C14_20  and  C15_21 
REMARK   10  A    between atoms: C15_21  and  N4_22 
REMARK       I    between atoms: N4_22  and  C16_24 
ROOT
HETATM    1  C7  UNL     1      93.509  45.999  66.386  1.00  0.00     0.090 C 
ENDROOT
BRANCH   1   2
HETATM    2  N2  UNL     1      93.606  45.314  67.600  1.00  0.00    -0.395 N 
ATOM      3  H2  UNL     1      94.427  45.482  68.182  1.00  0.00     0.159 HD
BRANCH   2   4
HETATM    4  C6  UNL     1      92.649  44.416  68.064  1.00  0.00     0.088 C 
BRANCH   4   5
HETATM    5  C4  UNL     1      91.431  44.850  68.776  1.00  0.00     0.220 C 
HETATM    6  C5  UNL     1      91.780  45.159  70.230  1.00  0.00     0.046 C 
BRANCH   5   7
HETATM    7  N1  UNL     1      90.308  44.018  68.602  1.00  0.00    -0.063 N 
ATOM      8  H12 UNL     1      89.501  44.406  69.091  1.00  0.00     0.278 HD
ATOM      9  H11 UNL     1      90.428  43.148  69.122  1.00  0.00     0.278 HD
BRANCH   7  10
HETATM   10  C2  UNL     1      89.969  43.735  67.223  1.00  0.00     0.178 C 
HETATM   11  C1  UNL     1      88.907  44.732  66.813  1.00  0.00     0.039 C 
HETATM   12  C3  UNL     1      89.421  42.358  67.008  1.00  0.00     0.039 C 
ENDBRANCH   7  10
ENDBRANCH   5   7
ENDBRANCH   4   5
ENDBRANCH   2   4
ENDBRANCH   1   2
BRANCH   1  13
HETATM   13  C8  UNL     1      94.707  46.741  65.934  1.00  0.00     0.009 A 
HETATM   14  C9  UNL     1      94.783  48.213  65.903  1.00  0.00     0.007 A 
HETATM   15  C10 UNL     1      95.532  47.448  66.983  1.00  0.00     0.007 A 
ENDBRANCH   1  13
BRANCH   1  16
HETATM   16  C11 UNL     1      92.946  45.029  65.337  1.00  0.00     0.038 C 
HETATM   17  C12 UNL     1      94.066  44.848  64.309  1.00  0.00     0.038 C 
HETATM   18  C13 UNL     1      93.399  44.978  62.963  1.00  0.00     0.273 C 
HETATM   19  N3  UNL     1      91.996  45.097  63.201  1.00  0.00     0.090 N 
HETATM   20  C17 UNL     1      91.848  45.604  64.523  1.00  0.00     0.279 C 
BRANCH  19  21
HETATM   21  C14 UNL     1      91.352  43.857  62.912  1.00  0.00     0.292 C 
BRANCH  21  22
HETATM   22  C15 UNL     1      89.952  43.721  63.402  1.00  0.00     0.152 C 
BRANCH  22  23
HETATM   23  N4  UNL     1      89.036  44.065  62.339  1.00  0.00    -0.363 N 
HETATM   24  C16 UNL     1      88.475  45.344  62.123  1.00  0.00     0.181 C 
HETATM   25  N5  UNL     1      87.179  45.461  62.246  1.00  0.00    -0.374 N 
HETATM   26  N6  UNL     1      89.190  46.512  61.781  1.00  0.00    -0.064 NA
ATOM     27  H52 UNL     1      86.663  44.617  62.494  1.00  0.00     0.158 HD
ATOM     28  H51 UNL     1      86.774  46.385  62.089  1.00  0.00     0.158 HD
ATOM     29  H4  UNL     1      88.772  43.322  61.691  1.00  0.00     0.162 HD
ENDBRANCH  22  23
ENDBRANCH  21  22
ENDBRANCH  19  21
ENDBRANCH   1  16
TORSDOF 10
ENDMDL
