MODEL 1
REMARK VINA RESULT: -8.748597516      0.000      0.000
REMARK  8 active torsions:
REMARK  status: ('A' for Active; 'I' for Inactive)
REMARK    1  A    between atoms: C2_2  and  C3_3 
REMARK    2  A    between atoms: C3_3  and  N1_4 
REMARK       I    between atoms: N1_4  and  C4_6 
REMARK    3  A    between atoms: C4_6  and  C5_8 
REMARK    4  A    between atoms: C5_8  and  C6_9 
REMARK    5  A    between atoms: C6_9  and  C7_10 
REMARK    6  A    between atoms: N2_14  and  C11_15 
REMARK    7  A    between atoms: C19_26  and  C20_27 
REMARK    8  A    between atoms: C20_27  and  C21_28 
ROOT
HETATM    1  C7  UNL     1     -32.073  45.985  64.301  1.00  0.00    -0.030 A 
HETATM    2  C8  UNL     1     -32.914  44.846  64.305  1.00  0.00     0.024 A 
HETATM    3  C9  UNL     1     -32.876  43.640  63.633  1.00  0.00     0.046 A 
HETATM    4  C10 UNL     1     -31.929  43.113  62.676  1.00  0.00     0.071 C 
HETATM    5  N2  UNL     1     -33.980  42.970  64.123  1.00  0.00    -0.237 N 
HETATM    6  N3  UNL     1     -34.613  43.698  65.002  1.00  0.00    -0.291 N 
ATOM      7  H3  UNL     1     -35.457  43.415  65.499  1.00  0.00     0.187 HD
HETATM    8  C15 UNL     1     -33.986  44.878  65.152  1.00  0.00     0.068 A 
HETATM    9  C16 UNL     1     -34.326  45.910  66.005  1.00  0.00    -0.020 A 
HETATM   10  C17 UNL     1     -35.553  45.910  66.776  1.00  0.00     0.052 C 
HETATM   11  C18 UNL     1     -33.521  47.007  66.023  1.00  0.00     0.009 A 
HETATM   12  C19 UNL     1     -33.819  48.039  66.858  1.00  0.00     0.037 A 
HETATM   13  N4  UNL     1     -32.936  49.104  66.782  1.00  0.00    -0.304 N 
ATOM     14  H4  UNL     1     -33.110  49.913  67.380  1.00  0.00     0.186 HD
HETATM   15  N5  UNL     1     -31.915  49.138  66.011  1.00  0.00    -0.304 N 
ATOM     16  H5  UNL     1     -31.331  49.974  66.037  1.00  0.00     0.186 HD
HETATM   17  C23 UNL     1     -31.550  48.133  65.151  1.00  0.00     0.033 A 
HETATM   18  C24 UNL     1     -30.330  48.207  64.403  1.00  0.00     0.070 C 
HETATM   19  C25 UNL     1     -32.367  47.038  65.144  1.00  0.00     0.008 A 
ENDROOT
BRANCH   1  20
HETATM   20  C6  UNL     1     -31.045  46.072  63.297  1.00  0.00     0.049 C 
BRANCH  20  21
HETATM   21  C5  UNL     1     -31.499  46.311  61.872  1.00  0.00     0.107 C 
BRANCH  21  22
HETATM   22  C4  UNL     1     -30.370  46.944  61.136  1.00  0.00     0.218 C 
HETATM   23  N1  UNL     1     -29.031  46.850  61.578  1.00  0.00    -0.358 N 
ATOM     24  H1  UNL     1     -28.810  46.336  62.430  1.00  0.00     0.162 HD
HETATM   25  O1  UNL     1     -30.594  47.597  60.071  1.00  0.00    -0.274 OA
BRANCH  23  26
HETATM   26  C3  UNL     1     -27.982  47.481  60.823  1.00  0.00     0.149 C 
BRANCH  26  27
HETATM   27  C2  UNL     1     -26.660  46.835  60.988  1.00  0.00    -0.018 C 
HETATM   28  C1  UNL     1     -26.382  45.912  61.883  1.00  0.00     0.008 C 
ENDBRANCH  26  27
ENDBRANCH  23  26
ENDBRANCH  21  22
ENDBRANCH  20  21
ENDBRANCH   1  20
BRANCH   5  29
HETATM   29  C11 UNL     1     -34.368  41.671  63.726  1.00  0.00     0.168 A 
HETATM   30  C12 UNL     1     -34.167  40.465  64.364  1.00  0.00     0.060 A 
HETATM   31  C13 UNL     1     -34.726  39.491  63.585  1.00  0.00     0.029 A 
HETATM   32  C14 UNL     1     -35.254  40.116  62.494  1.00  0.00     0.144 A 
HETATM   33  O2  UNL     1     -35.030  41.381  62.604  1.00  0.00    -0.304 OA
ENDBRANCH   5  29
BRANCH  12  34
HETATM   34  C20 UNL     1     -34.830  48.061  67.908  1.00  0.00     0.059 C 
BRANCH  34  35
HETATM   35  C21 UNL     1     -35.401  49.420  68.236  1.00  0.00     0.002 C 
HETATM   36  C22 UNL     1     -36.709  49.312  68.981  1.00  0.00     0.005 C 
ENDBRANCH  34  35
ENDBRANCH  12  34
TORSDOF 8
ENDMDL
MODEL 2
REMARK VINA RESULT: -8.610713602      2.290      6.539
REMARK  8 active torsions:
REMARK  status: ('A' for Active; 'I' for Inactive)
REMARK    1  A    between atoms: C2_2  and  C3_3 
REMARK    2  A    between atoms: C3_3  and  N1_4 
REMARK       I    between atoms: N1_4  and  C4_6 
REMARK    3  A    between atoms: C4_6  and  C5_8 
REMARK    4  A    between atoms: C5_8  and  C6_9 
REMARK    5  A    between atoms: C6_9  and  C7_10 
REMARK    6  A    between atoms: N2_14  and  C11_15 
REMARK    7  A    between atoms: C19_26  and  C20_27 
REMARK    8  A    between atoms: C20_27  and  C21_28 
ROOT
HETATM    1  C7  UNL     1     -32.328  46.529  64.984  1.00  0.00    -0.030 A 
HETATM    2  C8  UNL     1     -31.268  46.206  64.104  1.00  0.00     0.024 A 
HETATM    3  C9  UNL     1     -30.107  46.861  63.742  1.00  0.00     0.046 A 
HETATM    4  C10 UNL     1     -29.560  48.132  64.163  1.00  0.00     0.071 C 
HETATM    5  N2  UNL     1     -29.505  45.979  62.867  1.00  0.00    -0.237 N 
HETATM    6  N3  UNL     1     -30.230  44.903  62.721  1.00  0.00    -0.291 N 
ATOM      7  H3  UNL     1     -29.990  44.111  62.124  1.00  0.00     0.187 HD
HETATM    8  C15 UNL     1     -31.339  44.996  63.474  1.00  0.00     0.068 A 
HETATM    9  C16 UNL     1     -32.343  44.057  63.615  1.00  0.00    -0.020 A 
HETATM   10  C17 UNL     1     -32.401  42.853  62.811  1.00  0.00     0.052 C 
HETATM   11  C18 UNL     1     -33.363  44.345  64.469  1.00  0.00     0.009 A 
HETATM   12  C19 UNL     1     -34.364  43.439  64.641  1.00  0.00     0.037 A 
HETATM   13  N4  UNL     1     -35.352  43.845  65.524  1.00  0.00    -0.304 N 
ATOM     14  H4  UNL     1     -36.134  43.212  65.691  1.00  0.00     0.186 HD
HETATM   15  N5  UNL     1     -35.345  44.965  66.145  1.00  0.00    -0.304 N 
ATOM     16  H5  UNL     1     -36.124  45.162  66.773  1.00  0.00     0.186 HD
HETATM   17  C23 UNL     1     -34.367  45.920  66.026  1.00  0.00     0.033 A 
HETATM   18  C24 UNL     1     -34.381  47.099  66.841  1.00  0.00     0.070 C 
HETATM   19  C25 UNL     1     -33.348  45.617  65.167  1.00  0.00     0.008 A 
ENDROOT
BRANCH   1  20
HETATM   20  C6  UNL     1     -32.387  47.862  65.524  1.00  0.00     0.049 C 
BRANCH  20  21
HETATM   21  C5  UNL     1     -32.901  48.950  64.603  1.00  0.00     0.107 C 
BRANCH  21  22
HETATM   22  C4  UNL     1     -32.581  50.262  65.229  1.00  0.00     0.218 C 
HETATM   23  N1  UNL     1     -31.414  50.991  64.907  1.00  0.00    -0.358 N 
ATOM     24  H1  UNL     1     -30.753  50.620  64.225  1.00  0.00     0.162 HD
HETATM   25  O1  UNL     1     -33.371  50.765  66.086  1.00  0.00    -0.274 OA
BRANCH  23  26
HETATM   26  C3  UNL     1     -31.159  52.255  65.544  1.00  0.00     0.149 C 
BRANCH  26  27
HETATM   27  C2  UNL     1     -30.088  52.203  66.563  1.00  0.00    -0.018 C 
HETATM   28  C1  UNL     1     -29.758  51.132  67.252  1.00  0.00     0.008 C 
ENDBRANCH  26  27
ENDBRANCH  23  26
ENDBRANCH  21  22
ENDBRANCH  20  21
ENDBRANCH   1  20
BRANCH   5  29
HETATM   29  C11 UNL     1     -28.272  46.211  62.219  1.00  0.00     0.168 A 
HETATM   30  C12 UNL     1     -27.031  45.668  62.482  1.00  0.00     0.060 A 
HETATM   31  C13 UNL     1     -26.151  46.204  61.583  1.00  0.00     0.029 A 
HETATM   32  C14 UNL     1     -26.865  47.057  60.795  1.00  0.00     0.144 A 
HETATM   33  O2  UNL     1     -28.094  47.039  61.189  1.00  0.00    -0.304 OA
ENDBRANCH   5  29
BRANCH  12  34
HETATM   34  C20 UNL     1     -34.408  42.069  64.147  1.00  0.00     0.059 C 
BRANCH  34  35
HETATM   35  C21 UNL     1     -34.342  40.992  65.204  1.00  0.00     0.002 C 
HETATM   36  C22 UNL     1     -34.675  39.633  64.639  1.00  0.00     0.005 C 
ENDBRANCH  34  35
ENDBRANCH  12  34
TORSDOF 8
ENDMDL
MODEL 3
REMARK VINA RESULT: -8.550529301      2.326      6.879
REMARK  8 active torsions:
REMARK  status: ('A' for Active; 'I' for Inactive)
REMARK    1  A    between atoms: C2_2  and  C3_3 
REMARK    2  A    between atoms: C3_3  and  N1_4 
REMARK       I    between atoms: N1_4  and  C4_6 
REMARK    3  A    between atoms: C4_6  and  C5_8 
REMARK    4  A    between atoms: C5_8  and  C6_9 
REMARK    5  A    between atoms: C6_9  and  C7_10 
REMARK    6  A    between atoms: N2_14  and  C11_15 
REMARK    7  A    between atoms: C19_26  and  C20_27 
REMARK    8  A    between atoms: C20_27  and  C21_28 
ROOT
HETATM    1  C7  UNL     1     -32.406  46.518  64.983  1.00  0.00    -0.030 A 
HETATM    2  C8  UNL     1     -31.355  46.227  64.081  1.00  0.00     0.024 A 
HETATM    3  C9  UNL     1     -30.227  46.921  63.688  1.00  0.00     0.046 A 
HETATM    4  C10 UNL     1     -29.718  48.214  64.087  1.00  0.00     0.071 C 
HETATM    5  N2  UNL     1     -29.612  46.054  62.807  1.00  0.00    -0.237 N 
HETATM    6  N3  UNL     1     -30.300  44.951  62.685  1.00  0.00    -0.291 N 
ATOM      7  H3  UNL     1     -30.044  44.163  62.090  1.00  0.00     0.187 HD
HETATM    8  C15 UNL     1     -31.395  45.010  63.462  1.00  0.00     0.068 A 
HETATM    9  C16 UNL     1     -32.359  44.036  63.633  1.00  0.00    -0.020 A 
HETATM   10  C17 UNL     1     -32.391  42.823  62.840  1.00  0.00     0.052 C 
HETATM   11  C18 UNL     1     -33.371  44.293  64.507  1.00  0.00     0.009 A 
HETATM   12  C19 UNL     1     -34.333  43.353  64.708  1.00  0.00     0.037 A 
HETATM   13  N4  UNL     1     -35.315  43.729  65.611  1.00  0.00    -0.304 N 
ATOM     14  H4  UNL     1     -36.070  43.069  65.800  1.00  0.00     0.186 HD
HETATM   15  N5  UNL     1     -35.336  44.853  66.222  1.00  0.00    -0.304 N 
ATOM     16  H5  UNL     1     -36.108  45.027  66.867  1.00  0.00     0.186 HD
HETATM   17  C23 UNL     1     -34.397  45.843  66.075  1.00  0.00     0.033 A 
HETATM   18  C24 UNL     1     -34.437  47.027  66.881  1.00  0.00     0.070 C 
HETATM   19  C25 UNL     1     -33.388  45.570  65.195  1.00  0.00     0.008 A 
ENDROOT
BRANCH   1  20
HETATM   20  C6  UNL     1     -32.503  47.852  65.513  1.00  0.00     0.049 C 
BRANCH  20  21
HETATM   21  C5  UNL     1     -33.051  48.918  64.586  1.00  0.00     0.107 C 
BRANCH  21  22
HETATM   22  C4  UNL     1     -33.033  50.212  65.323  1.00  0.00     0.218 C 
HETATM   23  N1  UNL     1     -34.189  51.007  65.486  1.00  0.00    -0.358 N 
ATOM     24  H1  UNL     1     -35.078  50.701  65.091  1.00  0.00     0.162 HD
HETATM   25  O1  UNL     1     -31.950  50.637  65.831  1.00  0.00    -0.274 OA
BRANCH  23  26
HETATM   26  C3  UNL     1     -34.111  52.247  66.211  1.00  0.00     0.149 C 
BRANCH  26  27
HETATM   27  C2  UNL     1     -34.060  53.442  65.340  1.00  0.00    -0.018 C 
HETATM   28  C1  UNL     1     -33.485  53.486  64.157  1.00  0.00     0.008 C 
ENDBRANCH  26  27
ENDBRANCH  23  26
ENDBRANCH  21  22
ENDBRANCH  20  21
ENDBRANCH   1  20
BRANCH   5  29
HETATM   29  C11 UNL     1     -28.403  46.326  62.129  1.00  0.00     0.168 A 
HETATM   30  C12 UNL     1     -27.142  45.813  62.353  1.00  0.00     0.060 A 
HETATM   31  C13 UNL     1     -26.300  46.383  61.438  1.00  0.00     0.029 A 
HETATM   32  C14 UNL     1     -27.057  47.225  60.679  1.00  0.00     0.144 A 
HETATM   33  O2  UNL     1     -28.274  47.171  61.106  1.00  0.00    -0.304 OA
ENDBRANCH   5  29
BRANCH  12  34
HETATM   34  C20 UNL     1     -34.337  41.977  64.226  1.00  0.00     0.059 C 
BRANCH  34  35
HETATM   35  C21 UNL     1     -34.230  40.912  65.292  1.00  0.00     0.002 C 
HETATM   36  C22 UNL     1     -34.841  39.608  64.841  1.00  0.00     0.005 C 
ENDBRANCH  34  35
ENDBRANCH  12  34
TORSDOF 8
ENDMDL
MODEL 4
REMARK VINA RESULT: -8.466053761      2.075      6.482
REMARK  8 active torsions:
REMARK  status: ('A' for Active; 'I' for Inactive)
REMARK    1  A    between atoms: C2_2  and  C3_3 
REMARK    2  A    between atoms: C3_3  and  N1_4 
REMARK       I    between atoms: N1_4  and  C4_6 
REMARK    3  A    between atoms: C4_6  and  C5_8 
REMARK    4  A    between atoms: C5_8  and  C6_9 
REMARK    5  A    between atoms: C6_9  and  C7_10 
REMARK    6  A    between atoms: N2_14  and  C11_15 
REMARK    7  A    between atoms: C19_26  and  C20_27 
REMARK    8  A    between atoms: C20_27  and  C21_28 
ROOT
HETATM    1  C7  UNL     1     -32.033  45.802  64.620  1.00  0.00    -0.030 A 
HETATM    2  C8  UNL     1     -30.711  46.092  64.207  1.00  0.00     0.024 A 
HETATM    3  C9  UNL     1     -29.745  45.360  63.545  1.00  0.00     0.046 A 
HETATM    4  C10 UNL     1     -29.765  44.012  63.023  1.00  0.00     0.071 C 
HETATM    5  N2  UNL     1     -28.695  46.249  63.433  1.00  0.00    -0.237 N 
HETATM    6  N3  UNL     1     -29.000  47.398  63.970  1.00  0.00    -0.291 N 
ATOM      7  H3  UNL     1     -28.384  48.210  64.009  1.00  0.00     0.187 HD
HETATM    8  C15 UNL     1     -30.249  47.351  64.466  1.00  0.00     0.068 A 
HETATM    9  C16 UNL     1     -30.948  48.368  65.087  1.00  0.00    -0.020 A 
HETATM   10  C17 UNL     1     -30.334  49.635  65.434  1.00  0.00     0.052 C 
HETATM   11  C18 UNL     1     -32.225  48.111  65.479  1.00  0.00     0.009 A 
HETATM   12  C19 UNL     1     -32.947  49.092  66.085  1.00  0.00     0.037 A 
HETATM   13  N4  UNL     1     -34.230  48.713  66.447  1.00  0.00    -0.304 N 
ATOM     14  H4  UNL     1     -34.819  49.403  66.913  1.00  0.00     0.186 HD
HETATM   15  N5  UNL     1     -34.722  47.551  66.235  1.00  0.00    -0.304 N 
ATOM     16  H5  UNL     1     -35.679  47.379  66.544  1.00  0.00     0.186 HD
HETATM   17  C23 UNL     1     -34.057  46.518  65.624  1.00  0.00     0.033 A 
HETATM   18  C24 UNL     1     -34.720  45.283  65.328  1.00  0.00     0.070 C 
HETATM   19  C25 UNL     1     -32.775  46.791  65.236  1.00  0.00     0.008 A 
ENDROOT
BRANCH   1  20
HETATM   20  C6  UNL     1     -32.494  44.441  64.535  1.00  0.00     0.049 C 
BRANCH  20  21
HETATM   21  C5  UNL     1     -31.897  43.454  65.518  1.00  0.00     0.107 C 
BRANCH  21  22
HETATM   22  C4  UNL     1     -32.578  42.146  65.317  1.00  0.00     0.218 C 
HETATM   23  N1  UNL     1     -33.691  41.995  64.460  1.00  0.00    -0.358 N 
ATOM     24  H1  UNL     1     -34.057  42.800  63.954  1.00  0.00     0.162 HD
HETATM   25  O1  UNL     1     -32.160  41.114  65.927  1.00  0.00    -0.274 OA
BRANCH  23  26
HETATM   26  C3  UNL     1     -34.306  40.704  64.305  1.00  0.00     0.149 C 
BRANCH  26  27
HETATM   27  C2  UNL     1     -34.906  40.488  62.970  1.00  0.00    -0.018 C 
HETATM   28  C1  UNL     1     -35.432  39.354  62.558  1.00  0.00     0.008 C 
ENDBRANCH  26  27
ENDBRANCH  23  26
ENDBRANCH  21  22
ENDBRANCH  20  21
ENDBRANCH   1  20
BRANCH   5  29
HETATM   29  C11 UNL     1     -27.458  45.953  62.818  1.00  0.00     0.168 A 
HETATM   30  C12 UNL     1     -26.334  45.362  63.356  1.00  0.00     0.060 A 
HETATM   31  C13 UNL     1     -25.394  45.291  62.366  1.00  0.00     0.029 A 
HETATM   32  C14 UNL     1     -25.959  45.834  61.250  1.00  0.00     0.144 A 
HETATM   33  O2  UNL     1     -27.157  46.210  61.544  1.00  0.00    -0.304 OA
ENDBRANCH   5  29
BRANCH  12  34
HETATM   34  C20 UNL     1     -32.584  50.497  66.224  1.00  0.00     0.059 C 
BRANCH  34  35
HETATM   35  C21 UNL     1     -33.528  51.483  65.576  1.00  0.00     0.002 C 
HETATM   36  C22 UNL     1     -32.850  52.266  64.479  1.00  0.00     0.005 C 
ENDBRANCH  34  35
ENDBRANCH  12  34
TORSDOF 8
ENDMDL
MODEL 5
REMARK VINA RESULT: -8.424338062      2.343      5.984
REMARK  8 active torsions:
REMARK  status: ('A' for Active; 'I' for Inactive)
REMARK    1  A    between atoms: C2_2  and  C3_3 
REMARK    2  A    between atoms: C3_3  and  N1_4 
REMARK       I    between atoms: N1_4  and  C4_6 
REMARK    3  A    between atoms: C4_6  and  C5_8 
REMARK    4  A    between atoms: C5_8  and  C6_9 
REMARK    5  A    between atoms: C6_9  and  C7_10 
REMARK    6  A    between atoms: N2_14  and  C11_15 
REMARK    7  A    between atoms: C19_26  and  C20_27 
REMARK    8  A    between atoms: C20_27  and  C21_28 
ROOT
HETATM    1  C7  UNL     1     -32.008  45.538  64.079  1.00  0.00    -0.030 A 
HETATM    2  C8  UNL     1     -31.952  46.846  64.615  1.00  0.00     0.024 A 
HETATM    3  C9  UNL     1     -31.123  47.927  64.387  1.00  0.00     0.046 A 
HETATM    4  C10 UNL     1     -30.004  48.095  63.487  1.00  0.00     0.071 C 
HETATM    5  N2  UNL     1     -31.637  48.902  65.218  1.00  0.00    -0.237 N 
HETATM    6  N3  UNL     1     -32.672  48.453  65.876  1.00  0.00    -0.291 N 
ATOM      7  H3  UNL     1     -33.217  48.991  66.549  1.00  0.00     0.187 HD
HETATM    8  C15 UNL     1     -32.909  47.176  65.533  1.00  0.00     0.068 A 
HETATM    9  C16 UNL     1     -33.927  46.357  65.984  1.00  0.00    -0.020 A 
HETATM   10  C17 UNL     1     -34.823  46.748  67.054  1.00  0.00     0.052 C 
HETATM   11  C18 UNL     1     -34.003  45.100  65.469  1.00  0.00     0.009 A 
HETATM   12  C19 UNL     1     -34.998  44.269  65.884  1.00  0.00     0.037 A 
HETATM   13  N4  UNL     1     -34.970  43.013  65.299  1.00  0.00    -0.304 N 
ATOM     14  H4  UNL     1     -35.687  42.342  65.574  1.00  0.00     0.186 HD
HETATM   15  N5  UNL     1     -34.101  42.642  64.436  1.00  0.00    -0.304 N 
ATOM     16  H5  UNL     1     -34.174  41.693  64.069  1.00  0.00     0.186 HD
HETATM   17  C23 UNL     1     -33.078  43.427  63.967  1.00  0.00     0.033 A 
HETATM   18  C24 UNL     1     -32.215  42.969  62.918  1.00  0.00     0.070 C 
HETATM   19  C25 UNL     1     -33.014  44.687  64.492  1.00  0.00     0.008 A 
ENDROOT
BRANCH   1  20
HETATM   20  C6  UNL     1     -30.917  45.090  63.254  1.00  0.00     0.049 C 
BRANCH  20  21
HETATM   21  C5  UNL     1     -29.659  44.639  63.968  1.00  0.00     0.107 C 
BRANCH  21  22
HETATM   22  C4  UNL     1     -28.543  44.670  62.983  1.00  0.00     0.218 C 
HETATM   23  N1  UNL     1     -27.448  45.554  63.108  1.00  0.00    -0.358 N 
ATOM     24  H1  UNL     1     -27.403  46.203  63.893  1.00  0.00     0.162 HD
HETATM   25  O1  UNL     1     -28.554  43.883  61.987  1.00  0.00    -0.274 OA
BRANCH  23  26
HETATM   26  C3  UNL     1     -26.397  45.536  62.126  1.00  0.00     0.149 C 
BRANCH  26  27
HETATM   27  C2  UNL     1     -26.446  46.675  61.181  1.00  0.00    -0.018 C 
HETATM   28  C1  UNL     1     -27.533  47.350  60.876  1.00  0.00     0.008 C 
ENDBRANCH  26  27
ENDBRANCH  23  26
ENDBRANCH  21  22
ENDBRANCH  20  21
ENDBRANCH   1  20
BRANCH   5  29
HETATM   29  C11 UNL     1     -31.114  50.209  65.339  1.00  0.00     0.168 A 
HETATM   30  C12 UNL     1     -30.204  50.705  66.249  1.00  0.00     0.060 A 
HETATM   31  C13 UNL     1     -30.014  52.027  65.958  1.00  0.00     0.029 A 
HETATM   32  C14 UNL     1     -30.804  52.311  64.884  1.00  0.00     0.144 A 
HETATM   33  O2  UNL     1     -31.431  51.235  64.547  1.00  0.00    -0.304 OA
ENDBRANCH   5  29
BRANCH  12  34
HETATM   34  C20 UNL     1     -36.147  44.614  66.712  1.00  0.00     0.059 C 
BRANCH  34  35
HETATM   35  C21 UNL     1     -36.484  43.626  67.804  1.00  0.00     0.002 C 
HETATM   36  C22 UNL     1     -35.367  43.508  68.813  1.00  0.00     0.005 C 
ENDBRANCH  34  35
ENDBRANCH  12  34
TORSDOF 8
ENDMDL
