MODEL 1
REMARK VINA RESULT: -8.468210288      0.000      0.000
REMARK  9 active torsions:
REMARK  status: ('A' for Active; 'I' for Inactive)
REMARK    1  A    between atoms: C2_2  and  C3_3 
REMARK    2  A    between atoms: C4_4  and  C5_5 
REMARK    3  A    between atoms: C5_5  and  N1_6 
REMARK    4  A    between atoms: C11_12  and  N2_13 
REMARK    5  A    between atoms: N2_13  and  C12_15 
REMARK    6  A    between atoms: C16_23  and  O1_24 
REMARK    7  A    between atoms: O1_24  and  C17_25 
REMARK    8  A    between atoms: C19_27  and  O2_28 
REMARK    9  A    between atoms: O2_28  and  C20_29 
ROOT
HETATM    1  C12 UNL     1     -32.923  43.411  64.030  1.00  0.00     0.119 A 
HETATM    2  N3  UNL     1     -33.935  43.896  64.773  1.00  0.00    -0.338 N 
ATOM      3  H3  UNL     1     -34.736  43.306  65.000  1.00  0.00     0.168 HD
HETATM    4  C13 UNL     1     -33.881  45.167  65.213  1.00  0.00     0.182 A 
HETATM    5  N4  UNL     1     -32.841  45.974  64.935  1.00  0.00    -0.351 N 
ATOM      6  H4  UNL     1     -32.837  46.931  65.288  1.00  0.00     0.166 HD
HETATM    7  C14 UNL     1     -31.813  45.535  64.200  1.00  0.00     0.050 A 
HETATM    8  C15 UNL     1     -30.727  46.338  63.894  1.00  0.00     0.070 A 
HETATM    9  C16 UNL     1     -29.705  45.813  63.131  1.00  0.00     0.104 A 
HETATM   10  C19 UNL     1     -29.739  44.515  62.669  1.00  0.00     0.103 A 
HETATM   11  C22 UNL     1     -30.829  43.698  62.972  1.00  0.00     0.057 A 
HETATM   12  C23 UNL     1     -31.855  44.232  63.740  1.00  0.00     0.038 A 
ENDROOT
BRANCH   1  13
HETATM   13  N2  UNL     1     -32.972  42.179  63.601  1.00  0.00    -0.337 N 
ATOM     14  H2  UNL     1     -32.620  41.959  62.670  1.00  0.00     0.167 HD
BRANCH  13  15
HETATM   15  C11 UNL     1     -33.509  41.139  64.408  1.00  0.00     0.108 A 
HETATM   16  C9  UNL     1     -34.609  40.414  64.013  1.00  0.00    -0.028 A 
HETATM   17  C8  UNL     1     -35.087  39.418  64.834  1.00  0.00     0.034 A 
HETATM   18  C10 UNL     1     -35.252  40.735  62.701  1.00  0.00     0.050 C 
HETATM   19  C6  UNL     1     -34.492  39.109  66.062  1.00  0.00     0.012 A 
HETATM   20  N1  UNL     1     -33.418  39.840  66.414  1.00  0.00    -0.313 N 
HETATM   21  C7  UNL     1     -35.037  38.024  66.923  1.00  0.00     0.068 C 
HETATM   22  C24 UNL     1     -32.934  40.816  65.632  1.00  0.00     0.275 A 
HETATM   23  O3  UNL     1     -31.931  41.488  65.976  1.00  0.00    -0.265 OA
BRANCH  20  24
HETATM   24  C5  UNL     1     -32.771  39.569  67.657  1.00  0.00     0.159 C 
BRANCH  24  25
HETATM   25  C4  UNL     1     -33.357  40.293  68.811  1.00  0.00    -0.011 C 
HETATM   26  C3  UNL     1     -32.652  41.093  69.592  1.00  0.00    -0.029 C 
BRANCH  26  27
HETATM   27  C2  UNL     1     -33.268  41.794  70.725  1.00  0.00     0.022 C 
HETATM   28  C1  UNL     1     -33.388  40.864  71.933  1.00  0.00     0.009 C 
ENDBRANCH  26  27
ENDBRANCH  24  25
ENDBRANCH  20  24
ENDBRANCH  13  15
ENDBRANCH   1  13
BRANCH  10  29
HETATM   29  O2  UNL     1     -28.674  44.059  61.908  1.00  0.00    -0.349 OA
BRANCH  29  30
HETATM   30  C20 UNL     1     -27.714  43.238  62.545  1.00  0.00     0.171 C 
HETATM   31  C21 UNL     1     -26.353  43.880  62.559  1.00  0.00     0.034 C 
ENDBRANCH  29  30
ENDBRANCH  10  29
BRANCH   9  32
HETATM   32  O1  UNL     1     -28.609  46.599  62.814  1.00  0.00    -0.349 OA
BRANCH  32  33
HETATM   33  C17 UNL     1     -28.623  47.386  61.615  1.00  0.00     0.171 C 
HETATM   34  C18 UNL     1     -27.301  47.304  60.902  1.00  0.00     0.034 C 
ENDBRANCH  32  33
ENDBRANCH   9  32
TORSDOF 9
ENDMDL
MODEL 2
REMARK VINA RESULT: -8.339496166      1.536      2.018
REMARK  9 active torsions:
REMARK  status: ('A' for Active; 'I' for Inactive)
REMARK    1  A    between atoms: C2_2  and  C3_3 
REMARK    2  A    between atoms: C4_4  and  C5_5 
REMARK    3  A    between atoms: C5_5  and  N1_6 
REMARK    4  A    between atoms: C11_12  and  N2_13 
REMARK    5  A    between atoms: N2_13  and  C12_15 
REMARK    6  A    between atoms: C16_23  and  O1_24 
REMARK    7  A    between atoms: O1_24  and  C17_25 
REMARK    8  A    between atoms: C19_27  and  O2_28 
REMARK    9  A    between atoms: O2_28  and  C20_29 
ROOT
HETATM    1  C12 UNL     1     -33.558  43.758  64.448  1.00  0.00     0.119 A 
HETATM    2  N3  UNL     1     -34.831  43.894  64.862  1.00  0.00    -0.338 N 
ATOM      3  H3  UNL     1     -35.476  43.105  64.810  1.00  0.00     0.168 HD
HETATM    4  C13 UNL     1     -35.246  45.079  65.344  1.00  0.00     0.182 A 
HETATM    5  N4  UNL     1     -34.425  46.142  65.429  1.00  0.00    -0.351 N 
ATOM      6  H4  UNL     1     -34.777  47.024  65.802  1.00  0.00     0.166 HD
HETATM    7  C14 UNL     1     -33.151  46.054  65.030  1.00  0.00     0.050 A 
HETATM    8  C15 UNL     1     -32.278  47.126  65.102  1.00  0.00     0.070 A 
HETATM    9  C16 UNL     1     -30.979  46.957  64.670  1.00  0.00     0.104 A 
HETATM   10  C19 UNL     1     -30.532  45.752  64.172  1.00  0.00     0.103 A 
HETATM   11  C22 UNL     1     -31.404  44.665  64.094  1.00  0.00     0.057 A 
HETATM   12  C23 UNL     1     -32.711  44.841  64.530  1.00  0.00     0.038 A 
ENDROOT
BRANCH   1  13
HETATM   13  N2  UNL     1     -33.152  42.610  63.979  1.00  0.00    -0.337 N 
ATOM     14  H2  UNL     1     -32.618  42.585  63.111  1.00  0.00     0.167 HD
BRANCH  13  15
HETATM   15  C11 UNL     1     -33.442  41.394  64.655  1.00  0.00     0.108 A 
HETATM   16  C9  UNL     1     -34.373  40.504  64.171  1.00  0.00    -0.028 A 
HETATM   17  C8  UNL     1     -34.614  39.341  64.867  1.00  0.00     0.034 A 
HETATM   18  C10 UNL     1     -35.094  40.831  62.903  1.00  0.00     0.050 C 
HETATM   19  C6  UNL     1     -33.945  39.025  66.054  1.00  0.00     0.012 A 
HETATM   20  N1  UNL     1     -33.042  39.920  66.495  1.00  0.00    -0.313 N 
HETATM   21  C7  UNL     1     -34.232  37.757  66.779  1.00  0.00     0.068 C 
HETATM   22  C24 UNL     1     -32.789  41.060  65.835  1.00  0.00     0.275 A 
HETATM   23  O3  UNL     1     -31.943  41.884  66.262  1.00  0.00    -0.265 OA
BRANCH  20  24
HETATM   24  C5  UNL     1     -32.328  39.649  67.702  1.00  0.00     0.159 C 
BRANCH  24  25
HETATM   25  C4  UNL     1     -33.013  40.129  68.927  1.00  0.00    -0.011 C 
HETATM   26  C3  UNL     1     -32.602  41.177  69.618  1.00  0.00    -0.029 C 
BRANCH  26  27
HETATM   27  C2  UNL     1     -33.307  41.623  70.826  1.00  0.00     0.022 C 
HETATM   28  C1  UNL     1     -33.276  40.535  71.900  1.00  0.00     0.009 C 
ENDBRANCH  26  27
ENDBRANCH  24  25
ENDBRANCH  20  24
ENDBRANCH  13  15
ENDBRANCH   1  13
BRANCH  10  29
HETATM   29  O2  UNL     1     -29.212  45.660  63.757  1.00  0.00    -0.349 OA
BRANCH  29  30
HETATM   30  C20 UNL     1     -28.443  44.578  64.247  1.00  0.00     0.171 C 
HETATM   31  C21 UNL     1     -28.069  44.768  65.692  1.00  0.00     0.034 C 
ENDBRANCH  29  30
ENDBRANCH  10  29
BRANCH   9  32
HETATM   32  O1  UNL     1     -30.089  48.017  64.734  1.00  0.00    -0.349 OA
BRANCH  32  33
HETATM   33  C17 UNL     1     -30.570  49.329  65.051  1.00  0.00     0.171 C 
HETATM   34  C18 UNL     1     -30.030  49.795  66.376  1.00  0.00     0.034 C 
ENDBRANCH  32  33
ENDBRANCH   9  32
TORSDOF 9
ENDMDL
MODEL 3
REMARK VINA RESULT: -8.298420462      2.090      2.894
REMARK  9 active torsions:
REMARK  status: ('A' for Active; 'I' for Inactive)
REMARK    1  A    between atoms: C2_2  and  C3_3 
REMARK    2  A    between atoms: C4_4  and  C5_5 
REMARK    3  A    between atoms: C5_5  and  N1_6 
REMARK    4  A    between atoms: C11_12  and  N2_13 
REMARK    5  A    between atoms: N2_13  and  C12_15 
REMARK    6  A    between atoms: C16_23  and  O1_24 
REMARK    7  A    between atoms: O1_24  and  C17_25 
REMARK    8  A    between atoms: C19_27  and  O2_28 
REMARK    9  A    between atoms: O2_28  and  C20_29 
ROOT
HETATM    1  C12 UNL     1     -31.297  44.737  64.416  1.00  0.00     0.119 A 
HETATM    2  N3  UNL     1     -32.358  45.361  64.960  1.00  0.00    -0.338 N 
ATOM      3  H3  UNL     1     -33.067  44.827  65.463  1.00  0.00     0.168 HD
HETATM    4  C13 UNL     1     -32.474  46.695  64.835  1.00  0.00     0.182 A 
HETATM    5  N4  UNL     1     -31.559  47.433  64.180  1.00  0.00    -0.351 N 
ATOM      6  H4  UNL     1     -31.683  48.443  64.108  1.00  0.00     0.166 HD
HETATM    7  C14 UNL     1     -30.488  46.856  63.623  1.00  0.00     0.050 A 
HETATM    8  C15 UNL     1     -29.527  47.583  62.942  1.00  0.00     0.070 A 
HETATM    9  C16 UNL     1     -28.451  46.916  62.395  1.00  0.00     0.104 A 
HETATM   10  C19 UNL     1     -28.312  45.550  62.510  1.00  0.00     0.103 A 
HETATM   11  C22 UNL     1     -29.275  44.807  63.194  1.00  0.00     0.057 A 
HETATM   12  C23 UNL     1     -30.356  45.484  63.743  1.00  0.00     0.038 A 
ENDROOT
BRANCH   1  13
HETATM   13  N2  UNL     1     -31.181  43.442  64.535  1.00  0.00    -0.337 N 
ATOM     14  H2  UNL     1     -30.306  43.048  64.879  1.00  0.00     0.167 HD
BRANCH  13  15
HETATM   15  C11 UNL     1     -32.252  42.572  64.194  1.00  0.00     0.108 A 
HETATM   16  C9  UNL     1     -32.607  42.344  62.884  1.00  0.00    -0.028 A 
HETATM   17  C8  UNL     1     -33.652  41.491  62.611  1.00  0.00     0.034 A 
HETATM   18  C10 UNL     1     -31.843  43.033  61.799  1.00  0.00     0.050 C 
HETATM   19  C6  UNL     1     -34.373  40.841  63.619  1.00  0.00     0.012 A 
HETATM   20  N1  UNL     1     -33.996  41.090  64.887  1.00  0.00    -0.313 N 
HETATM   21  C7  UNL     1     -35.498  39.925  63.284  1.00  0.00     0.068 C 
HETATM   22  C24 UNL     1     -32.981  41.916  65.179  1.00  0.00     0.275 A 
HETATM   23  O3  UNL     1     -32.644  42.136  66.368  1.00  0.00    -0.265 OA
BRANCH  20  24
HETATM   24  C5  UNL     1     -34.696  40.453  65.956  1.00  0.00     0.159 C 
BRANCH  24  25
HETATM   25  C4  UNL     1     -34.224  39.079  66.250  1.00  0.00    -0.011 C 
HETATM   26  C3  UNL     1     -34.873  38.251  67.050  1.00  0.00    -0.029 C 
BRANCH  26  27
HETATM   27  C2  UNL     1     -34.375  36.895  67.317  1.00  0.00     0.022 C 
HETATM   28  C1  UNL     1     -35.538  35.935  67.571  1.00  0.00     0.009 C 
ENDBRANCH  26  27
ENDBRANCH  24  25
ENDBRANCH  20  24
ENDBRANCH  13  15
ENDBRANCH   1  13
BRANCH  10  29
HETATM   29  O2  UNL     1     -27.202  44.950  61.933  1.00  0.00    -0.349 OA
BRANCH  29  30
HETATM   30  C20 UNL     1     -26.324  44.237  62.783  1.00  0.00     0.171 C 
HETATM   31  C21 UNL     1     -25.453  45.162  63.588  1.00  0.00     0.034 C 
ENDBRANCH  29  30
ENDBRANCH  10  29
BRANCH   9  32
HETATM   32  O1  UNL     1     -27.478  47.624  61.710  1.00  0.00    -0.349 OA
BRANCH  32  33
HETATM   33  C17 UNL     1     -27.638  47.877  60.308  1.00  0.00     0.171 C 
HETATM   34  C18 UNL     1     -26.339  48.313  59.687  1.00  0.00     0.034 C 
ENDBRANCH  32  33
ENDBRANCH   9  32
TORSDOF 9
ENDMDL
MODEL 4
REMARK VINA RESULT: -8.257684147      2.313      3.878
REMARK  9 active torsions:
REMARK  status: ('A' for Active; 'I' for Inactive)
REMARK    1  A    between atoms: C2_2  and  C3_3 
REMARK    2  A    between atoms: C4_4  and  C5_5 
REMARK    3  A    between atoms: C5_5  and  N1_6 
REMARK    4  A    between atoms: C11_12  and  N2_13 
REMARK    5  A    between atoms: N2_13  and  C12_15 
REMARK    6  A    between atoms: C16_23  and  O1_24 
REMARK    7  A    between atoms: O1_24  and  C17_25 
REMARK    8  A    between atoms: C19_27  and  O2_28 
REMARK    9  A    between atoms: O2_28  and  C20_29 
ROOT
HETATM    1  C12 UNL     1     -31.830  43.844  63.858  1.00  0.00     0.119 A 
HETATM    2  N3  UNL     1     -32.218  42.680  63.304  1.00  0.00    -0.338 N 
ATOM      3  H3  UNL     1     -32.526  41.907  63.893  1.00  0.00     0.168 HD
HETATM    4  C13 UNL     1     -32.196  42.547  61.965  1.00  0.00     0.182 A 
HETATM    5  N4  UNL     1     -31.797  43.545  61.155  1.00  0.00    -0.351 N 
ATOM      6  H4  UNL     1     -31.795  43.405  60.145  1.00  0.00     0.166 HD
HETATM    7  C14 UNL     1     -31.402  44.719  61.662  1.00  0.00     0.050 A 
HETATM    8  C15 UNL     1     -30.985  45.767  60.859  1.00  0.00     0.070 A 
HETATM    9  C16 UNL     1     -30.593  46.947  61.456  1.00  0.00     0.104 A 
HETATM   10  C19 UNL     1     -30.607  47.106  62.824  1.00  0.00     0.103 A 
HETATM   11  C22 UNL     1     -31.025  46.056  63.643  1.00  0.00     0.057 A 
HETATM   12  C23 UNL     1     -31.419  44.870  63.036  1.00  0.00     0.038 A 
ENDROOT
BRANCH   1  13
HETATM   13  N2  UNL     1     -31.849  43.977  65.157  1.00  0.00    -0.337 N 
ATOM     14  H2  UNL     1     -31.044  44.387  65.630  1.00  0.00     0.167 HD
BRANCH  13  15
HETATM   15  C11 UNL     1     -32.971  43.560  65.923  1.00  0.00     0.108 A 
HETATM   16  C9  UNL     1     -34.058  44.381  66.115  1.00  0.00    -0.028 A 
HETATM   17  C8  UNL     1     -35.118  43.926  66.867  1.00  0.00     0.034 A 
HETATM   18  C10 UNL     1     -34.052  45.744  65.500  1.00  0.00     0.050 C 
HETATM   19  C6  UNL     1     -35.134  42.652  67.446  1.00  0.00     0.012 A 
HETATM   20  N1  UNL     1     -34.053  41.879  67.235  1.00  0.00    -0.313 N 
HETATM   21  C7  UNL     1     -36.299  42.195  68.253  1.00  0.00     0.068 C 
HETATM   22  C24 UNL     1     -33.009  42.299  66.507  1.00  0.00     0.275 A 
HETATM   23  O3  UNL     1     -32.008  41.564  66.321  1.00  0.00    -0.265 OA
BRANCH  20  24
HETATM   24  C5  UNL     1     -34.015  40.569  67.803  1.00  0.00     0.159 C 
BRANCH  24  25
HETATM   25  C4  UNL     1     -34.944  39.608  67.159  1.00  0.00    -0.011 C 
HETATM   26  C3  UNL     1     -35.024  38.338  67.514  1.00  0.00    -0.029 C 
BRANCH  26  27
HETATM   27  C2  UNL     1     -35.957  37.415  66.855  1.00  0.00     0.022 C 
HETATM   28  C1  UNL     1     -35.805  36.002  67.417  1.00  0.00     0.009 C 
ENDBRANCH  26  27
ENDBRANCH  24  25
ENDBRANCH  20  24
ENDBRANCH  13  15
ENDBRANCH   1  13
BRANCH  10  29
HETATM   29  O2  UNL     1     -30.198  48.323  63.350  1.00  0.00    -0.349 OA
BRANCH  29  30
HETATM   30  C20 UNL     1     -29.695  48.332  64.673  1.00  0.00     0.171 C 
HETATM   31  C21 UNL     1     -30.360  49.387  65.515  1.00  0.00     0.034 C 
ENDBRANCH  29  30
ENDBRANCH  10  29
BRANCH   9  32
HETATM   32  O1  UNL     1     -30.173  48.009  60.671  1.00  0.00    -0.349 OA
BRANCH  32  33
HETATM   33  C17 UNL     1     -28.938  47.913  59.949  1.00  0.00     0.171 C 
HETATM   34  C18 UNL     1     -27.802  47.560  60.871  1.00  0.00     0.034 C 
ENDBRANCH  32  33
ENDBRANCH   9  32
TORSDOF 9
ENDMDL
MODEL 5
REMARK VINA RESULT: -8.240058999      1.353      2.140
REMARK  9 active torsions:
REMARK  status: ('A' for Active; 'I' for Inactive)
REMARK    1  A    between atoms: C2_2  and  C3_3 
REMARK    2  A    between atoms: C4_4  and  C5_5 
REMARK    3  A    between atoms: C5_5  and  N1_6 
REMARK    4  A    between atoms: C11_12  and  N2_13 
REMARK    5  A    between atoms: N2_13  and  C12_15 
REMARK    6  A    between atoms: C16_23  and  O1_24 
REMARK    7  A    between atoms: O1_24  and  C17_25 
REMARK    8  A    between atoms: C19_27  and  O2_28 
REMARK    9  A    between atoms: O2_28  and  C20_29 
ROOT
HETATM    1  C12 UNL     1     -32.610  43.645  63.918  1.00  0.00     0.119 A 
HETATM    2  N3  UNL     1     -33.602  44.184  64.650  1.00  0.00    -0.338 N 
ATOM      3  H3  UNL     1     -34.449  43.650  64.843  1.00  0.00     0.168 HD
HETATM    4  C13 UNL     1     -33.465  45.435  65.127  1.00  0.00     0.182 A 
HETATM    5  N4  UNL     1     -32.362  46.170  64.895  1.00  0.00    -0.351 N 
ATOM      6  H4  UNL     1     -32.297  47.115  65.275  1.00  0.00     0.166 HD
HETATM    7  C14 UNL     1     -31.351  45.676  64.172  1.00  0.00     0.050 A 
HETATM    8  C15 UNL     1     -30.202  46.403  63.913  1.00  0.00     0.070 A 
HETATM    9  C16 UNL     1     -29.203  45.824  63.159  1.00  0.00     0.104 A 
HETATM   10  C19 UNL     1     -29.321  44.545  62.661  1.00  0.00     0.103 A 
HETATM   11  C22 UNL     1     -30.476  43.803  62.915  1.00  0.00     0.057 A 
HETATM   12  C23 UNL     1     -31.478  44.391  63.675  1.00  0.00     0.038 A 
ENDROOT
BRANCH   1  13
HETATM   13  N2  UNL     1     -32.739  42.432  63.454  1.00  0.00    -0.337 N 
ATOM     14  H2  UNL     1     -32.279  42.179  62.580  1.00  0.00     0.167 HD
BRANCH  13  15
HETATM   15  C11 UNL     1     -33.510  41.457  64.143  1.00  0.00     0.108 A 
HETATM   16  C9  UNL     1     -34.663  40.934  63.604  1.00  0.00    -0.028 A 
HETATM   17  C8  UNL     1     -35.370  39.993  64.317  1.00  0.00     0.034 A 
HETATM   18  C10 UNL     1     -35.110  41.409  62.258  1.00  0.00     0.050 C 
HETATM   19  C6  UNL     1     -34.960  39.541  65.576  1.00  0.00     0.012 A 
HETATM   20  N1  UNL     1     -33.828  40.076  66.070  1.00  0.00    -0.313 N 
HETATM   21  C7  UNL     1     -35.752  38.521  66.316  1.00  0.00     0.068 C 
HETATM   22  C24 UNL     1     -33.121  40.994  65.395  1.00  0.00     0.275 A 
HETATM   23  O3  UNL     1     -32.068  41.482  65.872  1.00  0.00    -0.265 OA
BRANCH  20  24
HETATM   24  C5  UNL     1     -33.362  39.652  67.352  1.00  0.00     0.159 C 
BRANCH  24  25
HETATM   25  C4  UNL     1     -32.960  38.226  67.403  1.00  0.00    -0.011 C 
HETATM   26  C3  UNL     1     -32.033  37.711  66.615  1.00  0.00    -0.029 C 
BRANCH  26  27
HETATM   27  C2  UNL     1     -31.660  36.293  66.696  1.00  0.00     0.022 C 
HETATM   28  C1  UNL     1     -32.906  35.407  66.694  1.00  0.00     0.009 C 
ENDBRANCH  26  27
ENDBRANCH  24  25
ENDBRANCH  20  24
ENDBRANCH  13  15
ENDBRANCH   1  13
BRANCH  10  29
HETATM   29  O2  UNL     1     -28.274  44.031  61.911  1.00  0.00    -0.349 OA
BRANCH  29  30
HETATM   30  C20 UNL     1     -27.382  43.139  62.552  1.00  0.00     0.171 C 
HETATM   31  C21 UNL     1     -25.971  43.664  62.549  1.00  0.00     0.034 C 
ENDBRANCH  29  30
ENDBRANCH  10  29
BRANCH   9  32
HETATM   32  O1  UNL     1     -28.045  46.535  62.889  1.00  0.00    -0.349 OA
BRANCH  32  33
HETATM   33  C17 UNL     1     -28.041  47.515  61.843  1.00  0.00     0.171 C 
HETATM   34  C18 UNL     1     -27.027  47.171  60.786  1.00  0.00     0.034 C 
ENDBRANCH  32  33
ENDBRANCH   9  32
TORSDOF 9
ENDMDL
