MODEL 1
REMARK VINA RESULT: -7.723135836      0.000      0.000
REMARK  9 active torsions:
REMARK  status: ('A' for Active; 'I' for Inactive)
REMARK    1  A    between atoms: O1_2  and  C2_3 
REMARK    2  A    between atoms: C4_5  and  O2_6 
REMARK    3  A    between atoms: C7_9  and  N1_10 
REMARK    4  A    between atoms: N1_10  and  C8_12 
REMARK    5  A    between atoms: C10_14  and  O3_15 
REMARK    6  A    between atoms: C12_17  and  C13_18 
REMARK    7  A    between atoms: C13_18  and  N2_19 
REMARK    8  A    between atoms: C17_23  and  O4_24 
REMARK    9  A    between atoms: O4_24  and  C18_25 
ROOT
HETATM    1  N1  UNL     1     -32.188  42.407  65.105  1.00  0.00    -0.353 N 
ATOM      2  H1  UNL     1     -31.487  41.939  65.679  1.00  0.00     0.166 HD
ENDROOT
BRANCH   1   3
HETATM    3  C7  UNL     1     -33.089  41.698  64.550  1.00  0.00     0.049 A 
HETATM    4  C6  UNL     1     -33.740  40.738  65.291  1.00  0.00     0.051 A 
HETATM    5  C4  UNL     1     -33.442  40.550  66.618  1.00  0.00     0.085 A 
HETATM    6  C23 UNL     1     -34.709  39.981  64.681  1.00  0.00     0.050 A 
HETATM    7  C3  UNL     1     -34.152  39.576  67.314  1.00  0.00     0.074 A 
HETATM    8  C2  UNL     1     -35.123  38.819  66.702  1.00  0.00     0.073 A 
HETATM    9  C24 UNL     1     -35.400  39.025  65.374  1.00  0.00     0.067 A 
HETATM   10  N3  UNL     1     -35.026  40.170  63.374  1.00  0.00    -0.365 N 
HETATM   11  C22 UNL     1     -34.376  41.123  62.661  1.00  0.00     0.090 A 
ATOM     12  H3  UNL     1     -35.747  39.600  62.933  1.00  0.00     0.165 HD
HETATM   13  C21 UNL     1     -33.394  41.914  63.211  1.00  0.00     0.047 A 
BRANCH   5  14
HETATM   14  O2  UNL     1     -32.471  41.321  67.210  1.00  0.00    -0.355 OA
HETATM   15  C5  UNL     1     -32.723  41.770  68.547  1.00  0.00     0.210 C 
ENDBRANCH   5  14
BRANCH   8  16
HETATM   16  O1  UNL     1     -35.791  37.871  67.457  1.00  0.00    -0.356 OA
HETATM   17  C1  UNL     1     -35.437  36.501  67.445  1.00  0.00     0.210 C 
ENDBRANCH   8  16
ENDBRANCH   1   3
BRANCH   1  18
HETATM   18  C8  UNL     1     -32.110  43.840  64.960  1.00  0.00     0.069 A 
HETATM   19  C9  UNL     1     -33.204  44.597  65.309  1.00  0.00     0.069 A 
HETATM   20  C10 UNL     1     -33.196  46.001  65.207  1.00  0.00     0.078 A 
HETATM   21  C12 UNL     1     -32.101  46.684  64.752  1.00  0.00     0.006 A 
HETATM   22  C16 UNL     1     -30.996  45.871  64.402  1.00  0.00     0.050 A 
HETATM   23  C17 UNL     1     -30.998  44.504  64.501  1.00  0.00     0.096 A 
BRANCH  20  24
HETATM   24  O3  UNL     1     -34.320  46.698  65.580  1.00  0.00    -0.355 OA
HETATM   25  C11 UNL     1     -34.589  46.886  66.957  1.00  0.00     0.210 C 
ENDBRANCH  20  24
BRANCH  21  26
HETATM   26  C13 UNL     1     -32.011  48.134  64.547  1.00  0.00     0.312 C 
BRANCH  26  27
HETATM   27  N2  UNL     1     -31.465  48.935  65.626  1.00  0.00     0.084 N 
HETATM   28  C14 UNL     1     -30.403  49.752  64.990  1.00  0.00     0.309 C 
HETATM   29  C15 UNL     1     -32.502  49.995  65.932  1.00  0.00     0.309 C 
ENDBRANCH  26  27
ENDBRANCH  21  26
BRANCH  23  30
HETATM   30  O4  UNL     1     -29.916  43.723  64.155  1.00  0.00    -0.344 OA
BRANCH  30  31
HETATM   31  C18 UNL     1     -28.582  44.102  64.060  1.00  0.00     0.120 C 
HETATM   32  C19 UNL     1     -27.800  43.757  65.316  1.00  0.00     0.040 C 
HETATM   33  C20 UNL     1     -27.885  43.444  62.884  1.00  0.00     0.040 C 
ENDBRANCH  30  31
ENDBRANCH  23  30
ENDBRANCH   1  18
TORSDOF 9
ENDMDL
MODEL 2
REMARK VINA RESULT: -7.550993989      1.767      3.864
REMARK  9 active torsions:
REMARK  status: ('A' for Active; 'I' for Inactive)
REMARK    1  A    between atoms: O1_2  and  C2_3 
REMARK    2  A    between atoms: C4_5  and  O2_6 
REMARK    3  A    between atoms: C7_9  and  N1_10 
REMARK    4  A    between atoms: N1_10  and  C8_12 
REMARK    5  A    between atoms: C10_14  and  O3_15 
REMARK    6  A    between atoms: C12_17  and  C13_18 
REMARK    7  A    between atoms: C13_18  and  N2_19 
REMARK    8  A    between atoms: C17_23  and  O4_24 
REMARK    9  A    between atoms: O4_24  and  C18_25 
ROOT
HETATM    1  N1  UNL     1     -32.802  42.870  65.850  1.00  0.00    -0.353 N 
ATOM      2  H1  UNL     1     -33.025  43.046  66.830  1.00  0.00     0.166 HD
ENDROOT
BRANCH   1   3
HETATM    3  C7  UNL     1     -33.343  41.870  65.275  1.00  0.00     0.049 A 
HETATM    4  C6  UNL     1     -33.615  40.738  66.011  1.00  0.00     0.051 A 
HETATM    5  C4  UNL     1     -33.329  40.684  67.352  1.00  0.00     0.085 A 
HETATM    6  C23 UNL     1     -34.199  39.668  65.380  1.00  0.00     0.050 A 
HETATM    7  C3  UNL     1     -33.649  39.517  68.040  1.00  0.00     0.074 A 
HETATM    8  C2  UNL     1     -34.233  38.447  67.407  1.00  0.00     0.073 A 
HETATM    9  C24 UNL     1     -34.508  38.526  66.065  1.00  0.00     0.067 A 
HETATM   10  N3  UNL     1     -34.504  39.716  64.057  1.00  0.00    -0.365 N 
HETATM   11  C22 UNL     1     -34.230  40.841  63.350  1.00  0.00     0.090 A 
ATOM     12  H3  UNL     1     -34.936  38.914  63.600  1.00  0.00     0.165 HD
HETATM   13  C21 UNL     1     -33.646  41.948  63.921  1.00  0.00     0.047 A 
BRANCH   5  14
HETATM   14  O2  UNL     1     -32.748  41.768  67.966  1.00  0.00    -0.355 OA
HETATM   15  C5  UNL     1     -32.461  41.646  69.364  1.00  0.00     0.210 C 
ENDBRANCH   5  14
BRANCH   8  16
HETATM   16  O1  UNL     1     -34.528  37.320  68.155  1.00  0.00    -0.356 OA
HETATM   17  C1  UNL     1     -35.290  36.244  67.641  1.00  0.00     0.210 C 
ENDBRANCH   8  16
ENDBRANCH   1   3
BRANCH   1  18
HETATM   18  C8  UNL     1     -31.888  43.765  65.183  1.00  0.00     0.069 A 
HETATM   19  C9  UNL     1     -30.570  43.392  65.065  1.00  0.00     0.069 A 
HETATM   20  C10 UNL     1     -29.625  44.209  64.415  1.00  0.00     0.078 A 
HETATM   21  C12 UNL     1     -29.969  45.415  63.871  1.00  0.00     0.006 A 
HETATM   22  C16 UNL     1     -31.334  45.765  64.013  1.00  0.00     0.050 A 
HETATM   23  C17 UNL     1     -32.258  44.974  64.643  1.00  0.00     0.096 A 
BRANCH  20  24
HETATM   24  O3  UNL     1     -28.325  43.773  64.325  1.00  0.00    -0.355 OA
HETATM   25  C11 UNL     1     -27.530  43.726  65.496  1.00  0.00     0.210 C 
ENDBRANCH  20  24
BRANCH  21  26
HETATM   26  C13 UNL     1     -29.054  46.368  63.232  1.00  0.00     0.312 C 
BRANCH  26  27
HETATM   27  N2  UNL     1     -28.729  46.157  61.834  1.00  0.00     0.084 N 
HETATM   28  C14 UNL     1     -29.266  47.352  61.138  1.00  0.00     0.309 C 
HETATM   29  C15 UNL     1     -27.239  46.391  61.707  1.00  0.00     0.309 C 
ENDBRANCH  26  27
ENDBRANCH  21  26
BRANCH  23  30
HETATM   30  O4  UNL     1     -33.584  45.326  64.777  1.00  0.00    -0.344 OA
BRANCH  30  31
HETATM   31  C18 UNL     1     -34.226  45.831  65.901  1.00  0.00     0.120 C 
HETATM   32  C19 UNL     1     -34.259  47.350  65.906  1.00  0.00     0.040 C 
HETATM   33  C20 UNL     1     -35.655  45.336  66.013  1.00  0.00     0.040 C 
ENDBRANCH  30  31
ENDBRANCH  23  30
ENDBRANCH   1  18
TORSDOF 9
ENDMDL
MODEL 3
REMARK VINA RESULT: -7.389312267      1.961      8.093
REMARK  9 active torsions:
REMARK  status: ('A' for Active; 'I' for Inactive)
REMARK    1  A    between atoms: O1_2  and  C2_3 
REMARK    2  A    between atoms: C4_5  and  O2_6 
REMARK    3  A    between atoms: C7_9  and  N1_10 
REMARK    4  A    between atoms: N1_10  and  C8_12 
REMARK    5  A    between atoms: C10_14  and  O3_15 
REMARK    6  A    between atoms: C12_17  and  C13_18 
REMARK    7  A    between atoms: C13_18  and  N2_19 
REMARK    8  A    between atoms: C17_23  and  O4_24 
REMARK    9  A    between atoms: O4_24  and  C18_25 
ROOT
HETATM    1  N1  UNL     1     -32.599  42.771  64.800  1.00  0.00    -0.353 N 
ATOM      2  H1  UNL     1     -31.885  42.716  64.074  1.00  0.00     0.166 HD
ENDROOT
BRANCH   1   3
HETATM    3  C7  UNL     1     -33.161  43.894  65.015  1.00  0.00     0.049 A 
HETATM    4  C6  UNL     1     -32.425  45.050  64.880  1.00  0.00     0.051 A 
HETATM    5  C4  UNL     1     -31.106  45.005  64.501  1.00  0.00     0.085 A 
HETATM    6  C23 UNL     1     -33.042  46.254  65.114  1.00  0.00     0.050 A 
HETATM    7  C3  UNL     1     -30.427  46.212  64.364  1.00  0.00     0.074 A 
HETATM    8  C2  UNL     1     -31.046  47.417  64.598  1.00  0.00     0.073 A 
HETATM    9  C24 UNL     1     -32.364  47.434  64.977  1.00  0.00     0.067 A 
HETATM   10  N3  UNL     1     -34.351  46.312  65.471  1.00  0.00    -0.365 N 
HETATM   11  C22 UNL     1     -35.060  45.162  65.596  1.00  0.00     0.090 A 
ATOM     12  H3  UNL     1     -34.797  47.212  65.643  1.00  0.00     0.165 HD
HETATM   13  C21 UNL     1     -34.503  43.924  65.377  1.00  0.00     0.047 A 
BRANCH   5  14
HETATM   14  O2  UNL     1     -30.509  43.791  64.268  1.00  0.00    -0.355 OA
HETATM   15  C5  UNL     1     -29.380  43.780  63.386  1.00  0.00     0.210 C 
ENDBRANCH   5  14
BRANCH   8  16
HETATM   16  O1  UNL     1     -30.310  48.578  64.438  1.00  0.00    -0.356 OA
HETATM   17  C1  UNL     1     -30.492  49.713  65.262  1.00  0.00     0.210 C 
ENDBRANCH   8  16
ENDBRANCH   1   3
BRANCH   1  18
HETATM   18  C8  UNL     1     -32.924  41.573  65.534  1.00  0.00     0.069 A 
HETATM   19  C9  UNL     1     -32.565  41.495  66.860  1.00  0.00     0.069 A 
HETATM   20  C10 UNL     1     -32.860  40.363  67.642  1.00  0.00     0.078 A 
HETATM   21  C12 UNL     1     -33.518  39.281  67.123  1.00  0.00     0.006 A 
HETATM   22  C16 UNL     1     -33.871  39.398  65.757  1.00  0.00     0.050 A 
HETATM   23  C17 UNL     1     -33.586  40.498  64.991  1.00  0.00     0.096 A 
BRANCH  20  24
HETATM   24  O3  UNL     1     -32.480  40.353  68.962  1.00  0.00    -0.355 OA
HETATM   25  C11 UNL     1     -32.580  41.547  69.717  1.00  0.00     0.210 C 
ENDBRANCH  20  24
BRANCH  21  26
HETATM   26  C13 UNL     1     -33.817  38.031  67.831  1.00  0.00     0.312 C 
BRANCH  26  27
HETATM   27  N2  UNL     1     -34.149  36.866  67.033  1.00  0.00     0.084 N 
HETATM   28  C14 UNL     1     -32.901  36.065  66.996  1.00  0.00     0.309 C 
HETATM   29  C15 UNL     1     -35.028  35.994  67.904  1.00  0.00     0.309 C 
ENDBRANCH  26  27
ENDBRANCH  21  26
BRANCH  23  30
HETATM   30  O4  UNL     1     -33.933  40.598  63.661  1.00  0.00    -0.344 OA
BRANCH  30  31
HETATM   31  C18 UNL     1     -35.205  40.574  63.104  1.00  0.00     0.120 C 
HETATM   32  C19 UNL     1     -35.430  41.730  62.143  1.00  0.00     0.040 C 
HETATM   33  C20 UNL     1     -35.473  39.286  62.349  1.00  0.00     0.040 C 
ENDBRANCH  30  31
ENDBRANCH  23  30
ENDBRANCH   1  18
TORSDOF 9
ENDMDL
MODEL 4
REMARK VINA RESULT: -7.372991402      1.119      2.333
REMARK  9 active torsions:
REMARK  status: ('A' for Active; 'I' for Inactive)
REMARK    1  A    between atoms: O1_2  and  C2_3 
REMARK    2  A    between atoms: C4_5  and  O2_6 
REMARK    3  A    between atoms: C7_9  and  N1_10 
REMARK    4  A    between atoms: N1_10  and  C8_12 
REMARK    5  A    between atoms: C10_14  and  O3_15 
REMARK    6  A    between atoms: C12_17  and  C13_18 
REMARK    7  A    between atoms: C13_18  and  N2_19 
REMARK    8  A    between atoms: C17_23  and  O4_24 
REMARK    9  A    between atoms: O4_24  and  C18_25 
ROOT
HETATM    1  N1  UNL     1     -32.335  42.383  65.206  1.00  0.00    -0.353 N 
ATOM      2  H1  UNL     1     -32.165  41.792  64.393  1.00  0.00     0.166 HD
ENDROOT
BRANCH   1   3
HETATM    3  C7  UNL     1     -32.623  41.823  66.313  1.00  0.00     0.049 A 
HETATM    4  C6  UNL     1     -33.553  40.808  66.331  1.00  0.00     0.051 A 
HETATM    5  C4  UNL     1     -34.155  40.385  65.173  1.00  0.00     0.085 A 
HETATM    6  C23 UNL     1     -33.854  40.212  67.531  1.00  0.00     0.050 A 
HETATM    7  C3  UNL     1     -35.072  39.340  65.259  1.00  0.00     0.074 A 
HETATM    8  C2  UNL     1     -35.372  38.744  66.461  1.00  0.00     0.073 A 
HETATM    9  C24 UNL     1     -34.757  39.188  67.604  1.00  0.00     0.067 A 
HETATM   10  N3  UNL     1     -33.251  40.610  68.681  1.00  0.00    -0.365 N 
HETATM   11  C22 UNL     1     -32.335  41.610  68.643  1.00  0.00     0.090 A 
ATOM     12  H3  UNL     1     -33.485  40.161  69.566  1.00  0.00     0.165 HD
HETATM   13  C21 UNL     1     -31.989  42.250  67.475  1.00  0.00     0.047 A 
BRANCH   5  14
HETATM   14  O2  UNL     1     -33.838  40.992  63.982  1.00  0.00    -0.355 OA
HETATM   15  C5  UNL     1     -34.896  41.148  63.029  1.00  0.00     0.210 C 
ENDBRANCH   5  14
BRANCH   8  16
HETATM   16  O1  UNL     1     -36.289  37.708  66.471  1.00  0.00    -0.356 OA
HETATM   17  C1  UNL     1     -36.088  36.522  67.215  1.00  0.00     0.210 C 
ENDBRANCH   8  16
ENDBRANCH   1   3
BRANCH   1  18
HETATM   18  C8  UNL     1     -32.238  43.814  65.047  1.00  0.00     0.069 A 
HETATM   19  C9  UNL     1     -33.333  44.586  65.358  1.00  0.00     0.069 A 
HETATM   20  C10 UNL     1     -33.307  45.989  65.239  1.00  0.00     0.078 A 
HETATM   21  C12 UNL     1     -32.193  46.654  64.806  1.00  0.00     0.006 A 
HETATM   22  C16 UNL     1     -31.088  45.826  64.496  1.00  0.00     0.050 A 
HETATM   23  C17 UNL     1     -31.107  44.461  64.610  1.00  0.00     0.096 A 
BRANCH  20  24
HETATM   24  O3  UNL     1     -34.434  46.701  65.573  1.00  0.00    -0.355 OA
HETATM   25  C11 UNL     1     -34.791  46.826  66.937  1.00  0.00     0.210 C 
ENDBRANCH  20  24
BRANCH  21  26
HETATM   26  C13 UNL     1     -32.082  48.101  64.587  1.00  0.00     0.312 C 
BRANCH  26  27
HETATM   27  N2  UNL     1     -31.458  48.895  65.628  1.00  0.00     0.084 N 
HETATM   28  C14 UNL     1     -30.550  49.819  64.905  1.00  0.00     0.309 C 
HETATM   29  C15 UNL     1     -32.520  49.857  66.119  1.00  0.00     0.309 C 
ENDBRANCH  26  27
ENDBRANCH  21  26
BRANCH  23  30
HETATM   30  O4  UNL     1     -30.025  43.665  64.303  1.00  0.00    -0.344 OA
BRANCH  30  31
HETATM   31  C18 UNL     1     -28.700  44.048  64.137  1.00  0.00     0.120 C 
HETATM   32  C19 UNL     1     -27.830  43.618  65.305  1.00  0.00     0.040 C 
HETATM   33  C20 UNL     1     -28.093  43.473  62.871  1.00  0.00     0.040 C 
ENDBRANCH  30  31
ENDBRANCH  23  30
ENDBRANCH   1  18
TORSDOF 9
ENDMDL
MODEL 5
REMARK VINA RESULT: -7.363892953      2.872      7.599
REMARK  9 active torsions:
REMARK  status: ('A' for Active; 'I' for Inactive)
REMARK    1  A    between atoms: O1_2  and  C2_3 
REMARK    2  A    between atoms: C4_5  and  O2_6 
REMARK    3  A    between atoms: C7_9  and  N1_10 
REMARK    4  A    between atoms: N1_10  and  C8_12 
REMARK    5  A    between atoms: C10_14  and  O3_15 
REMARK    6  A    between atoms: C12_17  and  C13_18 
REMARK    7  A    between atoms: C13_18  and  N2_19 
REMARK    8  A    between atoms: C17_23  and  O4_24 
REMARK    9  A    between atoms: O4_24  and  C18_25 
ROOT
HETATM    1  N1  UNL     1     -31.203  44.329  63.599  1.00  0.00    -0.353 N 
ATOM      2  H1  UNL     1     -31.330  44.116  62.610  1.00  0.00     0.166 HD
ENDROOT
BRANCH   1   3
HETATM    3  C7  UNL     1     -30.016  44.475  64.040  1.00  0.00     0.049 A 
HETATM    4  C6  UNL     1     -29.094  45.155  63.276  1.00  0.00     0.051 A 
HETATM    5  C4  UNL     1     -29.444  45.688  62.060  1.00  0.00     0.085 A 
HETATM    6  C23 UNL     1     -27.820  45.306  63.763  1.00  0.00     0.050 A 
HETATM    7  C3  UNL     1     -28.468  46.381  61.348  1.00  0.00     0.074 A 
HETATM    8  C2  UNL     1     -27.192  46.531  61.837  1.00  0.00     0.073 A 
HETATM    9  C24 UNL     1     -26.869  45.987  63.054  1.00  0.00     0.067 A 
HETATM   10  N3  UNL     1     -27.467  44.799  64.972  1.00  0.00    -0.365 N 
HETATM   11  C22 UNL     1     -28.390  44.134  65.712  1.00  0.00     0.090 A 
ATOM     12  H3  UNL     1     -26.517  44.916  65.322  1.00  0.00     0.165 HD
HETATM   13  C21 UNL     1     -29.684  43.947  65.283  1.00  0.00     0.047 A 
BRANCH   5  14
HETATM   14  O2  UNL     1     -30.725  45.529  61.593  1.00  0.00    -0.355 OA
HETATM   15  C5  UNL     1     -31.295  46.627  60.870  1.00  0.00     0.210 C 
ENDBRANCH   5  14
BRANCH   8  16
HETATM   16  O1  UNL     1     -26.275  47.235  61.077  1.00  0.00    -0.356 OA
HETATM   17  C1  UNL     1     -26.655  48.035  59.973  1.00  0.00     0.210 C 
ENDBRANCH   8  16
ENDBRANCH   1   3
BRANCH   1  18
HETATM   18  C8  UNL     1     -32.375  44.452  64.431  1.00  0.00     0.069 A 
HETATM   19  C9  UNL     1     -32.989  43.304  64.876  1.00  0.00     0.069 A 
HETATM   20  C10 UNL     1     -34.129  43.347  65.701  1.00  0.00     0.078 A 
HETATM   21  C12 UNL     1     -34.684  44.532  66.101  1.00  0.00     0.006 A 
HETATM   22  C16 UNL     1     -34.025  45.690  65.624  1.00  0.00     0.050 A 
HETATM   23  C17 UNL     1     -32.915  45.654  64.821  1.00  0.00     0.096 A 
BRANCH  20  24
HETATM   24  O3  UNL     1     -34.689  42.163  66.116  1.00  0.00    -0.355 OA
HETATM   25  C11 UNL     1     -34.315  40.959  65.472  1.00  0.00     0.210 C 
ENDBRANCH  20  24
BRANCH  21  26
HETATM   26  C13 UNL     1     -35.903  44.686  66.904  1.00  0.00     0.312 C 
BRANCH  26  27
HETATM   27  N2  UNL     1     -35.843  45.562  68.059  1.00  0.00     0.084 N 
HETATM   28  C14 UNL     1     -37.257  45.901  68.349  1.00  0.00     0.309 C 
HETATM   29  C15 UNL     1     -35.508  44.678  69.241  1.00  0.00     0.309 C 
ENDBRANCH  26  27
ENDBRANCH  21  26
BRANCH  23  30
HETATM   30  O4  UNL     1     -32.283  46.789  64.360  1.00  0.00    -0.344 OA
BRANCH  30  31
HETATM   31  C18 UNL     1     -31.795  47.858  65.102  1.00  0.00     0.120 C 
HETATM   32  C19 UNL     1     -30.367  48.213  64.722  1.00  0.00     0.040 C 
HETATM   33  C20 UNL     1     -32.643  49.104  64.933  1.00  0.00     0.040 C 
ENDBRANCH  30  31
ENDBRANCH  23  30
ENDBRANCH   1  18
TORSDOF 9
ENDMDL
