MODEL 1
REMARK VINA RESULT: -6.263729406      0.000      0.000
REMARK  13 active torsions:
REMARK  status: ('A' for Active; 'I' for Inactive)
REMARK    1  A    between atoms: C2_2  and  C4_4 
REMARK    2  A    between atoms: C6_6  and  C21_29 
REMARK    3  A    between atoms: C8_8  and  C9_9 
REMARK    4  A    between atoms: C16_17  and  C17_18 
REMARK    5  A    between atoms: C17_18  and  N1_19 
REMARK    6  A    between atoms: C17_18  and  C18_23 
REMARK    7  A    between atoms: C18_23  and  O2_24 
REMARK    8  A    between atoms: C22_30  and  O4_31 
REMARK    9  A    between atoms: C22_30  and  C23_33 
REMARK   10  A    between atoms: C23_33  and  C25_35 
REMARK   11  A    between atoms: C25_35  and  C26_36 
REMARK   12  A    between atoms: C27_37  and  C28_38 
REMARK   13  A    between atoms: C28_38  and  O5_41 
ROOT
HETATM    1  C9  UNL     1      -0.085  -3.548 -25.086  1.00  0.00     0.170 A 
HETATM    2  O1  UNL     1      -1.240  -3.209 -25.481  1.00  0.00    -0.365 OA
HETATM    3  C10 UNL     1      -0.408  -2.520 -26.186  1.00  0.00     0.126 A 
HETATM    4  C11 UNL     1      -0.769  -1.129 -25.891  1.00  0.00     0.065 C 
HETATM    5  C12 UNL     1       0.446  -0.473 -25.312  1.00  0.00     0.004 C 
HETATM    6  C13 UNL     1       0.418   0.961 -25.767  1.00  0.00     0.006 C 
HETATM    7  C14 UNL     1      -0.828   1.573 -25.258  1.00  0.00     0.011 C 
HETATM    8  C15 UNL     1      -2.092   0.818 -25.300  1.00  0.00     0.051 C 
HETATM    9  C16 UNL     1      -2.810   0.692 -26.576  1.00  0.00     0.162 C 
HETATM   10  O3  UNL     1      -3.100  -0.649 -26.234  1.00  0.00    -0.372 OA
HETATM   11  C19 UNL     1      -2.018  -0.691 -25.313  1.00  0.00     0.071 C 
HETATM   12  C20 UNL     1      -2.568  -1.314 -24.055  1.00  0.00     0.047 C 
HETATM   13  C21 UNL     1       1.512  -1.329 -25.881  1.00  0.00     0.041 C 
HETATM   14  C22 UNL     1       0.839  -2.338 -26.849  1.00  0.00     0.100 C 
ENDROOT
BRANCH  14  15
HETATM   15  O4  UNL     1       1.763  -3.419 -26.873  1.00  0.00    -0.386 OA
ATOM     16  H4  UNL     1       2.047  -3.794 -26.047  1.00  0.00     0.210 HD
ENDBRANCH  14  15
BRANCH  14  17
HETATM   17  C23 UNL     1       0.887  -1.858 -28.266  1.00  0.00     0.023 C 
HETATM   18  C24 UNL     1       2.028  -0.895 -28.510  1.00  0.00     0.013 C 
BRANCH  17  19
HETATM   19  C25 UNL     1       1.191  -3.048 -29.168  1.00  0.00     0.034 C 
BRANCH  19  20
HETATM   20  C26 UNL     1       1.958  -2.652 -30.366  1.00  0.00    -0.027 C 
HETATM   21  C27 UNL     1       1.519  -2.791 -31.610  1.00  0.00     0.006 C 
BRANCH  21  22
HETATM   22  C28 UNL     1       2.269  -2.402 -32.806  1.00  0.00     0.068 C 
HETATM   23  C29 UNL     1       3.210  -1.261 -32.403  1.00  0.00     0.050 C 
HETATM   24  C30 UNL     1       3.155  -3.543 -33.235  1.00  0.00     0.050 C 
BRANCH  22  25
HETATM   25  O5  UNL     1       1.461  -2.025 -33.871  1.00  0.00    -0.387 OA
ATOM     26  H5  UNL     1       1.142  -2.758 -34.384  1.00  0.00     0.211 HD
ENDBRANCH  22  25
ENDBRANCH  21  22
ENDBRANCH  19  20
ENDBRANCH  17  19
ENDBRANCH  14  17
BRANCH  13  27
HETATM   27  C6  UNL     1       2.025  -2.182 -24.751  1.00  0.00    -0.009 A 
HETATM   28  C5  UNL     1       2.273  -3.592 -24.969  1.00  0.00    -0.013 A 
HETATM   29  C4  UNL     1       3.613  -3.609 -24.801  1.00  0.00    -0.072 A 
HETATM   30  C8  UNL     1       3.512  -2.137 -24.556  1.00  0.00     0.059 A 
HETATM   31  C7  UNL     1       1.170  -1.954 -23.519  1.00  0.00     0.021 C 
BRANCH  29  32
HETATM   32  C2  UNL     1       4.719  -4.590 -24.834  1.00  0.00     0.007 C 
HETATM   33  C1  UNL     1       5.898  -3.999 -24.086  1.00  0.00     0.014 C 
HETATM   34  C3  UNL     1       5.172  -4.777 -26.276  1.00  0.00     0.014 C 
ENDBRANCH  29  32
ENDBRANCH  13  27
BRANCH   9  35
HETATM   35  C17 UNL     1      -4.006   1.506 -26.908  1.00  0.00     0.236 C 
BRANCH  35  36
HETATM   36  N1  UNL     1      -4.622   0.905 -28.129  1.00  0.00    -0.070 N 
ATOM     37  H13 UNL     1      -4.693   1.563 -28.905  1.00  0.00     0.274 HD
ATOM     38  H12 UNL     1      -4.018   0.224 -28.589  1.00  0.00     0.274 HD
ATOM     39  H11 UNL     1      -5.523   0.516 -27.851  1.00  0.00     0.274 HD
ENDBRANCH  35  36
BRANCH  35  40
HETATM   40  C18 UNL     1      -5.083   1.624 -25.898  1.00  0.00     0.199 C 
BRANCH  40  41
HETATM   41  O2  UNL     1      -5.641   0.446 -25.451  1.00  0.00    -0.399 OA
ATOM     42  H2  UNL     1      -6.020   0.458 -24.579  1.00  0.00     0.209 HD
ENDBRANCH  40  41
ENDBRANCH  35  40
ENDBRANCH   9  35
TORSDOF 13
ENDMDL
MODEL 2
REMARK VINA RESULT: -6.221249747      3.705      6.663
REMARK  13 active torsions:
REMARK  status: ('A' for Active; 'I' for Inactive)
REMARK    1  A    between atoms: C2_2  and  C4_4 
REMARK    2  A    between atoms: C6_6  and  C21_29 
REMARK    3  A    between atoms: C8_8  and  C9_9 
REMARK    4  A    between atoms: C16_17  and  C17_18 
REMARK    5  A    between atoms: C17_18  and  N1_19 
REMARK    6  A    between atoms: C17_18  and  C18_23 
REMARK    7  A    between atoms: C18_23  and  O2_24 
REMARK    8  A    between atoms: C22_30  and  O4_31 
REMARK    9  A    between atoms: C22_30  and  C23_33 
REMARK   10  A    between atoms: C23_33  and  C25_35 
REMARK   11  A    between atoms: C25_35  and  C26_36 
REMARK   12  A    between atoms: C27_37  and  C28_38 
REMARK   13  A    between atoms: C28_38  and  O5_41 
ROOT
HETATM    1  C9  UNL     1       2.155  -2.761 -23.701  1.00  0.00     0.170 A 
HETATM    2  O1  UNL     1       1.872  -2.506 -22.493  1.00  0.00    -0.365 OA
HETATM    3  C10 UNL     1       1.440  -1.502 -23.177  1.00  0.00     0.126 A 
HETATM    4  C11 UNL     1       2.162  -0.357 -22.610  1.00  0.00     0.065 C 
HETATM    5  C12 UNL     1       2.941   0.267 -23.725  1.00  0.00     0.004 C 
HETATM    6  C13 UNL     1       2.973   1.747 -23.451  1.00  0.00     0.006 C 
HETATM    7  C14 UNL     1       3.631   1.951 -22.143  1.00  0.00     0.011 C 
HETATM    8  C15 UNL     1       3.328   1.054 -21.015  1.00  0.00     0.051 C 
HETATM    9  C16 UNL     1       2.068   1.228 -20.280  1.00  0.00     0.162 C 
HETATM   10  O3  UNL     1       1.954  -0.180 -20.221  1.00  0.00    -0.372 OA
HETATM   11  C19 UNL     1       2.830  -0.338 -21.329  1.00  0.00     0.071 C 
HETATM   12  C20 UNL     1       3.811  -1.412 -20.933  1.00  0.00     0.047 C 
HETATM   13  C21 UNL     1       2.144  -0.174 -24.892  1.00  0.00     0.041 C 
HETATM   14  C22 UNL     1       0.892  -0.916 -24.354  1.00  0.00     0.100 C 
ENDROOT
BRANCH  14  15
HETATM   15  O4  UNL     1       0.536  -1.766 -25.437  1.00  0.00    -0.386 OA
ATOM     16  H4  UNL     1       0.261  -2.655 -25.246  1.00  0.00     0.210 HD
ENDBRANCH  14  15
BRANCH  14  17
HETATM   17  C23 UNL     1      -0.294  -0.005 -24.271  1.00  0.00     0.023 C 
HETATM   18  C24 UNL     1      -0.158   1.200 -25.175  1.00  0.00     0.013 C 
BRANCH  17  19
HETATM   19  C25 UNL     1      -1.511  -0.750 -24.806  1.00  0.00     0.034 C 
BRANCH  19  20
HETATM   20  C26 UNL     1      -2.456   0.155 -25.490  1.00  0.00    -0.027 C 
HETATM   21  C27 UNL     1      -3.760   0.190 -25.245  1.00  0.00     0.006 C 
BRANCH  21  22
HETATM   22  C28 UNL     1      -4.708   1.083 -25.916  1.00  0.00     0.068 C 
HETATM   23  C29 UNL     1      -5.843   1.369 -24.927  1.00  0.00     0.050 C 
HETATM   24  C30 UNL     1      -4.044   2.408 -26.186  1.00  0.00     0.050 C 
BRANCH  22  25
HETATM   25  O5  UNL     1      -5.206   0.569 -27.107  1.00  0.00    -0.387 OA
ATOM     26  H5  UNL     1      -6.024   0.967 -27.380  1.00  0.00     0.211 HD
ENDBRANCH  22  25
ENDBRANCH  21  22
ENDBRANCH  19  20
ENDBRANCH  17  19
ENDBRANCH  14  17
BRANCH  13  27
HETATM   27  C6  UNL     1       2.947  -1.249 -25.577  1.00  0.00    -0.009 A 
HETATM   28  C5  UNL     1       2.296  -2.467 -26.013  1.00  0.00    -0.013 A 
HETATM   29  C4  UNL     1       2.447  -2.333 -27.348  1.00  0.00    -0.072 A 
HETATM   30  C8  UNL     1       3.144  -1.043 -27.050  1.00  0.00     0.059 A 
HETATM   31  C7  UNL     1       4.190  -1.547 -24.760  1.00  0.00     0.021 C 
BRANCH  29  32
HETATM   32  C2  UNL     1       2.105  -3.077 -28.579  1.00  0.00     0.007 C 
HETATM   33  C1  UNL     1       0.847  -3.880 -28.312  1.00  0.00     0.014 C 
HETATM   34  C3  UNL     1       3.209  -4.086 -28.871  1.00  0.00     0.014 C 
ENDBRANCH  29  32
ENDBRANCH  13  27
BRANCH   9  35
HETATM   35  C17 UNL     1       1.996   1.899 -18.958  1.00  0.00     0.236 C 
BRANCH  35  36
HETATM   36  N1  UNL     1       1.972   3.370 -19.210  1.00  0.00    -0.070 N 
ATOM     37  H13 UNL     1       2.696   3.676 -19.860  1.00  0.00     0.274 HD
ATOM     38  H12 UNL     1       1.167   3.669 -19.760  1.00  0.00     0.274 HD
ATOM     39  H11 UNL     1       2.029   3.832 -18.302  1.00  0.00     0.274 HD
ENDBRANCH  35  36
BRANCH  35  40
HETATM   40  C18 UNL     1       0.846   1.596 -18.074  1.00  0.00     0.199 C 
BRANCH  40  41
HETATM   41  O2  UNL     1       0.111   0.471 -18.381  1.00  0.00    -0.399 OA
ATOM     42  H2  UNL     1       0.531  -0.367 -18.224  1.00  0.00     0.209 HD
ENDBRANCH  40  41
ENDBRANCH  35  40
ENDBRANCH   9  35
TORSDOF 13
ENDMDL
MODEL 3
REMARK VINA RESULT: -6.126312761      1.023      1.922
REMARK  13 active torsions:
REMARK  status: ('A' for Active; 'I' for Inactive)
REMARK    1  A    between atoms: C2_2  and  C4_4 
REMARK    2  A    between atoms: C6_6  and  C21_29 
REMARK    3  A    between atoms: C8_8  and  C9_9 
REMARK    4  A    between atoms: C16_17  and  C17_18 
REMARK    5  A    between atoms: C17_18  and  N1_19 
REMARK    6  A    between atoms: C17_18  and  C18_23 
REMARK    7  A    between atoms: C18_23  and  O2_24 
REMARK    8  A    between atoms: C22_30  and  O4_31 
REMARK    9  A    between atoms: C22_30  and  C23_33 
REMARK   10  A    between atoms: C23_33  and  C25_35 
REMARK   11  A    between atoms: C25_35  and  C26_36 
REMARK   12  A    between atoms: C27_37  and  C28_38 
REMARK   13  A    between atoms: C28_38  and  O5_41 
ROOT
HETATM    1  C9  UNL     1       0.039  -3.490 -25.128  1.00  0.00     0.170 A 
HETATM    2  O1  UNL     1      -1.127  -3.168 -25.504  1.00  0.00    -0.365 OA
HETATM    3  C10 UNL     1      -0.318  -2.458 -26.214  1.00  0.00     0.126 A 
HETATM    4  C11 UNL     1      -0.699  -1.077 -25.901  1.00  0.00     0.065 C 
HETATM    5  C12 UNL     1       0.510  -0.404 -25.331  1.00  0.00     0.004 C 
HETATM    6  C13 UNL     1       0.450   1.034 -25.772  1.00  0.00     0.006 C 
HETATM    7  C14 UNL     1      -0.800   1.618 -25.242  1.00  0.00     0.011 C 
HETATM    8  C15 UNL     1      -2.051   0.840 -25.274  1.00  0.00     0.051 C 
HETATM    9  C16 UNL     1      -2.783   0.713 -26.542  1.00  0.00     0.162 C 
HETATM   10  O3  UNL     1      -3.043  -0.637 -26.210  1.00  0.00    -0.372 OA
HETATM   11  C19 UNL     1      -1.949  -0.667 -25.303  1.00  0.00     0.071 C 
HETATM   12  C20 UNL     1      -2.471  -1.312 -24.044  1.00  0.00     0.047 C 
HETATM   13  C21 UNL     1       1.584  -1.234 -25.922  1.00  0.00     0.041 C 
HETATM   14  C22 UNL     1       0.918  -2.247 -26.891  1.00  0.00     0.100 C 
ENDROOT
BRANCH  14  15
HETATM   15  O4  UNL     1       1.861  -3.310 -26.937  1.00  0.00    -0.386 OA
ATOM     16  H4  UNL     1       2.467  -3.350 -27.667  1.00  0.00     0.210 HD
ENDBRANCH  14  15
BRANCH  14  17
HETATM   17  C23 UNL     1       0.938  -1.752 -28.304  1.00  0.00     0.023 C 
HETATM   18  C24 UNL     1       2.107  -0.830 -28.574  1.00  0.00     0.013 C 
BRANCH  17  19
HETATM   19  C25 UNL     1       1.169  -2.943 -29.227  1.00  0.00     0.034 C 
BRANCH  19  20
HETATM   20  C26 UNL     1       1.950  -2.572 -30.423  1.00  0.00    -0.027 C 
HETATM   21  C27 UNL     1       1.541  -2.769 -31.670  1.00  0.00     0.006 C 
BRANCH  21  22
HETATM   22  C28 UNL     1       2.307  -2.406 -32.864  1.00  0.00     0.068 C 
HETATM   23  C29 UNL     1       3.220  -1.235 -32.482  1.00  0.00     0.050 C 
HETATM   24  C30 UNL     1       3.220  -3.543 -33.240  1.00  0.00     0.050 C 
BRANCH  22  25
HETATM   25  O5  UNL     1       1.511  -2.078 -33.955  1.00  0.00    -0.387 OA
ATOM     26  H5  UNL     1       1.631  -1.186 -34.258  1.00  0.00     0.211 HD
ENDBRANCH  22  25
ENDBRANCH  21  22
ENDBRANCH  19  20
ENDBRANCH  17  19
ENDBRANCH  14  17
BRANCH  13  27
HETATM   27  C6  UNL     1       2.128  -2.089 -24.807  1.00  0.00    -0.009 A 
HETATM   28  C5  UNL     1       3.202  -1.588 -23.975  1.00  0.00    -0.013 A 
HETATM   29  C4  UNL     1       2.548  -1.508 -22.795  1.00  0.00    -0.072 A 
HETATM   30  C8  UNL     1       1.348  -2.018 -23.527  1.00  0.00     0.059 A 
HETATM   31  C7  UNL     1       2.438  -3.474 -25.339  1.00  0.00     0.021 C 
BRANCH  29  32
HETATM   32  C2  UNL     1       2.832  -1.107 -21.400  1.00  0.00     0.007 C 
HETATM   33  C1  UNL     1       2.648   0.394 -21.293  1.00  0.00     0.014 C 
HETATM   34  C3  UNL     1       4.297  -1.387 -21.093  1.00  0.00     0.014 C 
ENDBRANCH  29  32
ENDBRANCH  13  27
BRANCH   9  35
HETATM   35  C17 UNL     1      -3.998   1.507 -26.852  1.00  0.00     0.236 C 
BRANCH  35  36
HETATM   36  N1  UNL     1      -4.605   0.922 -28.084  1.00  0.00    -0.070 N 
ATOM     37  H13 UNL     1      -4.713   1.600 -28.837  1.00  0.00     0.274 HD
ATOM     38  H12 UNL     1      -3.979   0.282 -28.573  1.00  0.00     0.274 HD
ATOM     39  H11 UNL     1      -5.486   0.487 -27.808  1.00  0.00     0.274 HD
ENDBRANCH  35  36
BRANCH  35  40
HETATM   40  C18 UNL     1      -5.073   1.578 -25.835  1.00  0.00     0.199 C 
BRANCH  40  41
HETATM   41  O2  UNL     1      -5.589   0.377 -25.399  1.00  0.00    -0.399 OA
ATOM     42  H2  UNL     1      -4.965  -0.260 -25.070  1.00  0.00     0.209 HD
ENDBRANCH  40  41
ENDBRANCH  35  40
ENDBRANCH   9  35
TORSDOF 13
ENDMDL
MODEL 4
REMARK VINA RESULT: -6.078130919      3.263      6.243
REMARK  13 active torsions:
REMARK  status: ('A' for Active; 'I' for Inactive)
REMARK    1  A    between atoms: C2_2  and  C4_4 
REMARK    2  A    between atoms: C6_6  and  C21_29 
REMARK    3  A    between atoms: C8_8  and  C9_9 
REMARK    4  A    between atoms: C16_17  and  C17_18 
REMARK    5  A    between atoms: C17_18  and  N1_19 
REMARK    6  A    between atoms: C17_18  and  C18_23 
REMARK    7  A    between atoms: C18_23  and  O2_24 
REMARK    8  A    between atoms: C22_30  and  O4_31 
REMARK    9  A    between atoms: C22_30  and  C23_33 
REMARK   10  A    between atoms: C23_33  and  C25_35 
REMARK   11  A    between atoms: C25_35  and  C26_36 
REMARK   12  A    between atoms: C27_37  and  C28_38 
REMARK   13  A    between atoms: C28_38  and  O5_41 
ROOT
HETATM    1  C9  UNL     1       1.033  -3.555 -23.914  1.00  0.00     0.170 A 
HETATM    2  O1  UNL     1       0.967  -2.904 -22.829  1.00  0.00    -0.365 OA
HETATM    3  C10 UNL     1       0.668  -2.067 -23.762  1.00  0.00     0.126 A 
HETATM    4  C11 UNL     1       1.678  -1.012 -23.621  1.00  0.00     0.065 C 
HETATM    5  C12 UNL     1       2.420  -0.937 -24.919  1.00  0.00     0.004 C 
HETATM    6  C13 UNL     1       2.793   0.507 -25.118  1.00  0.00     0.006 C 
HETATM    7  C14 UNL     1       3.642   0.917 -23.979  1.00  0.00     0.011 C 
HETATM    8  C15 UNL     1       3.307   0.479 -22.613  1.00  0.00     0.051 C 
HETATM    9  C16 UNL     1       2.216   1.151 -21.893  1.00  0.00     0.162 C 
HETATM   10  O3  UNL     1       1.821  -0.113 -21.396  1.00  0.00    -0.372 OA
HETATM   11  C19 UNL     1       2.495  -0.785 -22.451  1.00  0.00     0.071 C 
HETATM   12  C20 UNL     1       3.274  -1.900 -21.802  1.00  0.00     0.047 C 
HETATM   13  C21 UNL     1       1.405  -1.493 -25.843  1.00  0.00     0.041 C 
HETATM   14  C22 UNL     1       0.106  -1.731 -25.028  1.00  0.00     0.100 C 
ENDROOT
BRANCH  14  15
HETATM   15  O4  UNL     1      -0.555  -2.746 -25.771  1.00  0.00    -0.386 OA
ATOM     16  H4  UNL     1      -1.264  -2.497 -26.352  1.00  0.00     0.210 HD
ENDBRANCH  14  15
BRANCH  14  17
HETATM   17  C23 UNL     1      -0.844  -0.581 -25.159  1.00  0.00     0.023 C 
HETATM   18  C24 UNL     1      -0.730   0.110 -26.501  1.00  0.00     0.013 C 
BRANCH  17  19
HETATM   19  C25 UNL     1      -2.266  -1.127 -25.129  1.00  0.00     0.034 C 
BRANCH  19  20
HETATM   20  C26 UNL     1      -3.237  -0.173 -25.703  1.00  0.00    -0.027 C 
HETATM   21  C27 UNL     1      -4.206   0.409 -25.010  1.00  0.00     0.006 C 
BRANCH  21  22
HETATM   22  C28 UNL     1      -5.174   1.356 -25.568  1.00  0.00     0.068 C 
HETATM   23  C29 UNL     1      -6.287   1.536 -24.529  1.00  0.00     0.050 C 
HETATM   24  C30 UNL     1      -4.524   2.706 -25.723  1.00  0.00     0.050 C 
BRANCH  22  25
HETATM   25  O5  UNL     1      -5.699   0.958 -26.792  1.00  0.00    -0.387 OA
ATOM     26  H5  UNL     1      -5.243   0.220 -27.178  1.00  0.00     0.211 HD
ENDBRANCH  22  25
ENDBRANCH  21  22
ENDBRANCH  19  20
ENDBRANCH  17  19
ENDBRANCH  14  17
BRANCH  13  27
HETATM   27  C6  UNL     1       1.873  -2.878 -26.209  1.00  0.00    -0.009 A 
HETATM   28  C5  UNL     1       2.912  -3.047 -27.203  1.00  0.00    -0.013 A 
HETATM   29  C4  UNL     1       3.882  -3.570 -26.422  1.00  0.00    -0.072 A 
HETATM   30  C8  UNL     1       2.911  -3.452 -25.290  1.00  0.00     0.059 A 
HETATM   31  C7  UNL     1       0.671  -3.753 -26.508  1.00  0.00     0.021 C 
BRANCH  29  32
HETATM   32  C2  UNL     1       5.273  -4.052 -26.561  1.00  0.00     0.007 C 
HETATM   33  C1  UNL     1       5.366  -5.421 -25.916  1.00  0.00     0.014 C 
HETATM   34  C3  UNL     1       6.195  -3.136 -25.766  1.00  0.00     0.014 C 
ENDBRANCH  29  32
ENDBRANCH  13  27
BRANCH   9  35
HETATM   35  C17 UNL     1       2.455   2.170 -20.841  1.00  0.00     0.236 C 
BRANCH  35  36
HETATM   36  N1  UNL     1       2.770   3.454 -21.534  1.00  0.00    -0.070 N 
ATOM     37  H13 UNL     1       3.735   3.754 -21.401  1.00  0.00     0.274 HD
ATOM     38  H12 UNL     1       2.799   3.364 -22.550  1.00  0.00     0.274 HD
ATOM     39  H11 UNL     1       2.089   4.144 -21.214  1.00  0.00     0.274 HD
ENDBRANCH  35  36
BRANCH  35  40
HETATM   40  C18 UNL     1       1.368   2.457 -19.876  1.00  0.00     0.199 C 
BRANCH  40  41
HETATM   41  O2  UNL     1       0.692   1.370 -19.367  1.00  0.00    -0.399 OA
ATOM     42  H2  UNL     1       0.141   0.889 -19.974  1.00  0.00     0.209 HD
ENDBRANCH  40  41
ENDBRANCH  35  40
ENDBRANCH   9  35
TORSDOF 13
ENDMDL
MODEL 5
REMARK VINA RESULT: -6.040270870     10.259     14.115
REMARK  13 active torsions:
REMARK  status: ('A' for Active; 'I' for Inactive)
REMARK    1  A    between atoms: C2_2  and  C4_4 
REMARK    2  A    between atoms: C6_6  and  C21_29 
REMARK    3  A    between atoms: C8_8  and  C9_9 
REMARK    4  A    between atoms: C16_17  and  C17_18 
REMARK    5  A    between atoms: C17_18  and  N1_19 
REMARK    6  A    between atoms: C17_18  and  C18_23 
REMARK    7  A    between atoms: C18_23  and  O2_24 
REMARK    8  A    between atoms: C22_30  and  O4_31 
REMARK    9  A    between atoms: C22_30  and  C23_33 
REMARK   10  A    between atoms: C23_33  and  C25_35 
REMARK   11  A    between atoms: C25_35  and  C26_36 
REMARK   12  A    between atoms: C27_37  and  C28_38 
REMARK   13  A    between atoms: C28_38  and  O5_41 
ROOT
HETATM    1  C9  UNL     1      -6.589   7.986 -26.552  1.00  0.00     0.170 A 
HETATM    2  O1  UNL     1      -6.988   6.802 -26.760  1.00  0.00    -0.365 OA
HETATM    3  C10 UNL     1      -7.832   7.320 -25.935  1.00  0.00     0.126 A 
HETATM    4  C11 UNL     1      -7.762   6.439 -24.764  1.00  0.00     0.065 C 
HETATM    5  C12 UNL     1      -7.351   7.287 -23.600  1.00  0.00     0.004 C 
HETATM    6  C13 UNL     1      -8.040   6.716 -22.389  1.00  0.00     0.006 C 
HETATM    7  C14 UNL     1      -7.591   5.317 -22.231  1.00  0.00     0.011 C 
HETATM    8  C15 UNL     1      -7.454   4.447 -23.411  1.00  0.00     0.051 C 
HETATM    9  C16 UNL     1      -8.660   3.871 -24.021  1.00  0.00     0.162 C 
HETATM   10  O3  UNL     1      -8.086   4.116 -25.291  1.00  0.00    -0.372 OA
HETATM   11  C19 UNL     1      -7.215   5.102 -24.752  1.00  0.00     0.071 C 
HETATM   12  C20 UNL     1      -5.849   4.801 -25.315  1.00  0.00     0.047 C 
HETATM   13  C21 UNL     1      -7.811   8.617 -24.059  1.00  0.00     0.041 C 
HETATM   14  C22 UNL     1      -8.567   8.417 -25.400  1.00  0.00     0.100 C 
ENDROOT
BRANCH  14  15
HETATM   15  O4  UNL     1      -8.445   9.688 -26.025  1.00  0.00    -0.386 OA
ATOM     16  H4  UNL     1      -8.162  10.429 -25.502  1.00  0.00     0.210 HD
ENDBRANCH  14  15
BRANCH  14  17
HETATM   17  C23 UNL     1     -10.045   8.315 -25.188  1.00  0.00     0.023 C 
HETATM   18  C24 UNL     1     -10.510   9.096 -23.978  1.00  0.00     0.013 C 
BRANCH  17  19
HETATM   19  C25 UNL     1     -10.747   8.980 -26.366  1.00  0.00     0.034 C 
BRANCH  19  20
HETATM   20  C26 UNL     1     -12.208   8.770 -26.330  1.00  0.00    -0.027 C 
HETATM   21  C27 UNL     1     -12.815   7.683 -26.789  1.00  0.00     0.006 C 
BRANCH  21  22
HETATM   22  C28 UNL     1     -14.262   7.463 -26.758  1.00  0.00     0.068 C 
HETATM   23  C29 UNL     1     -14.834   8.342 -25.640  1.00  0.00     0.050 C 
HETATM   24  C30 UNL     1     -14.874   7.966 -28.040  1.00  0.00     0.050 C 
BRANCH  22  25
HETATM   25  O5  UNL     1     -14.618   6.132 -26.574  1.00  0.00    -0.387 OA
ATOM     26  H5  UNL     1     -15.327   6.011 -25.954  1.00  0.00     0.211 HD
ENDBRANCH  22  25
ENDBRANCH  21  22
ENDBRANCH  19  20
ENDBRANCH  17  19
ENDBRANCH  14  17
BRANCH  13  27
HETATM   27  C6  UNL     1      -6.575   9.389 -24.441  1.00  0.00    -0.009 A 
HETATM   28  C5  UNL     1      -5.882  10.177 -23.443  1.00  0.00    -0.013 A 
HETATM   29  C4  UNL     1      -4.718   9.495 -23.390  1.00  0.00    -0.072 A 
HETATM   30  C8  UNL     1      -5.306   8.588 -24.425  1.00  0.00     0.059 A 
HETATM   31  C7  UNL     1      -6.853  10.198 -25.692  1.00  0.00     0.021 C 
BRANCH  29  32
HETATM   32  C2  UNL     1      -3.430   9.561 -22.667  1.00  0.00     0.007 C 
HETATM   33  C1  UNL     1      -3.725   9.649 -21.183  1.00  0.00     0.014 C 
HETATM   34  C3  UNL     1      -2.717  10.853 -23.045  1.00  0.00     0.014 C 
ENDBRANCH  29  32
ENDBRANCH  13  27
BRANCH   9  35
HETATM   35  C17 UNL     1      -9.076   2.463 -23.805  1.00  0.00     0.236 C 
BRANCH  35  36
HETATM   36  N1  UNL     1      -7.889   1.730 -23.272  1.00  0.00    -0.070 N 
ATOM     37  H13 UNL     1      -7.716   0.848 -23.753  1.00  0.00     0.274 HD
ATOM     38  H12 UNL     1      -7.004   2.181 -23.502  1.00  0.00     0.274 HD
ATOM     39  H11 UNL     1      -8.031   1.617 -22.268  1.00  0.00     0.274 HD
ENDBRANCH  35  36
BRANCH  35  40
HETATM   40  C18 UNL     1     -10.199   2.193 -22.877  1.00  0.00     0.199 C 
BRANCH  40  41
HETATM   41  O2  UNL     1     -11.356   1.696 -23.438  1.00  0.00    -0.399 OA
ATOM     42  H2  UNL     1     -12.130   2.245 -23.373  1.00  0.00     0.209 HD
ENDBRANCH  40  41
ENDBRANCH  35  40
ENDBRANCH   9  35
TORSDOF 13
ENDMDL
