MODEL 1
REMARK VINA RESULT: -8.089225796      0.000      0.000
REMARK  7 active torsions:
REMARK  status: ('A' for Active; 'I' for Inactive)
REMARK    1  A    between atoms: N1_1  and  S1_4 
REMARK    2  A    between atoms: S1_4  and  C1_7 
REMARK    3  A    between atoms: C4_10  and  N2_11 
REMARK    4  A    between atoms: C5_13  and  C6_14 
REMARK    5  A    between atoms: C6_14  and  C7_15 
REMARK    6  A    between atoms: C6_14  and  C14_26 
REMARK    7  A    between atoms: C19_33  and  S2_34 
ROOT
HETATM    1  C6  UNL     1      -3.183   1.144 -26.871  1.00  0.00     0.092 C 
ENDROOT
BRANCH   1   2
HETATM    2  C5  UNL     1      -4.438   1.798 -26.372  1.00  0.00     0.075 C 
HETATM    3  N2  UNL     1      -4.999   1.451 -25.280  1.00  0.00    -0.369 N 
ATOM      4  H2  UNL     1      -4.556   0.699 -24.752  1.00  0.00     0.165 HD
BRANCH   3   5
HETATM    5  C4  UNL     1      -6.164   2.001 -24.741  1.00  0.00     0.031 A 
HETATM    6  C3  UNL     1      -6.517   3.290 -25.065  1.00  0.00     0.031 A 
HETATM    7  C2  UNL     1      -7.672   3.881 -24.549  1.00  0.00     0.027 A 
HETATM    8  C1  UNL     1      -8.499   3.185 -23.694  1.00  0.00     0.079 A 
HETATM    9  C23 UNL     1      -8.136   1.889 -23.372  1.00  0.00     0.027 A 
HETATM   10  C22 UNL     1      -6.994   1.308 -23.883  1.00  0.00     0.031 A 
BRANCH   8  11
HETATM   11  S1  UNL     1      -9.938   3.930 -23.054  1.00  0.00     0.256 S 
HETATM   12  O1  UNL     1     -11.070   2.935 -22.925  1.00  0.00    -0.201 OA
HETATM   13  O2  UNL     1     -10.434   5.063 -23.901  1.00  0.00    -0.201 OA
BRANCH  11  14
HETATM   14  N1  UNL     1      -9.659   4.559 -21.459  1.00  0.00    -0.324 N 
ATOM     15  H12 UNL     1     -10.371   4.912 -20.818  1.00  0.00     0.169 HD
ATOM     16  H11 UNL     1      -8.653   4.502 -21.301  1.00  0.00     0.169 HD
ENDBRANCH  11  14
ENDBRANCH   8  11
ENDBRANCH   3   5
ENDBRANCH   1   2
BRANCH   1  17
HETATM   17  C7  UNL     1      -2.712   2.101 -27.952  1.00  0.00    -0.042 A 
HETATM   18  C8  UNL     1      -1.463   2.004 -28.513  1.00  0.00     0.010 A 
HETATM   19  C9  UNL     1      -1.077   2.899 -29.496  1.00  0.00     0.032 A 
HETATM   20  C10 UNL     1      -1.918   3.902 -29.942  1.00  0.00     0.060 A 
HETATM   21  N3  UNL     1      -1.816   4.885 -30.855  1.00  0.00    -0.351 N 
HETATM   22  C12 UNL     1      -3.157   3.999 -29.386  1.00  0.00     0.060 A 
HETATM   23  C11 UNL     1      -2.965   5.602 -30.891  1.00  0.00     0.181 A 
ATOM     24  H3  UNL     1      -0.996   5.063 -31.435  1.00  0.00     0.166 HD
HETATM   25  N4  UNL     1      -3.772   5.040 -29.981  1.00  0.00    -0.350 N 
ATOM     26  H4  UNL     1      -4.719   5.356 -29.770  1.00  0.00     0.166 HD
HETATM   27  C13 UNL     1      -3.542   3.106 -28.405  1.00  0.00     0.040 A 
ENDBRANCH   1  17
BRANCH   1  28
HETATM   28  C14 UNL     1      -2.103   1.107 -25.860  1.00  0.00    -0.017 A 
HETATM   29  C15 UNL     1      -1.508   2.247 -25.322  1.00  0.00     0.097 A 
HETATM   30  N5  UNL     1      -0.602   1.819 -24.440  1.00  0.00    -0.365 N 
HETATM   31  C16 UNL     1      -0.589   0.476 -24.390  1.00  0.00     0.043 A 
ATOM     32  H5  UNL     1      -0.002   2.426 -23.882  1.00  0.00     0.165 HD
HETATM   33  C17 UNL     1       0.161  -0.434 -23.651  1.00  0.00     0.032 A 
HETATM   34  C21 UNL     1      -1.541  -0.012 -25.290  1.00  0.00     0.001 A 
HETATM   35  C18 UNL     1      -0.014  -1.790 -23.789  1.00  0.00     0.028 A 
HETATM   36  C19 UNL     1      -0.966  -2.257 -24.691  1.00  0.00     0.081 A 
HETATM   37  C20 UNL     1      -1.721  -1.380 -25.433  1.00  0.00     0.040 A 
BRANCH  36  38
HETATM   38  S2  UNL     1      -1.154  -3.988 -24.832  1.00  0.00     0.137 S 
HETATM   39  O3  UNL     1      -0.776  -4.387 -26.224  1.00  0.00    -0.591 OA
HETATM   40  O4  UNL     1      -2.589  -4.367 -24.535  1.00  0.00    -0.591 OA
HETATM   41  O5  UNL     1      -0.196  -4.760 -23.680  1.00  0.00    -0.591 OA
ENDBRANCH  36  38
ENDBRANCH   1  28
TORSDOF 7
ENDMDL
MODEL 2
REMARK VINA RESULT: -7.988317644      0.755      1.240
REMARK  7 active torsions:
REMARK  status: ('A' for Active; 'I' for Inactive)
REMARK    1  A    between atoms: N1_1  and  S1_4 
REMARK    2  A    between atoms: S1_4  and  C1_7 
REMARK    3  A    between atoms: C4_10  and  N2_11 
REMARK    4  A    between atoms: C5_13  and  C6_14 
REMARK    5  A    between atoms: C6_14  and  C7_15 
REMARK    6  A    between atoms: C6_14  and  C14_26 
REMARK    7  A    between atoms: C19_33  and  S2_34 
ROOT
HETATM    1  C6  UNL     1      -3.191   1.087 -26.631  1.00  0.00     0.092 C 
ENDROOT
BRANCH   1   2
HETATM    2  C5  UNL     1      -4.306   1.938 -26.097  1.00  0.00     0.075 C 
HETATM    3  N2  UNL     1      -5.153   1.498 -25.249  1.00  0.00    -0.369 N 
ATOM      4  H2  UNL     1      -5.041   0.531 -24.944  1.00  0.00     0.165 HD
BRANCH   3   5
HETATM    5  C4  UNL     1      -6.218   2.215 -24.700  1.00  0.00     0.031 A 
HETATM    6  C3  UNL     1      -7.052   1.602 -23.795  1.00  0.00     0.031 A 
HETATM    7  C2  UNL     1      -8.128   2.280 -23.221  1.00  0.00     0.027 A 
HETATM    8  C1  UNL     1      -8.389   3.594 -23.545  1.00  0.00     0.079 A 
HETATM    9  C23 UNL     1      -7.545   4.203 -24.456  1.00  0.00     0.027 A 
HETATM   10  C22 UNL     1      -6.482   3.531 -25.022  1.00  0.00     0.031 A 
BRANCH   8  11
HETATM   11  S1  UNL     1      -9.735   4.433 -22.825  1.00  0.00     0.256 S 
HETATM   12  O1  UNL     1      -9.357   5.835 -22.404  1.00  0.00    -0.201 OA
HETATM   13  O2  UNL     1     -10.277   3.734 -21.613  1.00  0.00    -0.201 OA
BRANCH  11  14
HETATM   14  N1  UNL     1     -11.044   4.600 -23.955  1.00  0.00    -0.324 N 
ATOM     15  H12 UNL     1     -11.507   5.471 -24.215  1.00  0.00     0.169 HD
ATOM     16  H11 UNL     1     -11.248   3.661 -24.297  1.00  0.00     0.169 HD
ENDBRANCH  11  14
ENDBRANCH   8  11
ENDBRANCH   3   5
ENDBRANCH   1   2
BRANCH   1  17
HETATM   17  C7  UNL     1      -2.687   1.896 -27.812  1.00  0.00    -0.042 A 
HETATM   18  C8  UNL     1      -1.392   1.803 -28.256  1.00  0.00     0.010 A 
HETATM   19  C9  UNL     1      -0.977   2.562 -29.338  1.00  0.00     0.032 A 
HETATM   20  C10 UNL     1      -1.834   3.421 -29.999  1.00  0.00     0.060 A 
HETATM   21  N3  UNL     1      -1.713   4.256 -31.047  1.00  0.00    -0.351 N 
HETATM   22  C12 UNL     1      -3.120   3.514 -29.559  1.00  0.00     0.060 A 
HETATM   23  C11 UNL     1      -2.894   4.876 -31.283  1.00  0.00     0.181 A 
ATOM     24  H3  UNL     1      -0.858   4.401 -31.585  1.00  0.00     0.166 HD
HETATM   25  N4  UNL     1      -3.741   4.405 -30.357  1.00  0.00    -0.350 N 
ATOM     26  H4  UNL     1      -4.719   4.682 -30.270  1.00  0.00     0.166 HD
HETATM   27  C13 UNL     1      -3.533   2.759 -28.481  1.00  0.00     0.040 A 
ENDBRANCH   1  17
BRANCH   1  28
HETATM   28  C14 UNL     1      -2.048   0.971 -25.698  1.00  0.00    -0.017 A 
HETATM   29  C15 UNL     1      -1.360   2.066 -25.178  1.00  0.00     0.097 A 
HETATM   30  N5  UNL     1      -0.420   1.571 -24.371  1.00  0.00    -0.365 N 
HETATM   31  C16 UNL     1      -0.473   0.229 -24.351  1.00  0.00     0.043 A 
ATOM     32  H5  UNL     1       0.247   2.134 -23.842  1.00  0.00     0.165 HD
HETATM   33  C17 UNL     1       0.278  -0.736 -23.685  1.00  0.00     0.032 A 
HETATM   34  C21 UNL     1      -1.507  -0.189 -25.192  1.00  0.00     0.001 A 
HETATM   35  C18 UNL     1       0.025  -2.078 -23.839  1.00  0.00     0.028 A 
HETATM   36  C19 UNL     1      -1.010  -2.474 -24.683  1.00  0.00     0.081 A 
HETATM   37  C20 UNL     1      -1.767  -1.542 -25.352  1.00  0.00     0.040 A 
BRANCH  36  38
HETATM   38  S2  UNL     1      -1.295  -4.189 -24.848  1.00  0.00     0.137 S 
HETATM   39  O3  UNL     1      -0.902  -4.597 -26.232  1.00  0.00    -0.591 OA
HETATM   40  O4  UNL     1      -2.759  -4.485 -24.596  1.00  0.00    -0.591 OA
HETATM   41  O5  UNL     1      -0.419  -5.028 -23.678  1.00  0.00    -0.591 OA
ENDBRANCH  36  38
ENDBRANCH   1  28
TORSDOF 7
ENDMDL
MODEL 3
REMARK VINA RESULT: -7.897787788      0.630      1.461
REMARK  7 active torsions:
REMARK  status: ('A' for Active; 'I' for Inactive)
REMARK    1  A    between atoms: N1_1  and  S1_4 
REMARK    2  A    between atoms: S1_4  and  C1_7 
REMARK    3  A    between atoms: C4_10  and  N2_11 
REMARK    4  A    between atoms: C5_13  and  C6_14 
REMARK    5  A    between atoms: C6_14  and  C7_15 
REMARK    6  A    between atoms: C6_14  and  C14_26 
REMARK    7  A    between atoms: C19_33  and  S2_34 
ROOT
HETATM    1  C6  UNL     1      -3.170   1.228 -26.889  1.00  0.00     0.092 C 
ENDROOT
BRANCH   1   2
HETATM    2  C5  UNL     1      -4.436   1.858 -26.388  1.00  0.00     0.075 C 
HETATM    3  N2  UNL     1      -4.986   1.505 -25.291  1.00  0.00    -0.369 N 
ATOM      4  H2  UNL     1      -4.524   0.766 -24.761  1.00  0.00     0.165 HD
BRANCH   3   5
HETATM    5  C4  UNL     1      -6.159   2.034 -24.750  1.00  0.00     0.031 A 
HETATM    6  C3  UNL     1      -6.532   3.319 -25.066  1.00  0.00     0.031 A 
HETATM    7  C2  UNL     1      -7.696   3.888 -24.548  1.00  0.00     0.027 A 
HETATM    8  C1  UNL     1      -8.513   3.174 -23.698  1.00  0.00     0.079 A 
HETATM    9  C23 UNL     1      -8.130   1.882 -23.384  1.00  0.00     0.027 A 
HETATM   10  C22 UNL     1      -6.979   1.321 -23.898  1.00  0.00     0.031 A 
BRANCH   8  11
HETATM   11  S1  UNL     1      -9.965   3.892 -23.055  1.00  0.00     0.256 S 
HETATM   12  O1  UNL     1     -11.082   2.880 -22.937  1.00  0.00    -0.201 OA
HETATM   13  O2  UNL     1     -10.476   5.025 -23.893  1.00  0.00    -0.201 OA
BRANCH  11  14
HETATM   14  N1  UNL     1      -9.698   4.512 -21.453  1.00  0.00    -0.324 N 
ATOM     15  H12 UNL     1      -9.701   5.495 -21.181  1.00  0.00     0.169 HD
ATOM     16  H11 UNL     1      -9.543   3.700 -20.855  1.00  0.00     0.169 HD
ENDBRANCH  11  14
ENDBRANCH   8  11
ENDBRANCH   3   5
ENDBRANCH   1   2
BRANCH   1  17
HETATM   17  C7  UNL     1      -2.713   2.199 -27.962  1.00  0.00    -0.042 A 
HETATM   18  C8  UNL     1      -3.491   3.257 -28.363  1.00  0.00     0.010 A 
HETATM   19  C9  UNL     1      -3.033   4.117 -29.347  1.00  0.00     0.032 A 
HETATM   20  C10 UNL     1      -1.800   3.948 -29.949  1.00  0.00     0.060 A 
HETATM   21  N3  UNL     1      -1.115   4.605 -30.902  1.00  0.00    -0.351 N 
HETATM   22  C12 UNL     1      -1.027   2.898 -29.552  1.00  0.00     0.060 A 
HETATM   23  C11 UNL     1       0.076   3.996 -31.118  1.00  0.00     0.181 A 
ATOM     24  H3  UNL     1      -1.444   5.439 -31.390  1.00  0.00     0.166 HD
HETATM   25  N4  UNL     1       0.107   2.952 -30.279  1.00  0.00    -0.350 N 
ATOM     26  H4  UNL     1       0.880   2.291 -30.201  1.00  0.00     0.166 HD
HETATM   27  C13 UNL     1      -1.484   2.041 -28.572  1.00  0.00     0.040 A 
ENDBRANCH   1  17
BRANCH   1  28
HETATM   28  C14 UNL     1      -2.091   1.202 -25.876  1.00  0.00    -0.017 A 
HETATM   29  C15 UNL     1      -1.507   2.347 -25.338  1.00  0.00     0.097 A 
HETATM   30  N5  UNL     1      -0.599   1.928 -24.454  1.00  0.00    -0.365 N 
HETATM   31  C16 UNL     1      -0.574   0.585 -24.403  1.00  0.00     0.043 A 
ATOM     32  H5  UNL     1      -0.006   2.541 -23.896  1.00  0.00     0.165 HD
HETATM   33  C17 UNL     1       0.182  -0.317 -23.662  1.00  0.00     0.032 A 
HETATM   34  C21 UNL     1      -1.521   0.088 -25.304  1.00  0.00     0.001 A 
HETATM   35  C18 UNL     1       0.019  -1.675 -23.798  1.00  0.00     0.028 A 
HETATM   36  C19 UNL     1      -0.927  -2.151 -24.701  1.00  0.00     0.081 A 
HETATM   37  C20 UNL     1      -1.688  -1.282 -25.445  1.00  0.00     0.040 A 
BRANCH  36  38
HETATM   38  S2  UNL     1      -1.100  -3.884 -24.841  1.00  0.00     0.137 S 
HETATM   39  O3  UNL     1      -2.511  -4.243 -24.496  1.00  0.00    -0.591 OA
HETATM   40  O4  UNL     1      -0.127  -4.567 -23.902  1.00  0.00    -0.591 OA
HETATM   41  O5  UNL     1      -0.696  -4.372 -26.403  1.00  0.00    -0.591 OA
ENDBRANCH  36  38
ENDBRANCH   1  28
TORSDOF 7
ENDMDL
MODEL 4
REMARK VINA RESULT: -7.854998078      0.967      1.572
REMARK  7 active torsions:
REMARK  status: ('A' for Active; 'I' for Inactive)
REMARK    1  A    between atoms: N1_1  and  S1_4 
REMARK    2  A    between atoms: S1_4  and  C1_7 
REMARK    3  A    between atoms: C4_10  and  N2_11 
REMARK    4  A    between atoms: C5_13  and  C6_14 
REMARK    5  A    between atoms: C6_14  and  C7_15 
REMARK    6  A    between atoms: C6_14  and  C14_26 
REMARK    7  A    between atoms: C19_33  and  S2_34 
ROOT
HETATM    1  C6  UNL     1      -3.247   1.150 -26.674  1.00  0.00     0.092 C 
ENDROOT
BRANCH   1   2
HETATM    2  C5  UNL     1      -4.387   1.947 -26.111  1.00  0.00     0.075 C 
HETATM    3  N2  UNL     1      -5.173   1.476 -25.223  1.00  0.00    -0.369 N 
ATOM      4  H2  UNL     1      -4.995   0.523 -24.906  1.00  0.00     0.165 HD
BRANCH   3   5
HETATM    5  C4  UNL     1      -6.255   2.143 -24.644  1.00  0.00     0.031 A 
HETATM    6  C3  UNL     1      -6.510   3.449 -24.990  1.00  0.00     0.031 A 
HETATM    7  C2  UNL     1      -7.580   4.154 -24.437  1.00  0.00     0.027 A 
HETATM    8  C1  UNL     1      -8.421   3.558 -23.521  1.00  0.00     0.079 A 
HETATM    9  C23 UNL     1      -8.157   2.243 -23.179  1.00  0.00     0.027 A 
HETATM   10  C22 UNL     1      -7.099   1.548 -23.727  1.00  0.00     0.031 A 
BRANCH   8  11
HETATM   11  S1  UNL     1      -9.754   4.444 -22.835  1.00  0.00     0.256 S 
HETATM   12  O1  UNL     1      -9.338   5.832 -22.404  1.00  0.00    -0.201 OA
HETATM   13  O2  UNL     1     -10.351   3.765 -21.638  1.00  0.00    -0.201 OA
BRANCH  11  14
HETATM   14  N1  UNL     1     -11.028   4.655 -23.998  1.00  0.00    -0.324 N 
ATOM     15  H12 UNL     1     -10.908   4.817 -24.998  1.00  0.00     0.169 HD
ATOM     16  H11 UNL     1     -11.903   4.585 -23.479  1.00  0.00     0.169 HD
ENDBRANCH  11  14
ENDBRANCH   8  11
ENDBRANCH   3   5
ENDBRANCH   1   2
BRANCH   1  17
HETATM   17  C7  UNL     1      -2.785   2.004 -27.842  1.00  0.00    -0.042 A 
HETATM   18  C8  UNL     1      -3.600   2.943 -28.421  1.00  0.00     0.010 A 
HETATM   19  C9  UNL     1      -3.136   3.699 -29.485  1.00  0.00     0.032 A 
HETATM   20  C10 UNL     1      -1.859   3.539 -29.992  1.00  0.00     0.060 A 
HETATM   21  N3  UNL     1      -1.158   4.114 -30.986  1.00  0.00    -0.351 N 
HETATM   22  C12 UNL     1      -1.049   2.607 -29.417  1.00  0.00     0.060 A 
HETATM   23  C11 UNL     1       0.080   3.567 -31.053  1.00  0.00     0.181 A 
ATOM     24  H3  UNL     1      -1.506   4.852 -31.597  1.00  0.00     0.166 HD
HETATM   25  N4  UNL     1       0.123   2.645 -30.082  1.00  0.00    -0.350 N 
ATOM     26  H4  UNL     1       0.929   2.055 -29.875  1.00  0.00     0.166 HD
HETATM   27  C13 UNL     1      -1.513   1.854 -28.357  1.00  0.00     0.040 A 
ENDBRANCH   1  17
BRANCH   1  28
HETATM   28  C14 UNL     1      -2.091   1.055 -25.755  1.00  0.00    -0.017 A 
HETATM   29  C15 UNL     1      -1.390   2.161 -25.277  1.00  0.00     0.097 A 
HETATM   30  N5  UNL     1      -0.441   1.685 -24.469  1.00  0.00    -0.365 N 
HETATM   31  C16 UNL     1      -0.500   0.344 -24.409  1.00  0.00     0.043 A 
ATOM     32  H5  UNL     1       0.236   2.260 -23.967  1.00  0.00     0.165 HD
HETATM   33  C17 UNL     1       0.256  -0.604 -23.726  1.00  0.00     0.032 A 
HETATM   34  C21 UNL     1      -1.549  -0.092 -25.223  1.00  0.00     0.001 A 
HETATM   35  C18 UNL     1      -0.007  -1.949 -23.837  1.00  0.00     0.028 A 
HETATM   36  C19 UNL     1      -1.055  -2.364 -24.654  1.00  0.00     0.081 A 
HETATM   37  C20 UNL     1      -1.817  -1.448 -25.339  1.00  0.00     0.040 A 
BRANCH  36  38
HETATM   38  S2  UNL     1      -1.351  -4.082 -24.765  1.00  0.00     0.137 S 
HETATM   39  O3  UNL     1      -0.903  -4.548 -26.114  1.00  0.00    -0.591 OA
HETATM   40  O4  UNL     1      -2.827  -4.355 -24.565  1.00  0.00    -0.591 OA
HETATM   41  O5  UNL     1      -0.535  -4.882 -23.526  1.00  0.00    -0.591 OA
ENDBRANCH  36  38
ENDBRANCH   1  28
TORSDOF 7
ENDMDL
MODEL 5
REMARK VINA RESULT: -7.614622574      4.049      8.518
REMARK  7 active torsions:
REMARK  status: ('A' for Active; 'I' for Inactive)
REMARK    1  A    between atoms: N1_1  and  S1_4 
REMARK    2  A    between atoms: S1_4  and  C1_7 
REMARK    3  A    between atoms: C4_10  and  N2_11 
REMARK    4  A    between atoms: C5_13  and  C6_14 
REMARK    5  A    between atoms: C6_14  and  C7_15 
REMARK    6  A    between atoms: C6_14  and  C14_26 
REMARK    7  A    between atoms: C19_33  and  S2_34 
ROOT
HETATM    1  C6  UNL     1      -4.788   1.953 -26.422  1.00  0.00     0.092 C 
ENDROOT
BRANCH   1   2
HETATM    2  C5  UNL     1      -4.167   0.771 -25.736  1.00  0.00     0.075 C 
HETATM    3  N2  UNL     1      -3.024   0.313 -26.070  1.00  0.00    -0.369 N 
ATOM      4  H2  UNL     1      -2.541   0.788 -26.832  1.00  0.00     0.165 HD
BRANCH   3   5
HETATM    5  C4  UNL     1      -2.371  -0.776 -25.490  1.00  0.00     0.031 A 
HETATM    6  C3  UNL     1      -3.057  -1.592 -24.620  1.00  0.00     0.031 A 
HETATM    7  C2  UNL     1      -2.444  -2.692 -24.018  1.00  0.00     0.027 A 
HETATM    8  C1  UNL     1      -1.126  -2.998 -24.279  1.00  0.00     0.079 A 
HETATM    9  C23 UNL     1      -0.444  -2.172 -25.155  1.00  0.00     0.027 A 
HETATM   10  C22 UNL     1      -1.051  -1.085 -25.750  1.00  0.00     0.031 A 
BRANCH   8  11
HETATM   11  S1  UNL     1      -0.369  -4.372 -23.523  1.00  0.00     0.256 S 
HETATM   12  O1  UNL     1      -0.662  -4.425 -22.040  1.00  0.00    -0.201 OA
HETATM   13  O2  UNL     1       1.122  -4.379 -23.684  1.00  0.00    -0.201 OA
BRANCH  11  14
HETATM   14  N1  UNL     1      -0.968  -5.861 -24.190  1.00  0.00    -0.324 N 
ATOM     15  H12 UNL     1      -0.469  -6.750 -24.222  1.00  0.00     0.169 HD
ATOM     16  H11 UNL     1      -1.907  -5.661 -24.536  1.00  0.00     0.169 HD
ENDBRANCH  11  14
ENDBRANCH   8  11
ENDBRANCH   3   5
ENDBRANCH   1   2
BRANCH   1  17
HETATM   17  C7  UNL     1      -5.842   2.404 -25.425  1.00  0.00    -0.042 A 
HETATM   18  C8  UNL     1      -6.307   3.695 -25.397  1.00  0.00     0.010 A 
HETATM   19  C9  UNL     1      -7.269   4.061 -24.470  1.00  0.00     0.032 A 
HETATM   20  C10 UNL     1      -7.786   3.159 -23.558  1.00  0.00     0.060 A 
HETATM   21  N3  UNL     1      -8.699   3.229 -22.573  1.00  0.00    -0.351 N 
HETATM   22  C12 UNL     1      -7.323   1.878 -23.586  1.00  0.00     0.060 A 
HETATM   23  C11 UNL     1      -8.827   2.020 -21.975  1.00  0.00     0.181 A 
ATOM     24  H3  UNL     1      -9.218   4.068 -22.314  1.00  0.00     0.166 HD
HETATM   25  N4  UNL     1      -7.973   1.208 -22.613  1.00  0.00    -0.350 N 
ATOM     26  H4  UNL     1      -7.835   0.221 -22.394  1.00  0.00     0.166 HD
HETATM   27  C13 UNL     1      -6.365   1.514 -24.510  1.00  0.00     0.040 A 
ENDBRANCH   1  17
BRANCH   1  28
HETATM   28  C14 UNL     1      -3.858   3.093 -26.576  1.00  0.00    -0.017 A 
HETATM   29  C15 UNL     1      -3.299   3.786 -25.504  1.00  0.00     0.097 A 
HETATM   30  N5  UNL     1      -2.507   4.722 -26.032  1.00  0.00    -0.365 N 
HETATM   31  C16 UNL     1      -2.533   4.661 -27.374  1.00  0.00     0.043 A 
ATOM     32  H5  UNL     1      -1.958   5.390 -25.491  1.00  0.00     0.165 HD
HETATM   33  C17 UNL     1      -1.899   5.404 -28.365  1.00  0.00     0.032 A 
HETATM   34  C21 UNL     1      -3.391   3.625 -27.756  1.00  0.00     0.001 A 
HETATM   35  C18 UNL     1      -2.099   5.143 -29.699  1.00  0.00     0.028 A 
HETATM   36  C19 UNL     1      -2.958   4.108 -30.060  1.00  0.00     0.081 A 
HETATM   37  C20 UNL     1      -3.597   3.359 -29.102  1.00  0.00     0.040 A 
BRANCH  36  38
HETATM   38  S2  UNL     1      -3.183   3.813 -31.767  1.00  0.00     0.137 S 
HETATM   39  O3  UNL     1      -2.744   5.032 -32.514  1.00  0.00    -0.591 OA
HETATM   40  O4  UNL     1      -4.641   3.510 -32.041  1.00  0.00    -0.591 OA
HETATM   41  O5  UNL     1      -2.306   2.449 -32.229  1.00  0.00    -0.591 OA
ENDBRANCH  36  38
ENDBRANCH   1  28
TORSDOF 7
ENDMDL
