MODEL 1
REMARK VINA RESULT: -6.343633537      0.000      0.000
REMARK  9 active torsions:
REMARK  status: ('A' for Active; 'I' for Inactive)
REMARK    1  A    between atoms: O1_2  and  C2_3 
REMARK    2  A    between atoms: C2_3  and  C3_4 
REMARK    3  A    between atoms: C3_4  and  C4_5 
REMARK    4  A    between atoms: C4_5  and  N1_6 
REMARK    5  A    between atoms: N1_6  and  C5_9 
REMARK    6  A    between atoms: C5_9  and  C7_11 
REMARK    7  A    between atoms: C8_12  and  O2_13 
REMARK    8  A    between atoms: C13_20  and  O4_21 
REMARK    9  A    between atoms: C19_28  and  O5_29 
ROOT
HETATM    1  C7  UNL     1      -9.317   5.900 -22.949  1.00  0.00     0.064 C 
HETATM    2  C8  UNL     1      -8.135   6.238 -22.080  1.00  0.00     0.198 C 
HETATM    3  C9  UNL     1      -7.404   7.370 -22.711  1.00  0.00     0.178 C 
HETATM    4  O3  UNL     1      -6.643   7.993 -21.946  1.00  0.00    -0.290 OA
HETATM    5  C10 UNL     1      -7.482   7.819 -24.101  1.00  0.00     0.058 C 
HETATM    6  C11 UNL     1      -8.595   7.927 -24.845  1.00  0.00    -0.045 C 
HETATM    7  C12 UNL     1      -8.268   8.409 -26.207  1.00  0.00     0.046 C 
HETATM    8  C13 UNL     1      -9.998   7.651 -24.549  1.00  0.00     0.093 C 
HETATM    9  C14 UNL     1     -10.920   8.709 -24.997  1.00  0.00     0.034 C 
HETATM   10  C15 UNL     1     -10.519  10.068 -24.553  1.00  0.00     0.009 C 
HETATM   11  C16 UNL     1     -11.480  11.158 -24.954  1.00  0.00     0.006 C 
HETATM   12  C17 UNL     1     -12.674  10.653 -25.736  1.00  0.00    -0.003 C 
HETATM   13  C18 UNL     1     -13.542  11.824 -26.005  1.00  0.00     0.037 C 
HETATM   14  C19 UNL     1     -14.914  11.537 -26.479  1.00  0.00     0.118 C 
HETATM   15  C20 UNL     1     -15.075  10.044 -26.644  1.00  0.00     0.032 C 
HETATM   16  C21 UNL     1     -14.700   9.288 -25.398  1.00  0.00     0.013 C 
HETATM   17  C22 UNL     1     -13.307   9.555 -24.907  1.00  0.00    -0.033 C 
HETATM   18  C23 UNL     1     -13.509  10.202 -23.528  1.00  0.00     0.016 C 
HETATM   19  C24 UNL     1     -12.382   8.380 -24.891  1.00  0.00    -0.030 C 
HETATM   20  C25 UNL     1     -12.708   7.512 -26.098  1.00  0.00     0.016 C 
HETATM   21  C26 UNL     1     -12.713   7.544 -23.676  1.00  0.00     0.011 C 
HETATM   22  C27 UNL     1     -11.702   6.477 -23.370  1.00  0.00     0.014 C 
HETATM   23  C28 UNL     1     -10.275   7.035 -23.200  1.00  0.00    -0.000 C 
HETATM   24  C29 UNL     1     -10.345   7.944 -22.042  1.00  0.00     0.019 C 
ENDROOT
BRANCH   1  25
HETATM   25  C5  UNL     1      -9.896   4.562 -22.695  1.00  0.00     0.189 C 
HETATM   26  C6  UNL     1     -10.861   4.357 -21.609  1.00  0.00     0.040 C 
BRANCH  25  27
HETATM   27  N1  UNL     1      -8.774   3.643 -22.377  1.00  0.00    -0.071 N 
ATOM     28  H12 UNL     1      -8.530   3.655 -21.386  1.00  0.00     0.277 HD
ATOM     29  H11 UNL     1      -7.883   3.975 -22.747  1.00  0.00     0.277 HD
BRANCH  27  30
HETATM   30  C4  UNL     1      -9.110   2.302 -22.852  1.00  0.00     0.235 C 
BRANCH  30  31
HETATM   31  C3  UNL     1      -7.836   1.648 -23.314  1.00  0.00     0.054 C 
BRANCH  31  32
HETATM   32  C2  UNL     1      -6.979   2.544 -24.140  1.00  0.00     0.168 C 
BRANCH  32  33
HETATM   33  O1  UNL     1      -7.680   3.195 -25.147  1.00  0.00    -0.396 OA
HETATM   34  C1  UNL     1      -7.019   4.390 -25.502  1.00  0.00     0.201 C 
ENDBRANCH  32  33
ENDBRANCH  31  32
ENDBRANCH  30  31
ENDBRANCH  27  30
ENDBRANCH  25  27
ENDBRANCH   1  25
BRANCH   2  35
HETATM   35  O2  UNL     1      -8.336   6.393 -20.757  1.00  0.00    -0.387 OA
ATOM     36  H2  UNL     1      -8.375   7.275 -20.406  1.00  0.00     0.210 HD
ENDBRANCH   2  35
BRANCH   8  37
HETATM   37  O4  UNL     1     -10.288   6.521 -25.395  1.00  0.00    -0.384 OA
ATOM     38  H4  UNL     1     -11.233   6.564 -25.488  1.00  0.00     0.211 HD
ENDBRANCH   8  37
BRANCH  14  39
HETATM   39  O5  UNL     1     -15.925  12.064 -25.666  1.00  0.00    -0.396 OA
ATOM     40  H5  UNL     1     -16.635  12.476 -26.144  1.00  0.00     0.210 HD
ENDBRANCH  14  39
TORSDOF 9
ENDMDL
MODEL 2
REMARK VINA RESULT: -5.955577165      9.587     15.981
REMARK  9 active torsions:
REMARK  status: ('A' for Active; 'I' for Inactive)
REMARK    1  A    between atoms: O1_2  and  C2_3 
REMARK    2  A    between atoms: C2_3  and  C3_4 
REMARK    3  A    between atoms: C3_4  and  C4_5 
REMARK    4  A    between atoms: C4_5  and  N1_6 
REMARK    5  A    between atoms: N1_6  and  C5_9 
REMARK    6  A    between atoms: C5_9  and  C7_11 
REMARK    7  A    between atoms: C8_12  and  O2_13 
REMARK    8  A    between atoms: C13_20  and  O4_21 
REMARK    9  A    between atoms: C19_28  and  O5_29 
ROOT
HETATM    1  C7  UNL     1      -1.591  -0.763 -25.652  1.00  0.00     0.064 C 
HETATM    2  C8  UNL     1      -2.555  -1.295 -24.623  1.00  0.00     0.198 C 
HETATM    3  C9  UNL     1      -2.333  -2.761 -24.495  1.00  0.00     0.178 C 
HETATM    4  O3  UNL     1      -2.779  -3.268 -23.448  1.00  0.00    -0.290 OA
HETATM    5  C10 UNL     1      -1.665  -3.649 -25.446  1.00  0.00     0.058 C 
HETATM    6  C11 UNL     1      -0.538  -3.388 -26.128  1.00  0.00    -0.045 C 
HETATM    7  C12 UNL     1      -0.176  -4.531 -26.997  1.00  0.00     0.046 C 
HETATM    8  C13 UNL     1       0.337  -2.219 -26.157  1.00  0.00     0.093 C 
HETATM    9  C14 UNL     1       1.771  -2.545 -26.074  1.00  0.00     0.034 C 
HETATM   10  C15 UNL     1       2.103  -3.455 -24.948  1.00  0.00     0.009 C 
HETATM   11  C16 UNL     1       3.574  -3.757 -24.811  1.00  0.00     0.006 C 
HETATM   12  C17 UNL     1       4.431  -3.070 -25.854  1.00  0.00    -0.003 C 
HETATM   13  C18 UNL     1       5.840  -3.418 -25.554  1.00  0.00     0.037 C 
HETATM   14  C19 UNL     1       6.881  -2.619 -26.240  1.00  0.00     0.118 C 
HETATM   15  C20 UNL     1       6.212  -1.640 -27.175  1.00  0.00     0.032 C 
HETATM   16  C21 UNL     1       5.174  -0.802 -26.478  1.00  0.00     0.013 C 
HETATM   17  C22 UNL     1       4.101  -1.593 -25.787  1.00  0.00    -0.033 C 
HETATM   18  C23 UNL     1       4.270  -1.242 -24.300  1.00  0.00     0.016 C 
HETATM   19  C24 UNL     1       2.710  -1.394 -26.298  1.00  0.00    -0.030 C 
HETATM   20  C25 UNL     1       2.788  -1.201 -27.806  1.00  0.00     0.016 C 
HETATM   21  C26 UNL     1       2.190  -0.090 -25.738  1.00  0.00     0.011 C 
HETATM   22  C27 UNL     1       0.718   0.122 -25.939  1.00  0.00     0.014 C 
HETATM   23  C28 UNL     1      -0.136  -1.026 -25.363  1.00  0.00    -0.000 C 
HETATM   24  C29 UNL     1       0.132  -1.027 -23.915  1.00  0.00     0.019 C 
ENDROOT
BRANCH   1  25
HETATM   25  C5  UNL     1      -1.951   0.566 -26.192  1.00  0.00     0.189 C 
HETATM   26  C6  UNL     1      -1.561   1.792 -25.486  1.00  0.00     0.040 C 
BRANCH  25  27
HETATM   27  N1  UNL     1      -3.433   0.632 -26.265  1.00  0.00    -0.071 N 
ATOM     28  H12 UNL     1      -3.884   0.035 -25.571  1.00  0.00     0.277 HD
ATOM     29  H11 UNL     1      -3.802   0.181 -27.103  1.00  0.00     0.277 HD
BRANCH  27  30
HETATM   30  C4  UNL     1      -3.852   2.029 -26.154  1.00  0.00     0.235 C 
BRANCH  30  31
HETATM   31  C3  UNL     1      -5.256   2.044 -25.614  1.00  0.00     0.054 C 
BRANCH  31  32
HETATM   32  C2  UNL     1      -5.624   0.792 -24.895  1.00  0.00     0.168 C 
BRANCH  32  33
HETATM   33  O1  UNL     1      -6.610   0.985 -23.933  1.00  0.00    -0.396 OA
HETATM   34  C1  UNL     1      -7.060   2.322 -23.963  1.00  0.00     0.201 C 
ENDBRANCH  32  33
ENDBRANCH  31  32
ENDBRANCH  30  31
ENDBRANCH  27  30
ENDBRANCH  25  27
ENDBRANCH   1  25
BRANCH   2  35
HETATM   35  O2  UNL     1      -2.648  -0.656 -23.442  1.00  0.00    -0.387 OA
ATOM     36  H2  UNL     1      -2.489  -1.151 -22.647  1.00  0.00     0.210 HD
ENDBRANCH   2  35
BRANCH   8  37
HETATM   37  O4  UNL     1       0.147  -1.711 -27.493  1.00  0.00    -0.384 OA
ATOM     38  H4  UNL     1       0.967  -1.263 -27.666  1.00  0.00     0.211 HD
ENDBRANCH   8  37
BRANCH  14  39
HETATM   39  O5  UNL     1       7.764  -1.963 -25.374  1.00  0.00    -0.396 OA
ATOM     40  H5  UNL     1       8.551  -1.636 -25.794  1.00  0.00     0.210 HD
ENDBRANCH  14  39
TORSDOF 9
ENDMDL
MODEL 3
REMARK VINA RESULT: -5.948457914      2.595      7.138
REMARK  9 active torsions:
REMARK  status: ('A' for Active; 'I' for Inactive)
REMARK    1  A    between atoms: O1_2  and  C2_3 
REMARK    2  A    between atoms: C2_3  and  C3_4 
REMARK    3  A    between atoms: C3_4  and  C4_5 
REMARK    4  A    between atoms: C4_5  and  N1_6 
REMARK    5  A    between atoms: N1_6  and  C5_9 
REMARK    6  A    between atoms: C5_9  and  C7_11 
REMARK    7  A    between atoms: C8_12  and  O2_13 
REMARK    8  A    between atoms: C13_20  and  O4_21 
REMARK    9  A    between atoms: C19_28  and  O5_29 
ROOT
HETATM    1  C7  UNL     1     -10.121  10.169 -24.365  1.00  0.00     0.064 C 
HETATM    2  C8  UNL     1     -11.314  11.000 -23.973  1.00  0.00     0.198 C 
HETATM    3  C9  UNL     1     -12.543  10.229 -24.302  1.00  0.00     0.178 C 
HETATM    4  O3  UNL     1     -13.573  10.609 -23.711  1.00  0.00    -0.290 OA
HETATM    5  C10 UNL     1     -12.670   9.100 -25.223  1.00  0.00     0.058 C 
HETATM    6  C11 UNL     1     -11.812   8.075 -25.354  1.00  0.00    -0.045 C 
HETATM    7  C12 UNL     1     -12.280   7.132 -26.396  1.00  0.00     0.046 C 
HETATM    8  C13 UNL     1     -10.556   7.760 -24.678  1.00  0.00     0.093 C 
HETATM    9  C14 UNL     1     -10.450   6.357 -24.242  1.00  0.00     0.034 C 
HETATM   10  C15 UNL     1     -11.626   5.890 -23.466  1.00  0.00     0.009 C 
HETATM   11  C16 UNL     1     -11.512   4.473 -22.963  1.00  0.00     0.006 C 
HETATM   12  C17 UNL     1     -10.212   3.798 -23.350  1.00  0.00    -0.003 C 
HETATM   13  C18 UNL     1     -10.229   2.447 -22.741  1.00  0.00     0.037 C 
HETATM   14  C19 UNL     1      -8.941   1.716 -22.714  1.00  0.00     0.118 C 
HETATM   15  C20 UNL     1      -7.890   2.547 -23.411  1.00  0.00     0.032 C 
HETATM   16  C21 UNL     1      -7.801   3.941 -22.852  1.00  0.00     0.013 C 
HETATM   17  C22 UNL     1      -9.093   4.705 -22.882  1.00  0.00    -0.033 C 
HETATM   18  C23 UNL     1      -9.416   4.960 -21.401  1.00  0.00     0.016 C 
HETATM   19  C24 UNL     1      -9.103   5.942 -23.722  1.00  0.00    -0.030 C 
HETATM   20  C25 UNL     1      -8.239   5.682 -24.948  1.00  0.00     0.016 C 
HETATM   21  C26 UNL     1      -8.407   7.037 -22.947  1.00  0.00     0.011 C 
HETATM   22  C27 UNL     1      -8.568   8.407 -23.538  1.00  0.00     0.014 C 
HETATM   23  C28 UNL     1     -10.046   8.809 -23.721  1.00  0.00    -0.000 C 
HETATM   24  C29 UNL     1     -10.620   8.826 -22.365  1.00  0.00     0.019 C 
ENDROOT
BRANCH   1  25
HETATM   25  C5  UNL     1      -8.861  10.935 -24.491  1.00  0.00     0.189 C 
HETATM   26  C6  UNL     1      -8.636  12.143 -23.690  1.00  0.00     0.040 C 
BRANCH  25  27
HETATM   27  N1  UNL     1      -8.757  11.395 -25.899  1.00  0.00    -0.071 N 
ATOM     28  H12 UNL     1      -8.684  12.409 -25.973  1.00  0.00     0.277 HD
ATOM     29  H11 UNL     1      -9.631  11.277 -26.412  1.00  0.00     0.277 HD
BRANCH  27  30
HETATM   30  C4  UNL     1      -7.637  10.707 -26.541  1.00  0.00     0.235 C 
BRANCH  30  31
HETATM   31  C3  UNL     1      -7.597  11.143 -27.981  1.00  0.00     0.054 C 
BRANCH  31  32
HETATM   32  C2  UNL     1      -8.715  10.588 -28.795  1.00  0.00     0.168 C 
BRANCH  32  33
HETATM   33  O1  UNL     1      -9.432   9.596 -28.136  1.00  0.00    -0.396 OA
HETATM   34  C1  UNL     1     -10.732   9.499 -28.677  1.00  0.00     0.201 C 
ENDBRANCH  32  33
ENDBRANCH  31  32
ENDBRANCH  30  31
ENDBRANCH  27  30
ENDBRANCH  25  27
ENDBRANCH   1  25
BRANCH   2  35
HETATM   35  O2  UNL     1     -11.333  11.553 -22.745  1.00  0.00    -0.387 OA
ATOM     36  H2  UNL     1     -11.326  12.500 -22.676  1.00  0.00     0.210 HD
ENDBRANCH   2  35
BRANCH   8  37
HETATM   37  O4  UNL     1      -9.583   7.898 -25.732  1.00  0.00    -0.384 OA
ATOM     38  H4  UNL     1      -9.715   7.110 -26.246  1.00  0.00     0.211 HD
ENDBRANCH   8  37
BRANCH  14  39
HETATM   39  O5  UNL     1      -8.519   1.344 -21.432  1.00  0.00    -0.396 OA
ATOM     40  H5  UNL     1      -8.023   0.535 -21.405  1.00  0.00     0.210 HD
ENDBRANCH  14  39
TORSDOF 9
ENDMDL
MODEL 4
REMARK VINA RESULT: -5.807725128     11.890     16.915
REMARK  9 active torsions:
REMARK  status: ('A' for Active; 'I' for Inactive)
REMARK    1  A    between atoms: O1_2  and  C2_3 
REMARK    2  A    between atoms: C2_3  and  C3_4 
REMARK    3  A    between atoms: C3_4  and  C4_5 
REMARK    4  A    between atoms: C4_5  and  N1_6 
REMARK    5  A    between atoms: N1_6  and  C5_9 
REMARK    6  A    between atoms: C5_9  and  C7_11 
REMARK    7  A    between atoms: C8_12  and  O2_13 
REMARK    8  A    between atoms: C13_20  and  O4_21 
REMARK    9  A    between atoms: C19_28  and  O5_29 
ROOT
HETATM    1  C7  UNL     1      -0.153  -1.012 -25.089  1.00  0.00     0.064 C 
HETATM    2  C8  UNL     1       0.037  -0.116 -23.894  1.00  0.00     0.198 C 
HETATM    3  C9  UNL     1       1.207  -0.616 -23.122  1.00  0.00     0.178 C 
HETATM    4  O3  UNL     1       1.709   0.212 -22.337  1.00  0.00    -0.290 OA
HETATM    5  C10 UNL     1       1.816  -1.944 -23.185  1.00  0.00     0.058 C 
HETATM    6  C11 UNL     1       2.051  -2.665 -24.293  1.00  0.00    -0.045 C 
HETATM    7  C12 UNL     1       2.675  -3.964 -23.950  1.00  0.00     0.046 C 
HETATM    8  C13 UNL     1       1.796  -2.395 -25.706  1.00  0.00     0.093 C 
HETATM    9  C14 UNL     1       2.932  -2.712 -26.588  1.00  0.00     0.034 C 
HETATM   10  C15 UNL     1       4.214  -2.117 -26.134  1.00  0.00     0.009 C 
HETATM   11  C16 UNL     1       5.379  -2.384 -27.054  1.00  0.00     0.006 C 
HETATM   12  C17 UNL     1       5.012  -3.212 -28.267  1.00  0.00    -0.003 C 
HETATM   13  C18 UNL     1       6.239  -3.339 -29.091  1.00  0.00     0.037 C 
HETATM   14  C19 UNL     1       6.059  -3.836 -30.474  1.00  0.00     0.118 C 
HETATM   15  C20 UNL     1       4.603  -4.172 -30.691  1.00  0.00     0.032 C 
HETATM   16  C21 UNL     1       3.694  -3.023 -30.343  1.00  0.00     0.013 C 
HETATM   17  C22 UNL     1       3.851  -2.512 -28.941  1.00  0.00    -0.033 C 
HETATM   18  C23 UNL     1       4.340  -1.066 -29.116  1.00  0.00     0.016 C 
HETATM   19  C24 UNL     1       2.648  -2.638 -28.061  1.00  0.00    -0.030 C 
HETATM   20  C25 UNL     1       1.938  -3.935 -28.420  1.00  0.00     0.016 C 
HETATM   21  C26 UNL     1       1.689  -1.525 -28.421  1.00  0.00     0.011 C 
HETATM   22  C27 UNL     1       0.557  -1.351 -27.451  1.00  0.00     0.014 C 
HETATM   23  C28 UNL     1       1.038  -1.124 -26.004  1.00  0.00    -0.000 C 
HETATM   24  C29 UNL     1       1.809   0.131 -26.038  1.00  0.00     0.019 C 
ENDROOT
BRANCH   1  25
HETATM   25  C5  UNL     1      -1.489  -0.911 -25.718  1.00  0.00     0.189 C 
HETATM   26  C6  UNL     1      -2.482   0.046 -25.218  1.00  0.00     0.040 C 
BRANCH  25  27
HETATM   27  N1  UNL     1      -2.146  -2.236 -25.584  1.00  0.00    -0.071 N 
ATOM     28  H12 UNL     1      -1.496  -3.010 -25.728  1.00  0.00     0.277 HD
ATOM     29  H11 UNL     1      -2.780  -2.437 -26.358  1.00  0.00     0.277 HD
BRANCH  27  30
HETATM   30  C4  UNL     1      -2.814  -2.305 -24.284  1.00  0.00     0.235 C 
BRANCH  30  31
HETATM   31  C3  UNL     1      -2.540  -3.664 -23.700  1.00  0.00     0.054 C 
BRANCH  31  32
HETATM   32  C2  UNL     1      -2.470  -4.743 -24.725  1.00  0.00     0.168 C 
BRANCH  32  33
HETATM   33  O1  UNL     1      -1.190  -5.264 -24.884  1.00  0.00    -0.396 OA
HETATM   34  C1  UNL     1      -0.612  -5.519 -23.622  1.00  0.00     0.201 C 
ENDBRANCH  32  33
ENDBRANCH  31  32
ENDBRANCH  30  31
ENDBRANCH  27  30
ENDBRANCH  25  27
ENDBRANCH   1  25
BRANCH   2  35
HETATM   35  O2  UNL     1       0.046   1.216 -24.087  1.00  0.00    -0.387 OA
ATOM     36  H2  UNL     1      -0.787   1.670 -24.152  1.00  0.00     0.210 HD
ENDBRANCH   2  35
BRANCH   8  37
HETATM   37  O4  UNL     1       0.783  -3.365 -26.038  1.00  0.00    -0.384 OA
ATOM     38  H4  UNL     1       1.231  -3.935 -26.652  1.00  0.00     0.211 HD
ENDBRANCH   8  37
BRANCH  14  39
HETATM   39  O5  UNL     1       6.526  -2.962 -31.463  1.00  0.00    -0.396 OA
ATOM     40  H5  UNL     1       6.493  -2.045 -31.220  1.00  0.00     0.210 HD
ENDBRANCH  14  39
TORSDOF 9
ENDMDL
MODEL 5
REMARK VINA RESULT: -5.800044859      9.832     16.256
REMARK  9 active torsions:
REMARK  status: ('A' for Active; 'I' for Inactive)
REMARK    1  A    between atoms: O1_2  and  C2_3 
REMARK    2  A    between atoms: C2_3  and  C3_4 
REMARK    3  A    between atoms: C3_4  and  C4_5 
REMARK    4  A    between atoms: C4_5  and  N1_6 
REMARK    5  A    between atoms: N1_6  and  C5_9 
REMARK    6  A    between atoms: C5_9  and  C7_11 
REMARK    7  A    between atoms: C8_12  and  O2_13 
REMARK    8  A    between atoms: C13_20  and  O4_21 
REMARK    9  A    between atoms: C19_28  and  O5_29 
ROOT
HETATM    1  C7  UNL     1      -1.060  -0.455 -25.588  1.00  0.00     0.064 C 
HETATM    2  C8  UNL     1      -2.252  -1.022 -24.863  1.00  0.00     0.198 C 
HETATM    3  C9  UNL     1      -2.140  -2.506 -24.876  1.00  0.00     0.178 C 
HETATM    4  O3  UNL     1      -2.830  -3.091 -24.019  1.00  0.00    -0.290 OA
HETATM    5  C10 UNL     1      -1.325  -3.331 -25.768  1.00  0.00     0.058 C 
HETATM    6  C11 UNL     1      -0.064  -3.083 -26.157  1.00  0.00    -0.045 C 
HETATM    7  C12 UNL     1       0.420  -4.146 -27.067  1.00  0.00     0.046 C 
HETATM    8  C13 UNL     1       0.855  -1.990 -25.853  1.00  0.00     0.093 C 
HETATM    9  C14 UNL     1       2.216  -2.434 -25.509  1.00  0.00     0.034 C 
HETATM   10  C15 UNL     1       2.246  -3.487 -24.463  1.00  0.00     0.009 C 
HETATM   11  C16 UNL     1       3.634  -3.915 -24.056  1.00  0.00     0.006 C 
HETATM   12  C17 UNL     1       4.732  -3.184 -24.799  1.00  0.00    -0.003 C 
HETATM   13  C18 UNL     1       6.021  -3.673 -24.253  1.00  0.00     0.037 C 
HETATM   14  C19 UNL     1       7.227  -2.885 -24.596  1.00  0.00     0.118 C 
HETATM   15  C20 UNL     1       6.832  -1.759 -25.521  1.00  0.00     0.032 C 
HETATM   16  C21 UNL     1       5.711  -0.926 -24.960  1.00  0.00     0.013 C 
HETATM   17  C22 UNL     1       4.473  -1.704 -24.617  1.00  0.00    -0.033 C 
HETATM   18  C23 UNL     1       4.329  -1.536 -23.096  1.00  0.00     0.016 C 
HETATM   19  C24 UNL     1       3.240  -1.342 -25.382  1.00  0.00    -0.030 C 
HETATM   20  C25 UNL     1       3.658  -0.988 -26.802  1.00  0.00     0.016 C 
HETATM   21  C26 UNL     1       2.677  -0.072 -24.785  1.00  0.00     0.011 C 
HETATM   22  C27 UNL     1       1.298   0.275 -25.265  1.00  0.00     0.014 C 
HETATM   23  C28 UNL     1       0.281  -0.860 -25.033  1.00  0.00    -0.000 C 
HETATM   24  C29 UNL     1       0.224  -1.044 -23.572  1.00  0.00     0.019 C 
ENDROOT
BRANCH   1  25
HETATM   25  C5  UNL     1      -1.223   0.951 -26.020  1.00  0.00     0.189 C 
HETATM   26  C6  UNL     1      -0.932   2.056 -25.100  1.00  0.00     0.040 C 
BRANCH  25  27
HETATM   27  N1  UNL     1      -2.648   1.140 -26.393  1.00  0.00    -0.071 N 
ATOM     28  H12 UNL     1      -3.267   0.490 -25.909  1.00  0.00     0.277 HD
ATOM     29  H11 UNL     1      -2.843   0.839 -27.348  1.00  0.00     0.277 HD
BRANCH  27  30
HETATM   30  C4  UNL     1      -3.017   2.537 -26.163  1.00  0.00     0.235 C 
BRANCH  30  31
HETATM   31  C3  UNL     1      -4.496   2.580 -25.890  1.00  0.00     0.054 C 
BRANCH  31  32
HETATM   32  C2  UNL     1      -5.134   1.234 -25.887  1.00  0.00     0.168 C 
BRANCH  32  33
HETATM   33  O1  UNL     1      -5.411   0.764 -24.608  1.00  0.00    -0.396 OA
HETATM   34  C1  UNL     1      -6.614   1.328 -24.135  1.00  0.00     0.201 C 
ENDBRANCH  32  33
ENDBRANCH  31  32
ENDBRANCH  30  31
ENDBRANCH  27  30
ENDBRANCH  25  27
ENDBRANCH   1  25
BRANCH   2  35
HETATM   35  O2  UNL     1      -2.569  -0.514 -23.657  1.00  0.00    -0.387 OA
ATOM     36  H2  UNL     1      -2.865  -1.109 -22.979  1.00  0.00     0.210 HD
ENDBRANCH   2  35
BRANCH   8  37
HETATM   37  O4  UNL     1       0.990  -1.323 -27.123  1.00  0.00    -0.384 OA
ATOM     38  H4  UNL     1       1.514  -0.561 -26.906  1.00  0.00     0.211 HD
ENDBRANCH   8  37
BRANCH  14  39
HETATM   39  O5  UNL     1       7.931  -2.401 -23.487  1.00  0.00    -0.396 OA
ATOM     40  H5  UNL     1       7.761  -2.872 -22.681  1.00  0.00     0.210 HD
ENDBRANCH  14  39
TORSDOF 9
ENDMDL
