MODEL 1
REMARK VINA RESULT: -6.655002566      0.000      0.000
REMARK  9 active torsions:
REMARK  status: ('A' for Active; 'I' for Inactive)
REMARK    1  A    between atoms: C2_2  and  O1_3 
REMARK    2  A    between atoms: O1_3  and  C3_4 
REMARK    3  A    between atoms: C3_4  and  C4_5 
REMARK    4  A    between atoms: N1_8  and  C7_9 
REMARK    5  A    between atoms: C9_15  and  N4_16 
REMARK    6  A    between atoms: C10_18  and  C11_19 
REMARK    7  A    between atoms: C12_20  and  C13_21 
REMARK    8  A    between atoms: C17_29  and  C18_30 
REMARK    9  A    between atoms: C18_30  and  C21_33 
ROOT
HETATM    1  C7  UNL     1      20.287  -8.192  -3.151  1.00  0.00     0.122 A 
HETATM    2  N2  UNL     1      19.734  -7.593  -2.009  1.00  0.00    -0.338 N 
ATOM      3  H2  UNL     1      19.542  -6.592  -2.030  1.00  0.00     0.168 HD
HETATM    4  C8  UNL     1      19.451  -8.261  -0.912  1.00  0.00     0.183 A 
HETATM    5  N3  UNL     1      19.714  -9.562  -0.929  1.00  0.00    -0.338 N 
ATOM      6  H3  UNL     1      19.506 -10.103  -0.090  1.00  0.00     0.168 HD
HETATM    7  C9  UNL     1      20.236 -10.208  -1.980  1.00  0.00     0.117 A 
HETATM    8  C17 UNL     1      20.548  -9.531  -3.160  1.00  0.00     0.047 A 
ENDROOT
BRANCH   1   9
HETATM    9  N1  UNL     1      20.662  -7.176  -4.039  1.00  0.00    -0.323 N 
HETATM   10  C6  UNL     1      22.049  -6.849  -4.035  1.00  0.00     0.103 C 
HETATM   11  C4  UNL     1      22.633  -5.920  -5.001  1.00  0.00     0.083 C 
HETATM   12  C5  UNL     1      23.383  -6.609  -6.150  1.00  0.00     0.046 C 
HETATM   13  N7  UNL     1      21.857  -4.888  -5.575  1.00  0.00    -0.345 N 
HETATM   14  C24 UNL     1      20.645  -4.316  -5.186  1.00  0.00     0.223 C 
ATOM     15  H7  UNL     1      22.254  -4.489  -6.425  1.00  0.00     0.163 HD
HETATM   16  C23 UNL     1      19.544  -5.026  -4.492  1.00  0.00     0.148 C 
HETATM   17  O2  UNL     1      20.507  -3.099  -5.462  1.00  0.00    -0.273 OA
HETATM   18  C22 UNL     1      19.618  -6.515  -4.701  1.00  0.00     0.080 C 
BRANCH  11  19
HETATM   19  C3  UNL     1      23.791  -5.168  -4.270  1.00  0.00     0.203 C 
BRANCH  19  20
HETATM   20  O1  UNL     1      24.064  -5.794  -3.057  1.00  0.00    -0.389 OA
BRANCH  20  21
HETATM   21  C2  UNL     1      25.420  -5.667  -2.815  1.00  0.00     0.163 C 
HETATM   22  C1  UNL     1      26.068  -4.546  -3.605  1.00  0.00     0.033 C 
ENDBRANCH  20  21
ENDBRANCH  19  20
ENDBRANCH  11  19
ENDBRANCH   1   9
BRANCH   8  23
HETATM   23  C18 UNL     1      20.980 -10.237  -4.322  1.00  0.00     0.085 C 
HETATM   24  C19 UNL     1      20.499  -9.418  -5.587  1.00  0.00     0.029 C 
HETATM   25  C20 UNL     1      20.568 -11.598  -4.661  1.00  0.00     0.029 C 
BRANCH  23  26
HETATM   26  C21 UNL     1      22.521 -10.223  -4.576  1.00  0.00     0.399 C 
HETATM   27  F1  UNL     1      22.889 -11.603  -4.755  1.00  0.00    -0.170 F 
HETATM   28  F2  UNL     1      22.799  -9.714  -5.839  1.00  0.00    -0.170 F 
HETATM   29  F3  UNL     1      23.335  -9.776  -3.667  1.00  0.00    -0.170 F 
ENDBRANCH  23  26
ENDBRANCH   8  23
BRANCH   7  30
HETATM   30  N4  UNL     1      20.434 -11.448  -1.743  1.00  0.00    -0.351 N 
HETATM   31  C10 UNL     1      19.895 -12.400  -0.928  1.00  0.00     0.105 C 
ATOM     32  H4  UNL     1      21.194 -11.824  -2.311  1.00  0.00     0.166 HD
BRANCH  31  33
HETATM   33  C11 UNL     1      18.639 -13.079  -1.054  1.00  0.00     0.027 A 
HETATM   34  C12 UNL     1      17.584 -12.790  -0.149  1.00  0.00     0.039 A 
HETATM   35  N5  UNL     1      16.560 -13.554  -0.503  1.00  0.00    -0.304 N 
HETATM   36  N6  UNL     1      16.845 -14.301  -1.537  1.00  0.00    -0.304 N 
ATOM     37  H5  UNL     1      15.658 -13.557  -0.026  1.00  0.00     0.186 HD
HETATM   38  C15 UNL     1      18.145 -14.014  -1.892  1.00  0.00     0.035 A 
ATOM     39  H6  UNL     1      16.223 -14.969  -1.993  1.00  0.00     0.186 HD
HETATM   40  C16 UNL     1      18.726 -14.747  -3.058  1.00  0.00     0.070 C 
BRANCH  34  41
HETATM   41  C13 UNL     1      17.620 -11.816   0.989  1.00  0.00     0.055 C 
HETATM   42  C14 UNL     1      16.859 -12.313   2.198  1.00  0.00     0.011 C 
ENDBRANCH  34  41
ENDBRANCH  31  33
ENDBRANCH   7  30
TORSDOF 9
ENDMDL
MODEL 2
REMARK VINA RESULT: -6.578339606      5.621      8.456
REMARK  9 active torsions:
REMARK  status: ('A' for Active; 'I' for Inactive)
REMARK    1  A    between atoms: C2_2  and  O1_3 
REMARK    2  A    between atoms: O1_3  and  C3_4 
REMARK    3  A    between atoms: C3_4  and  C4_5 
REMARK    4  A    between atoms: N1_8  and  C7_9 
REMARK    5  A    between atoms: C9_15  and  N4_16 
REMARK    6  A    between atoms: C10_18  and  C11_19 
REMARK    7  A    between atoms: C12_20  and  C13_21 
REMARK    8  A    between atoms: C17_29  and  C18_30 
REMARK    9  A    between atoms: C18_30  and  C21_33 
ROOT
HETATM    1  C7  UNL     1      15.348  -2.641  -5.463  1.00  0.00     0.122 A 
HETATM    2  N2  UNL     1      15.225  -2.001  -4.221  1.00  0.00    -0.338 N 
ATOM      3  H2  UNL     1      14.828  -1.062  -4.195  1.00  0.00     0.168 HD
HETATM    4  C8  UNL     1      15.597  -2.554  -3.087  1.00  0.00     0.183 A 
HETATM    5  N3  UNL     1      16.106  -3.777  -3.166  1.00  0.00    -0.338 N 
ATOM      6  H3  UNL     1      16.405  -4.228  -2.302  1.00  0.00     0.168 HD
HETATM    7  C9  UNL     1      16.251  -4.456  -4.312  1.00  0.00     0.117 A 
HETATM    8  C17 UNL     1      15.866  -3.901  -5.533  1.00  0.00     0.047 A 
ENDROOT
BRANCH   1   9
HETATM    9  N1  UNL     1      15.070  -1.704  -6.467  1.00  0.00    -0.323 N 
HETATM   10  C6  UNL     1      16.202  -0.999  -6.968  1.00  0.00     0.103 C 
HETATM   11  C4  UNL     1      16.113  -0.097  -8.115  1.00  0.00     0.083 C 
HETATM   12  C5  UNL     1      16.627  -0.706  -9.427  1.00  0.00     0.046 C 
HETATM   13  N7  UNL     1      14.906   0.574  -8.417  1.00  0.00    -0.345 N 
HETATM   14  C24 UNL     1      13.771   0.828  -7.647  1.00  0.00     0.223 C 
ATOM     15  H7  UNL     1      14.857   0.938  -9.368  1.00  0.00     0.163 HD
HETATM   16  C23 UNL     1      13.242  -0.054  -6.579  1.00  0.00     0.148 C 
HETATM   17  O2  UNL     1      13.170   1.901  -7.904  1.00  0.00    -0.273 OA
HETATM   18  C22 UNL     1      13.715  -1.474  -6.742  1.00  0.00     0.080 C 
BRANCH  11  19
HETATM   19  C3  UNL     1      17.141   1.054  -7.873  1.00  0.00     0.203 C 
BRANCH  19  20
HETATM   20  O1  UNL     1      18.071   0.659  -6.915  1.00  0.00    -0.389 OA
BRANCH  20  21
HETATM   21  C2  UNL     1      19.314   0.634  -7.521  1.00  0.00     0.163 C 
HETATM   22  C1  UNL     1      19.929  -0.751  -7.572  1.00  0.00     0.033 C 
ENDBRANCH  20  21
ENDBRANCH  19  20
ENDBRANCH  11  19
ENDBRANCH   1   9
BRANCH   8  23
HETATM   23  C18 UNL     1      15.899  -4.669  -6.735  1.00  0.00     0.085 C 
HETATM   24  C19 UNL     1      14.883  -4.010  -7.752  1.00  0.00     0.029 C 
HETATM   25  C20 UNL     1      15.544  -6.085  -6.818  1.00  0.00     0.029 C 
BRANCH  23  26
HETATM   26  C21 UNL     1      17.214  -4.549  -7.569  1.00  0.00     0.399 C 
HETATM   27  F1  UNL     1      16.809  -4.017  -8.843  1.00  0.00    -0.170 F 
HETATM   28  F2  UNL     1      17.999  -3.507  -7.088  1.00  0.00    -0.170 F 
HETATM   29  F3  UNL     1      17.911  -5.608  -7.855  1.00  0.00    -0.170 F 
ENDBRANCH  23  26
ENDBRANCH   8  23
BRANCH   7  30
HETATM   30  N4  UNL     1      16.800  -5.598  -4.138  1.00  0.00    -0.351 N 
HETATM   31  C10 UNL     1      17.946  -6.218  -4.543  1.00  0.00     0.105 C 
ATOM     32  H4  UNL     1      16.234  -6.202  -3.542  1.00  0.00     0.166 HD
BRANCH  31  33
HETATM   33  C11 UNL     1      19.289  -5.997  -4.095  1.00  0.00     0.027 A 
HETATM   34  C12 UNL     1      19.913  -6.938  -3.234  1.00  0.00     0.039 A 
HETATM   35  N5  UNL     1      21.133  -6.479  -2.991  1.00  0.00    -0.304 N 
HETATM   36  N6  UNL     1      21.358  -5.346  -3.602  1.00  0.00    -0.304 N 
ATOM     37  H5  UNL     1      21.814  -6.954  -2.398  1.00  0.00     0.186 HD
HETATM   38  C15 UNL     1      20.210  -5.031  -4.298  1.00  0.00     0.035 A 
ATOM     39  H6  UNL     1      22.218  -4.800  -3.571  1.00  0.00     0.186 HD
HETATM   40  C16 UNL     1      20.201  -3.763  -5.088  1.00  0.00     0.070 C 
BRANCH  34  41
HETATM   41  C13 UNL     1      19.310  -8.201  -2.700  1.00  0.00     0.055 C 
HETATM   42  C14 UNL     1      19.964  -8.651  -1.412  1.00  0.00     0.011 C 
ENDBRANCH  34  41
ENDBRANCH  31  33
ENDBRANCH   7  30
TORSDOF 9
ENDMDL
MODEL 3
REMARK VINA RESULT: -6.562532492      5.671      8.714
REMARK  9 active torsions:
REMARK  status: ('A' for Active; 'I' for Inactive)
REMARK    1  A    between atoms: C2_2  and  O1_3 
REMARK    2  A    between atoms: O1_3  and  C3_4 
REMARK    3  A    between atoms: C3_4  and  C4_5 
REMARK    4  A    between atoms: N1_8  and  C7_9 
REMARK    5  A    between atoms: C9_15  and  N4_16 
REMARK    6  A    between atoms: C10_18  and  C11_19 
REMARK    7  A    between atoms: C12_20  and  C13_21 
REMARK    8  A    between atoms: C17_29  and  C18_30 
REMARK    9  A    between atoms: C18_30  and  C21_33 
ROOT
HETATM    1  C7  UNL     1      18.106  -2.435  -6.489  1.00  0.00     0.122 A 
HETATM    2  N2  UNL     1      19.460  -2.328  -6.838  1.00  0.00    -0.338 N 
ATOM      3  H2  UNL     1      19.724  -1.654  -7.556  1.00  0.00     0.168 HD
HETATM    4  C8  UNL     1      20.406  -3.054  -6.284  1.00  0.00     0.183 A 
HETATM    5  N3  UNL     1      20.018  -3.917  -5.352  1.00  0.00    -0.338 N 
ATOM      6  H3  UNL     1      20.732  -4.495  -4.909  1.00  0.00     0.168 HD
HETATM    7  C9  UNL     1      18.748  -4.075  -4.959  1.00  0.00     0.117 A 
HETATM    8  C17 UNL     1      17.718  -3.320  -5.525  1.00  0.00     0.047 A 
ENDROOT
BRANCH   1   9
HETATM    9  N1  UNL     1      17.356  -1.692  -7.409  1.00  0.00    -0.323 N 
HETATM   10  C6  UNL     1      16.942  -0.407  -6.955  1.00  0.00     0.103 C 
HETATM   11  C4  UNL     1      16.282   0.555  -7.836  1.00  0.00     0.083 C 
HETATM   12  C5  UNL     1      17.209   1.665  -8.351  1.00  0.00     0.046 C 
HETATM   13  N7  UNL     1      15.511   0.118  -8.937  1.00  0.00    -0.345 N 
HETATM   14  C24 UNL     1      14.942  -1.120  -9.235  1.00  0.00     0.223 C 
ATOM     15  H7  UNL     1      15.339   0.838  -9.640  1.00  0.00     0.163 HD
HETATM   16  C23 UNL     1      15.505  -2.438  -8.857  1.00  0.00     0.148 C 
HETATM   17  O2  UNL     1      13.863  -1.080  -9.879  1.00  0.00    -0.273 OA
HETATM   18  C22 UNL     1      16.984  -2.357  -8.586  1.00  0.00     0.080 C 
BRANCH  11  19
HETATM   19  C3  UNL     1      15.274   1.363  -6.958  1.00  0.00     0.203 C 
BRANCH  19  20
HETATM   20  O1  UNL     1      14.138   1.663  -7.704  1.00  0.00    -0.389 OA
BRANCH  20  21
HETATM   21  C2  UNL     1      13.036   1.439  -6.900  1.00  0.00     0.163 C 
HETATM   22  C1  UNL     1      12.888  -0.009  -6.475  1.00  0.00     0.033 C 
ENDBRANCH  20  21
ENDBRANCH  19  20
ENDBRANCH  11  19
ENDBRANCH   1   9
BRANCH   8  23
HETATM   23  C18 UNL     1      16.387  -3.394  -5.018  1.00  0.00     0.085 C 
HETATM   24  C19 UNL     1      15.727  -1.968  -5.199  1.00  0.00     0.029 C 
HETATM   25  C20 UNL     1      16.048  -3.717  -3.633  1.00  0.00     0.029 C 
BRANCH  23  26
HETATM   26  C21 UNL     1      15.394  -4.248  -5.870  1.00  0.00     0.399 C 
HETATM   27  F1  UNL     1      14.767  -5.145  -4.936  1.00  0.00    -0.170 F 
HETATM   28  F2  UNL     1      14.306  -3.477  -6.263  1.00  0.00    -0.170 F 
HETATM   29  F3  UNL     1      15.835  -5.013  -6.824  1.00  0.00    -0.170 F 
ENDBRANCH  23  26
ENDBRANCH   8  23
BRANCH   7  30
HETATM   30  N4  UNL     1      18.618  -4.992  -4.077  1.00  0.00    -0.351 N 
HETATM   31  C10 UNL     1      18.387  -6.337  -4.073  1.00  0.00     0.105 C 
ATOM     32  H4  UNL     1      18.713  -4.621  -3.132  1.00  0.00     0.166 HD
BRANCH  31  33
HETATM   33  C11 UNL     1      19.287  -7.400  -4.409  1.00  0.00     0.027 A 
HETATM   34  C12 UNL     1      19.897  -8.164  -3.380  1.00  0.00     0.039 A 
HETATM   35  N5  UNL     1      20.665  -9.063  -3.978  1.00  0.00    -0.304 N 
HETATM   36  N6  UNL     1      20.613  -8.958  -5.280  1.00  0.00    -0.304 N 
ATOM     37  H5  UNL     1      21.228  -9.755  -3.483  1.00  0.00     0.186 HD
HETATM   38  C15 UNL     1      19.754  -7.919  -5.564  1.00  0.00     0.035 A 
ATOM     39  H6  UNL     1      21.113  -9.535  -5.956  1.00  0.00     0.186 HD
HETATM   40  C16 UNL     1      19.520  -7.582  -7.001  1.00  0.00     0.070 C 
BRANCH  34  41
HETATM   41  C13 UNL     1      19.714  -7.986  -1.903  1.00  0.00     0.055 C 
HETATM   42  C14 UNL     1      19.238  -9.252  -1.226  1.00  0.00     0.011 C 
ENDBRANCH  34  41
ENDBRANCH  31  33
ENDBRANCH   7  30
TORSDOF 9
ENDMDL
MODEL 4
REMARK VINA RESULT: -6.494872358      4.120      7.114
REMARK  9 active torsions:
REMARK  status: ('A' for Active; 'I' for Inactive)
REMARK    1  A    between atoms: C2_2  and  O1_3 
REMARK    2  A    between atoms: O1_3  and  C3_4 
REMARK    3  A    between atoms: C3_4  and  C4_5 
REMARK    4  A    between atoms: N1_8  and  C7_9 
REMARK    5  A    between atoms: C9_15  and  N4_16 
REMARK    6  A    between atoms: C10_18  and  C11_19 
REMARK    7  A    between atoms: C12_20  and  C13_21 
REMARK    8  A    between atoms: C17_29  and  C18_30 
REMARK    9  A    between atoms: C18_30  and  C21_33 
ROOT
HETATM    1  C7  UNL     1      21.697  -6.023  -5.681  1.00  0.00     0.122 A 
HETATM    2  N2  UNL     1      22.103  -5.582  -6.949  1.00  0.00    -0.338 N 
ATOM      3  H2  UNL     1      22.908  -6.032  -7.385  1.00  0.00     0.168 HD
HETATM    4  C8  UNL     1      21.496  -4.617  -7.604  1.00  0.00     0.183 A 
HETATM    5  N3  UNL     1      20.452  -4.061  -7.002  1.00  0.00    -0.338 N 
ATOM      6  H3  UNL     1      19.964  -3.308  -7.487  1.00  0.00     0.168 HD
HETATM    7  C9  UNL     1      19.999  -4.429  -5.796  1.00  0.00     0.117 A 
HETATM    8  C17 UNL     1      20.619  -5.450  -5.073  1.00  0.00     0.047 A 
ENDROOT
BRANCH   1   9
HETATM    9  N1  UNL     1      22.677  -6.893  -5.185  1.00  0.00    -0.323 N 
HETATM   10  C6  UNL     1      22.308  -8.269  -5.162  1.00  0.00     0.103 C 
HETATM   11  C4  UNL     1      23.259  -9.324  -4.816  1.00  0.00     0.083 C 
HETATM   12  C5  UNL     1      23.815 -10.082  -6.030  1.00  0.00     0.046 C 
HETATM   13  N7  UNL     1      24.350  -9.063  -3.957  1.00  0.00    -0.345 N 
HETATM   14  C24 UNL     1      24.589  -8.027  -3.053  1.00  0.00     0.223 C 
ATOM     15  H7  UNL     1      25.097  -9.756  -4.007  1.00  0.00     0.163 HD
HETATM   16  C23 UNL     1      24.122  -6.629  -3.205  1.00  0.00     0.148 C 
HETATM   17  O2  UNL     1      25.259  -8.339  -2.037  1.00  0.00    -0.273 OA
HETATM   18  C22 UNL     1      23.821  -6.293  -4.643  1.00  0.00     0.080 C 
BRANCH  11  19
HETATM   19  C3  UNL     1      22.453 -10.444  -4.083  1.00  0.00     0.203 C 
BRANCH  19  20
HETATM   20  O1  UNL     1      21.209  -9.951  -3.697  1.00  0.00    -0.389 OA
BRANCH  20  21
HETATM   21  C2  UNL     1      20.918 -10.475  -2.451  1.00  0.00     0.163 C 
HETATM   22  C1  UNL     1      21.997 -10.205  -1.420  1.00  0.00     0.033 C 
ENDBRANCH  20  21
ENDBRANCH  19  20
ENDBRANCH  11  19
ENDBRANCH   1   9
BRANCH   8  23
HETATM   23  C18 UNL     1      20.062  -5.929  -3.850  1.00  0.00     0.085 C 
HETATM   24  C19 UNL     1      19.505  -4.679  -3.056  1.00  0.00     0.029 C 
HETATM   25  C20 UNL     1      20.820  -6.636  -2.820  1.00  0.00     0.029 C 
BRANCH  23  26
HETATM   26  C21 UNL     1      18.742  -6.752  -3.995  1.00  0.00     0.399 C 
HETATM   27  F1  UNL     1      18.825  -7.782  -2.993  1.00  0.00    -0.170 F 
HETATM   28  F2  UNL     1      17.659  -6.018  -3.525  1.00  0.00    -0.170 F 
HETATM   29  F3  UNL     1      18.477  -7.382  -5.100  1.00  0.00    -0.170 F 
ENDBRANCH  23  26
ENDBRANCH   8  23
BRANCH   7  30
HETATM   30  N4  UNL     1      19.006  -3.721  -5.409  1.00  0.00    -0.351 N 
HETATM   31  C10 UNL     1      17.757  -3.429  -5.874  1.00  0.00     0.105 C 
ATOM     32  H4  UNL     1      19.199  -3.254  -4.523  1.00  0.00     0.166 HD
BRANCH  31  33
HETATM   33  C11 UNL     1      16.591  -4.262  -5.891  1.00  0.00     0.027 A 
HETATM   34  C12 UNL     1      15.501  -3.972  -5.029  1.00  0.00     0.039 A 
HETATM   35  N5  UNL     1      14.578  -4.894  -5.260  1.00  0.00    -0.304 N 
HETATM   36  N6  UNL     1      14.959  -5.745  -6.176  1.00  0.00    -0.304 N 
ATOM     37  H5  UNL     1      13.678  -4.935  -4.781  1.00  0.00     0.186 HD
HETATM   38  C15 UNL     1      16.219  -5.362  -6.580  1.00  0.00     0.035 A 
ATOM     39  H6  UNL     1      14.425  -6.541  -6.525  1.00  0.00     0.186 HD
HETATM   40  C16 UNL     1      16.894  -6.182  -7.631  1.00  0.00     0.070 C 
BRANCH  34  41
HETATM   41  C13 UNL     1      15.411  -2.845  -4.046  1.00  0.00     0.055 C 
HETATM   42  C14 UNL     1      15.840  -3.258  -2.655  1.00  0.00     0.011 C 
ENDBRANCH  34  41
ENDBRANCH  31  33
ENDBRANCH   7  30
TORSDOF 9
ENDMDL
MODEL 5
REMARK VINA RESULT: -6.479795059      4.483      7.755
REMARK  9 active torsions:
REMARK  status: ('A' for Active; 'I' for Inactive)
REMARK    1  A    between atoms: C2_2  and  O1_3 
REMARK    2  A    between atoms: O1_3  and  C3_4 
REMARK    3  A    between atoms: C3_4  and  C4_5 
REMARK    4  A    between atoms: N1_8  and  C7_9 
REMARK    5  A    between atoms: C9_15  and  N4_16 
REMARK    6  A    between atoms: C10_18  and  C11_19 
REMARK    7  A    between atoms: C12_20  and  C13_21 
REMARK    8  A    between atoms: C17_29  and  C18_30 
REMARK    9  A    between atoms: C18_30  and  C21_33 
ROOT
HETATM    1  C7  UNL     1      19.862  -5.823  -4.275  1.00  0.00     0.122 A 
HETATM    2  N2  UNL     1      19.793  -5.327  -2.965  1.00  0.00    -0.338 N 
ATOM      3  H2  UNL     1      20.634  -5.357  -2.389  1.00  0.00     0.168 HD
HETATM    4  C8  UNL     1      18.695  -4.825  -2.444  1.00  0.00     0.183 A 
HETATM    5  N3  UNL     1      17.625  -4.802  -3.228  1.00  0.00    -0.338 N 
ATOM      6  H3  UNL     1      16.760  -4.420  -2.847  1.00  0.00     0.168 HD
HETATM    7  C9  UNL     1      17.612  -5.251  -4.490  1.00  0.00     0.117 A 
HETATM    8  C17 UNL     1      18.758  -5.790  -5.077  1.00  0.00     0.047 A 
ENDROOT
BRANCH   1   9
HETATM    9  N1  UNL     1      21.092  -6.475  -4.432  1.00  0.00    -0.323 N 
HETATM   10  C6  UNL     1      21.118  -7.832  -4.003  1.00  0.00     0.103 C 
HETATM   11  C4  UNL     1      22.273  -8.699  -4.230  1.00  0.00     0.083 C 
HETATM   12  C5  UNL     1      22.099  -9.671  -5.405  1.00  0.00     0.046 C 
HETATM   13  N7  UNL     1      23.576  -8.160  -4.329  1.00  0.00    -0.345 N 
HETATM   14  C24 UNL     1      24.099  -6.928  -3.937  1.00  0.00     0.223 C 
ATOM     15  H7  UNL     1      24.254  -8.784  -4.765  1.00  0.00     0.163 HD
HETATM   16  C23 UNL     1      23.358  -5.645  -3.923  1.00  0.00     0.148 C 
HETATM   17  O2  UNL     1      25.301  -6.941  -3.573  1.00  0.00    -0.273 OA
HETATM   18  C22 UNL     1      22.167  -5.676  -4.845  1.00  0.00     0.080 C 
BRANCH  11  19
HETATM   19  C3  UNL     1      22.355  -9.680  -3.016  1.00  0.00     0.203 C 
BRANCH  19  20
HETATM   20  O1  UNL     1      21.898  -9.042  -1.866  1.00  0.00    -0.389 OA
BRANCH  20  21
HETATM   21  C2  UNL     1      22.770  -9.353  -0.839  1.00  0.00     0.163 C 
HETATM   22  C1  UNL     1      23.815 -10.381  -1.229  1.00  0.00     0.033 C 
ENDBRANCH  20  21
ENDBRANCH  19  20
ENDBRANCH  11  19
ENDBRANCH   1   9
BRANCH   8  23
HETATM   23  C18 UNL     1      18.781  -6.147  -6.457  1.00  0.00     0.085 C 
HETATM   24  C19 UNL     1      17.283  -6.195  -6.964  1.00  0.00     0.029 C 
HETATM   25  C20 UNL     1      19.321  -7.403  -6.976  1.00  0.00     0.029 C 
BRANCH  23  26
HETATM   26  C21 UNL     1      19.345  -5.055  -7.421  1.00  0.00     0.399 C 
HETATM   27  F1  UNL     1      18.673  -5.272  -8.676  1.00  0.00    -0.170 F 
HETATM   28  F2  UNL     1      18.852  -3.803  -7.075  1.00  0.00    -0.170 F 
HETATM   29  F3  UNL     1      20.610  -5.030  -7.720  1.00  0.00    -0.170 F 
ENDBRANCH  23  26
ENDBRANCH   8  23
BRANCH   7  30
HETATM   30  N4  UNL     1      16.456  -5.160  -5.030  1.00  0.00    -0.351 N 
HETATM   31  C10 UNL     1      15.308  -4.458  -4.802  1.00  0.00     0.105 C 
ATOM     32  H4  UNL     1      16.370  -5.771  -5.843  1.00  0.00     0.166 HD
BRANCH  31  33
HETATM   33  C11 UNL     1      15.045  -3.070  -5.045  1.00  0.00     0.027 A 
HETATM   34  C12 UNL     1      14.779  -2.621  -6.365  1.00  0.00     0.039 A 
HETATM   35  N5  UNL     1      14.574  -1.313  -6.287  1.00  0.00    -0.304 N 
HETATM   36  N6  UNL     1      14.681  -0.876  -5.060  1.00  0.00    -0.304 N 
ATOM     37  H5  UNL     1      14.358  -0.720  -7.088  1.00  0.00     0.186 HD
HETATM   38  C15 UNL     1      14.977  -1.967  -4.270  1.00  0.00     0.035 A 
ATOM     39  H6  UNL     1      14.567   0.087  -4.746  1.00  0.00     0.186 HD
HETATM   40  C16 UNL     1      15.159  -1.737  -2.805  1.00  0.00     0.070 C 
BRANCH  34  41
HETATM   41  C13 UNL     1      14.741  -3.458  -7.606  1.00  0.00     0.055 C 
HETATM   42  C14 UNL     1      15.877  -3.137  -8.553  1.00  0.00     0.011 C 
ENDBRANCH  34  41
ENDBRANCH  31  33
ENDBRANCH   7  30
TORSDOF 9
ENDMDL
