MODEL 1
REMARK VINA RESULT: -7.184087940      0.000      0.000
REMARK  10 active torsions:
REMARK  status: ('A' for Active; 'I' for Inactive)
REMARK    1  A    between atoms: C2_2  and  C3_3 
REMARK    2  A    between atoms: C3_3  and  O1_4 
REMARK    3  A    between atoms: C6_8  and  O2_9 
REMARK    4  A    between atoms: O2_9  and  C7_10 
REMARK    5  A    between atoms: C7_10  and  C8_15 
REMARK    6  A    between atoms: N1_11  and  O3_13 
REMARK    7  A    between atoms: N2_18  and  C11_19 
REMARK    8  A    between atoms: C11_19  and  C12_20 
REMARK    9  A    between atoms: C12_20  and  C13_21 
REMARK   10  A    between atoms: C13_21  and  N3_22 
ROOT
HETATM    1  C8  UNL     1      14.555  -1.726  -5.796  1.00  0.00     0.065 C 
HETATM    2  C9  UNL     1      15.037  -2.987  -6.453  1.00  0.00     0.043 C 
HETATM    3  C10 UNL     1      14.624  -4.150  -5.554  1.00  0.00     0.273 C 
HETATM    4  N2  UNL     1      15.375  -4.123  -4.337  1.00  0.00     0.088 N 
HETATM    5  C17 UNL     1      16.025  -2.865  -4.090  1.00  0.00     0.273 C 
HETATM    6  C18 UNL     1      15.137  -1.684  -4.396  1.00  0.00     0.043 C 
ENDROOT
BRANCH   1   7
HETATM    7  C7  UNL     1      14.865  -0.522  -6.568  1.00  0.00     0.142 C 
HETATM    8  N1  UNL     1      14.295   0.587  -6.382  1.00  0.00    -0.251 N 
ATOM      9  H1  UNL     1      14.630   1.322  -7.006  1.00  0.00     0.196 HD
BRANCH   7  10
HETATM   10  O2  UNL     1      15.836  -0.528  -7.584  1.00  0.00    -0.332 OA
BRANCH  10  11
HETATM   11  C6  UNL     1      17.070   0.085  -7.557  1.00  0.00     0.130 C 
HETATM   12  C5  UNL     1      17.541   0.785  -8.776  1.00  0.00     0.035 C 
HETATM   13  C4  UNL     1      18.912   1.405  -8.448  1.00  0.00     0.040 C 
HETATM   14  C3  UNL     1      19.932   0.364  -8.086  1.00  0.00     0.058 C 
HETATM   15  C20 UNL     1      19.404  -0.400  -6.904  1.00  0.00     0.040 C 
HETATM   16  C19 UNL     1      18.095  -1.032  -7.275  1.00  0.00     0.035 C 
BRANCH  14  17
HETATM   17  C2  UNL     1      20.317  -0.504  -9.247  1.00  0.00     0.033 C 
HETATM   18  C1  UNL     1      21.148   0.229 -10.264  1.00  0.00     0.008 C 
ENDBRANCH  14  17
BRANCH  14  19
HETATM   19  O1  UNL     1      21.074   1.043  -7.669  1.00  0.00    -0.390 OA
ATOM     20  H1  UNL     1      20.985   1.209  -6.738  1.00  0.00     0.210 HD
ENDBRANCH  14  19
ENDBRANCH  10  11
ENDBRANCH   7  10
BRANCH   8  21
HETATM   21  O3  UNL     1      13.349   1.000  -5.544  1.00  0.00    -0.288 OA
ATOM     22  H3  UNL     1      12.765   1.750  -5.535  1.00  0.00     0.244 HD
ENDBRANCH   8  21
ENDBRANCH   1   7
BRANCH   4  23
HETATM   23  C11 UNL     1      16.333  -5.194  -4.333  1.00  0.00     0.274 C 
BRANCH  23  24
HETATM   24  C12 UNL     1      17.580  -4.702  -3.601  1.00  0.00     0.050 C 
BRANCH  24  25
HETATM   25  C13 UNL     1      18.670  -5.738  -3.886  1.00  0.00     0.134 C 
BRANCH  25  26
HETATM   26  N3  UNL     1      19.762  -5.130  -4.608  1.00  0.00    -0.280 N 
HETATM   27  C14 UNL     1      20.587  -4.152  -4.007  1.00  0.00     0.330 C 
HETATM   28  O4  UNL     1      20.604  -4.035  -2.756  1.00  0.00    -0.247 OA
HETATM   29  N4  UNL     1      21.373  -3.332  -4.877  1.00  0.00    -0.261 N 
HETATM   30  C15 UNL     1      21.310  -3.513  -6.288  1.00  0.00     0.327 C 
ATOM     31  H4  UNL     1      21.981  -2.614  -4.486  1.00  0.00     0.175 HD
HETATM   32  O5  UNL     1      21.999  -2.796  -7.060  1.00  0.00    -0.247 OA
HETATM   33  N5  UNL     1      20.467  -4.508  -6.822  1.00  0.00    -0.289 N 
HETATM   34  C16 UNL     1      19.981  -5.563  -5.975  1.00  0.00     0.276 C 
ATOM     35  H5  UNL     1      20.202  -4.479  -7.806  1.00  0.00     0.169 HD
HETATM   36 CL1  UNL     1      18.503  -6.267  -6.685  1.00  0.00    -0.054 Cl
HETATM   37 CL2  UNL     1      21.276  -6.805  -5.909  1.00  0.00    -0.054 Cl
ENDBRANCH  25  26
ENDBRANCH  24  25
ENDBRANCH  23  24
ENDBRANCH   4  23
TORSDOF 10
ENDMDL
MODEL 2
REMARK VINA RESULT: -6.950738777      2.223      5.572
REMARK  10 active torsions:
REMARK  status: ('A' for Active; 'I' for Inactive)
REMARK    1  A    between atoms: C2_2  and  C3_3 
REMARK    2  A    between atoms: C3_3  and  O1_4 
REMARK    3  A    between atoms: C6_8  and  O2_9 
REMARK    4  A    between atoms: O2_9  and  C7_10 
REMARK    5  A    between atoms: C7_10  and  C8_15 
REMARK    6  A    between atoms: N1_11  and  O3_13 
REMARK    7  A    between atoms: N2_18  and  C11_19 
REMARK    8  A    between atoms: C11_19  and  C12_20 
REMARK    9  A    between atoms: C12_20  and  C13_21 
REMARK   10  A    between atoms: C13_21  and  N3_22 
ROOT
HETATM    1  C8  UNL     1      14.490   0.761  -7.460  1.00  0.00     0.065 C 
HETATM    2  C9  UNL     1      15.940   0.702  -7.075  1.00  0.00     0.043 C 
HETATM    3  C10 UNL     1      16.632   1.886  -7.746  1.00  0.00     0.273 C 
HETATM    4  N2  UNL     1      16.675   1.694  -9.163  1.00  0.00     0.088 N 
HETATM    5  C17 UNL     1      15.770   0.682  -9.633  1.00  0.00     0.273 C 
HETATM    6  C18 UNL     1      14.415   0.764  -8.974  1.00  0.00     0.043 C 
ENDROOT
BRANCH   1   7
HETATM    7  C7  UNL     1      13.694  -0.313  -6.862  1.00  0.00     0.142 C 
HETATM    8  N1  UNL     1      12.580  -0.122  -6.304  1.00  0.00    -0.251 N 
ATOM      9  H1  UNL     1      12.159  -0.978  -5.941  1.00  0.00     0.196 HD
BRANCH   7  10
HETATM   10  O2  UNL     1      14.132  -1.649  -6.873  1.00  0.00    -0.332 OA
BRANCH  10  11
HETATM   11  C6  UNL     1      14.479  -2.417  -5.783  1.00  0.00     0.130 C 
HETATM   12  C5  UNL     1      15.652  -2.010  -4.972  1.00  0.00     0.035 C 
HETATM   13  C4  UNL     1      15.777  -3.013  -3.810  1.00  0.00     0.040 C 
HETATM   14  C3  UNL     1      16.012  -4.414  -4.296  1.00  0.00     0.058 C 
HETATM   15  C20 UNL     1      14.862  -4.786  -5.189  1.00  0.00     0.040 C 
HETATM   16  C19 UNL     1      14.801  -3.821  -6.336  1.00  0.00     0.035 C 
BRANCH  14  17
HETATM   17  C2  UNL     1      17.358  -4.594  -4.932  1.00  0.00     0.033 C 
HETATM   18  C1  UNL     1      17.656  -6.034  -5.253  1.00  0.00     0.008 C 
ENDBRANCH  14  17
BRANCH  14  19
HETATM   19  O1  UNL     1      15.958  -5.244  -3.179  1.00  0.00    -0.390 OA
ATOM     20  H1  UNL     1      15.691  -4.713  -2.439  1.00  0.00     0.210 HD
ENDBRANCH  14  19
ENDBRANCH  10  11
ENDBRANCH   7  10
BRANCH   8  21
HETATM   21  O3  UNL     1      11.837   0.961  -6.090  1.00  0.00    -0.288 OA
ATOM     22  H3  UNL     1      11.196   1.194  -5.428  1.00  0.00     0.244 HD
ENDBRANCH   8  21
ENDBRANCH   1   7
BRANCH   4  23
HETATM   23  C11 UNL     1      18.020   1.396  -9.572  1.00  0.00     0.274 C 
BRANCH  23  24
HETATM   24  C12 UNL     1      18.095  -0.099  -9.876  1.00  0.00     0.050 C 
BRANCH  24  25
HETATM   25  C13 UNL     1      19.544  -0.510  -9.604  1.00  0.00     0.134 C 
BRANCH  25  26
HETATM   26  N3  UNL     1      19.617  -1.329  -8.418  1.00  0.00    -0.280 N 
HETATM   27  C14 UNL     1      19.946  -0.773  -7.159  1.00  0.00     0.330 C 
HETATM   28  O4  UNL     1      19.853   0.469  -6.983  1.00  0.00    -0.247 OA
HETATM   29  N4  UNL     1      20.376  -1.675  -6.136  1.00  0.00    -0.261 N 
HETATM   30  C15 UNL     1      20.461  -3.071  -6.397  1.00  0.00     0.327 C 
ATOM     31  H4  UNL     1      20.624  -1.316  -5.214  1.00  0.00     0.175 HD
HETATM   32  O5  UNL     1      20.838  -3.872  -5.501  1.00  0.00    -0.247 OA
HETATM   33  N5  UNL     1      20.117  -3.560  -7.673  1.00  0.00    -0.289 N 
HETATM   34  C16 UNL     1      19.339  -2.744  -8.565  1.00  0.00     0.276 C 
ATOM     35  H5  UNL     1      20.419  -4.490  -7.962  1.00  0.00     0.169 HD
HETATM   36 CL1  UNL     1      19.588  -3.291 -10.245  1.00  0.00    -0.054 Cl
HETATM   37 CL2  UNL     1      17.620  -2.971  -8.099  1.00  0.00    -0.054 Cl
ENDBRANCH  25  26
ENDBRANCH  24  25
ENDBRANCH  23  24
ENDBRANCH   4  23
TORSDOF 10
ENDMDL
MODEL 3
REMARK VINA RESULT: -6.947794902      1.522      1.930
REMARK  10 active torsions:
REMARK  status: ('A' for Active; 'I' for Inactive)
REMARK    1  A    between atoms: C2_2  and  C3_3 
REMARK    2  A    between atoms: C3_3  and  O1_4 
REMARK    3  A    between atoms: C6_8  and  O2_9 
REMARK    4  A    between atoms: O2_9  and  C7_10 
REMARK    5  A    between atoms: C7_10  and  C8_15 
REMARK    6  A    between atoms: N1_11  and  O3_13 
REMARK    7  A    between atoms: N2_18  and  C11_19 
REMARK    8  A    between atoms: C11_19  and  C12_20 
REMARK    9  A    between atoms: C12_20  and  C13_21 
REMARK   10  A    between atoms: C13_21  and  N3_22 
ROOT
HETATM    1  C8  UNL     1      14.494  -1.506  -5.950  1.00  0.00     0.065 C 
HETATM    2  C9  UNL     1      14.917  -2.712  -6.737  1.00  0.00     0.043 C 
HETATM    3  C10 UNL     1      14.564  -3.941  -5.904  1.00  0.00     0.273 C 
HETATM    4  N2  UNL     1      15.402  -4.010  -4.747  1.00  0.00     0.088 N 
HETATM    5  C17 UNL     1      16.077  -2.776  -4.451  1.00  0.00     0.273 C 
HETATM    6  C18 UNL     1      15.178  -1.574  -4.599  1.00  0.00     0.043 C 
ENDROOT
BRANCH   1   7
HETATM    7  C7  UNL     1      14.755  -0.245  -6.648  1.00  0.00     0.142 C 
HETATM    8  N1  UNL     1      14.171   0.836  -6.368  1.00  0.00    -0.251 N 
ATOM      9  H1  UNL     1      14.470   1.619  -6.949  1.00  0.00     0.196 HD
BRANCH   7  10
HETATM   10  O2  UNL     1      15.692  -0.161  -7.692  1.00  0.00    -0.332 OA
BRANCH  10  11
HETATM   11  C6  UNL     1      16.965   0.362  -7.626  1.00  0.00     0.130 C 
HETATM   12  C5  UNL     1      17.495   1.091  -8.802  1.00  0.00     0.035 C 
HETATM   13  C4  UNL     1      18.903   1.595  -8.434  1.00  0.00     0.040 C 
HETATM   14  C3  UNL     1      19.844   0.466  -8.124  1.00  0.00     0.058 C 
HETATM   15  C20 UNL     1      19.254  -0.320  -6.988  1.00  0.00     0.040 C 
HETATM   16  C19 UNL     1      17.907  -0.838  -7.399  1.00  0.00     0.035 C 
BRANCH  14  17
HETATM   17  C2  UNL     1      20.178  -0.363  -9.328  1.00  0.00     0.033 C 
HETATM   18  C1  UNL     1      21.130   0.334 -10.262  1.00  0.00     0.008 C 
ENDBRANCH  14  17
BRANCH  14  19
HETATM   19  O1  UNL     1      21.027   1.040  -7.665  1.00  0.00    -0.390 OA
ATOM     20  H1  UNL     1      21.571   0.342  -7.323  1.00  0.00     0.210 HD
ENDBRANCH  14  19
ENDBRANCH  10  11
ENDBRANCH   7  10
BRANCH   8  21
HETATM   21  O3  UNL     1      13.245   1.171  -5.473  1.00  0.00    -0.288 OA
ATOM     22  H3  UNL     1      13.281   1.577  -4.614  1.00  0.00     0.244 HD
ENDBRANCH   8  21
ENDBRANCH   1   7
BRANCH   4  23
HETATM   23  C11 UNL     1      16.350  -5.079  -4.897  1.00  0.00     0.274 C 
BRANCH  23  24
HETATM   24  C12 UNL     1      17.681  -4.465  -5.327  1.00  0.00     0.050 C 
BRANCH  24  25
HETATM   25  C13 UNL     1      18.627  -5.644  -5.572  1.00  0.00     0.134 C 
BRANCH  25  26
HETATM   26  N3  UNL     1      19.893  -5.414  -4.918  1.00  0.00    -0.280 N 
HETATM   27  C14 UNL     1      20.924  -4.679  -5.549  1.00  0.00     0.330 C 
HETATM   28  O4  UNL     1      20.651  -3.939  -6.527  1.00  0.00    -0.247 OA
HETATM   29  N4  UNL     1      22.247  -4.825  -5.026  1.00  0.00    -0.261 N 
HETATM   30  C15 UNL     1      22.491  -5.680  -3.915  1.00  0.00     0.327 C 
ATOM     31  H4  UNL     1      23.019  -4.313  -5.451  1.00  0.00     0.175 HD
HETATM   32  O5  UNL     1      23.653  -5.812  -3.448  1.00  0.00    -0.247 OA
HETATM   33  N5  UNL     1      21.419  -6.384  -3.332  1.00  0.00    -0.289 N 
HETATM   34  C16 UNL     1      20.067  -5.966  -3.589  1.00  0.00     0.276 C 
ATOM     35  H5  UNL     1      21.601  -7.186  -2.730  1.00  0.00     0.169 HD
HETATM   36 CL1  UNL     1      18.954  -7.329  -3.292  1.00  0.00    -0.054 Cl
HETATM   37 CL2  UNL     1      19.716  -4.632  -2.439  1.00  0.00    -0.054 Cl
ENDBRANCH  25  26
ENDBRANCH  24  25
ENDBRANCH  23  24
ENDBRANCH   4  23
TORSDOF 10
ENDMDL
MODEL 4
REMARK VINA RESULT: -6.840041134      2.487      6.731
REMARK  10 active torsions:
REMARK  status: ('A' for Active; 'I' for Inactive)
REMARK    1  A    between atoms: C2_2  and  C3_3 
REMARK    2  A    between atoms: C3_3  and  O1_4 
REMARK    3  A    between atoms: C6_8  and  O2_9 
REMARK    4  A    between atoms: O2_9  and  C7_10 
REMARK    5  A    between atoms: C7_10  and  C8_15 
REMARK    6  A    between atoms: N1_11  and  O3_13 
REMARK    7  A    between atoms: N2_18  and  C11_19 
REMARK    8  A    between atoms: C11_19  and  C12_20 
REMARK    9  A    between atoms: C12_20  and  C13_21 
REMARK   10  A    between atoms: C13_21  and  N3_22 
ROOT
HETATM    1  C8  UNL     1      20.398  -5.833  -3.883  1.00  0.00     0.065 C 
HETATM    2  C9  UNL     1      20.553  -5.956  -5.371  1.00  0.00     0.043 C 
HETATM    3  C10 UNL     1      21.936  -5.416  -5.727  1.00  0.00     0.273 C 
HETATM    4  N2  UNL     1      21.981  -4.001  -5.522  1.00  0.00     0.088 N 
HETATM    5  C17 UNL     1      20.904  -3.504  -4.710  1.00  0.00     0.273 C 
HETATM    6  C18 UNL     1      20.626  -4.380  -3.515  1.00  0.00     0.043 C 
ENDROOT
BRANCH   1   7
HETATM    7  C7  UNL     1      19.113  -6.339  -3.396  1.00  0.00     0.142 C 
HETATM    8  N1  UNL     1      19.005  -7.129  -2.420  1.00  0.00    -0.251 N 
ATOM      9  H1  UNL     1      18.039  -7.383  -2.212  1.00  0.00     0.196 HD
BRANCH   7  10
HETATM   10  O2  UNL     1      17.899  -5.970  -4.000  1.00  0.00    -0.332 OA
BRANCH  10  11
HETATM   11  C6  UNL     1      17.342  -4.710  -4.038  1.00  0.00     0.130 C 
HETATM   12  C5  UNL     1      15.951  -4.534  -3.555  1.00  0.00     0.035 C 
HETATM   13  C4  UNL     1      15.610  -3.038  -3.674  1.00  0.00     0.040 C 
HETATM   14  C3  UNL     1      15.672  -2.554  -5.094  1.00  0.00     0.058 C 
HETATM   15  C20 UNL     1      17.061  -2.818  -5.605  1.00  0.00     0.040 C 
HETATM   16  C19 UNL     1      17.341  -4.290  -5.523  1.00  0.00     0.035 C 
BRANCH  14  17
HETATM   17  C2  UNL     1      14.589  -3.131  -5.955  1.00  0.00     0.033 C 
HETATM   18  C1  UNL     1      14.568  -2.531  -7.335  1.00  0.00     0.008 C 
ENDBRANCH  14  17
BRANCH  14  19
HETATM   19  O1  UNL     1      15.495  -1.174  -5.060  1.00  0.00    -0.390 OA
ATOM     20  H1  UNL     1      15.937  -0.808  -5.817  1.00  0.00     0.210 HD
ENDBRANCH  14  19
ENDBRANCH  10  11
ENDBRANCH   7  10
BRANCH   8  21
HETATM   21  O3  UNL     1      19.885  -7.701  -1.603  1.00  0.00    -0.288 OA
ATOM     22  H3  UNL     1      20.616  -7.370  -1.094  1.00  0.00     0.244 HD
ENDBRANCH   8  21
ENDBRANCH   1   7
BRANCH   4  23
HETATM   23  C11 UNL     1      22.009  -3.327  -6.790  1.00  0.00     0.274 C 
BRANCH  23  24
HETATM   24  C12 UNL     1      20.780  -2.423  -6.866  1.00  0.00     0.050 C 
BRANCH  24  25
HETATM   25  C13 UNL     1      20.736  -1.895  -8.301  1.00  0.00     0.134 C 
BRANCH  25  26
HETATM   26  N3  UNL     1      19.724  -0.874  -8.428  1.00  0.00    -0.280 N 
HETATM   27  C14 UNL     1      19.943   0.441  -7.956  1.00  0.00     0.330 C 
HETATM   28  O4  UNL     1      21.115   0.834  -7.726  1.00  0.00    -0.247 OA
HETATM   29  N4  UNL     1      18.792   1.268  -7.761  1.00  0.00    -0.261 N 
HETATM   30  C15 UNL     1      17.490   0.765  -8.039  1.00  0.00     0.327 C 
ATOM     31  H4  UNL     1      18.905   2.223  -7.421  1.00  0.00     0.175 HD
HETATM   32  O5  UNL     1      16.472   1.488  -7.871  1.00  0.00    -0.247 OA
HETATM   33  N5  UNL     1      17.342  -0.554  -8.509  1.00  0.00    -0.289 N 
HETATM   34  C16 UNL     1      18.474  -1.247  -9.061  1.00  0.00     0.276 C 
ATOM     35  H5  UNL     1      16.434  -1.016  -8.458  1.00  0.00     0.169 HD
HETATM   36 CL1  UNL     1      18.196  -3.008  -8.976  1.00  0.00    -0.054 Cl
HETATM   37 CL2  UNL     1      18.604  -0.733 -10.776  1.00  0.00    -0.054 Cl
ENDBRANCH  25  26
ENDBRANCH  24  25
ENDBRANCH  23  24
ENDBRANCH   4  23
TORSDOF 10
ENDMDL
MODEL 5
REMARK VINA RESULT: -6.781879515      3.198      4.038
REMARK  10 active torsions:
REMARK  status: ('A' for Active; 'I' for Inactive)
REMARK    1  A    between atoms: C2_2  and  C3_3 
REMARK    2  A    between atoms: C3_3  and  O1_4 
REMARK    3  A    between atoms: C6_8  and  O2_9 
REMARK    4  A    between atoms: O2_9  and  C7_10 
REMARK    5  A    between atoms: C7_10  and  C8_15 
REMARK    6  A    between atoms: N1_11  and  O3_13 
REMARK    7  A    between atoms: N2_18  and  C11_19 
REMARK    8  A    between atoms: C11_19  and  C12_20 
REMARK    9  A    between atoms: C12_20  and  C13_21 
REMARK   10  A    between atoms: C13_21  and  N3_22 
ROOT
HETATM    1  C8  UNL     1      15.432  -3.320  -4.491  1.00  0.00     0.065 C 
HETATM    2  C9  UNL     1      16.273  -3.894  -5.593  1.00  0.00     0.043 C 
HETATM    3  C10 UNL     1      16.418  -5.389  -5.318  1.00  0.00     0.273 C 
HETATM    4  N2  UNL     1      17.231  -5.600  -4.160  1.00  0.00     0.088 N 
HETATM    5  C17 UNL     1      17.391  -4.425  -3.349  1.00  0.00     0.273 C 
HETATM    6  C18 UNL     1      16.103  -3.660  -3.174  1.00  0.00     0.043 C 
ENDROOT
BRANCH   1   7
HETATM    7  C7  UNL     1      15.191  -1.883  -4.642  1.00  0.00     0.142 C 
HETATM    8  N1  UNL     1      14.848  -1.134  -3.687  1.00  0.00    -0.251 N 
ATOM      9  H1  UNL     1      14.722  -0.160  -3.965  1.00  0.00     0.196 HD
BRANCH   7  10
HETATM   10  O2  UNL     1      15.328  -1.240  -5.883  1.00  0.00    -0.332 OA
BRANCH  10  11
HETATM   11  C6  UNL     1      16.284  -0.312  -6.235  1.00  0.00     0.130 C 
HETATM   12  C5  UNL     1      15.849   0.934  -6.911  1.00  0.00     0.035 C 
HETATM   13  C4  UNL     1      17.106   1.793  -7.144  1.00  0.00     0.040 C 
HETATM   14  C3  UNL     1      18.103   1.106  -8.033  1.00  0.00     0.058 C 
HETATM   15  C20 UNL     1      18.471  -0.198  -7.383  1.00  0.00     0.040 C 
HETATM   16  C19 UNL     1      17.233  -1.029  -7.218  1.00  0.00     0.035 C 
BRANCH  14  17
HETATM   17  C2  UNL     1      17.626   0.966  -9.447  1.00  0.00     0.033 C 
HETATM   18  C1  UNL     1      18.727   0.564 -10.391  1.00  0.00     0.008 C 
ENDBRANCH  14  17
BRANCH  14  19
HETATM   19  O1  UNL     1      19.246   1.901  -8.050  1.00  0.00    -0.390 OA
ATOM     20  H1  UNL     1      19.300   2.344  -7.211  1.00  0.00     0.210 HD
ENDBRANCH  14  19
ENDBRANCH  10  11
ENDBRANCH   7  10
BRANCH   8  21
HETATM   21  O3  UNL     1      14.617  -1.346  -2.394  1.00  0.00    -0.288 OA
ATOM     22  H3  UNL     1      13.880  -1.163  -1.823  1.00  0.00     0.244 HD
ENDBRANCH   8  21
ENDBRANCH   1   7
BRANCH   4  23
HETATM   23  C11 UNL     1      18.511  -6.119  -4.554  1.00  0.00     0.274 C 
BRANCH  23  24
HETATM   24  C12 UNL     1      18.805  -7.343  -3.687  1.00  0.00     0.050 C 
BRANCH  24  25
HETATM   25  C13 UNL     1      19.928  -6.922  -2.736  1.00  0.00     0.134 C 
BRANCH  25  26
HETATM   26  N3  UNL     1      20.750  -8.059  -2.398  1.00  0.00    -0.280 N 
HETATM   27  C14 UNL     1      20.355  -8.982  -1.402  1.00  0.00     0.330 C 
HETATM   28  O4  UNL     1      19.154  -9.025  -1.033  1.00  0.00    -0.247 OA
HETATM   29  N4  UNL     1      21.368  -9.833  -0.858  1.00  0.00    -0.261 N 
HETATM   30  C15 UNL     1      22.711  -9.736  -1.317  1.00  0.00     0.327 C 
ATOM     31  H4  UNL     1      21.126 -10.513  -0.137  1.00  0.00     0.175 HD
HETATM   32  O5  UNL     1      23.609 -10.483  -0.843  1.00  0.00    -0.247 OA
HETATM   33  N5  UNL     1      23.038  -8.795  -2.313  1.00  0.00    -0.289 N 
HETATM   34  C16 UNL     1      21.997  -8.220  -3.120  1.00  0.00     0.276 C 
ATOM     35  H5  UNL     1      24.010  -8.523  -2.461  1.00  0.00     0.169 HD
HETATM   36 CL1  UNL     1      22.560  -6.672  -3.808  1.00  0.00    -0.054 Cl
HETATM   37 CL2  UNL     1      21.667  -9.389  -4.442  1.00  0.00    -0.054 Cl
ENDBRANCH  25  26
ENDBRANCH  24  25
ENDBRANCH  23  24
ENDBRANCH   4  23
TORSDOF 10
ENDMDL
