MODEL 1
REMARK VINA RESULT: -8.007347533      0.000      0.000
REMARK  9 active torsions:
REMARK  status: ('A' for Active; 'I' for Inactive)
REMARK    1  A    between atoms: C4_4  and  O1_5 
REMARK    2  A    between atoms: C6_9  and  O2_10 
REMARK    3  A    between atoms: C7_12  and  N1_13 
REMARK    4  A    between atoms: C10_16  and  C11_17 
REMARK    5  A    between atoms: C11_17  and  C12_18 
REMARK    6  A    between atoms: C11_17  and  C17_28 
REMARK       I    between atoms: C12_18  and  N2_20 
REMARK    7  A    between atoms: N2_20  and  C13_22 
REMARK    8  A    between atoms: C15_24  and  O4_25 
REMARK    9  A    between atoms: O4_25  and  C16_26 
ROOT
HETATM    1  C11 UNL     1      19.049  -4.761  -5.377  1.00  0.00     0.120 C 
ENDROOT
BRANCH   1   2
HETATM    2  C10 UNL     1      19.504  -6.087  -4.889  1.00  0.00    -0.027 A 
HETATM    3  C9  UNL     1      19.710  -7.217  -5.643  1.00  0.00     0.026 A 
HETATM    4  C8  UNL     1      20.124  -8.229  -4.824  1.00  0.00     0.091 A 
HETATM    5  N1  UNL     1      20.186  -7.758  -3.553  1.00  0.00    -0.358 N 
HETATM    6  C27 UNL     1      19.817  -6.481  -3.582  1.00  0.00     0.099 A 
BRANCH   5   7
HETATM    7  C7  UNL     1      20.599  -8.603  -2.427  1.00  0.00     0.124 C 
HETATM    8  C2  UNL     1      21.288  -9.852  -2.842  1.00  0.00     0.010 C 
HETATM    9  C1  UNL     1      22.446 -10.193  -1.892  1.00  0.00     0.012 C 
HETATM   10  C3  UNL     1      20.396 -11.058  -2.887  1.00  0.00     0.041 C 
HETATM   11  C4  UNL     1      19.641 -11.297  -1.627  1.00  0.00     0.155 C 
HETATM   12  C5  UNL     1      19.366 -10.090  -0.801  1.00  0.00     0.229 C 
HETATM   13  F1  UNL     1      18.070 -10.185  -0.273  1.00  0.00    -0.244 F 
HETATM   14  C6  UNL     1      19.438  -8.785  -1.511  1.00  0.00     0.178 C 
BRANCH  11  15
HETATM   15  O1  UNL     1      20.251 -12.250  -0.808  1.00  0.00    -0.393 OA
ATOM     16  H1  UNL     1      21.033 -11.918  -0.382  1.00  0.00     0.210 HD
ENDBRANCH  11  15
BRANCH  14  17
HETATM   17  O2  UNL     1      19.479  -7.786  -0.524  1.00  0.00    -0.391 OA
ATOM     18  H2  UNL     1      20.111  -7.139  -0.813  1.00  0.00     0.210 HD
ENDBRANCH  14  17
ENDBRANCH   5   7
ENDBRANCH   1   2
BRANCH   1  19
HETATM   19  C12 UNL     1      19.372  -4.578  -6.824  1.00  0.00     0.227 C 
HETATM   20  O3  UNL     1      18.727  -5.128  -7.758  1.00  0.00    -0.273 OA
HETATM   21  N2  UNL     1      20.461  -3.747  -7.223  1.00  0.00    -0.353 N 
ATOM     22  H2  UNL     1      21.028  -3.272  -6.520  1.00  0.00     0.163 HD
BRANCH  21  23
HETATM   23  C13 UNL     1      20.756  -3.585  -8.616  1.00  0.00     0.116 A 
HETATM   24  C14 UNL     1      22.194  -3.287  -8.929  1.00  0.00     0.062 A 
HETATM   25  C15 UNL     1      21.164  -2.223  -9.072  1.00  0.00     0.156 A 
BRANCH  25  26
HETATM   26  O4  UNL     1      21.028  -1.192  -8.138  1.00  0.00    -0.321 OA
BRANCH  26  27
HETATM   27  C16 UNL     1      20.646   0.089  -8.494  1.00  0.00     0.398 C 
HETATM   28  O5  UNL     1      21.134   1.031  -7.786  1.00  0.00    -0.276 OA
ENDBRANCH  26  27
ENDBRANCH  25  26
ENDBRANCH  21  23
ENDBRANCH   1  19
BRANCH   1  29
HETATM   29  C17 UNL     1      17.663  -4.393  -4.987  1.00  0.00    -0.023 C 
HETATM   30  C18 UNL     1      17.424  -4.168  -3.532  1.00  0.00     0.015 C 
HETATM   31  C19 UNL     1      15.967  -3.821  -3.301  1.00  0.00    -0.013 C 
HETATM   32  C20 UNL     1      15.691  -2.472  -3.931  1.00  0.00     0.009 C 
HETATM   33  C24 UNL     1      15.005  -4.822  -3.844  1.00  0.00     0.009 C 
HETATM   34  C21 UNL     1      15.964  -2.569  -5.394  1.00  0.00    -0.013 C 
HETATM   35  C22 UNL     1      15.001  -3.558  -6.019  1.00  0.00     0.009 C 
HETATM   36  C26 UNL     1      17.341  -3.041  -5.676  1.00  0.00     0.015 C 
HETATM   37  C23 UNL     1      15.220  -4.877  -5.359  1.00  0.00    -0.013 C 
HETATM   38  C25 UNL     1      16.662  -5.381  -5.509  1.00  0.00     0.015 C 
ENDBRANCH   1  29
TORSDOF 9
ENDMDL
MODEL 2
REMARK VINA RESULT: -7.934417054      0.189      1.255
REMARK  9 active torsions:
REMARK  status: ('A' for Active; 'I' for Inactive)
REMARK    1  A    between atoms: C4_4  and  O1_5 
REMARK    2  A    between atoms: C6_9  and  O2_10 
REMARK    3  A    between atoms: C7_12  and  N1_13 
REMARK    4  A    between atoms: C10_16  and  C11_17 
REMARK    5  A    between atoms: C11_17  and  C12_18 
REMARK    6  A    between atoms: C11_17  and  C17_28 
REMARK       I    between atoms: C12_18  and  N2_20 
REMARK    7  A    between atoms: N2_20  and  C13_22 
REMARK    8  A    between atoms: C15_24  and  O4_25 
REMARK    9  A    between atoms: O4_25  and  C16_26 
ROOT
HETATM    1  C11 UNL     1      18.943  -4.734  -5.582  1.00  0.00     0.120 C 
ENDROOT
BRANCH   1   2
HETATM    2  C10 UNL     1      19.393  -6.055  -5.076  1.00  0.00    -0.027 A 
HETATM    3  C9  UNL     1      19.511  -7.218  -5.799  1.00  0.00     0.026 A 
HETATM    4  C8  UNL     1      19.953  -8.212  -4.973  1.00  0.00     0.091 A 
HETATM    5  N1  UNL     1      20.119  -7.698  -3.728  1.00  0.00    -0.358 N 
HETATM    6  C27 UNL     1      19.787  -6.411  -3.781  1.00  0.00     0.099 A 
BRANCH   5   7
HETATM    7  C7  UNL     1      20.587  -8.514  -2.602  1.00  0.00     0.124 C 
HETATM    8  C2  UNL     1      21.277  -9.762  -3.019  1.00  0.00     0.010 C 
HETATM    9  C1  UNL     1      22.476 -10.068  -2.107  1.00  0.00     0.012 C 
HETATM   10  C3  UNL     1      20.401 -10.980  -3.006  1.00  0.00     0.041 C 
HETATM   11  C4  UNL     1      19.699 -11.204  -1.713  1.00  0.00     0.155 C 
HETATM   12  C5  UNL     1      19.438  -9.984  -0.901  1.00  0.00     0.229 C 
HETATM   13  F1  UNL     1      18.165 -10.086  -0.322  1.00  0.00    -0.244 F 
HETATM   14  C6  UNL     1      19.465  -8.693  -1.639  1.00  0.00     0.178 C 
BRANCH  11  15
HETATM   15  O1  UNL     1      20.353 -12.131  -0.900  1.00  0.00    -0.393 OA
ATOM     16  H1  UNL     1      20.304 -11.906   0.023  1.00  0.00     0.210 HD
ENDBRANCH  11  15
BRANCH  14  17
HETATM   17  O2  UNL     1      19.529  -7.673  -0.674  1.00  0.00    -0.391 OA
ATOM     18  H2  UNL     1      18.790  -7.099  -0.831  1.00  0.00     0.210 HD
ENDBRANCH  14  17
ENDBRANCH   5   7
ENDBRANCH   1   2
BRANCH   1  19
HETATM   19  C12 UNL     1      19.358  -4.529  -7.002  1.00  0.00     0.227 C 
HETATM   20  O3  UNL     1      18.732  -5.005  -7.988  1.00  0.00    -0.273 OA
HETATM   21  N2  UNL     1      20.520  -3.761  -7.313  1.00  0.00    -0.353 N 
ATOM     22  H2  UNL     1      21.076  -3.346  -6.564  1.00  0.00     0.163 HD
BRANCH  21  23
HETATM   23  C13 UNL     1      20.903  -3.576  -8.681  1.00  0.00     0.116 A 
HETATM   24  C14 UNL     1      22.349  -3.231  -8.893  1.00  0.00     0.062 A 
HETATM   25  C15 UNL     1      21.297  -2.198  -9.099  1.00  0.00     0.156 A 
BRANCH  25  26
HETATM   26  O4  UNL     1      21.066  -1.181  -8.168  1.00  0.00    -0.321 OA
BRANCH  26  27
HETATM   27  C16 UNL     1      20.699   0.099  -8.542  1.00  0.00     0.398 C 
HETATM   28  O5  UNL     1      21.124   1.040  -7.792  1.00  0.00    -0.276 OA
ENDBRANCH  26  27
ENDBRANCH  25  26
ENDBRANCH  21  23
ENDBRANCH   1  19
BRANCH   1  29
HETATM   29  C17 UNL     1      17.526  -4.399  -5.283  1.00  0.00    -0.023 C 
HETATM   30  C18 UNL     1      16.510  -5.414  -5.684  1.00  0.00     0.015 C 
HETATM   31  C19 UNL     1      15.123  -4.916  -5.328  1.00  0.00    -0.013 C 
HETATM   32  C20 UNL     1      15.008  -4.858  -3.820  1.00  0.00     0.009 C 
HETATM   33  C24 UNL     1      14.786  -3.580  -5.897  1.00  0.00     0.009 C 
HETATM   34  C21 UNL     1      16.036  -3.910  -3.304  1.00  0.00    -0.013 C 
HETATM   35  C22 UNL     1      15.741  -2.518  -3.827  1.00  0.00     0.009 C 
HETATM   36  C26 UNL     1      17.405  -4.275  -3.741  1.00  0.00     0.015 C 
HETATM   37  C23 UNL     1      15.787  -2.579  -5.316  1.00  0.00    -0.013 C 
HETATM   38  C25 UNL     1      17.144  -3.062  -5.846  1.00  0.00     0.015 C 
ENDBRANCH   1  29
TORSDOF 9
ENDMDL
MODEL 3
REMARK VINA RESULT: -7.681543589      4.350      8.547
REMARK  9 active torsions:
REMARK  status: ('A' for Active; 'I' for Inactive)
REMARK    1  A    between atoms: C4_4  and  O1_5 
REMARK    2  A    between atoms: C6_9  and  O2_10 
REMARK    3  A    between atoms: C7_12  and  N1_13 
REMARK    4  A    between atoms: C10_16  and  C11_17 
REMARK    5  A    between atoms: C11_17  and  C12_18 
REMARK    6  A    between atoms: C11_17  and  C17_28 
REMARK       I    between atoms: C12_18  and  N2_20 
REMARK    7  A    between atoms: N2_20  and  C13_22 
REMARK    8  A    between atoms: C15_24  and  O4_25 
REMARK    9  A    between atoms: O4_25  and  C16_26 
ROOT
HETATM    1  C11 UNL     1      16.517  -4.868  -4.757  1.00  0.00     0.120 C 
ENDROOT
BRANCH   1   2
HETATM    2  C10 UNL     1      15.997  -3.478  -4.714  1.00  0.00    -0.027 A 
HETATM    3  C9  UNL     1      15.610  -2.777  -3.597  1.00  0.00     0.026 A 
HETATM    4  C8  UNL     1      15.189  -1.533  -3.976  1.00  0.00     0.091 A 
HETATM    5  N1  UNL     1      15.303  -1.431  -5.324  1.00  0.00    -0.358 N 
HETATM    6  C27 UNL     1      15.784  -2.587  -5.773  1.00  0.00     0.099 A 
BRANCH   5   7
HETATM    7  C7  UNL     1      14.930  -0.212  -6.049  1.00  0.00     0.124 C 
HETATM    8  C2  UNL     1      13.522  -0.209  -6.523  1.00  0.00     0.010 C 
HETATM    9  C1  UNL     1      12.890   1.185  -6.386  1.00  0.00     0.012 C 
HETATM   10  C3  UNL     1      13.356  -0.620  -7.956  1.00  0.00     0.041 C 
HETATM   11  C4  UNL     1      14.206   0.149  -8.906  1.00  0.00     0.155 C 
HETATM   12  C5  UNL     1      15.466   0.704  -8.341  1.00  0.00     0.229 C 
HETATM   13  F1  UNL     1      16.490   0.567  -9.290  1.00  0.00    -0.244 F 
HETATM   14  C6  UNL     1      15.958   0.061  -7.093  1.00  0.00     0.178 C 
BRANCH  11  15
HETATM   15  O1  UNL     1      13.513   1.193  -9.521  1.00  0.00    -0.393 OA
ATOM     16  H1  UNL     1      12.597   0.987  -9.667  1.00  0.00     0.210 HD
ENDBRANCH  11  15
BRANCH  14  17
HETATM   17  O2  UNL     1      16.935   0.914  -6.554  1.00  0.00    -0.391 OA
ATOM     18  H2  UNL     1      17.612   1.009  -7.213  1.00  0.00     0.210 HD
ENDBRANCH  14  17
ENDBRANCH   5   7
ENDBRANCH   1   2
BRANCH   1  19
HETATM   19  C12 UNL     1      16.146  -5.543  -6.037  1.00  0.00     0.227 C 
HETATM   20  O3  UNL     1      14.982  -5.952  -6.299  1.00  0.00    -0.273 OA
HETATM   21  N2  UNL     1      17.126  -5.762  -7.051  1.00  0.00    -0.353 N 
ATOM     22  H2  UNL     1      18.089  -5.457  -6.907  1.00  0.00     0.163 HD
BRANCH  21  23
HETATM   23  C13 UNL     1      16.752  -6.410  -8.272  1.00  0.00     0.116 A 
HETATM   24  C14 UNL     1      17.833  -6.477  -9.312  1.00  0.00     0.062 A 
HETATM   25  C15 UNL     1      16.673  -5.563  -9.499  1.00  0.00     0.156 A 
BRANCH  25  26
HETATM   26  O4  UNL     1      16.777  -4.183  -9.303  1.00  0.00    -0.321 OA
BRANCH  26  27
HETATM   27  C16 UNL     1      15.688  -3.335  -9.392  1.00  0.00     0.398 C 
HETATM   28  O5  UNL     1      14.598  -3.778  -8.901  1.00  0.00    -0.276 OA
ENDBRANCH  26  27
ENDBRANCH  25  26
ENDBRANCH  21  23
ENDBRANCH   1  19
BRANCH   1  29
HETATM   29  C17 UNL     1      17.939  -5.017  -4.352  1.00  0.00    -0.023 C 
HETATM   30  C18 UNL     1      18.255  -4.713  -2.927  1.00  0.00     0.015 C 
HETATM   31  C19 UNL     1      19.740  -4.894  -2.683  1.00  0.00    -0.013 C 
HETATM   32  C20 UNL     1      20.072  -6.364  -2.826  1.00  0.00     0.009 C 
HETATM   33  C24 UNL     1      20.612  -4.102  -3.596  1.00  0.00     0.009 C 
HETATM   34  C21 UNL     1      19.729  -6.792  -4.213  1.00  0.00    -0.013 C 
HETATM   35  C22 UNL     1      20.600  -6.039  -5.200  1.00  0.00     0.009 C 
HETATM   36  C26 UNL     1      18.314  -6.508  -4.554  1.00  0.00     0.015 C 
HETATM   37  C23 UNL     1      20.328  -4.585  -5.020  1.00  0.00    -0.013 C 
HETATM   38  C25 UNL     1      18.852  -4.228  -5.244  1.00  0.00     0.015 C 
ENDBRANCH   1  29
TORSDOF 9
ENDMDL
MODEL 4
REMARK VINA RESULT: -7.466344533      1.838      2.588
REMARK  9 active torsions:
REMARK  status: ('A' for Active; 'I' for Inactive)
REMARK    1  A    between atoms: C4_4  and  O1_5 
REMARK    2  A    between atoms: C6_9  and  O2_10 
REMARK    3  A    between atoms: C7_12  and  N1_13 
REMARK    4  A    between atoms: C10_16  and  C11_17 
REMARK    5  A    between atoms: C11_17  and  C12_18 
REMARK    6  A    between atoms: C11_17  and  C17_28 
REMARK       I    between atoms: C12_18  and  N2_20 
REMARK    7  A    between atoms: N2_20  and  C13_22 
REMARK    8  A    between atoms: C15_24  and  O4_25 
REMARK    9  A    between atoms: O4_25  and  C16_26 
ROOT
HETATM    1  C11 UNL     1      19.114  -3.701  -5.706  1.00  0.00     0.120 C 
ENDROOT
BRANCH   1   2
HETATM    2  C10 UNL     1      19.993  -4.627  -4.949  1.00  0.00    -0.027 A 
HETATM    3  C9  UNL     1      20.930  -4.285  -4.002  1.00  0.00     0.026 A 
HETATM    4  C8  UNL     1      21.531  -5.422  -3.541  1.00  0.00     0.091 A 
HETATM    5  N1  UNL     1      20.989  -6.488  -4.182  1.00  0.00    -0.358 N 
HETATM    6  C27 UNL     1      20.070  -6.023  -5.024  1.00  0.00     0.099 A 
BRANCH   5   7
HETATM    7  C7  UNL     1      21.420  -7.864  -3.911  1.00  0.00     0.124 C 
HETATM    8  C2  UNL     1      20.364  -8.709  -3.296  1.00  0.00     0.010 C 
HETATM    9  C1  UNL     1      20.401 -10.141  -3.851  1.00  0.00     0.012 C 
HETATM   10  C3  UNL     1      20.459  -8.820  -1.804  1.00  0.00     0.041 C 
HETATM   11  C4  UNL     1      21.796  -9.256  -1.315  1.00  0.00     0.155 C 
HETATM   12  C5  UNL     1      22.946  -8.921  -2.199  1.00  0.00     0.229 C 
HETATM   13  F1  UNL     1      24.031  -8.526  -1.404  1.00  0.00    -0.244 F 
HETATM   14  C6  UNL     1      22.717  -7.825  -3.178  1.00  0.00     0.178 C 
BRANCH  11  15
HETATM   15  O1  UNL     1      21.847 -10.624  -1.041  1.00  0.00    -0.393 OA
ATOM     16  H1  UNL     1      21.915 -10.807  -0.111  1.00  0.00     0.210 HD
ENDBRANCH  11  15
BRANCH  14  17
HETATM   17  O2  UNL     1      23.766  -7.887  -4.111  1.00  0.00    -0.391 OA
ATOM     18  H2  UNL     1      24.200  -7.042  -4.093  1.00  0.00     0.210 HD
ENDBRANCH  14  17
ENDBRANCH   5   7
ENDBRANCH   1   2
BRANCH   1  19
HETATM   19  C12 UNL     1      19.415  -3.747  -7.169  1.00  0.00     0.227 C 
HETATM   20  O3  UNL     1      19.043  -4.682  -7.930  1.00  0.00    -0.273 OA
HETATM   21  N2  UNL     1      20.162  -2.700  -7.787  1.00  0.00    -0.353 N 
ATOM     22  H2  UNL     1      20.496  -1.911  -7.232  1.00  0.00     0.163 HD
BRANCH  21  23
HETATM   23  C13 UNL     1      20.441  -2.761  -9.191  1.00  0.00     0.116 A 
HETATM   24  C14 UNL     1      21.723  -2.102  -9.611  1.00  0.00     0.062 A 
HETATM   25  C15 UNL     1      20.416  -1.475  -9.949  1.00  0.00     0.156 A 
BRANCH  25  26
HETATM   26  O4  UNL     1      19.928  -0.362  -9.258  1.00  0.00    -0.321 OA
BRANCH  26  27
HETATM   27  C16 UNL     1      20.689   0.774  -9.047  1.00  0.00     0.398 C 
HETATM   28  O5  UNL     1      21.135   0.932  -7.862  1.00  0.00    -0.276 OA
ENDBRANCH  26  27
ENDBRANCH  25  26
ENDBRANCH  21  23
ENDBRANCH   1  19
BRANCH   1  29
HETATM   29  C17 UNL     1      17.672  -3.780  -5.355  1.00  0.00    -0.023 C 
HETATM   30  C18 UNL     1      16.952  -5.009  -5.795  1.00  0.00     0.015 C 
HETATM   31  C19 UNL     1      15.497  -4.926  -5.377  1.00  0.00    -0.013 C 
HETATM   32  C20 UNL     1      15.429  -4.982  -3.866  1.00  0.00     0.009 C 
HETATM   33  C24 UNL     1      14.791  -3.703  -5.855  1.00  0.00     0.009 C 
HETATM   34  C21 UNL     1      16.183  -3.818  -3.316  1.00  0.00    -0.013 C 
HETATM   35  C22 UNL     1      15.504  -2.533  -3.745  1.00  0.00     0.009 C 
HETATM   36  C26 UNL     1      17.582  -3.775  -3.807  1.00  0.00     0.015 C 
HETATM   37  C23 UNL     1      15.507  -2.500  -5.236  1.00  0.00    -0.013 C 
HETATM   38  C25 UNL     1      16.923  -2.568  -5.826  1.00  0.00     0.015 C 
ENDBRANCH   1  29
TORSDOF 9
ENDMDL
MODEL 5
REMARK VINA RESULT: -7.454920267      1.811      2.618
REMARK  9 active torsions:
REMARK  status: ('A' for Active; 'I' for Inactive)
REMARK    1  A    between atoms: C4_4  and  O1_5 
REMARK    2  A    between atoms: C6_9  and  O2_10 
REMARK    3  A    between atoms: C7_12  and  N1_13 
REMARK    4  A    between atoms: C10_16  and  C11_17 
REMARK    5  A    between atoms: C11_17  and  C12_18 
REMARK    6  A    between atoms: C11_17  and  C17_28 
REMARK       I    between atoms: C12_18  and  N2_20 
REMARK    7  A    between atoms: N2_20  and  C13_22 
REMARK    8  A    between atoms: C15_24  and  O4_25 
REMARK    9  A    between atoms: O4_25  and  C16_26 
ROOT
HETATM    1  C11 UNL     1      19.254  -4.376  -4.555  1.00  0.00     0.120 C 
ENDROOT
BRANCH   1   2
HETATM    2  C10 UNL     1      19.622  -5.785  -4.266  1.00  0.00    -0.027 A 
HETATM    3  C9  UNL     1      19.717  -6.815  -5.172  1.00  0.00     0.026 A 
HETATM    4  C8  UNL     1      20.078  -7.955  -4.512  1.00  0.00     0.091 A 
HETATM    5  N1  UNL     1      20.215  -7.666  -3.193  1.00  0.00    -0.358 N 
HETATM    6  C27 UNL     1      19.945  -6.374  -3.038  1.00  0.00     0.099 A 
BRANCH   5   7
HETATM    7  C7  UNL     1      20.598  -8.683  -2.208  1.00  0.00     0.124 C 
HETATM    8  C2  UNL     1      21.262  -9.870  -2.805  1.00  0.00     0.010 C 
HETATM    9  C1  UNL     1      22.403 -10.380  -1.911  1.00  0.00     0.012 C 
HETATM   10  C3  UNL     1      20.344 -11.033  -3.040  1.00  0.00     0.041 C 
HETATM   11  C4  UNL     1      19.571 -11.444  -1.836  1.00  0.00     0.155 C 
HETATM   12  C5  UNL     1      19.315 -10.372  -0.837  1.00  0.00     0.229 C 
HETATM   13  F1  UNL     1      18.012 -10.516  -0.338  1.00  0.00    -0.244 F 
HETATM   14  C6  UNL     1      19.424  -8.975  -1.338  1.00  0.00     0.178 C 
BRANCH  11  15
HETATM   15  O1  UNL     1      20.151 -12.525  -1.170  1.00  0.00    -0.393 OA
ATOM     16  H1  UNL     1      19.771 -12.671  -0.311  1.00  0.00     0.210 HD
ENDBRANCH  11  15
BRANCH  14  17
HETATM   17  O2  UNL     1      19.478  -8.141  -0.209  1.00  0.00    -0.391 OA
ATOM     18  H2  UNL     1      19.644  -7.261  -0.525  1.00  0.00     0.210 HD
ENDBRANCH  14  17
ENDBRANCH   5   7
ENDBRANCH   1   2
BRANCH   1  19
HETATM   19  C12 UNL     1      20.348  -3.673  -5.290  1.00  0.00     0.227 C 
HETATM   20  O3  UNL     1      20.926  -2.637  -4.860  1.00  0.00    -0.273 OA
HETATM   21  N2  UNL     1      20.801  -4.159  -6.553  1.00  0.00    -0.353 N 
ATOM     22  H2  UNL     1      20.379  -4.993  -6.962  1.00  0.00     0.163 HD
BRANCH  21  23
HETATM   23  C13 UNL     1      21.852  -3.472  -7.243  1.00  0.00     0.116 A 
HETATM   24  C14 UNL     1      22.470  -4.236  -8.378  1.00  0.00     0.062 A 
HETATM   25  C15 UNL     1      23.231  -4.029  -7.116  1.00  0.00     0.156 A 
BRANCH  25  26
HETATM   26  O4  UNL     1      23.399  -5.050  -6.176  1.00  0.00    -0.321 OA
BRANCH  26  27
HETATM   27  C16 UNL     1      23.938  -4.825  -4.922  1.00  0.00     0.398 C 
HETATM   28  O5  UNL     1      23.224  -5.203  -3.935  1.00  0.00    -0.276 OA
ENDBRANCH  26  27
ENDBRANCH  25  26
ENDBRANCH  21  23
ENDBRANCH   1  19
BRANCH   1  29
HETATM   29  C17 UNL     1      17.892  -4.187  -5.117  1.00  0.00    -0.023 C 
HETATM   30  C18 UNL     1      17.403  -5.255  -6.035  1.00  0.00     0.015 C 
HETATM   31  C19 UNL     1      16.014  -4.906  -6.532  1.00  0.00    -0.013 C 
HETATM   32  C20 UNL     1      15.058  -4.965  -5.360  1.00  0.00     0.009 C 
HETATM   33  C24 UNL     1      15.914  -3.567  -7.180  1.00  0.00     0.009 C 
HETATM   34  C21 UNL     1      15.499  -3.969  -4.341  1.00  0.00    -0.013 C 
HETATM   35  C22 UNL     1      15.400  -2.575  -4.927  1.00  0.00     0.009 C 
HETATM   36  C26 UNL     1      16.905  -4.183  -3.920  1.00  0.00     0.015 C 
HETATM   37  C23 UNL     1      16.289  -2.526  -6.122  1.00  0.00    -0.013 C 
HETATM   38  C25 UNL     1      17.751  -2.852  -5.786  1.00  0.00     0.015 C 
ENDBRANCH   1  29
TORSDOF 9
ENDMDL
