MODEL 1
REMARK VINA RESULT: -5.644643718      0.000      0.000
REMARK  9 active torsions:
REMARK  status: ('A' for Active; 'I' for Inactive)
REMARK    1  A    between atoms: N2_7  and  N3_8 
REMARK    2  A    between atoms: C4_10  and  C5_11 
REMARK    3  A    between atoms: C6_17  and  N6_18 
REMARK    4  A    between atoms: C7_21  and  N7_22 
REMARK    5  A    between atoms: N7_22  and  C8_23 
REMARK    6  A    between atoms: C8_23  and  C9_24 
REMARK    7  A    between atoms: C9_24  and  N8_25 
REMARK    8  A    between atoms: C9_24  and  N9_29 
REMARK    9  A    between atoms: C11_34  and  N10_35 
ROOT
HETATM    1  C1  UNL     1      14.494  21.426  -4.102  1.00  0.00     0.089 C 
HETATM    2  C2  UNL     1      15.440  20.679  -3.268  1.00  0.00     0.079 A 
HETATM    3  N1  UNL     1      15.195  19.431  -2.797  1.00  0.00    -0.338 N 
ATOM      4  H1  UNL     1      14.316  18.961  -3.017  1.00  0.00     0.168 HD
HETATM    5  C3  UNL     1      16.130  18.814  -2.029  1.00  0.00     0.113 A 
HETATM    6  S1  UNL     1      16.161  17.277  -1.280  1.00  0.00     0.032 SA
HETATM    7  N2  UNL     1      17.651  17.349  -0.563  1.00  0.00    -0.193 N 
HETATM    8  C7  UNL     1      18.157  18.585  -0.898  1.00  0.00     0.222 A 
HETATM    9  C10 UNL     1      17.335  19.340  -1.673  1.00  0.00     0.103 A 
HETATM   10  C11 UNL     1      17.559  20.628  -2.176  1.00  0.00     0.118 A 
HETATM   11  N11 UNL     1      16.616  21.223  -2.935  1.00  0.00    -0.332 N 
ATOM     12  H11 UNL     1      16.816  22.161  -3.282  1.00  0.00     0.168 HD
ENDROOT
BRANCH   7  13
HETATM   13  N3  UNL     1      18.189  16.323   0.198  1.00  0.00    -0.294 N 
HETATM   14  C4  UNL     1      18.978  15.472  -0.356  1.00  0.00     0.143 C 
ATOM     15  H3  UNL     1      17.962  16.244   1.190  1.00  0.00     0.187 HD
BRANCH  14  16
HETATM   16  C5  UNL     1      19.571  14.371   0.404  1.00  0.00     0.118 A 
HETATM   17  N4  UNL     1      19.141  13.865   1.586  1.00  0.00    -0.237 N 
HETATM   18  O1  UNL     1      19.931  12.903   1.928  1.00  0.00    -0.155 OA
ATOM     19  H4  UNL     1      18.331  14.189   2.115  1.00  0.00     0.197 HD
HETATM   20  N5  UNL     1      20.874  12.724   1.050  1.00  0.00    -0.224 N 
HETATM   21  C6  UNL     1      20.679  13.624   0.084  1.00  0.00     0.151 A 
ATOM     22  H5  UNL     1      21.620  12.029   1.091  1.00  0.00     0.198 HD
BRANCH  21  23
HETATM   23  N6  UNL     1      21.393  13.782  -0.974  1.00  0.00    -0.382 N 
ATOM     24  H62 UNL     1      21.084  14.171  -1.865  1.00  0.00     0.157 HD
ATOM     25  H61 UNL     1      22.379  13.533  -1.056  1.00  0.00     0.157 HD
ENDBRANCH  21  23
ENDBRANCH  14  16
ENDBRANCH   7  13
BRANCH   8  26
HETATM   26  N7  UNL     1      19.288  18.836  -0.447  1.00  0.00    -0.397 NA
BRANCH  26  27
HETATM   27  C8  UNL     1      20.602  18.815  -0.272  1.00  0.00     0.219 C 
BRANCH  27  28
HETATM   28  C9  UNL     1      21.225  20.047   0.417  1.00  0.00     0.429 C 
BRANCH  28  29
HETATM   29  N8  UNL     1      22.325  19.681   1.259  1.00  0.00    -0.045 N 
ATOM     30  H83 UNL     1      22.550  20.423   1.922  1.00  0.00     0.277 HD
ATOM     31  H82 UNL     1      22.060  18.951   1.922  1.00  0.00     0.277 HD
ATOM     32  H81 UNL     1      23.143  19.409   0.714  1.00  0.00     0.277 HD
ENDBRANCH  28  29
BRANCH  28  33
HETATM   33  N9  UNL     1      20.207  20.815   1.072  1.00  0.00    -0.045 N 
ATOM     34  H93 UNL     1      19.288  20.663   0.656  1.00  0.00     0.277 HD
ATOM     35  H92 UNL     1      20.007  20.463   2.008  1.00  0.00     0.277 HD
ATOM     36  H91 UNL     1      20.463  21.802   1.082  1.00  0.00     0.277 HD
ENDBRANCH  28  33
ENDBRANCH  27  28
ENDBRANCH  26  27
ENDBRANCH   8  26
BRANCH  10  37
HETATM   37  N10 UNL     1      18.613  21.317  -1.974  1.00  0.00    -0.385 N 
ATOM     38 2H10 UNL     1      19.183  21.021  -1.181  1.00  0.00     0.157 HD
ATOM     39 1H10 UNL     1      18.906  22.115  -2.538  1.00  0.00     0.157 HD
ENDBRANCH  10  37
TORSDOF 9
ENDMDL
MODEL 2
REMARK VINA RESULT: -5.559843582      1.795      2.270
REMARK  9 active torsions:
REMARK  status: ('A' for Active; 'I' for Inactive)
REMARK    1  A    between atoms: N2_7  and  N3_8 
REMARK    2  A    between atoms: C4_10  and  C5_11 
REMARK    3  A    between atoms: C6_17  and  N6_18 
REMARK    4  A    between atoms: C7_21  and  N7_22 
REMARK    5  A    between atoms: N7_22  and  C8_23 
REMARK    6  A    between atoms: C8_23  and  C9_24 
REMARK    7  A    between atoms: C9_24  and  N8_25 
REMARK    8  A    between atoms: C9_24  and  N9_29 
REMARK    9  A    between atoms: C11_34  and  N10_35 
ROOT
HETATM    1  C1  UNL     1      15.176  19.028  -7.121  1.00  0.00     0.089 C 
HETATM    2  C2  UNL     1      15.621  18.681  -5.769  1.00  0.00     0.079 A 
HETATM    3  N1  UNL     1      16.132  17.469  -5.439  1.00  0.00    -0.338 N 
ATOM      4  H1  UNL     1      16.227  16.741  -6.147  1.00  0.00     0.168 HD
HETATM    5  C3  UNL     1      16.518  17.236  -4.158  1.00  0.00     0.113 A 
HETATM    6  S1  UNL     1      17.191  15.858  -3.400  1.00  0.00     0.032 SA
HETATM    7  N2  UNL     1      17.347  16.440  -1.858  1.00  0.00    -0.193 N 
HETATM    8  C7  UNL     1      16.875  17.732  -1.907  1.00  0.00     0.222 A 
HETATM    9  C10 UNL     1      16.443  18.129  -3.133  1.00  0.00     0.103 A 
HETATM   10  C11 UNL     1      15.911  19.370  -3.505  1.00  0.00     0.118 A 
HETATM   11  N11 UNL     1      15.533  19.581  -4.782  1.00  0.00    -0.332 N 
ATOM     12  H11 UNL     1      15.151  20.498  -5.014  1.00  0.00     0.168 HD
ENDROOT
BRANCH   7  13
HETATM   13  N3  UNL     1      17.862  15.700  -0.805  1.00  0.00    -0.294 N 
HETATM   14  C4  UNL     1      18.926  15.001  -0.984  1.00  0.00     0.143 C 
ATOM     15  H3  UNL     1      17.401  15.710   0.105  1.00  0.00     0.187 HD
BRANCH  14  16
HETATM   16  C5  UNL     1      19.508  14.204   0.096  1.00  0.00     0.118 A 
HETATM   17  N4  UNL     1      18.974  13.965   1.319  1.00  0.00    -0.237 N 
HETATM   18  O1  UNL     1      19.792  13.218   1.982  1.00  0.00    -0.155 OA
ATOM     19  H4  UNL     1      18.077  14.315   1.657  1.00  0.00     0.197 HD
HETATM   20  N5  UNL     1      20.852  12.934   1.283  1.00  0.00    -0.224 N 
HETATM   21  C6  UNL     1      20.708  13.533   0.099  1.00  0.00     0.151 A 
ATOM     22  H5  UNL     1      21.643  12.363   1.583  1.00  0.00     0.198 HD
BRANCH  21  23
HETATM   23  N6  UNL     1      21.536  13.502  -0.883  1.00  0.00    -0.382 N 
ATOM     24  H62 UNL     1      22.234  12.781  -1.069  1.00  0.00     0.157 HD
ATOM     25  H61 UNL     1      21.602  14.210  -1.615  1.00  0.00     0.157 HD
ENDBRANCH  21  23
ENDBRANCH  14  16
ENDBRANCH   7  13
BRANCH   8  26
HETATM   26  N7  UNL     1      16.909  18.351  -0.829  1.00  0.00    -0.397 NA
BRANCH  26  27
HETATM   27  C8  UNL     1      17.360  19.054   0.200  1.00  0.00     0.219 C 
BRANCH  27  28
HETATM   28  C9  UNL     1      18.579  19.961  -0.067  1.00  0.00     0.429 C 
BRANCH  28  29
HETATM   29  N8  UNL     1      19.776  19.196  -0.254  1.00  0.00    -0.045 N 
ATOM     30  H83 UNL     1      19.928  18.546   0.517  1.00  0.00     0.277 HD
ATOM     31  H82 UNL     1      19.673  18.521  -1.012  1.00  0.00     0.277 HD
ATOM     32  H81 UNL     1      20.588  19.796  -0.399  1.00  0.00     0.277 HD
ENDBRANCH  28  29
BRANCH  28  33
HETATM   33  N9  UNL     1      18.675  20.971   0.947  1.00  0.00    -0.045 N 
ATOM     34  H93 UNL     1      19.466  20.812   1.570  1.00  0.00     0.277 HD
ATOM     35  H92 UNL     1      18.965  21.870   0.563  1.00  0.00     0.277 HD
ATOM     36  H91 UNL     1      17.794  21.041   1.457  1.00  0.00     0.277 HD
ENDBRANCH  28  33
ENDBRANCH  27  28
ENDBRANCH  26  27
ENDBRANCH   8  26
BRANCH  10  37
HETATM   37  N10 UNL     1      15.746  20.360  -2.716  1.00  0.00    -0.385 N 
ATOM     38 2H10 UNL     1      16.587  20.681  -2.237  1.00  0.00     0.157 HD
ATOM     39 1H10 UNL     1      14.855  20.827  -2.544  1.00  0.00     0.157 HD
ENDBRANCH  10  37
TORSDOF 9
ENDMDL
MODEL 3
REMARK VINA RESULT: -5.556642440      3.094      6.976
REMARK  9 active torsions:
REMARK  status: ('A' for Active; 'I' for Inactive)
REMARK    1  A    between atoms: N2_7  and  N3_8 
REMARK    2  A    between atoms: C4_10  and  C5_11 
REMARK    3  A    between atoms: C6_17  and  N6_18 
REMARK    4  A    between atoms: C7_21  and  N7_22 
REMARK    5  A    between atoms: N7_22  and  C8_23 
REMARK    6  A    between atoms: C8_23  and  C9_24 
REMARK    7  A    between atoms: C9_24  and  N8_25 
REMARK    8  A    between atoms: C9_24  and  N9_29 
REMARK    9  A    between atoms: C11_34  and  N10_35 
ROOT
HETATM    1  C1  UNL     1      26.056  18.939   0.947  1.00  0.00     0.089 C 
HETATM    2  C2  UNL     1      24.759  18.395   0.535  1.00  0.00     0.079 A 
HETATM    3  N1  UNL     1      23.629  19.140   0.458  1.00  0.00    -0.338 N 
ATOM      4  H1  UNL     1      23.650  20.133   0.690  1.00  0.00     0.168 HD
HETATM    5  C3  UNL     1      22.469  18.551   0.067  1.00  0.00     0.113 A 
HETATM    6  S1  UNL     1      20.887  19.167  -0.140  1.00  0.00     0.032 SA
HETATM    7  N2  UNL     1      20.115  17.787  -0.629  1.00  0.00    -0.193 N 
HETATM    8  C7  UNL     1      21.086  16.811  -0.641  1.00  0.00     0.222 A 
HETATM    9  C10 UNL     1      22.321  17.239  -0.269  1.00  0.00     0.103 A 
HETATM   10  C11 UNL     1      23.505  16.498  -0.179  1.00  0.00     0.118 A 
HETATM   11  N11 UNL     1      24.646  17.102   0.212  1.00  0.00    -0.332 N 
ATOM     12  H11 UNL     1      25.487  16.528   0.265  1.00  0.00     0.168 HD
ENDROOT
BRANCH   7  13
HETATM   13  N3  UNL     1      18.765  17.729  -0.940  1.00  0.00    -0.294 N 
HETATM   14  C4  UNL     1      17.947  18.533  -0.359  1.00  0.00     0.143 C 
ATOM     15  H3  UNL     1      18.424  17.055  -1.626  1.00  0.00     0.187 HD
BRANCH  14  16
HETATM   16  C5  UNL     1      16.514  18.510  -0.653  1.00  0.00     0.118 A 
HETATM   17  N4  UNL     1      15.803  19.438  -1.340  1.00  0.00    -0.237 N 
HETATM   18  O1  UNL     1      14.571  19.056  -1.384  1.00  0.00    -0.155 OA
ATOM     19  H4  UNL     1      16.178  20.292  -1.752  1.00  0.00     0.197 HD
HETATM   20  N5  UNL     1      14.400  17.923  -0.768  1.00  0.00    -0.224 N 
HETATM   21  C6  UNL     1      15.594  17.553  -0.299  1.00  0.00     0.151 A 
ATOM     22  H5  UNL     1      13.522  17.414  -0.663  1.00  0.00     0.198 HD
BRANCH  21  23
HETATM   23  N6  UNL     1      15.859  16.488   0.370  1.00  0.00    -0.382 N 
ATOM     24  H62 UNL     1      16.611  15.824   0.185  1.00  0.00     0.157 HD
ATOM     25  H61 UNL     1      15.340  16.167   1.188  1.00  0.00     0.157 HD
ENDBRANCH  21  23
ENDBRANCH  14  16
ENDBRANCH   7  13
BRANCH   8  26
HETATM   26  N7  UNL     1      20.699  15.681  -0.986  1.00  0.00    -0.397 NA
BRANCH  26  27
HETATM   27  C8  UNL     1      20.220  14.446  -0.925  1.00  0.00     0.219 C 
BRANCH  27  28
HETATM   28  C9  UNL     1      19.793  13.941   0.469  1.00  0.00     0.429 C 
BRANCH  28  29
HETATM   29  N8  UNL     1      18.560  14.536   0.892  1.00  0.00    -0.045 N 
ATOM     30  H83 UNL     1      18.584  14.781   1.881  1.00  0.00     0.277 HD
ATOM     31  H82 UNL     1      18.443  15.471   0.499  1.00  0.00     0.277 HD
ATOM     32  H81 UNL     1      17.761  13.939   0.675  1.00  0.00     0.277 HD
ENDBRANCH  28  29
BRANCH  28  33
HETATM   33  N9  UNL     1      20.873  14.091   1.401  1.00  0.00    -0.045 N 
ATOM     34  H93 UNL     1      21.679  13.522   1.145  1.00  0.00     0.277 HD
ATOM     35  H92 UNL     1      21.311  15.010   1.332  1.00  0.00     0.277 HD
ATOM     36  H91 UNL     1      20.550  13.892   2.348  1.00  0.00     0.277 HD
ENDBRANCH  28  33
ENDBRANCH  27  28
ENDBRANCH  26  27
ENDBRANCH   8  26
BRANCH  10  37
HETATM   37  N10 UNL     1      23.609  15.253  -0.445  1.00  0.00    -0.385 N 
ATOM     38 2H10 UNL     1      23.022  14.637   0.117  1.00  0.00     0.157 HD
ATOM     39 1H10 UNL     1      24.223  14.858  -1.157  1.00  0.00     0.157 HD
ENDBRANCH  10  37
TORSDOF 9
ENDMDL
MODEL 4
REMARK VINA RESULT: -5.511472562      2.902      7.130
REMARK  9 active torsions:
REMARK  status: ('A' for Active; 'I' for Inactive)
REMARK    1  A    between atoms: N2_7  and  N3_8 
REMARK    2  A    between atoms: C4_10  and  C5_11 
REMARK    3  A    between atoms: C6_17  and  N6_18 
REMARK    4  A    between atoms: C7_21  and  N7_22 
REMARK    5  A    between atoms: N7_22  and  C8_23 
REMARK    6  A    between atoms: C8_23  and  C9_24 
REMARK    7  A    between atoms: C9_24  and  N8_25 
REMARK    8  A    between atoms: C9_24  and  N9_29 
REMARK    9  A    between atoms: C11_34  and  N10_35 
ROOT
HETATM    1  C1  UNL     1      23.008  10.223   0.475  1.00  0.00     0.089 C 
HETATM    2  C2  UNL     1      22.535  11.583   0.203  1.00  0.00     0.079 A 
HETATM    3  N1  UNL     1      21.286  12.014   0.509  1.00  0.00    -0.338 N 
ATOM      4  H1  UNL     1      20.619  11.383   0.954  1.00  0.00     0.168 HD
HETATM    5  C3  UNL     1      20.934  13.293   0.219  1.00  0.00     0.113 A 
HETATM    6  S1  UNL     1      19.479  14.160   0.457  1.00  0.00     0.032 SA
HETATM    7  N2  UNL     1      19.923  15.623  -0.177  1.00  0.00    -0.193 N 
HETATM    8  C7  UNL     1      21.226  15.461  -0.589  1.00  0.00     0.222 A 
HETATM    9  C10 UNL     1      21.738  14.222  -0.370  1.00  0.00     0.103 A 
HETATM   10  C11 UNL     1      23.020  13.747  -0.673  1.00  0.00     0.118 A 
HETATM   11  N11 UNL     1      23.349  12.473  -0.377  1.00  0.00    -0.332 N 
ATOM     12  H11 UNL     1      24.292  12.164  -0.614  1.00  0.00     0.168 HD
ENDROOT
BRANCH   7  13
HETATM   13  N3  UNL     1      19.082  16.724  -0.233  1.00  0.00    -0.294 N 
HETATM   14  C4  UNL     1      17.812  16.546  -0.317  1.00  0.00     0.143 C 
ATOM     15  H3  UNL     1      19.468  17.668  -0.208  1.00  0.00     0.187 HD
BRANCH  14  16
HETATM   16  C5  UNL     1      16.883  17.675  -0.380  1.00  0.00     0.118 A 
HETATM   17  N4  UNL     1      16.452  18.441   0.652  1.00  0.00    -0.237 N 
HETATM   18  O1  UNL     1      15.642  19.333   0.187  1.00  0.00    -0.155 OA
ATOM     19  H4  UNL     1      16.721  18.331   1.630  1.00  0.00     0.197 HD
HETATM   20  N5  UNL     1      15.497  19.220  -1.101  1.00  0.00    -0.224 N 
HETATM   21  C6  UNL     1      16.259  18.195  -1.489  1.00  0.00     0.151 A 
ATOM     22  H5  UNL     1      14.913  19.804  -1.700  1.00  0.00     0.198 HD
BRANCH  21  23
HETATM   23  N6  UNL     1      16.398  17.752  -2.687  1.00  0.00    -0.382 N 
ATOM     24  H62 UNL     1      15.883  16.984  -3.117  1.00  0.00     0.157 HD
ATOM     25  H61 UNL     1      17.057  18.121  -3.374  1.00  0.00     0.157 HD
ENDBRANCH  21  23
ENDBRANCH  14  16
ENDBRANCH   7  13
BRANCH   8  26
HETATM   26  N7  UNL     1      21.750  16.466  -1.103  1.00  0.00    -0.397 NA
BRANCH  26  27
HETATM   27  C8  UNL     1      22.450  17.582  -1.243  1.00  0.00     0.219 C 
BRANCH  27  28
HETATM   28  C9  UNL     1      22.794  18.346   0.053  1.00  0.00     0.429 C 
BRANCH  28  29
HETATM   29  N8  UNL     1      23.463  17.504   1.001  1.00  0.00    -0.045 N 
ATOM     30  H83 UNL     1      23.095  16.553   0.979  1.00  0.00     0.277 HD
ATOM     31  H82 UNL     1      24.423  17.311   0.714  1.00  0.00     0.277 HD
ATOM     32  H81 UNL     1      23.427  17.895   1.942  1.00  0.00     0.277 HD
ENDBRANCH  28  29
BRANCH  28  33
HETATM   33  N9  UNL     1      21.626  19.002   0.565  1.00  0.00    -0.045 N 
ATOM     34  H93 UNL     1      21.756  20.011   0.636  1.00  0.00     0.277 HD
ATOM     35  H92 UNL     1      20.860  18.997  -0.109  1.00  0.00     0.277 HD
ATOM     36  H91 UNL     1      21.352  18.588   1.456  1.00  0.00     0.277 HD
ENDBRANCH  28  33
ENDBRANCH  27  28
ENDBRANCH  26  27
ENDBRANCH   8  26
BRANCH  10  37
HETATM   37  N10 UNL     1      23.942  14.435  -1.225  1.00  0.00    -0.385 N 
ATOM     38 2H10 UNL     1      23.751  15.434  -1.308  1.00  0.00     0.157 HD
ATOM     39 1H10 UNL     1      24.822  14.057  -1.574  1.00  0.00     0.157 HD
ENDBRANCH  10  37
TORSDOF 9
ENDMDL
MODEL 5
REMARK VINA RESULT: -5.511342375      3.087      5.523
REMARK  9 active torsions:
REMARK  status: ('A' for Active; 'I' for Inactive)
REMARK    1  A    between atoms: N2_7  and  N3_8 
REMARK    2  A    between atoms: C4_10  and  C5_11 
REMARK    3  A    between atoms: C6_17  and  N6_18 
REMARK    4  A    between atoms: C7_21  and  N7_22 
REMARK    5  A    between atoms: N7_22  and  C8_23 
REMARK    6  A    between atoms: C8_23  and  C9_24 
REMARK    7  A    between atoms: C9_24  and  N8_25 
REMARK    8  A    between atoms: C9_24  and  N9_29 
REMARK    9  A    between atoms: C11_34  and  N10_35 
ROOT
HETATM    1  C1  UNL     1      14.845  18.210  -0.920  1.00  0.00     0.089 C 
HETATM    2  C2  UNL     1      16.196  17.646  -0.983  1.00  0.00     0.079 A 
HETATM    3  N1  UNL     1      17.321  18.392  -0.858  1.00  0.00    -0.338 N 
ATOM      4  H1  UNL     1      17.258  19.399  -0.710  1.00  0.00     0.168 HD
HETATM    5  C3  UNL     1      18.534  17.784  -0.930  1.00  0.00     0.113 A 
HETATM    6  S1  UNL     1      20.128  18.395  -0.817  1.00  0.00     0.032 SA
HETATM    7  N2  UNL     1      20.977  16.988  -1.011  1.00  0.00    -0.193 N 
HETATM    8  C7  UNL     1      20.025  16.006  -1.166  1.00  0.00     0.222 A 
HETATM    9  C10 UNL     1      18.742  16.452  -1.120  1.00  0.00     0.103 A 
HETATM   10  C11 UNL     1      17.562  15.709  -1.245  1.00  0.00     0.118 A 
HETATM   11  N11 UNL     1      16.368  16.332  -1.172  1.00  0.00    -0.332 N 
ATOM     12  H11 UNL     1      15.531  15.758  -1.268  1.00  0.00     0.168 HD
ENDROOT
BRANCH   7  13
HETATM   13  N3  UNL     1      22.362  16.917  -1.000  1.00  0.00    -0.294 N 
HETATM   14  C4  UNL     1      23.020  17.544  -0.091  1.00  0.00     0.143 C 
ATOM     15  H3  UNL     1      22.855  16.372  -1.708  1.00  0.00     0.187 HD
BRANCH  14  16
HETATM   16  C5  UNL     1      24.482  17.501  -0.038  1.00  0.00     0.118 A 
HETATM   17  N4  UNL     1      25.302  16.657  -0.710  1.00  0.00    -0.237 N 
HETATM   18  O1  UNL     1      26.522  16.938  -0.394  1.00  0.00    -0.155 OA
ATOM     19  H4  UNL     1      25.006  15.924  -1.355  1.00  0.00     0.197 HD
HETATM   20  N5  UNL     1      26.581  17.924   0.453  1.00  0.00    -0.224 N 
HETATM   21  C6  UNL     1      25.324  18.301   0.697  1.00  0.00     0.151 A 
ATOM     22  H5  UNL     1      27.426  18.331   0.854  1.00  0.00     0.198 HD
BRANCH  21  23
HETATM   23  N6  UNL     1      24.945  19.245   1.481  1.00  0.00    -0.382 N 
ATOM     24  H62 UNL     1      24.223  19.941   1.292  1.00  0.00     0.157 HD
ATOM     25  H61 UNL     1      25.326  19.423   2.411  1.00  0.00     0.157 HD
ENDBRANCH  21  23
ENDBRANCH  14  16
ENDBRANCH   7  13
BRANCH   8  26
HETATM   26  N7  UNL     1      20.469  14.856  -1.329  1.00  0.00    -0.397 NA
BRANCH  26  27
HETATM   27  C8  UNL     1      20.828  13.604  -1.082  1.00  0.00     0.219 C 
BRANCH  27  28
HETATM   28  C9  UNL     1      21.259  13.283   0.364  1.00  0.00     0.429 C 
BRANCH  28  29
HETATM   29  N8  UNL     1      20.192  13.504   1.295  1.00  0.00    -0.045 N 
ATOM     30  H83 UNL     1      19.799  14.440   1.194  1.00  0.00     0.277 HD
ATOM     31  H82 UNL     1      19.366  12.957   1.051  1.00  0.00     0.277 HD
ATOM     32  H81 UNL     1      20.487  13.326   2.254  1.00  0.00     0.277 HD
ENDBRANCH  28  29
BRANCH  28  33
HETATM   33  N9  UNL     1      22.476  13.973   0.682  1.00  0.00    -0.045 N 
ATOM     34  H93 UNL     1      22.799  13.760   1.625  1.00  0.00     0.277 HD
ATOM     35  H92 UNL     1      23.271  13.601   0.164  1.00  0.00     0.277 HD
ATOM     36  H91 UNL     1      22.359  14.975   0.535  1.00  0.00     0.277 HD
ENDBRANCH  28  33
ENDBRANCH  27  28
ENDBRANCH  26  27
ENDBRANCH   8  26
BRANCH  10  37
HETATM   37  N10 UNL     1      17.508  14.447  -1.429  1.00  0.00    -0.385 N 
ATOM     38 2H10 UNL     1      18.266  13.912  -1.003  1.00  0.00     0.157 HD
ATOM     39 1H10 UNL     1      16.781  13.965  -1.957  1.00  0.00     0.157 HD
ENDBRANCH  10  37
TORSDOF 9
ENDMDL
