MODEL 1
REMARK VINA RESULT: -5.529484136      0.000      0.000
REMARK  7 active torsions:
REMARK  status: ('A' for Active; 'I' for Inactive)
REMARK    1  A    between atoms: O1_2  and  C2_3 
REMARK    2  A    between atoms: C2_3  and  C3_5 
REMARK    3  A    between atoms: C4_6  and  C5_7 
REMARK       I    between atoms: C5_7  and  N1_9 
REMARK    4  A    between atoms: N1_9  and  N2_11 
REMARK    5  A    between atoms: N3_14  and  C6_15 
REMARK    6  A    between atoms: N7_25  and  N8_26 
REMARK    7  A    between atoms: N9_32  and  N10_34 
ROOT
HETATM    1  C3  UNL     1      20.335  16.169  -0.118  1.00  0.00     0.122 A 
HETATM    2  C4  UNL     1      20.282  17.389  -0.756  1.00  0.00     0.150 A 
HETATM    3  N3  UNL     1      18.976  17.824  -0.836  1.00  0.00    -0.205 N 
HETATM    4  N7  UNL     1      18.239  16.929  -0.275  1.00  0.00    -0.168 N 
HETATM    5  C11 UNL     1      19.010  15.872   0.197  1.00  0.00     0.179 A 
HETATM    6  N9  UNL     1      18.518  14.885   0.782  1.00  0.00    -0.288 N 
ATOM      7  H9  UNL     1      17.509  15.024   0.826  1.00  0.00     0.188 HD
ENDROOT
BRANCH   3   8
HETATM    8  C6  UNL     1      18.568  19.065  -1.450  1.00  0.00     0.197 A 
HETATM    9  N4  UNL     1      18.512  19.279  -2.778  1.00  0.00    -0.220 N 
HETATM   10  O4  UNL     1      18.099  20.516  -2.974  1.00  0.00    -0.153 OA
ATOM     11  H4  UNL     1      18.748  18.604  -3.505  1.00  0.00     0.198 HD
HETATM   12  N5  UNL     1      17.891  21.096  -1.844  1.00  0.00    -0.222 N 
HETATM   13  C7  UNL     1      18.169  20.229  -0.849  1.00  0.00     0.169 A 
ATOM     14  H5  UNL     1      17.567  22.056  -1.721  1.00  0.00     0.198 HD
HETATM   15  N6  UNL     1      18.097  20.401   0.425  1.00  0.00    -0.381 N 
ATOM     16  H62 UNL     1      18.307  19.745   1.177  1.00  0.00     0.157 HD
ATOM     17  H61 UNL     1      17.800  21.268   0.873  1.00  0.00     0.157 HD
ENDBRANCH   3   8
BRANCH   2  18
HETATM   18  C5  UNL     1      21.373  18.234  -1.198  1.00  0.00     0.289 C 
HETATM   19  O3  UNL     1      21.643  18.223  -2.453  1.00  0.00    -0.264 OA
HETATM   20  N1  UNL     1      22.109  19.042  -0.315  1.00  0.00    -0.271 N 
ATOM     21  H1  UNL     1      21.876  19.051   0.678  1.00  0.00     0.189 HD
BRANCH  20  22
HETATM   22  N2  UNL     1      23.175  19.848  -0.794  1.00  0.00    -0.342 N 
ATOM     23  H22 UNL     1      23.773  19.481  -1.534  1.00  0.00     0.176 HD
ATOM     24  H21 UNL     1      23.339  20.777  -0.404  1.00  0.00     0.176 HD
ENDBRANCH  20  22
ENDBRANCH   2  18
BRANCH   4  25
HETATM   25  N8  UNL     1      16.851  16.984  -0.141  1.00  0.00    -0.286 N 
HETATM   26  C8  UNL     1      16.025  16.613  -1.027  1.00  0.00    -0.002 C 
HETATM   27  C9  UNL     1      16.471  16.067  -2.334  1.00  0.00     0.064 C 
HETATM   28  C10 UNL     1      14.564  16.712  -0.789  1.00  0.00     0.064 C 
ATOM     29  H8  UNL     1      16.475  17.348   0.734  1.00  0.00     0.188 HD
ENDBRANCH   4  25
BRANCH   1  30
HETATM   30  C2  UNL     1      21.490  15.301   0.077  1.00  0.00     0.299 C 
HETATM   31  O2  UNL     1      21.784  14.798   1.183  1.00  0.00    -0.259 OA
BRANCH  30  32
HETATM   32  O1  UNL     1      22.361  14.949  -0.954  1.00  0.00    -0.322 OA
HETATM   33  C1  UNL     1      23.716  15.338  -0.976  1.00  0.00     0.213 C 
ENDBRANCH  30  32
ENDBRANCH   1  30
BRANCH   6  34
HETATM   34  N10 UNL     1      18.787  13.738   1.364  1.00  0.00    -0.344 N 
ATOM     35 2H10 UNL     1      19.761  13.800   1.662  1.00  0.00     0.176 HD
ATOM     36 1H10 UNL     1      18.409  12.829   1.628  1.00  0.00     0.176 HD
ENDBRANCH   6  34
TORSDOF 7
ENDMDL
MODEL 2
REMARK VINA RESULT: -5.528310759      2.485      4.784
REMARK  7 active torsions:
REMARK  status: ('A' for Active; 'I' for Inactive)
REMARK    1  A    between atoms: O1_2  and  C2_3 
REMARK    2  A    between atoms: C2_3  and  C3_5 
REMARK    3  A    between atoms: C4_6  and  C5_7 
REMARK       I    between atoms: C5_7  and  N1_9 
REMARK    4  A    between atoms: N1_9  and  N2_11 
REMARK    5  A    between atoms: N3_14  and  C6_15 
REMARK    6  A    between atoms: N7_25  and  N8_26 
REMARK    7  A    between atoms: N9_32  and  N10_34 
ROOT
HETATM    1  C3  UNL     1      20.712  18.301  -0.222  1.00  0.00     0.122 A 
HETATM    2  C4  UNL     1      19.461  18.098  -0.762  1.00  0.00     0.150 A 
HETATM    3  N3  UNL     1      19.373  16.826  -1.287  1.00  0.00    -0.205 N 
HETATM    4  N7  UNL     1      20.508  16.250  -1.087  1.00  0.00    -0.168 N 
HETATM    5  C11 UNL     1      21.390  17.101  -0.430  1.00  0.00     0.179 A 
HETATM    6  N9  UNL     1      22.552  16.764  -0.124  1.00  0.00    -0.288 N 
ATOM      7  H9  UNL     1      22.690  15.805  -0.442  1.00  0.00     0.188 HD
ENDROOT
BRANCH   3   8
HETATM    8  C6  UNL     1      18.198  16.291  -1.933  1.00  0.00     0.197 A 
HETATM    9  N4  UNL     1      18.024  16.221  -3.266  1.00  0.00    -0.220 N 
HETATM   10  O4  UNL     1      16.843  15.680  -3.494  1.00  0.00    -0.153 OA
ATOM     11  H4  UNL     1      18.687  16.533  -3.975  1.00  0.00     0.198 HD
HETATM   12  N5  UNL     1      16.261  15.403  -2.380  1.00  0.00    -0.222 N 
HETATM   13  C7  UNL     1      17.070  15.767  -1.363  1.00  0.00     0.169 A 
ATOM     14  H5  UNL     1      15.340  14.978  -2.282  1.00  0.00     0.198 HD
HETATM   15  N6  UNL     1      16.875  15.668  -0.094  1.00  0.00    -0.381 N 
ATOM     16  H62 UNL     1      17.486  15.942   0.675  1.00  0.00     0.157 HD
ATOM     17  H61 UNL     1      16.034  15.277   0.331  1.00  0.00     0.157 HD
ENDBRANCH   3   8
BRANCH   2  18
HETATM   18  C5  UNL     1      18.301  18.966  -0.726  1.00  0.00     0.289 C 
HETATM   19  O3  UNL     1      18.010  19.590  -1.810  1.00  0.00    -0.264 OA
HETATM   20  N1  UNL     1      17.512  19.126   0.426  1.00  0.00    -0.271 N 
ATOM     21  H1  UNL     1      17.748  18.614   1.277  1.00  0.00     0.189 HD
BRANCH  20  22
HETATM   22  N2  UNL     1      16.389  19.994   0.416  1.00  0.00    -0.342 N 
ATOM     23  H22 UNL     1      16.216  20.563  -0.413  1.00  0.00     0.176 HD
ATOM     24  H21 UNL     1      15.768  20.048   1.223  1.00  0.00     0.176 HD
ENDBRANCH  20  22
ENDBRANCH   2  18
BRANCH   4  25
HETATM   25  N8  UNL     1      20.838  14.948  -1.465  1.00  0.00    -0.286 N 
HETATM   26  C8  UNL     1      20.659  13.920  -0.748  1.00  0.00    -0.002 C 
HETATM   27  C9  UNL     1      20.061  14.007   0.608  1.00  0.00     0.064 C 
HETATM   28  C10 UNL     1      21.045  12.575  -1.242  1.00  0.00     0.064 C 
ATOM     29  H8  UNL     1      21.254  14.816  -2.387  1.00  0.00     0.188 HD
ENDBRANCH   4  25
BRANCH   1  30
HETATM   30  C2  UNL     1      21.270  19.530   0.329  1.00  0.00     0.299 C 
HETATM   31  O2  UNL     1      22.376  19.993  -0.025  1.00  0.00    -0.259 OA
BRANCH  30  32
HETATM   32  O1  UNL     1      20.615  20.300   1.290  1.00  0.00    -0.322 OA
HETATM   33  C1  UNL     1      20.116  21.592   1.025  1.00  0.00     0.213 C 
ENDBRANCH  30  32
ENDBRANCH   1  30
BRANCH   6  34
HETATM   34  N10 UNL     1      23.669  17.157   0.448  1.00  0.00    -0.344 N 
ATOM     35 2H10 UNL     1      24.287  17.436  -0.313  1.00  0.00     0.176 HD
ATOM     36 1H10 UNL     1      24.147  17.288   1.339  1.00  0.00     0.176 HD
ENDBRANCH   6  34
TORSDOF 7
ENDMDL
MODEL 3
REMARK VINA RESULT: -5.528072352      1.801      4.239
REMARK  7 active torsions:
REMARK  status: ('A' for Active; 'I' for Inactive)
REMARK    1  A    between atoms: O1_2  and  C2_3 
REMARK    2  A    between atoms: C2_3  and  C3_5 
REMARK    3  A    between atoms: C4_6  and  C5_7 
REMARK       I    between atoms: C5_7  and  N1_9 
REMARK    4  A    between atoms: N1_9  and  N2_11 
REMARK    5  A    between atoms: N3_14  and  C6_15 
REMARK    6  A    between atoms: N7_25  and  N8_26 
REMARK    7  A    between atoms: N9_32  and  N10_34 
ROOT
HETATM    1  C3  UNL     1      20.583  16.867  -0.740  1.00  0.00     0.122 A 
HETATM    2  C4  UNL     1      19.316  16.350  -0.581  1.00  0.00     0.150 A 
HETATM    3  N3  UNL     1      18.380  17.228  -1.082  1.00  0.00    -0.205 N 
HETATM    4  N7  UNL     1      19.019  18.250  -1.539  1.00  0.00    -0.168 N 
HETATM    5  C11 UNL     1      20.391  18.098  -1.364  1.00  0.00     0.179 A 
HETATM    6  N9  UNL     1      21.218  18.958  -1.732  1.00  0.00    -0.288 N 
ATOM      7  H9  UNL     1      20.697  19.729  -2.151  1.00  0.00     0.188 HD
ENDROOT
BRANCH   3   8
HETATM    8  C6  UNL     1      16.955  16.996  -1.069  1.00  0.00     0.197 A 
HETATM    9  N4  UNL     1      16.280  16.336  -2.028  1.00  0.00    -0.220 N 
HETATM   10  O4  UNL     1      15.006  16.315  -1.688  1.00  0.00    -0.153 OA
ATOM     11  H4  UNL     1      16.682  15.924  -2.870  1.00  0.00     0.198 HD
HETATM   12  N5  UNL     1      14.838  16.925  -0.567  1.00  0.00    -0.222 N 
HETATM   13  C7  UNL     1      16.033  17.374  -0.131  1.00  0.00     0.169 A 
ATOM     14  H5  UNL     1      13.947  17.049  -0.087  1.00  0.00     0.198 HD
HETATM   15  N6  UNL     1      16.314  18.032   0.940  1.00  0.00    -0.381 N 
ATOM     16  H62 UNL     1      17.217  18.372   1.269  1.00  0.00     0.157 HD
ATOM     17  H61 UNL     1      15.626  18.314   1.639  1.00  0.00     0.157 HD
ENDBRANCH   3   8
BRANCH   2  18
HETATM   18  C5  UNL     1      18.921  15.042  -0.096  1.00  0.00     0.289 C 
HETATM   19  O3  UNL     1      18.347  14.261  -0.938  1.00  0.00    -0.264 OA
HETATM   20  N1  UNL     1      19.152  14.624   1.226  1.00  0.00    -0.271 N 
ATOM     21  H1  UNL     1      19.620  15.251   1.880  1.00  0.00     0.189 HD
BRANCH  20  22
HETATM   22  N2  UNL     1      18.739  13.336   1.657  1.00  0.00    -0.342 N 
ATOM     23  H22 UNL     1      18.739  13.130   2.656  1.00  0.00     0.176 HD
ATOM     24  H21 UNL     1      18.448  12.631   0.979  1.00  0.00     0.176 HD
ENDBRANCH  20  22
ENDBRANCH   2  18
BRANCH   4  25
HETATM   25  N8  UNL     1      18.443  19.371  -2.136  1.00  0.00    -0.286 N 
HETATM   26  C8  UNL     1      18.148  20.442  -1.528  1.00  0.00    -0.002 C 
HETATM   27  C9  UNL     1      18.399  20.610  -0.074  1.00  0.00     0.064 C 
HETATM   28  C10 UNL     1      17.536  21.582  -2.254  1.00  0.00     0.064 C 
ATOM     29  H8  UNL     1      18.244  19.324  -3.135  1.00  0.00     0.188 HD
ENDBRANCH   4  25
BRANCH   1  30
HETATM   30  C2  UNL     1      21.847  16.328  -0.252  1.00  0.00     0.299 C 
HETATM   31  O2  UNL     1      22.009  15.930   0.921  1.00  0.00    -0.259 OA
BRANCH  30  32
HETATM   32  O1  UNL     1      22.981  16.202  -1.054  1.00  0.00    -0.322 OA
HETATM   33  C1  UNL     1      24.290  16.394  -0.565  1.00  0.00     0.213 C 
ENDBRANCH  30  32
ENDBRANCH   1  30
BRANCH   6  34
HETATM   34  N10 UNL     1      22.495  19.262  -1.793  1.00  0.00    -0.344 N 
ATOM     35 2H10 UNL     1      22.957  18.443  -2.187  1.00  0.00     0.176 HD
ATOM     36 1H10 UNL     1      23.189  19.985  -1.603  1.00  0.00     0.176 HD
ENDBRANCH   6  34
TORSDOF 7
ENDMDL
MODEL 4
REMARK VINA RESULT: -5.521021589      2.150      4.283
REMARK  7 active torsions:
REMARK  status: ('A' for Active; 'I' for Inactive)
REMARK    1  A    between atoms: O1_2  and  C2_3 
REMARK    2  A    between atoms: C2_3  and  C3_5 
REMARK    3  A    between atoms: C4_6  and  C5_7 
REMARK       I    between atoms: C5_7  and  N1_9 
REMARK    4  A    between atoms: N1_9  and  N2_11 
REMARK    5  A    between atoms: N3_14  and  C6_15 
REMARK    6  A    between atoms: N7_25  and  N8_26 
REMARK    7  A    between atoms: N9_32  and  N10_34 
ROOT
HETATM    1  C3  UNL     1      20.227  17.508  -1.018  1.00  0.00     0.122 A 
HETATM    2  C4  UNL     1      19.054  16.814  -0.817  1.00  0.00     0.150 A 
HETATM    3  N3  UNL     1      17.979  17.574  -1.226  1.00  0.00    -0.205 N 
HETATM    4  N7  UNL     1      18.446  18.691  -1.668  1.00  0.00    -0.168 N 
HETATM    5  C11 UNL     1      19.833  18.724  -1.573  1.00  0.00     0.179 A 
HETATM    6  N9  UNL     1      20.513  19.703  -1.944  1.00  0.00    -0.288 N 
ATOM      7  H9  UNL     1      19.868  20.410  -2.298  1.00  0.00     0.188 HD
ENDROOT
BRANCH   3   8
HETATM    8  C6  UNL     1      16.603  17.147  -1.148  1.00  0.00     0.197 A 
HETATM    9  N4  UNL     1      15.981  16.396  -2.077  1.00  0.00    -0.220 N 
HETATM   10  O4  UNL     1      14.740  16.201  -1.679  1.00  0.00    -0.153 OA
ATOM     11  H4  UNL     1      16.398  16.041  -2.938  1.00  0.00     0.198 HD
HETATM   12  N5  UNL     1      14.541  16.785  -0.550  1.00  0.00    -0.222 N 
HETATM   13  C7  UNL     1      15.681  17.397  -0.167  1.00  0.00     0.169 A 
ATOM     14  H5  UNL     1      13.664  16.786  -0.029  1.00  0.00     0.198 HD
HETATM   15  N6  UNL     1      15.917  18.091   0.891  1.00  0.00    -0.381 N 
ATOM     16  H62 UNL     1      16.778  18.554   1.180  1.00  0.00     0.157 HD
ATOM     17  H61 UNL     1      15.229  18.278   1.622  1.00  0.00     0.157 HD
ENDBRANCH   3   8
BRANCH   2  18
HETATM   18  C5  UNL     1      18.869  15.447  -0.373  1.00  0.00     0.289 C 
HETATM   19  O3  UNL     1      18.608  14.575  -1.278  1.00  0.00    -0.264 OA
HETATM   20  N1  UNL     1      18.973  15.069   0.977  1.00  0.00    -0.271 N 
ATOM     21  H1  UNL     1      19.194  15.771   1.684  1.00  0.00     0.189 HD
BRANCH  20  22
HETATM   22  N2  UNL     1      18.776  13.718   1.365  1.00  0.00    -0.342 N 
ATOM     23  H22 UNL     1      19.466  13.021   1.083  1.00  0.00     0.176 HD
ATOM     24  H21 UNL     1      17.959  13.451   1.914  1.00  0.00     0.176 HD
ENDBRANCH  20  22
ENDBRANCH   2  18
BRANCH   4  25
HETATM   25  N8  UNL     1      17.688  19.744  -2.181  1.00  0.00    -0.286 N 
HETATM   26  C8  UNL     1      17.306  19.840  -3.385  1.00  0.00    -0.002 C 
HETATM   27  C9  UNL     1      17.639  18.806  -4.396  1.00  0.00     0.064 C 
HETATM   28  C10 UNL     1      16.501  21.004  -3.833  1.00  0.00     0.064 C 
ATOM     29  H8  UNL     1      17.423  20.491  -1.539  1.00  0.00     0.188 HD
ENDBRANCH   4  25
BRANCH   1  30
HETATM   30  C2  UNL     1      21.579  17.130  -0.624  1.00  0.00     0.299 C 
HETATM   31  O2  UNL     1      22.585  17.371  -1.326  1.00  0.00    -0.259 OA
BRANCH  30  32
HETATM   32  O1  UNL     1      21.869  16.476   0.574  1.00  0.00    -0.322 OA
HETATM   33  C1  UNL     1      22.498  15.215   0.625  1.00  0.00     0.213 C 
ENDBRANCH  30  32
ENDBRANCH   1  30
BRANCH   6  34
HETATM   34  N10 UNL     1      21.731  20.183  -2.058  1.00  0.00    -0.344 N 
ATOM     35 2H10 UNL     1      22.068  19.871  -2.969  1.00  0.00     0.176 HD
ATOM     36 1H10 UNL     1      22.455  20.735  -1.599  1.00  0.00     0.176 HD
ENDBRANCH   6  34
TORSDOF 7
ENDMDL
MODEL 5
REMARK VINA RESULT: -5.479215301      3.697      7.340
REMARK  7 active torsions:
REMARK  status: ('A' for Active; 'I' for Inactive)
REMARK    1  A    between atoms: O1_2  and  C2_3 
REMARK    2  A    between atoms: C2_3  and  C3_5 
REMARK    3  A    between atoms: C4_6  and  C5_7 
REMARK       I    between atoms: C5_7  and  N1_9 
REMARK    4  A    between atoms: N1_9  and  N2_11 
REMARK    5  A    between atoms: N3_14  and  C6_15 
REMARK    6  A    between atoms: N7_25  and  N8_26 
REMARK    7  A    between atoms: N9_32  and  N10_34 
ROOT
HETATM    1  C3  UNL     1      22.494  15.921  -0.116  1.00  0.00     0.122 A 
HETATM    2  C4  UNL     1      21.760  14.756  -0.069  1.00  0.00     0.150 A 
HETATM    3  N3  UNL     1      22.496  13.712  -0.587  1.00  0.00    -0.205 N 
HETATM    4  N7  UNL     1      23.641  14.188  -0.940  1.00  0.00    -0.168 N 
HETATM    5  C11 UNL     1      23.715  15.552  -0.678  1.00  0.00     0.179 A 
HETATM    6  N9  UNL     1      24.729  16.234  -0.932  1.00  0.00    -0.288 N 
ATOM      7  H9  UNL     1      25.426  15.612  -1.341  1.00  0.00     0.188 HD
ENDROOT
BRANCH   3   8
HETATM    8  C6  UNL     1      22.021  12.353  -0.691  1.00  0.00     0.197 A 
HETATM    9  N4  UNL     1      21.177  11.908  -1.640  1.00  0.00    -0.220 N 
HETATM   10  O4  UNL     1      20.963  10.625  -1.427  1.00  0.00    -0.153 OA
ATOM     11  H4  UNL     1      20.773  12.466  -2.393  1.00  0.00     0.198 HD
HETATM   12  N5  UNL     1      21.624  10.233  -0.395  1.00  0.00    -0.222 N 
HETATM   13  C7  UNL     1      22.309  11.280   0.109  1.00  0.00     0.169 A 
ATOM     14  H5  UNL     1      21.630   9.285  -0.019  1.00  0.00     0.198 HD
HETATM   15  N6  UNL     1      23.091  11.325   1.132  1.00  0.00    -0.381 N 
ATOM     16  H62 UNL     1      23.608  12.117   1.512  1.00  0.00     0.157 HD
ATOM     17  H61 UNL     1      23.306  10.526   1.728  1.00  0.00     0.157 HD
ENDBRANCH   3   8
BRANCH   2  18
HETATM   18  C5  UNL     1      20.459  14.522   0.527  1.00  0.00     0.289 C 
HETATM   19  O3  UNL     1      20.442  13.922   1.662  1.00  0.00    -0.264 OA
HETATM   20  N1  UNL     1      19.263  14.932  -0.086  1.00  0.00    -0.271 N 
ATOM     21  H1  UNL     1      19.293  15.418  -0.981  1.00  0.00     0.189 HD
BRANCH  20  22
HETATM   22  N2  UNL     1      18.011  14.673   0.534  1.00  0.00    -0.342 N 
ATOM     23  H22 UNL     1      17.264  15.361   0.436  1.00  0.00     0.176 HD
ATOM     24  H21 UNL     1      17.864  13.816   1.066  1.00  0.00     0.176 HD
ENDBRANCH  20  22
ENDBRANCH   2  18
BRANCH   4  25
HETATM   25  N8  UNL     1      24.685  13.460  -1.510  1.00  0.00    -0.286 N 
HETATM   26  C8  UNL     1      24.807  13.219  -2.747  1.00  0.00    -0.002 C 
HETATM   27  C9  UNL     1      23.817  13.707  -3.740  1.00  0.00     0.064 C 
HETATM   28  C10 UNL     1      25.957  12.432  -3.256  1.00  0.00     0.064 C 
ATOM     29  H8  UNL     1      25.402  13.094  -0.884  1.00  0.00     0.188 HD
ENDBRANCH   4  25
BRANCH   1  30
HETATM   30  C2  UNL     1      22.064  17.274   0.217  1.00  0.00     0.299 C 
HETATM   31  O2  UNL     1      21.001  17.773  -0.208  1.00  0.00    -0.259 OA
BRANCH  30  32
HETATM   32  O1  UNL     1      22.797  18.124   1.045  1.00  0.00    -0.322 OA
HETATM   33  C1  UNL     1      22.576  19.515   1.103  1.00  0.00     0.213 C 
ENDBRANCH  30  32
ENDBRANCH   1  30
BRANCH   6  34
HETATM   34  N10 UNL     1      25.254  17.438  -0.879  1.00  0.00    -0.344 N 
ATOM     35 2H10 UNL     1      25.939  17.409  -0.124  1.00  0.00     0.176 HD
ATOM     36 1H10 UNL     1      25.242  18.370  -1.291  1.00  0.00     0.176 HD
ENDBRANCH   6  34
TORSDOF 7
ENDMDL
