MODEL 1
REMARK VINA RESULT: -9.740698046      0.000      0.000
REMARK  8 active torsions:
REMARK  status: ('A' for Active; 'I' for Inactive)
REMARK    1  A    between atoms: C2_2  and  C3_3 
REMARK    2  A    between atoms: C3_3  and  C4_4 
REMARK    3  A    between atoms: C4_4  and  N1_5 
REMARK    4  A    between atoms: C4_4  and  C22_25 
REMARK       I    between atoms: N1_5  and  C5_6 
REMARK    5  A    between atoms: C5_6  and  C6_8 
REMARK    6  A    between atoms: C7_10  and  C8_11 
REMARK    7  A    between atoms: C22_25  and  C23_26 
REMARK    8  A    between atoms: C22_25  and  C24_29 
ROOT
HETATM    1  C6  UNL     1      12.503 -69.097 -21.675  1.00  0.00     0.203 C 
HETATM    2  N2  UNL     1      12.157 -69.730 -22.883  1.00  0.00    -0.354 N 
HETATM    3  C7  UNL     1      11.407 -70.829 -22.806  1.00  0.00     0.103 C 
HETATM    4  C17 UNL     1      12.476 -68.903 -23.953  1.00  0.00     0.065 C 
HETATM    5  C18 UNL     1      11.938 -67.587 -23.463  1.00  0.00     0.056 C 
HETATM    6  C19 UNL     1      12.568 -67.624 -22.011  1.00  0.00    -0.013 C 
HETATM    7  C20 UNL     1      11.637 -66.810 -21.168  1.00  0.00     0.018 C 
HETATM    8  C21 UNL     1      13.940 -67.159 -22.133  1.00  0.00     0.018 C 
ENDROOT
BRANCH   1   9
HETATM    9  C5  UNL     1      13.730 -69.648 -20.889  1.00  0.00     0.311 C 
HETATM   10  N1  UNL     1      14.632 -70.316 -21.580  1.00  0.00    -0.407 NA
HETATM   11  O1  UNL     1      13.887 -69.408 -19.723  1.00  0.00    -0.255 OA
BRANCH  10  12
HETATM   12  C4  UNL     1      15.637 -71.016 -22.166  1.00  0.00     0.179 C 
BRANCH  12  13
HETATM   13  C3  UNL     1      15.906 -70.117 -23.494  1.00  0.00     0.040 C 
BRANCH  13  14
HETATM   14  C2  UNL     1      16.983 -69.148 -23.059  1.00  0.00    -0.002 C 
HETATM   15  C1  UNL     1      16.961 -67.896 -23.942  1.00  0.00     0.005 C 
ENDBRANCH  13  14
ENDBRANCH  12  13
BRANCH  12  16
HETATM   16  C22 UNL     1      16.963 -71.331 -21.701  1.00  0.00     0.114 C 
BRANCH  16  17
HETATM   17  C23 UNL     1      16.926 -71.348 -20.129  1.00  0.00     0.238 C 
HETATM   18  N3  UNL     1      17.318 -70.131 -19.537  1.00  0.00    -0.062 NA
HETATM   19  O2  UNL     1      16.603 -72.318 -19.542  1.00  0.00    -0.276 OA
ENDBRANCH  16  17
BRANCH  16  20
HETATM   20  C24 UNL     1      17.401 -72.705 -22.132  1.00  0.00    -0.007 C 
HETATM   21  C25 UNL     1      18.704 -72.877 -22.786  1.00  0.00     0.010 C 
HETATM   22  C26 UNL     1      16.298 -73.558 -22.719  1.00  0.00     0.010 C 
ENDBRANCH  16  20
ENDBRANCH  12  16
ENDBRANCH  10  12
ENDBRANCH   1   9
BRANCH   3  23
HETATM   23  C8  UNL     1      10.840 -71.562 -23.929  1.00  0.00    -0.009 A 
HETATM   24  C9  UNL     1      11.393 -72.977 -23.940  1.00  0.00    -0.049 A 
HETATM   25  C10 UNL     1      12.441 -73.242 -23.001  1.00  0.00     0.049 C 
HETATM   26  C11 UNL     1      10.900 -73.769 -24.877  1.00  0.00     0.014 A 
HETATM   27  C12 UNL     1       9.931 -73.481 -25.788  1.00  0.00    -0.061 A 
HETATM   28  C13 UNL     1       9.378 -74.560 -26.708  1.00  0.00     0.048 C 
HETATM   29  C14 UNL     1       9.398 -72.260 -25.712  1.00  0.00     0.014 A 
HETATM   30  C15 UNL     1       9.875 -71.337 -24.797  1.00  0.00    -0.049 A 
HETATM   31  C16 UNL     1       8.992 -70.086 -24.690  1.00  0.00     0.049 C 
ENDBRANCH   3  23
TORSDOF 8
ENDMDL
MODEL 2
REMARK VINA RESULT: -9.730388315      1.177      1.504
REMARK  8 active torsions:
REMARK  status: ('A' for Active; 'I' for Inactive)
REMARK    1  A    between atoms: C2_2  and  C3_3 
REMARK    2  A    between atoms: C3_3  and  C4_4 
REMARK    3  A    between atoms: C4_4  and  N1_5 
REMARK    4  A    between atoms: C4_4  and  C22_25 
REMARK       I    between atoms: N1_5  and  C5_6 
REMARK    5  A    between atoms: C5_6  and  C6_8 
REMARK    6  A    between atoms: C7_10  and  C8_11 
REMARK    7  A    between atoms: C22_25  and  C23_26 
REMARK    8  A    between atoms: C22_25  and  C24_29 
ROOT
HETATM    1  C6  UNL     1      12.341 -68.981 -21.694  1.00  0.00     0.203 C 
HETATM    2  N2  UNL     1      12.074 -69.690 -22.881  1.00  0.00    -0.354 N 
HETATM    3  C7  UNL     1      11.198 -70.690 -22.814  1.00  0.00     0.103 C 
HETATM    4  C17 UNL     1      12.617 -69.008 -23.964  1.00  0.00     0.065 C 
HETATM    5  C18 UNL     1      12.180 -67.601 -23.661  1.00  0.00     0.056 C 
HETATM    6  C19 UNL     1      12.617 -67.563 -22.141  1.00  0.00    -0.013 C 
HETATM    7  C20 UNL     1      11.691 -66.578 -21.499  1.00  0.00     0.018 C 
HETATM    8  C21 UNL     1      14.039 -67.258 -22.116  1.00  0.00     0.018 C 
ENDROOT
BRANCH   1   9
HETATM    9  C5  UNL     1      13.388 -69.579 -20.709  1.00  0.00     0.311 C 
HETATM   10  N1  UNL     1      14.244 -70.452 -21.202  1.00  0.00    -0.407 NA
HETATM   11  O1  UNL     1      13.465 -69.202 -19.572  1.00  0.00    -0.255 OA
BRANCH  10  12
HETATM   12  C4  UNL     1      15.184 -71.356 -21.576  1.00  0.00     0.179 C 
BRANCH  12  13
HETATM   13  C3  UNL     1      15.168 -71.169 -23.190  1.00  0.00     0.040 C 
BRANCH  13  14
HETATM   14  C2  UNL     1      16.200 -72.163 -23.677  1.00  0.00    -0.002 C 
HETATM   15  C1  UNL     1      15.528 -73.484 -24.062  1.00  0.00     0.005 C 
ENDBRANCH  13  14
ENDBRANCH  12  13
BRANCH  12  16
HETATM   16  C22 UNL     1      16.588 -71.443 -21.262  1.00  0.00     0.114 C 
BRANCH  16  17
HETATM   17  C23 UNL     1      16.941 -70.234 -20.322  1.00  0.00     0.238 C 
HETATM   18  N3  UNL     1      17.303 -69.061 -21.013  1.00  0.00    -0.062 NA
HETATM   19  O2  UNL     1      16.904 -70.349 -19.149  1.00  0.00    -0.276 OA
ENDBRANCH  16  17
BRANCH  16  20
HETATM   20  C24 UNL     1      16.919 -72.693 -20.493  1.00  0.00    -0.007 C 
HETATM   21  C25 UNL     1      18.223 -73.339 -20.691  1.00  0.00     0.010 C 
HETATM   22  C26 UNL     1      15.767 -73.661 -20.345  1.00  0.00     0.010 C 
ENDBRANCH  16  20
ENDBRANCH  12  16
ENDBRANCH  10  12
ENDBRANCH   1   9
BRANCH   3  23
HETATM   23  C8  UNL     1      10.692 -71.466 -23.938  1.00  0.00    -0.009 A 
HETATM   24  C9  UNL     1      11.170 -72.903 -23.816  1.00  0.00    -0.049 A 
HETATM   25  C10 UNL     1      12.118 -73.157 -22.774  1.00  0.00     0.049 C 
HETATM   26  C11 UNL     1      10.719 -73.729 -24.745  1.00  0.00     0.014 A 
HETATM   27  C12 UNL     1       9.848 -73.455 -25.754  1.00  0.00    -0.061 A 
HETATM   28  C13 UNL     1       9.321 -74.562 -26.654  1.00  0.00     0.048 C 
HETATM   29  C14 UNL     1       9.375 -72.208 -25.798  1.00  0.00     0.014 A 
HETATM   30  C15 UNL     1       9.818 -71.252 -24.900  1.00  0.00    -0.049 A 
HETATM   31  C16 UNL     1       8.996 -69.957 -24.946  1.00  0.00     0.049 C 
ENDBRANCH   3  23
TORSDOF 8
ENDMDL
MODEL 3
REMARK VINA RESULT: -9.547437008      1.109      1.196
REMARK  8 active torsions:
REMARK  status: ('A' for Active; 'I' for Inactive)
REMARK    1  A    between atoms: C2_2  and  C3_3 
REMARK    2  A    between atoms: C3_3  and  C4_4 
REMARK    3  A    between atoms: C4_4  and  N1_5 
REMARK    4  A    between atoms: C4_4  and  C22_25 
REMARK       I    between atoms: N1_5  and  C5_6 
REMARK    5  A    between atoms: C5_6  and  C6_8 
REMARK    6  A    between atoms: C7_10  and  C8_11 
REMARK    7  A    between atoms: C22_25  and  C23_26 
REMARK    8  A    between atoms: C22_25  and  C24_29 
ROOT
HETATM    1  C6  UNL     1      12.890 -69.393 -22.185  1.00  0.00     0.203 C 
HETATM    2  N2  UNL     1      12.416 -70.041 -23.341  1.00  0.00    -0.354 N 
HETATM    3  C7  UNL     1      11.482 -70.977 -23.179  1.00  0.00     0.103 C 
HETATM    4  C17 UNL     1      12.861 -69.367 -24.471  1.00  0.00     0.065 C 
HETATM    5  C18 UNL     1      12.578 -67.942 -24.081  1.00  0.00     0.056 C 
HETATM    6  C19 UNL     1      13.213 -67.986 -22.632  1.00  0.00    -0.013 C 
HETATM    7  C20 UNL     1      12.459 -66.957 -21.850  1.00  0.00     0.018 C 
HETATM    8  C21 UNL     1      14.645 -67.787 -22.791  1.00  0.00     0.018 C 
ENDROOT
BRANCH   1   9
HETATM    9  C5  UNL     1      14.009 -70.098 -21.363  1.00  0.00     0.311 C 
HETATM   10  N1  UNL     1      14.785 -70.945 -22.010  1.00  0.00    -0.407 NA
HETATM   11  O1  UNL     1      14.209 -69.823 -20.211  1.00  0.00    -0.255 OA
BRANCH  10  12
HETATM   12  C4  UNL     1      15.655 -71.835 -22.550  1.00  0.00     0.179 C 
BRANCH  12  13
HETATM   13  C3  UNL     1      16.556 -70.858 -23.486  1.00  0.00     0.040 C 
BRANCH  13  14
HETATM   14  C2  UNL     1      17.572 -70.279 -22.527  1.00  0.00    -0.002 C 
HETATM   15  C1  UNL     1      18.923 -70.098 -23.226  1.00  0.00     0.005 C 
ENDBRANCH  13  14
ENDBRANCH  12  13
BRANCH  12  16
HETATM   16  C22 UNL     1      16.629 -72.698 -21.931  1.00  0.00     0.114 C 
BRANCH  16  17
HETATM   17  C23 UNL     1      16.153 -72.974 -20.458  1.00  0.00     0.238 C 
HETATM   18  N3  UNL     1      16.863 -72.244 -19.484  1.00  0.00    -0.062 NA
HETATM   19  O2  UNL     1      15.284 -73.739 -20.237  1.00  0.00    -0.276 OA
ENDBRANCH  16  17
BRANCH  16  20
HETATM   20  C24 UNL     1      16.711 -74.038 -22.611  1.00  0.00    -0.007 C 
HETATM   21  C25 UNL     1      18.018 -74.689 -22.770  1.00  0.00     0.010 C 
HETATM   22  C26 UNL     1      15.796 -74.191 -23.806  1.00  0.00     0.010 C 
ENDBRANCH  16  20
ENDBRANCH  12  16
ENDBRANCH  10  12
ENDBRANCH   1   9
BRANCH   3  23
HETATM   23  C8  UNL     1      10.774 -71.676 -24.242  1.00  0.00    -0.009 A 
HETATM   24  C9  UNL     1      11.173 -73.143 -24.235  1.00  0.00    -0.049 A 
HETATM   25  C10 UNL     1      12.241 -73.493 -23.349  1.00  0.00     0.049 C 
HETATM   26  C11 UNL     1      10.543 -73.903 -25.116  1.00  0.00     0.014 A 
HETATM   27  C12 UNL     1       9.557 -73.539 -25.980  1.00  0.00    -0.061 A 
HETATM   28  C13 UNL     1       8.839 -74.577 -26.829  1.00  0.00     0.048 C 
HETATM   29  C14 UNL     1       9.162 -72.266 -25.916  1.00  0.00     0.014 A 
HETATM   30  C15 UNL     1       9.788 -71.374 -25.062  1.00  0.00    -0.049 A 
HETATM   31  C16 UNL     1       9.051 -70.033 -24.949  1.00  0.00     0.049 C 
ENDBRANCH   3  23
TORSDOF 8
ENDMDL
MODEL 4
REMARK VINA RESULT: -9.525059595      1.765      4.148
REMARK  8 active torsions:
REMARK  status: ('A' for Active; 'I' for Inactive)
REMARK    1  A    between atoms: C2_2  and  C3_3 
REMARK    2  A    between atoms: C3_3  and  C4_4 
REMARK    3  A    between atoms: C4_4  and  N1_5 
REMARK    4  A    between atoms: C4_4  and  C22_25 
REMARK       I    between atoms: N1_5  and  C5_6 
REMARK    5  A    between atoms: C5_6  and  C6_8 
REMARK    6  A    between atoms: C7_10  and  C8_11 
REMARK    7  A    between atoms: C22_25  and  C23_26 
REMARK    8  A    between atoms: C22_25  and  C24_29 
ROOT
HETATM    1  C6  UNL     1      13.270 -71.913 -23.078  1.00  0.00     0.203 C 
HETATM    2  N2  UNL     1      11.935 -72.152 -23.455  1.00  0.00    -0.354 N 
HETATM    3  C7  UNL     1      11.409 -71.354 -24.383  1.00  0.00     0.103 C 
HETATM    4  C17 UNL     1      11.514 -73.371 -22.938  1.00  0.00     0.065 C 
HETATM    5  C18 UNL     1      12.693 -74.243 -23.273  1.00  0.00     0.056 C 
HETATM    6  C19 UNL     1      13.831 -73.277 -22.746  1.00  0.00    -0.013 C 
HETATM    7  C20 UNL     1      15.033 -73.612 -23.574  1.00  0.00     0.018 C 
HETATM    8  C21 UNL     1      13.930 -73.484 -21.310  1.00  0.00     0.018 C 
ENDROOT
BRANCH   1   9
HETATM    9  C5  UNL     1      13.540 -70.811 -22.012  1.00  0.00     0.311 C 
HETATM   10  N1  UNL     1      14.408 -69.871 -22.328  1.00  0.00    -0.407 NA
HETATM   11  O1  UNL     1      12.925 -70.773 -20.981  1.00  0.00    -0.255 OA
BRANCH  10  12
HETATM   12  C4  UNL     1      15.274 -68.844 -22.523  1.00  0.00     0.179 C 
BRANCH  12  13
HETATM   13  C3  UNL     1      14.275 -67.707 -23.117  1.00  0.00     0.040 C 
BRANCH  13  14
HETATM   14  C2  UNL     1      13.602 -67.142 -21.887  1.00  0.00    -0.002 C 
HETATM   15  C1  UNL     1      12.145 -66.781 -22.194  1.00  0.00     0.005 C 
ENDBRANCH  13  14
ENDBRANCH  12  13
BRANCH  12  16
HETATM   16  C22 UNL     1      16.097 -68.114 -21.593  1.00  0.00     0.114 C 
BRANCH  16  17
HETATM   17  C23 UNL     1      16.481 -69.094 -20.426  1.00  0.00     0.238 C 
HETATM   18  N3  UNL     1      15.673 -68.958 -19.279  1.00  0.00    -0.062 NA
HETATM   19  O2  UNL     1      17.379 -69.849 -20.540  1.00  0.00    -0.276 OA
ENDBRANCH  16  17
BRANCH  16  20
HETATM   20  C24 UNL     1      17.391 -67.665 -22.216  1.00  0.00    -0.007 C 
HETATM   21  C25 UNL     1      17.751 -66.241 -22.190  1.00  0.00     0.010 C 
HETATM   22  C26 UNL     1      17.739 -68.365 -23.511  1.00  0.00     0.010 C 
ENDBRANCH  16  20
ENDBRANCH  12  16
ENDBRANCH  10  12
ENDBRANCH   1   9
BRANCH   3  23
HETATM   23  C8  UNL     1      10.098 -71.502 -24.998  1.00  0.00    -0.009 A 
HETATM   24  C9  UNL     1       9.367 -70.170 -24.959  1.00  0.00    -0.049 A 
HETATM   25  C10 UNL     1      10.006 -69.133 -24.206  1.00  0.00     0.049 C 
HETATM   26  C11 UNL     1       8.185 -70.156 -25.552  1.00  0.00     0.014 A 
HETATM   27  C12 UNL     1       7.578 -71.170 -26.227  1.00  0.00    -0.061 A 
HETATM   28  C13 UNL     1       6.273 -70.939 -26.975  1.00  0.00     0.048 C 
HETATM   29  C14 UNL     1       8.269 -72.307 -26.322  1.00  0.00     0.014 A 
HETATM   30  C15 UNL     1       9.496 -72.444 -25.698  1.00  0.00    -0.049 A 
HETATM   31  C16 UNL     1      10.244 -73.717 -26.113  1.00  0.00     0.049 C 
ENDBRANCH   3  23
TORSDOF 8
ENDMDL
MODEL 5
REMARK VINA RESULT: -9.161826063      1.920      3.581
REMARK  8 active torsions:
REMARK  status: ('A' for Active; 'I' for Inactive)
REMARK    1  A    between atoms: C2_2  and  C3_3 
REMARK    2  A    between atoms: C3_3  and  C4_4 
REMARK    3  A    between atoms: C4_4  and  N1_5 
REMARK    4  A    between atoms: C4_4  and  C22_25 
REMARK       I    between atoms: N1_5  and  C5_6 
REMARK    5  A    between atoms: C5_6  and  C6_8 
REMARK    6  A    between atoms: C7_10  and  C8_11 
REMARK    7  A    between atoms: C22_25  and  C23_26 
REMARK    8  A    between atoms: C22_25  and  C24_29 
ROOT
HETATM    1  C6  UNL     1      13.373 -71.845 -23.632  1.00  0.00     0.203 C 
HETATM    2  N2  UNL     1      11.985 -71.971 -23.827  1.00  0.00    -0.354 N 
HETATM    3  C7  UNL     1      11.463 -71.391 -24.907  1.00  0.00     0.103 C 
HETATM    4  C17 UNL     1      11.473 -72.919 -22.949  1.00  0.00     0.065 C 
HETATM    5  C18 UNL     1      12.486 -74.020 -23.099  1.00  0.00     0.056 C 
HETATM    6  C19 UNL     1      13.790 -73.133 -22.958  1.00  0.00    -0.013 C 
HETATM    7  C20 UNL     1      14.839 -73.865 -23.736  1.00  0.00     0.018 C 
HETATM    8  C21 UNL     1      14.023 -72.945 -21.535  1.00  0.00     0.018 C 
ENDROOT
BRANCH   1   9
HETATM    9  C5  UNL     1      13.899 -70.546 -22.954  1.00  0.00     0.311 C 
HETATM   10  N1  UNL     1      15.155 -70.217 -23.183  1.00  0.00    -0.407 NA
HETATM   11  O1  UNL     1      13.172 -69.832 -22.319  1.00  0.00    -0.255 OA
BRANCH  10  12
HETATM   12  C4  UNL     1      16.423 -69.760 -23.336  1.00  0.00     0.179 C 
BRANCH  12  13
HETATM   13  C3  UNL     1      16.202 -68.161 -23.143  1.00  0.00     0.040 C 
BRANCH  13  14
HETATM   14  C2  UNL     1      17.602 -67.594 -23.204  1.00  0.00    -0.002 C 
HETATM   15  C1  UNL     1      17.725 -66.375 -22.285  1.00  0.00     0.005 C 
ENDBRANCH  13  14
ENDBRANCH  12  13
BRANCH  12  16
HETATM   16  C22 UNL     1      17.620 -70.025 -22.580  1.00  0.00     0.114 C 
BRANCH  16  17
HETATM   17  C23 UNL     1      17.183 -70.585 -21.178  1.00  0.00     0.238 C 
HETATM   18  N3  UNL     1      17.007 -69.589 -20.196  1.00  0.00    -0.062 NA
HETATM   19  O2  UNL     1      17.038 -71.743 -21.006  1.00  0.00    -0.276 OA
ENDBRANCH  16  17
BRANCH  16  20
HETATM   20  C24 UNL     1      18.468 -71.092 -23.219  1.00  0.00    -0.007 C 
HETATM   21  C25 UNL     1      19.921 -70.902 -23.310  1.00  0.00     0.010 C 
HETATM   22  C26 UNL     1      17.852 -71.732 -24.443  1.00  0.00     0.010 C 
ENDBRANCH  16  20
ENDBRANCH  12  16
ENDBRANCH  10  12
ENDBRANCH   1   9
BRANCH   3  23
HETATM   23  C8  UNL     1      10.083 -71.500 -25.357  1.00  0.00    -0.009 A 
HETATM   24  C9  UNL     1       9.434 -70.126 -25.336  1.00  0.00    -0.049 A 
HETATM   25  C10 UNL     1      10.210 -69.081 -24.741  1.00  0.00     0.049 C 
HETATM   26  C11 UNL     1       8.193 -70.081 -25.791  1.00  0.00     0.014 A 
HETATM   27  C12 UNL     1       7.458 -71.099 -26.316  1.00  0.00    -0.061 A 
HETATM   28  C13 UNL     1       6.089 -70.841 -26.927  1.00  0.00     0.048 C 
HETATM   29  C14 UNL     1       8.072 -72.281 -26.402  1.00  0.00     0.014 A 
HETATM   30  C15 UNL     1       9.355 -72.449 -25.912  1.00  0.00    -0.049 A 
HETATM   31  C16 UNL     1       9.981 -73.792 -26.311  1.00  0.00     0.049 C 
ENDBRANCH   3  23
TORSDOF 8
ENDMDL
