MODEL 1
REMARK VINA RESULT: -9.733133781      0.000      0.000
REMARK  9 active torsions:
REMARK  status: ('A' for Active; 'I' for Inactive)
REMARK    1  A    between atoms: C3_3  and  C4_4 
REMARK    2  A    between atoms: C4_4  and  N1_5 
REMARK    3  A    between atoms: C7_8  and  C8_9 
REMARK       I    between atoms: C8_9  and  N2_11 
REMARK    4  A    between atoms: N2_11  and  C9_13 
REMARK    5  A    between atoms: C12_16  and  C13_17 
REMARK       I    between atoms: C13_17  and  N3_19 
REMARK    6  A    between atoms: N3_19  and  C14_21 
REMARK    7  A    between atoms: C17_24  and  N4_25 
REMARK    8  A    between atoms: N4_25  and  C18_26 
REMARK    9  A    between atoms: N4_25  and  C20_28 
ROOT
HETATM    1  C1  UNL     1       8.581 -76.265 -28.398  1.00  0.00     0.097 C 
HETATM    2  C2  UNL     1       9.011 -75.626 -27.448  1.00  0.00    -0.186 C 
HETATM    3  C3  UNL     1       9.507 -74.871 -26.294  1.00  0.00     0.099 C 
ENDROOT
BRANCH   3   4
HETATM    4  C4  UNL     1       8.857 -73.518 -26.315  1.00  0.00     0.139 C 
BRANCH   4   5
HETATM    5  N1  UNL     1       9.745 -72.461 -25.919  1.00  0.00    -0.366 N 
HETATM    6  C5  UNL     1       9.257 -71.253 -25.579  1.00  0.00     0.091 A 
HETATM    7  C6  UNL     1      10.140 -70.234 -25.196  1.00  0.00     0.034 A 
HETATM    8  C7  UNL     1      11.496 -70.440 -25.160  1.00  0.00     0.035 A 
HETATM    9  C26 UNL     1      11.928 -71.714 -25.524  1.00  0.00     0.034 A 
HETATM   10  C27 UNL     1      11.064 -72.710 -25.899  1.00  0.00     0.091 A 
BRANCH   8  11
HETATM   11  C8  UNL     1      12.448 -69.405 -24.775  1.00  0.00     0.256 C 
HETATM   12  O1  UNL     1      12.354 -68.319 -25.396  1.00  0.00    -0.267 OA
HETATM   13  N2  UNL     1      13.397 -69.633 -23.773  1.00  0.00    -0.323 N 
ATOM     14  H2  UNL     1      13.368 -70.556 -23.340  1.00  0.00     0.169 HD
BRANCH  13  15
HETATM   15  C9  UNL     1      14.386 -68.763 -23.280  1.00  0.00     0.035 A 
HETATM   16  C10 UNL     1      14.248 -67.929 -22.198  1.00  0.00     0.030 A 
HETATM   17  C11 UNL     1      15.287 -67.097 -21.754  1.00  0.00     0.019 A 
HETATM   18  C12 UNL     1      16.503 -67.081 -22.393  1.00  0.00     0.032 A 
HETATM   19  C24 UNL     1      16.657 -67.908 -23.475  1.00  0.00     0.019 A 
HETATM   20  C25 UNL     1      15.634 -68.726 -23.911  1.00  0.00     0.030 A 
BRANCH  18  21
HETATM   21  C13 UNL     1      17.586 -66.189 -21.913  1.00  0.00     0.256 C 
HETATM   22  O2  UNL     1      17.968 -66.371 -20.740  1.00  0.00    -0.267 OA
HETATM   23  N3  UNL     1      18.149 -65.203 -22.725  1.00  0.00    -0.323 N 
ATOM     24  H3  UNL     1      17.787 -65.105 -23.674  1.00  0.00     0.169 HD
BRANCH  23  25
HETATM   25  C14 UNL     1      19.175 -64.341 -22.323  1.00  0.00     0.035 A 
HETATM   26  C15 UNL     1      20.096 -64.609 -21.361  1.00  0.00     0.032 A 
HETATM   27  C16 UNL     1      21.067 -63.664 -21.017  1.00  0.00     0.031 A 
HETATM   28  C17 UNL     1      21.057 -62.466 -21.680  1.00  0.00     0.030 A 
HETATM   29  C22 UNL     1      20.148 -62.158 -22.653  1.00  0.00     0.031 A 
HETATM   30  C23 UNL     1      19.208 -63.097 -22.974  1.00  0.00     0.032 A 
BRANCH  28  31
HETATM   31  N4  UNL     1      22.034 -61.477 -21.345  1.00  0.00    -0.382 N 
BRANCH  31  32
HETATM   32  C18 UNL     1      22.383 -61.306 -19.968  1.00  0.00     0.118 C 
HETATM   33  C19 UNL     1      21.516 -60.290 -19.264  1.00  0.00     0.026 C 
ENDBRANCH  31  32
BRANCH  31  34
HETATM   34  C20 UNL     1      22.618 -60.703 -22.421  1.00  0.00     0.118 C 
HETATM   35  C21 UNL     1      24.124 -60.821 -22.415  1.00  0.00     0.026 C 
ENDBRANCH  31  34
ENDBRANCH  28  31
ENDBRANCH  23  25
ENDBRANCH  18  21
ENDBRANCH  13  15
ENDBRANCH   8  11
ENDBRANCH   4   5
ENDBRANCH   3   4
TORSDOF 9
ENDMDL
MODEL 2
REMARK VINA RESULT: -9.724721119      0.160      1.186
REMARK  9 active torsions:
REMARK  status: ('A' for Active; 'I' for Inactive)
REMARK    1  A    between atoms: C3_3  and  C4_4 
REMARK    2  A    between atoms: C4_4  and  N1_5 
REMARK    3  A    between atoms: C7_8  and  C8_9 
REMARK       I    between atoms: C8_9  and  N2_11 
REMARK    4  A    between atoms: N2_11  and  C9_13 
REMARK    5  A    between atoms: C12_16  and  C13_17 
REMARK       I    between atoms: C13_17  and  N3_19 
REMARK    6  A    between atoms: N3_19  and  C14_21 
REMARK    7  A    between atoms: C17_24  and  N4_25 
REMARK    8  A    between atoms: N4_25  and  C18_26 
REMARK    9  A    between atoms: N4_25  and  C20_28 
ROOT
HETATM    1  C1  UNL     1       8.285 -76.379 -28.199  1.00  0.00     0.097 C 
HETATM    2  C2  UNL     1       8.848 -75.690 -27.360  1.00  0.00    -0.186 C 
HETATM    3  C3  UNL     1       9.505 -74.873 -26.335  1.00  0.00     0.099 C 
ENDROOT
BRANCH   3   4
HETATM    4  C4  UNL     1       8.843 -73.526 -26.325  1.00  0.00     0.139 C 
BRANCH   4   5
HETATM    5  N1  UNL     1       9.729 -72.467 -25.928  1.00  0.00    -0.366 N 
HETATM    6  C5  UNL     1       9.239 -71.261 -25.587  1.00  0.00     0.091 A 
HETATM    7  C6  UNL     1      10.119 -70.240 -25.203  1.00  0.00     0.034 A 
HETATM    8  C7  UNL     1      11.476 -70.443 -25.168  1.00  0.00     0.035 A 
HETATM    9  C26 UNL     1      11.910 -71.715 -25.534  1.00  0.00     0.034 A 
HETATM   10  C27 UNL     1      11.049 -72.713 -25.909  1.00  0.00     0.091 A 
BRANCH   8  11
HETATM   11  C8  UNL     1      12.425 -69.405 -24.783  1.00  0.00     0.256 C 
HETATM   12  O1  UNL     1      12.324 -68.318 -25.398  1.00  0.00    -0.267 OA
HETATM   13  N2  UNL     1      13.379 -69.635 -23.785  1.00  0.00    -0.323 N 
ATOM     14  H2  UNL     1      13.355 -70.560 -23.356  1.00  0.00     0.169 HD
BRANCH  13  15
HETATM   15  C9  UNL     1      14.367 -68.762 -23.293  1.00  0.00     0.035 A 
HETATM   16  C10 UNL     1      14.251 -67.976 -22.173  1.00  0.00     0.030 A 
HETATM   17  C11 UNL     1      15.287 -67.139 -21.733  1.00  0.00     0.019 A 
HETATM   18  C12 UNL     1      16.479 -67.071 -22.413  1.00  0.00     0.032 A 
HETATM   19  C24 UNL     1      16.611 -67.849 -23.533  1.00  0.00     0.019 A 
HETATM   20  C25 UNL     1      15.590 -68.672 -23.965  1.00  0.00     0.030 A 
BRANCH  18  21
HETATM   21  C13 UNL     1      17.560 -66.174 -21.936  1.00  0.00     0.256 C 
HETATM   22  O2  UNL     1      17.953 -66.362 -20.768  1.00  0.00    -0.267 OA
HETATM   23  N3  UNL     1      18.107 -65.178 -22.744  1.00  0.00    -0.323 N 
ATOM     24  H3  UNL     1      17.737 -65.075 -23.689  1.00  0.00     0.169 HD
BRANCH  23  25
HETATM   25  C14 UNL     1      19.131 -64.311 -22.346  1.00  0.00     0.035 A 
HETATM   26  C15 UNL     1      20.034 -64.560 -21.362  1.00  0.00     0.032 A 
HETATM   27  C16 UNL     1      21.003 -63.612 -21.022  1.00  0.00     0.031 A 
HETATM   28  C17 UNL     1      21.011 -62.431 -21.713  1.00  0.00     0.030 A 
HETATM   29  C22 UNL     1      20.120 -62.141 -22.709  1.00  0.00     0.031 A 
HETATM   30  C23 UNL     1      19.182 -63.083 -23.024  1.00  0.00     0.032 A 
BRANCH  28  31
HETATM   31  N4  UNL     1      21.987 -61.438 -21.385  1.00  0.00    -0.382 N 
BRANCH  31  32
HETATM   32  C18 UNL     1      22.745 -60.854 -22.448  1.00  0.00     0.118 C 
HETATM   33  C19 UNL     1      24.196 -60.643 -22.089  1.00  0.00     0.026 C 
ENDBRANCH  31  32
BRANCH  31  34
HETATM   34  C20 UNL     1      22.153 -61.079 -19.991  1.00  0.00     0.118 C 
HETATM   35  C21 UNL     1      21.057 -60.140 -19.542  1.00  0.00     0.026 C 
ENDBRANCH  31  34
ENDBRANCH  28  31
ENDBRANCH  23  25
ENDBRANCH  18  21
ENDBRANCH  13  15
ENDBRANCH   8  11
ENDBRANCH   4   5
ENDBRANCH   3   4
TORSDOF 9
ENDMDL
MODEL 3
REMARK VINA RESULT: -9.455991522      1.174      1.664
REMARK  9 active torsions:
REMARK  status: ('A' for Active; 'I' for Inactive)
REMARK    1  A    between atoms: C3_3  and  C4_4 
REMARK    2  A    between atoms: C4_4  and  N1_5 
REMARK    3  A    between atoms: C7_8  and  C8_9 
REMARK       I    between atoms: C8_9  and  N2_11 
REMARK    4  A    between atoms: N2_11  and  C9_13 
REMARK    5  A    between atoms: C12_16  and  C13_17 
REMARK       I    between atoms: C13_17  and  N3_19 
REMARK    6  A    between atoms: N3_19  and  C14_21 
REMARK    7  A    between atoms: C17_24  and  N4_25 
REMARK    8  A    between atoms: N4_25  and  C18_26 
REMARK    9  A    between atoms: N4_25  and  C20_28 
ROOT
HETATM    1  C1  UNL     1       8.956 -76.473 -27.373  1.00  0.00     0.097 C 
HETATM    2  C2  UNL     1       9.157 -75.320 -27.017  1.00  0.00    -0.186 C 
HETATM    3  C3  UNL     1       9.423 -73.940 -26.602  1.00  0.00     0.099 C 
ENDROOT
BRANCH   3   4
HETATM    4  C4  UNL     1       9.991 -73.978 -25.213  1.00  0.00     0.139 C 
BRANCH   4   5
HETATM    5  N1  UNL     1      10.880 -72.883 -24.938  1.00  0.00    -0.366 N 
HETATM    6  C5  UNL     1      11.730 -72.941 -23.897  1.00  0.00     0.091 A 
HETATM    7  C6  UNL     1      12.589 -71.862 -23.645  1.00  0.00     0.034 A 
HETATM    8  C7  UNL     1      12.582 -70.742 -24.439  1.00  0.00     0.035 A 
HETATM    9  C26 UNL     1      11.676 -70.754 -25.498  1.00  0.00     0.034 A 
HETATM   10  C27 UNL     1      10.837 -71.810 -25.744  1.00  0.00     0.091 A 
BRANCH   8  11
HETATM   11  C8  UNL     1      13.452 -69.597 -24.206  1.00  0.00     0.256 C 
HETATM   12  O1  UNL     1      13.085 -68.517 -24.727  1.00  0.00    -0.267 OA
HETATM   13  N2  UNL     1      14.619 -69.721 -23.444  1.00  0.00    -0.323 N 
ATOM     14  H2  UNL     1      14.805 -70.652 -23.070  1.00  0.00     0.169 HD
BRANCH  13  15
HETATM   15  C9  UNL     1      15.572 -68.736 -23.123  1.00  0.00     0.035 A 
HETATM   16  C10 UNL     1      16.800 -68.591 -23.720  1.00  0.00     0.030 A 
HETATM   17  C11 UNL     1      17.694 -67.572 -23.359  1.00  0.00     0.019 A 
HETATM   18  C12 UNL     1      17.374 -66.665 -22.378  1.00  0.00     0.032 A 
HETATM   19  C24 UNL     1      16.152 -66.797 -21.771  1.00  0.00     0.019 A 
HETATM   20  C25 UNL     1      15.273 -67.800 -22.128  1.00  0.00     0.030 A 
BRANCH  18  21
HETATM   21  C13 UNL     1      18.336 -65.600 -22.004  1.00  0.00     0.256 C 
HETATM   22  O2  UNL     1      18.804 -65.663 -20.850  1.00  0.00    -0.267 OA
HETATM   23  N3  UNL     1      18.700 -64.585 -22.889  1.00  0.00    -0.323 N 
ATOM     24  H3  UNL     1      18.276 -64.589 -23.818  1.00  0.00     0.169 HD
BRANCH  23  25
HETATM   25  C14 UNL     1      19.605 -63.561 -22.589  1.00  0.00     0.035 A 
HETATM   26  C15 UNL     1      20.678 -63.678 -21.763  1.00  0.00     0.032 A 
HETATM   27  C16 UNL     1      21.508 -62.583 -21.509  1.00  0.00     0.031 A 
HETATM   28  C17 UNL     1      21.204 -61.395 -22.118  1.00  0.00     0.030 A 
HETATM   29  C22 UNL     1      20.135 -61.237 -22.955  1.00  0.00     0.031 A 
HETATM   30  C23 UNL     1      19.338 -62.321 -23.190  1.00  0.00     0.032 A 
BRANCH  28  31
HETATM   31  N4  UNL     1      22.031 -60.255 -21.873  1.00  0.00    -0.382 N 
BRANCH  31  32
HETATM   32  C18 UNL     1      21.443 -59.112 -21.244  1.00  0.00     0.118 C 
HETATM   33  C19 UNL     1      21.097 -59.351 -19.794  1.00  0.00     0.026 C 
ENDBRANCH  31  32
BRANCH  31  34
HETATM   34  C20 UNL     1      23.421 -60.320 -22.274  1.00  0.00     0.118 C 
HETATM   35  C21 UNL     1      23.963 -58.941 -22.570  1.00  0.00     0.026 C 
ENDBRANCH  31  34
ENDBRANCH  28  31
ENDBRANCH  23  25
ENDBRANCH  18  21
ENDBRANCH  13  15
ENDBRANCH   8  11
ENDBRANCH   4   5
ENDBRANCH   3   4
TORSDOF 9
ENDMDL
MODEL 4
REMARK VINA RESULT: -9.386575681      0.629      1.428
REMARK  9 active torsions:
REMARK  status: ('A' for Active; 'I' for Inactive)
REMARK    1  A    between atoms: C3_3  and  C4_4 
REMARK    2  A    between atoms: C4_4  and  N1_5 
REMARK    3  A    between atoms: C7_8  and  C8_9 
REMARK       I    between atoms: C8_9  and  N2_11 
REMARK    4  A    between atoms: N2_11  and  C9_13 
REMARK    5  A    between atoms: C12_16  and  C13_17 
REMARK       I    between atoms: C13_17  and  N3_19 
REMARK    6  A    between atoms: N3_19  and  C14_21 
REMARK    7  A    between atoms: C17_24  and  N4_25 
REMARK    8  A    between atoms: N4_25  and  C18_26 
REMARK    9  A    between atoms: N4_25  and  C20_28 
ROOT
HETATM    1  C1  UNL     1       7.991 -76.080 -28.185  1.00  0.00     0.097 C 
HETATM    2  C2  UNL     1       8.633 -75.459 -27.350  1.00  0.00    -0.186 C 
HETATM    3  C3  UNL     1       9.386 -74.723 -26.330  1.00  0.00     0.099 C 
ENDROOT
BRANCH   3   4
HETATM    4  C4  UNL     1       8.829 -73.331 -26.261  1.00  0.00     0.139 C 
BRANCH   4   5
HETATM    5  N1  UNL     1       9.811 -72.349 -25.892  1.00  0.00    -0.366 N 
HETATM    6  C5  UNL     1      11.121 -72.660 -25.899  1.00  0.00     0.091 A 
HETATM    7  C6  UNL     1      12.064 -71.690 -25.535  1.00  0.00     0.034 A 
HETATM    8  C7  UNL     1      11.681 -70.423 -25.170  1.00  0.00     0.035 A 
HETATM    9  C26 UNL     1      10.310 -70.174 -25.187  1.00  0.00     0.034 A 
HETATM   10  C27 UNL     1       9.389 -71.124 -25.543  1.00  0.00     0.091 A 
BRANCH   8  11
HETATM   11  C8  UNL     1      12.630 -69.388 -24.777  1.00  0.00     0.256 C 
HETATM   12  O1  UNL     1      12.362 -68.227 -25.165  1.00  0.00    -0.267 OA
HETATM   13  N2  UNL     1      13.761 -69.699 -24.015  1.00  0.00    -0.323 N 
ATOM     14  H2  UNL     1      13.864 -70.680 -23.758  1.00  0.00     0.169 HD
BRANCH  13  15
HETATM   15  C9  UNL     1      14.777 -68.840 -23.554  1.00  0.00     0.035 A 
HETATM   16  C10 UNL     1      15.980 -68.623 -24.178  1.00  0.00     0.030 A 
HETATM   17  C11 UNL     1      16.941 -67.737 -23.667  1.00  0.00     0.019 A 
HETATM   18  C12 UNL     1      16.715 -67.042 -22.505  1.00  0.00     0.032 A 
HETATM   19  C24 UNL     1      15.519 -67.248 -21.869  1.00  0.00     0.019 A 
HETATM   20  C25 UNL     1      14.574 -68.120 -22.373  1.00  0.00     0.030 A 
BRANCH  18  21
HETATM   21  C13 UNL     1      17.747 -66.117 -21.976  1.00  0.00     0.256 C 
HETATM   22  O2  UNL     1      18.036 -66.247 -20.770  1.00  0.00    -0.267 OA
HETATM   23  N3  UNL     1      18.361 -65.155 -22.779  1.00  0.00    -0.323 N 
ATOM     24  H3  UNL     1      18.075 -65.098 -23.756  1.00  0.00     0.169 HD
BRANCH  23  25
HETATM   25  C14 UNL     1      19.342 -64.263 -22.332  1.00  0.00     0.035 A 
HETATM   26  C15 UNL     1      20.256 -64.522 -21.360  1.00  0.00     0.032 A 
HETATM   27  C16 UNL     1      21.179 -63.548 -20.968  1.00  0.00     0.031 A 
HETATM   28  C17 UNL     1      21.131 -62.332 -21.595  1.00  0.00     0.030 A 
HETATM   29  C22 UNL     1      20.228 -62.032 -22.577  1.00  0.00     0.031 A 
HETATM   30  C23 UNL     1      19.335 -63.000 -22.944  1.00  0.00     0.032 A 
BRANCH  28  31
HETATM   31  N4  UNL     1      22.059 -61.314 -21.212  1.00  0.00    -0.382 N 
BRANCH  31  32
HETATM   32  C18 UNL     1      21.622 -59.951 -21.240  1.00  0.00     0.118 C 
HETATM   33  C19 UNL     1      20.652 -59.622 -20.132  1.00  0.00     0.026 C 
ENDBRANCH  31  32
BRANCH  31  34
HETATM   34  C20 UNL     1      23.392 -61.718 -20.815  1.00  0.00     0.118 C 
HETATM   35  C21 UNL     1      23.495 -61.835 -19.312  1.00  0.00     0.026 C 
ENDBRANCH  31  34
ENDBRANCH  28  31
ENDBRANCH  23  25
ENDBRANCH  18  21
ENDBRANCH  13  15
ENDBRANCH   8  11
ENDBRANCH   4   5
ENDBRANCH   3   4
TORSDOF 9
ENDMDL
MODEL 5
REMARK VINA RESULT: -9.190941808      1.108      1.767
REMARK  9 active torsions:
REMARK  status: ('A' for Active; 'I' for Inactive)
REMARK    1  A    between atoms: C3_3  and  C4_4 
REMARK    2  A    between atoms: C4_4  and  N1_5 
REMARK    3  A    between atoms: C7_8  and  C8_9 
REMARK       I    between atoms: C8_9  and  N2_11 
REMARK    4  A    between atoms: N2_11  and  C9_13 
REMARK    5  A    between atoms: C12_16  and  C13_17 
REMARK       I    between atoms: C13_17  and  N3_19 
REMARK    6  A    between atoms: N3_19  and  C14_21 
REMARK    7  A    between atoms: C17_24  and  N4_25 
REMARK    8  A    between atoms: N4_25  and  C18_26 
REMARK    9  A    between atoms: N4_25  and  C20_28 
ROOT
HETATM    1  C1  UNL     1       7.441 -75.807 -28.139  1.00  0.00     0.097 C 
HETATM    2  C2  UNL     1       8.371 -75.397 -27.457  1.00  0.00    -0.186 C 
HETATM    3  C3  UNL     1       9.475 -74.921 -26.619  1.00  0.00     0.099 C 
ENDROOT
BRANCH   3   4
HETATM    4  C4  UNL     1       9.039 -73.643 -25.965  1.00  0.00     0.139 C 
BRANCH   4   5
HETATM    5  N1  UNL     1      10.130 -72.903 -25.393  1.00  0.00    -0.366 N 
HETATM    6  C5  UNL     1      10.204 -71.569 -25.550  1.00  0.00     0.091 A 
HETATM    7  C6  UNL     1      11.277 -70.865 -24.986  1.00  0.00     0.034 A 
HETATM    8  C7  UNL     1      12.258 -71.508 -24.274  1.00  0.00     0.035 A 
HETATM    9  C26 UNL     1      12.115 -72.889 -24.152  1.00  0.00     0.034 A 
HETATM   10  C27 UNL     1      11.066 -73.576 -24.704  1.00  0.00     0.091 A 
BRANCH   8  11
HETATM   11  C8  UNL     1      13.393 -70.813 -23.679  1.00  0.00     0.256 C 
HETATM   12  O1  UNL     1      14.051 -71.467 -22.835  1.00  0.00    -0.267 OA
HETATM   13  N2  UNL     1      13.707 -69.499 -24.043  1.00  0.00    -0.323 N 
ATOM     14  H2  UNL     1      13.097 -69.079 -24.744  1.00  0.00     0.169 HD
BRANCH  13  15
HETATM   15  C9  UNL     1      14.750 -68.679 -23.574  1.00  0.00     0.035 A 
HETATM   16  C10 UNL     1      15.945 -68.464 -24.215  1.00  0.00     0.030 A 
HETATM   17  C11 UNL     1      16.935 -67.618 -23.693  1.00  0.00     0.019 A 
HETATM   18  C12 UNL     1      16.747 -66.961 -22.502  1.00  0.00     0.032 A 
HETATM   19  C24 UNL     1      15.559 -67.165 -21.849  1.00  0.00     0.019 A 
HETATM   20  C25 UNL     1      14.586 -67.997 -22.364  1.00  0.00     0.030 A 
BRANCH  18  21
HETATM   21  C13 UNL     1      17.808 -66.077 -21.962  1.00  0.00     0.256 C 
HETATM   22  O2  UNL     1      18.123 -66.261 -20.770  1.00  0.00    -0.267 OA
HETATM   23  N3  UNL     1      18.422 -65.095 -22.740  1.00  0.00    -0.323 N 
ATOM     24  H3  UNL     1      18.115 -64.993 -23.708  1.00  0.00     0.169 HD
BRANCH  23  25
HETATM   25  C14 UNL     1      19.431 -64.240 -22.282  1.00  0.00     0.035 A 
HETATM   26  C15 UNL     1      20.343 -64.543 -21.322  1.00  0.00     0.032 A 
HETATM   27  C16 UNL     1      21.295 -63.604 -20.917  1.00  0.00     0.031 A 
HETATM   28  C17 UNL     1      21.278 -62.375 -21.520  1.00  0.00     0.030 A 
HETATM   29  C22 UNL     1      20.378 -62.031 -22.490  1.00  0.00     0.031 A 
HETATM   30  C23 UNL     1      19.456 -62.965 -22.870  1.00  0.00     0.032 A 
BRANCH  28  31
HETATM   31  N4  UNL     1      22.237 -61.391 -21.123  1.00  0.00    -0.382 N 
BRANCH  31  32
HETATM   32  C18 UNL     1      23.580 -61.519 -21.601  1.00  0.00     0.118 C 
HETATM   33  C19 UNL     1      23.935 -60.484 -22.641  1.00  0.00     0.026 C 
ENDBRANCH  31  32
BRANCH  31  34
HETATM   34  C20 UNL     1      21.794 -60.316 -20.259  1.00  0.00     0.118 C 
HETATM   35  C21 UNL     1      22.455 -60.408 -18.903  1.00  0.00     0.026 C 
ENDBRANCH  31  34
ENDBRANCH  28  31
ENDBRANCH  23  25
ENDBRANCH  18  21
ENDBRANCH  13  15
ENDBRANCH   8  11
ENDBRANCH   4   5
ENDBRANCH   3   4
TORSDOF 9
ENDMDL
