MODEL 1
REMARK VINA RESULT: -8.715587544      0.000      0.000
REMARK  10 active torsions:
REMARK  status: ('A' for Active; 'I' for Inactive)
REMARK    1  A    between atoms: C4_4  and  C5_5 
REMARK    2  A    between atoms: C5_5  and  N1_6 
REMARK    3  A    between atoms: N1_6  and  C6_9 
REMARK    4  A    between atoms: C12_15  and  O1_16 
REMARK    5  A    between atoms: O1_16  and  C13_17 
REMARK    6  A    between atoms: C13_17  and  C14_18 
REMARK    7  A    between atoms: C14_18  and  N2_19 
REMARK    8  A    between atoms: N2_19  and  C16_21 
REMARK    9  A    between atoms: C16_21  and  C17_22 
REMARK   10  A    between atoms: C17_22  and  C18_23 
ROOT
HETATM    1  C1  UNL     1      15.440 -73.798 -24.227  1.00  0.00     0.048 C 
HETATM    2  C2  UNL     1      14.278 -73.096 -23.625  1.00  0.00    -0.060 A 
HETATM    3  C3  UNL     1      13.020 -73.346 -24.111  1.00  0.00     0.018 A 
HETATM    4  C4  UNL     1      11.850 -72.730 -23.616  1.00  0.00    -0.004 A 
HETATM    5  C9  UNL     1      12.028 -71.830 -22.576  1.00  0.00     0.055 A 
HETATM    6  C10 UNL     1      13.321 -71.579 -22.083  1.00  0.00     0.025 A 
HETATM    7  C11 UNL     1      14.428 -72.214 -22.612  1.00  0.00     0.023 A 
HETATM    8  C12 UNL     1      13.541 -70.682 -21.055  1.00  0.00     0.082 A 
HETATM    9  C26 UNL     1      12.465 -70.047 -20.531  1.00  0.00     0.055 A 
HETATM   10  C27 UNL     1      11.224 -70.308 -21.025  1.00  0.00     0.093 A 
HETATM   11  N4  UNL     1      10.965 -71.198 -22.053  1.00  0.00    -0.360 N 
HETATM   12  C28 UNL     1       9.639 -71.414 -22.494  1.00  0.00     0.155 C 
ENDROOT
BRANCH   8  13
HETATM   13  O1  UNL     1      14.848 -70.460 -20.596  1.00  0.00    -0.348 OA
BRANCH  13  14
HETATM   14  C13 UNL     1      15.145 -69.146 -20.150  1.00  0.00     0.206 C 
BRANCH  14  15
HETATM   15  C14 UNL     1      16.568 -68.768 -20.282  1.00  0.00     0.298 C 
BRANCH  15  16
HETATM   16  N2  UNL     1      16.922 -68.021 -21.471  1.00  0.00     0.086 N 
HETATM   17  C15 UNL     1      17.283 -68.973 -22.545  1.00  0.00     0.310 C 
BRANCH  16  18
HETATM   18  C16 UNL     1      15.680 -67.348 -21.880  1.00  0.00     0.276 C 
BRANCH  18  19
HETATM   19  C17 UNL     1      15.143 -67.891 -23.188  1.00  0.00     0.071 C 
BRANCH  19  20
HETATM   20  C18 UNL     1      13.673 -67.739 -23.184  1.00  0.00    -0.029 A 
HETATM   21  C19 UNL     1      12.896 -66.930 -22.381  1.00  0.00     0.096 A 
HETATM   22  N3  UNL     1      11.602 -67.111 -22.721  1.00  0.00    -0.365 N 
HETATM   23  C20 UNL     1      11.517 -68.008 -23.714  1.00  0.00     0.042 A 
ATOM     24  H3  UNL     1      10.809 -66.637 -22.288  1.00  0.00     0.165 HD
HETATM   25  C21 UNL     1      10.444 -68.523 -24.397  1.00  0.00     0.030 A 
HETATM   26  C25 UNL     1      12.801 -68.423 -24.029  1.00  0.00    -0.002 A 
HETATM   27  C22 UNL     1      10.618 -69.456 -25.403  1.00  0.00     0.002 A 
HETATM   28  C23 UNL     1      11.888 -69.854 -25.699  1.00  0.00     0.001 A 
HETATM   29  C24 UNL     1      12.999 -69.357 -25.032  1.00  0.00     0.014 A 
ENDBRANCH  19  20
ENDBRANCH  18  19
ENDBRANCH  16  18
ENDBRANCH  15  16
ENDBRANCH  14  15
ENDBRANCH  13  14
ENDBRANCH   8  13
BRANCH   4  30
HETATM   30  C5  UNL     1      10.547 -73.018 -24.164  1.00  0.00     0.273 C 
BRANCH  30  31
HETATM   31  N1  UNL     1      10.816 -74.141 -25.151  1.00  0.00    -0.068 N 
ATOM     32  H12 UNL     1      11.807 -74.261 -25.361  1.00  0.00     0.277 HD
ATOM     33  H11 UNL     1      10.655 -75.067 -24.756  1.00  0.00     0.277 HD
BRANCH  31  34
HETATM   34  C6  UNL     1      10.003 -73.872 -26.339  1.00  0.00     0.178 C 
HETATM   35  C7  UNL     1       9.139 -75.056 -26.706  1.00  0.00     0.039 C 
HETATM   36  C8  UNL     1       9.114 -72.699 -26.010  1.00  0.00     0.039 C 
ENDBRANCH  31  34
ENDBRANCH  30  31
ENDBRANCH   4  30
TORSDOF 10
ENDMDL
MODEL 2
REMARK VINA RESULT: -8.451975366      1.139      2.503
REMARK  10 active torsions:
REMARK  status: ('A' for Active; 'I' for Inactive)
REMARK    1  A    between atoms: C4_4  and  C5_5 
REMARK    2  A    between atoms: C5_5  and  N1_6 
REMARK    3  A    between atoms: N1_6  and  C6_9 
REMARK    4  A    between atoms: C12_15  and  O1_16 
REMARK    5  A    between atoms: O1_16  and  C13_17 
REMARK    6  A    between atoms: C13_17  and  C14_18 
REMARK    7  A    between atoms: C14_18  and  N2_19 
REMARK    8  A    between atoms: N2_19  and  C16_21 
REMARK    9  A    between atoms: C16_21  and  C17_22 
REMARK   10  A    between atoms: C17_22  and  C18_23 
ROOT
HETATM    1  C1  UNL     1      10.679 -70.124 -20.716  1.00  0.00     0.048 C 
HETATM    2  C2  UNL     1      11.803 -70.832 -21.380  1.00  0.00    -0.060 A 
HETATM    3  C3  UNL     1      11.539 -71.659 -22.442  1.00  0.00     0.018 A 
HETATM    4  C4  UNL     1      12.532 -72.381 -23.140  1.00  0.00    -0.004 A 
HETATM    5  C9  UNL     1      13.834 -72.214 -22.695  1.00  0.00     0.055 A 
HETATM    6  C10 UNL     1      14.097 -71.364 -21.605  1.00  0.00     0.025 A 
HETATM    7  C11 UNL     1      13.080 -70.684 -20.962  1.00  0.00     0.023 A 
HETATM    8  C12 UNL     1      15.380 -71.179 -21.126  1.00  0.00     0.082 A 
HETATM    9  C26 UNL     1      16.386 -71.844 -21.743  1.00  0.00     0.055 A 
HETATM   10  C27 UNL     1      16.106 -72.660 -22.796  1.00  0.00     0.093 A 
HETATM   11  N4  UNL     1      14.836 -72.871 -23.303  1.00  0.00    -0.360 N 
HETATM   12  C28 UNL     1      14.642 -73.729 -24.409  1.00  0.00     0.155 C 
ENDROOT
BRANCH   8  13
HETATM   13  O1  UNL     1      15.595 -70.324 -20.035  1.00  0.00    -0.348 OA
BRANCH  13  14
HETATM   14  C13 UNL     1      16.783 -69.548 -20.068  1.00  0.00     0.206 C 
BRANCH  14  15
HETATM   15  C14 UNL     1      16.551 -68.090 -20.165  1.00  0.00     0.298 C 
BRANCH  15  16
HETATM   16  N2  UNL     1      17.050 -67.445 -21.361  1.00  0.00     0.086 N 
HETATM   17  C15 UNL     1      17.635 -68.471 -22.251  1.00  0.00     0.310 C 
BRANCH  16  18
HETATM   18  C16 UNL     1      15.855 -66.911 -22.032  1.00  0.00     0.276 C 
BRANCH  18  19
HETATM   19  C17 UNL     1      15.256 -67.908 -23.003  1.00  0.00     0.071 C 
BRANCH  19  20
HETATM   20  C18 UNL     1      13.787 -67.746 -22.986  1.00  0.00    -0.029 A 
HETATM   21  C19 UNL     1      13.020 -66.969 -22.144  1.00  0.00     0.096 A 
HETATM   22  N3  UNL     1      11.723 -67.125 -22.486  1.00  0.00    -0.365 N 
HETATM   23  C20 UNL     1      11.627 -67.974 -23.518  1.00  0.00     0.042 A 
ATOM     24  H3  UNL     1      10.935 -66.665 -22.029  1.00  0.00     0.165 HD
HETATM   25  C21 UNL     1      10.548 -68.450 -24.220  1.00  0.00     0.030 A 
HETATM   26  C25 UNL     1      12.907 -68.384 -23.857  1.00  0.00    -0.002 A 
HETATM   27  C22 UNL     1      10.710 -69.337 -25.268  1.00  0.00     0.002 A 
HETATM   28  C23 UNL     1      11.977 -69.730 -25.588  1.00  0.00     0.001 A 
HETATM   29  C24 UNL     1      13.094 -69.272 -24.903  1.00  0.00     0.014 A 
ENDBRANCH  19  20
ENDBRANCH  18  19
ENDBRANCH  16  18
ENDBRANCH  15  16
ENDBRANCH  14  15
ENDBRANCH  13  14
ENDBRANCH   8  13
BRANCH   4  30
HETATM   30  C5  UNL     1      12.207 -73.248 -24.247  1.00  0.00     0.273 C 
BRANCH  30  31
HETATM   31  N1  UNL     1      10.688 -73.268 -24.248  1.00  0.00    -0.068 N 
ATOM     32  H12 UNL     1      10.297 -74.066 -23.746  1.00  0.00     0.277 HD
ATOM     33  H11 UNL     1      10.277 -72.537 -23.669  1.00  0.00     0.277 HD
BRANCH  31  34
HETATM   34  C6  UNL     1      10.259 -73.203 -25.647  1.00  0.00     0.178 C 
HETATM   35  C7  UNL     1       9.858 -74.561 -26.174  1.00  0.00     0.039 C 
HETATM   36  C8  UNL     1       9.064 -72.283 -25.700  1.00  0.00     0.039 C 
ENDBRANCH  31  34
ENDBRANCH  30  31
ENDBRANCH   4  30
TORSDOF 10
ENDMDL
MODEL 3
REMARK VINA RESULT: -8.425118200      1.743      3.396
REMARK  10 active torsions:
REMARK  status: ('A' for Active; 'I' for Inactive)
REMARK    1  A    between atoms: C4_4  and  C5_5 
REMARK    2  A    between atoms: C5_5  and  N1_6 
REMARK    3  A    between atoms: N1_6  and  C6_9 
REMARK    4  A    between atoms: C12_15  and  O1_16 
REMARK    5  A    between atoms: O1_16  and  C13_17 
REMARK    6  A    between atoms: C13_17  and  C14_18 
REMARK    7  A    between atoms: C14_18  and  N2_19 
REMARK    8  A    between atoms: N2_19  and  C16_21 
REMARK    9  A    between atoms: C16_21  and  C17_22 
REMARK   10  A    between atoms: C17_22  and  C18_23 
ROOT
HETATM    1  C1  UNL     1      11.549 -68.738 -20.442  1.00  0.00     0.048 C 
HETATM    2  C2  UNL     1      11.784 -69.995 -21.196  1.00  0.00    -0.060 A 
HETATM    3  C3  UNL     1      10.848 -70.415 -22.107  1.00  0.00     0.018 A 
HETATM    4  C4  UNL     1      10.971 -71.595 -22.872  1.00  0.00    -0.004 A 
HETATM    5  C9  UNL     1      12.120 -72.342 -22.661  1.00  0.00     0.055 A 
HETATM    6  C10 UNL     1      13.075 -71.905 -21.725  1.00  0.00     0.025 A 
HETATM    7  C11 UNL     1      12.896 -70.739 -21.006  1.00  0.00     0.023 A 
HETATM    8  C12 UNL     1      14.228 -72.627 -21.479  1.00  0.00     0.082 A 
HETATM    9  C26 UNL     1      14.414 -73.776 -22.173  1.00  0.00     0.055 A 
HETATM   10  C27 UNL     1      13.475 -74.176 -23.074  1.00  0.00     0.093 A 
HETATM   11  N4  UNL     1      12.309 -73.482 -23.346  1.00  0.00    -0.360 N 
HETATM   12  C28 UNL     1      11.395 -73.970 -24.308  1.00  0.00     0.155 C 
ENDROOT
BRANCH   8  13
HETATM   13  O1  UNL     1      15.153 -72.155 -20.535  1.00  0.00    -0.348 OA
BRANCH  13  14
HETATM   14  C13 UNL     1      16.468 -72.682 -20.624  1.00  0.00     0.206 C 
BRANCH  14  15
HETATM   15  C14 UNL     1      17.530 -71.653 -20.667  1.00  0.00     0.298 C 
BRANCH  15  16
HETATM   16  N2  UNL     1      18.316 -71.600 -21.881  1.00  0.00     0.086 N 
HETATM   17  C15 UNL     1      17.843 -72.653 -22.806  1.00  0.00     0.310 C 
BRANCH  16  18
HETATM   18  C16 UNL     1      17.989 -70.302 -22.489  1.00  0.00     0.276 C 
BRANCH  18  19
HETATM   19  C17 UNL     1      16.740 -70.373 -23.343  1.00  0.00     0.071 C 
BRANCH  19  20
HETATM   20  C18 UNL     1      15.861 -69.243 -22.973  1.00  0.00    -0.029 A 
HETATM   21  C19 UNL     1      16.067 -68.274 -22.015  1.00  0.00     0.096 A 
HETATM   22  N3  UNL     1      15.005 -67.441 -22.017  1.00  0.00    -0.365 N 
HETATM   23  C20 UNL     1      14.121 -67.840 -22.942  1.00  0.00     0.042 A 
ATOM     24  H3  UNL     1      14.892 -66.631 -21.408  1.00  0.00     0.165 HD
HETATM   25  C21 UNL     1      12.903 -67.336 -23.327  1.00  0.00     0.030 A 
HETATM   26  C25 UNL     1      14.628 -68.971 -23.562  1.00  0.00    -0.002 A 
HETATM   27  C22 UNL     1      12.164 -67.938 -24.328  1.00  0.00     0.002 A 
HETATM   28  C23 UNL     1      12.678 -69.051 -24.927  1.00  0.00     0.001 A 
HETATM   29  C24 UNL     1      13.905 -69.591 -24.567  1.00  0.00     0.014 A 
ENDBRANCH  19  20
ENDBRANCH  18  19
ENDBRANCH  16  18
ENDBRANCH  15  16
ENDBRANCH  14  15
ENDBRANCH  13  14
ENDBRANCH   8  13
BRANCH   4  30
HETATM   30  C5  UNL     1       9.956 -72.002 -23.813  1.00  0.00     0.273 C 
BRANCH  30  31
HETATM   31  N1  UNL     1       8.872 -70.952 -23.643  1.00  0.00    -0.068 N 
ATOM     32  H12 UNL     1       8.147 -71.228 -22.980  1.00  0.00     0.277 HD
ATOM     33  H11 UNL     1       9.193 -70.122 -23.146  1.00  0.00     0.277 HD
BRANCH  31  34
HETATM   34  C6  UNL     1       8.348 -70.656 -24.978  1.00  0.00     0.178 C 
HETATM   35  C7  UNL     1       8.977 -69.414 -25.564  1.00  0.00     0.039 C 
HETATM   36  C8  UNL     1       8.684 -71.837 -25.856  1.00  0.00     0.039 C 
ENDBRANCH  31  34
ENDBRANCH  30  31
ENDBRANCH   4  30
TORSDOF 10
ENDMDL
MODEL 4
REMARK VINA RESULT: -8.068380762      2.254      4.641
REMARK  10 active torsions:
REMARK  status: ('A' for Active; 'I' for Inactive)
REMARK    1  A    between atoms: C4_4  and  C5_5 
REMARK    2  A    between atoms: C5_5  and  N1_6 
REMARK    3  A    between atoms: N1_6  and  C6_9 
REMARK    4  A    between atoms: C12_15  and  O1_16 
REMARK    5  A    between atoms: O1_16  and  C13_17 
REMARK    6  A    between atoms: C13_17  and  C14_18 
REMARK    7  A    between atoms: C14_18  and  N2_19 
REMARK    8  A    between atoms: N2_19  and  C16_21 
REMARK    9  A    between atoms: C16_21  and  C17_22 
REMARK   10  A    between atoms: C17_22  and  C18_23 
ROOT
HETATM    1  C1  UNL     1      11.923 -67.949 -20.604  1.00  0.00     0.048 C 
HETATM    2  C2  UNL     1      12.023 -68.965 -21.683  1.00  0.00    -0.060 A 
HETATM    3  C3  UNL     1      11.516 -68.674 -22.925  1.00  0.00     0.018 A 
HETATM    4  C4  UNL     1      11.555 -69.568 -24.017  1.00  0.00    -0.004 A 
HETATM    5  C9  UNL     1      12.149 -70.798 -23.778  1.00  0.00     0.055 A 
HETATM    6  C10 UNL     1      12.666 -71.088 -22.503  1.00  0.00     0.025 A 
HETATM    7  C11 UNL     1      12.597 -70.170 -21.473  1.00  0.00     0.023 A 
HETATM    8  C12 UNL     1      13.256 -72.306 -22.223  1.00  0.00     0.082 A 
HETATM    9  C26 UNL     1      13.325 -73.219 -23.221  1.00  0.00     0.055 A 
HETATM   10  C27 UNL     1      12.818 -72.913 -24.447  1.00  0.00     0.093 A 
HETATM   11  N4  UNL     1      12.220 -71.706 -24.765  1.00  0.00    -0.360 N 
HETATM   12  C28 UNL     1      11.731 -71.474 -26.071  1.00  0.00     0.155 C 
ENDROOT
BRANCH   8  13
HETATM   13  O1  UNL     1      13.756 -72.554 -20.935  1.00  0.00    -0.348 OA
BRANCH  13  14
HETATM   14  C13 UNL     1      14.386 -73.810 -20.735  1.00  0.00     0.206 C 
BRANCH  14  15
HETATM   15  C14 UNL     1      15.743 -73.722 -20.154  1.00  0.00     0.298 C 
BRANCH  15  16
HETATM   16  N2  UNL     1      16.816 -74.272 -20.955  1.00  0.00     0.086 N 
HETATM   17  C15 UNL     1      16.272 -74.683 -22.267  1.00  0.00     0.310 C 
BRANCH  16  18
HETATM   18  C16 UNL     1      17.730 -73.145 -21.192  1.00  0.00     0.276 C 
BRANCH  18  19
HETATM   19  C17 UNL     1      17.225 -72.224 -22.284  1.00  0.00     0.071 C 
BRANCH  19  20
HETATM   20  C18 UNL     1      16.873 -70.926 -21.669  1.00  0.00    -0.029 A 
HETATM   21  C19 UNL     1      17.093 -70.502 -20.376  1.00  0.00     0.096 A 
HETATM   22  N3  UNL     1      16.607 -69.249 -20.251  1.00  0.00    -0.365 N 
HETATM   23  C20 UNL     1      16.082 -68.850 -21.418  1.00  0.00     0.042 A 
ATOM     24  H3  UNL     1      16.636 -68.689 -19.398  1.00  0.00     0.165 HD
HETATM   25  C21 UNL     1      15.476 -67.680 -21.801  1.00  0.00     0.030 A 
HETATM   26  C25 UNL     1      16.232 -69.881 -22.331  1.00  0.00    -0.002 A 
HETATM   27  C22 UNL     1      15.008 -67.505 -23.090  1.00  0.00     0.002 A 
HETATM   28  C23 UNL     1      15.163 -68.531 -23.976  1.00  0.00     0.001 A 
HETATM   29  C24 UNL     1      15.771 -69.729 -23.628  1.00  0.00     0.014 A 
ENDBRANCH  19  20
ENDBRANCH  18  19
ENDBRANCH  16  18
ENDBRANCH  15  16
ENDBRANCH  14  15
ENDBRANCH  13  14
ENDBRANCH   8  13
BRANCH   4  30
HETATM   30  C5  UNL     1      11.001 -69.223 -25.304  1.00  0.00     0.273 C 
BRANCH  30  31
HETATM   31  N1  UNL     1       9.534 -68.969 -25.003  1.00  0.00    -0.068 N 
ATOM     32  H12 UNL     1       9.367 -68.674 -24.041  1.00  0.00     0.277 HD
ATOM     33  H11 UNL     1       9.170 -68.134 -25.460  1.00  0.00     0.277 HD
BRANCH  31  34
HETATM   34  C6  UNL     1       8.805 -70.186 -25.366  1.00  0.00     0.178 C 
HETATM   35  C7  UNL     1       8.189 -70.852 -24.157  1.00  0.00     0.039 C 
HETATM   36  C8  UNL     1       7.704 -69.776 -26.314  1.00  0.00     0.039 C 
ENDBRANCH  31  34
ENDBRANCH  30  31
ENDBRANCH   4  30
TORSDOF 10
ENDMDL
MODEL 5
REMARK VINA RESULT: -7.989266465      2.264      4.715
REMARK  10 active torsions:
REMARK  status: ('A' for Active; 'I' for Inactive)
REMARK    1  A    between atoms: C4_4  and  C5_5 
REMARK    2  A    between atoms: C5_5  and  N1_6 
REMARK    3  A    between atoms: N1_6  and  C6_9 
REMARK    4  A    between atoms: C12_15  and  O1_16 
REMARK    5  A    between atoms: O1_16  and  C13_17 
REMARK    6  A    between atoms: C13_17  and  C14_18 
REMARK    7  A    between atoms: C14_18  and  N2_19 
REMARK    8  A    between atoms: N2_19  and  C16_21 
REMARK    9  A    between atoms: C16_21  and  C17_22 
REMARK   10  A    between atoms: C17_22  and  C18_23 
ROOT
HETATM    1  C1  UNL     1      12.977 -68.391 -20.225  1.00  0.00     0.048 C 
HETATM    2  C2  UNL     1      12.764 -69.664 -20.960  1.00  0.00    -0.060 A 
HETATM    3  C3  UNL     1      11.673 -69.787 -21.783  1.00  0.00     0.018 A 
HETATM    4  C4  UNL     1      11.375 -70.952 -22.522  1.00  0.00    -0.004 A 
HETATM    5  C9  UNL     1      12.262 -72.008 -22.380  1.00  0.00     0.055 A 
HETATM    6  C10 UNL     1      13.377 -71.875 -21.534  1.00  0.00     0.025 A 
HETATM    7  C11 UNL     1      13.615 -70.707 -20.835  1.00  0.00     0.023 A 
HETATM    8  C12 UNL     1      14.278 -72.908 -21.358  1.00  0.00     0.082 A 
HETATM    9  C26 UNL     1      14.054 -74.063 -22.032  1.00  0.00     0.055 A 
HETATM   10  C27 UNL     1      12.968 -74.166 -22.845  1.00  0.00     0.093 A 
HETATM   11  N4  UNL     1      12.044 -73.155 -23.046  1.00  0.00    -0.360 N 
HETATM   12  C28 UNL     1      10.951 -73.349 -23.919  1.00  0.00     0.155 C 
ENDROOT
BRANCH   8  13
HETATM   13  O1  UNL     1      15.376 -72.733 -20.502  1.00  0.00    -0.348 OA
BRANCH  13  14
HETATM   14  C13 UNL     1      16.363 -73.752 -20.526  1.00  0.00     0.206 C 
BRANCH  14  15
HETATM   15  C14 UNL     1      17.738 -73.258 -20.757  1.00  0.00     0.298 C 
BRANCH  15  16
HETATM   16  N2  UNL     1      18.542 -74.022 -21.688  1.00  0.00     0.086 N 
HETATM   17  C15 UNL     1      17.662 -74.948 -22.433  1.00  0.00     0.310 C 
BRANCH  16  18
HETATM   18  C16 UNL     1      19.053 -73.033 -22.649  1.00  0.00     0.276 C 
BRANCH  18  19
HETATM   19  C17 UNL     1      17.956 -72.484 -23.537  1.00  0.00     0.071 C 
BRANCH  19  20
HETATM   20  C18 UNL     1      17.984 -71.008 -23.450  1.00  0.00    -0.029 A 
HETATM   21  C19 UNL     1      19.062 -70.184 -23.206  1.00  0.00     0.096 A 
HETATM   22  N3  UNL     1      18.629 -68.905 -23.212  1.00  0.00    -0.365 N 
HETATM   23  C20 UNL     1      17.310 -68.877 -23.450  1.00  0.00     0.042 A 
ATOM     24  H3  UNL     1      19.216 -68.085 -23.059  1.00  0.00     0.165 HD
HETATM   25  C21 UNL     1      16.417 -67.839 -23.554  1.00  0.00     0.030 A 
HETATM   26  C25 UNL     1      16.873 -70.182 -23.604  1.00  0.00    -0.002 A 
HETATM   27  C22 UNL     1      15.079 -68.071 -23.811  1.00  0.00     0.002 A 
HETATM   28  C23 UNL     1      14.665 -69.362 -23.959  1.00  0.00     0.001 A 
HETATM   29  C24 UNL     1      15.536 -70.439 -23.861  1.00  0.00     0.014 A 
ENDBRANCH  19  20
ENDBRANCH  18  19
ENDBRANCH  16  18
ENDBRANCH  15  16
ENDBRANCH  14  15
ENDBRANCH  13  14
ENDBRANCH   8  13
BRANCH   4  30
HETATM   30  C5  UNL     1      10.210 -71.039 -23.369  1.00  0.00     0.273 C 
BRANCH  30  31
HETATM   31  N1  UNL     1      10.021 -69.615 -23.861  1.00  0.00    -0.068 N 
ATOM     32  H12 UNL     1       9.141 -69.199 -23.557  1.00  0.00     0.277 HD
ATOM     33  H11 UNL     1      10.643 -68.948 -23.406  1.00  0.00     0.277 HD
BRANCH  31  34
HETATM   34  C6  UNL     1      10.172 -69.641 -25.318  1.00  0.00     0.178 C 
HETATM   35  C7  UNL     1       9.002 -68.988 -26.015  1.00  0.00     0.039 C 
HETATM   36  C8  UNL     1      11.429 -68.873 -25.645  1.00  0.00     0.039 C 
ENDBRANCH  31  34
ENDBRANCH  30  31
ENDBRANCH   4  30
TORSDOF 10
ENDMDL
