MODEL 1
REMARK VINA RESULT: -9.135198319      0.000      0.000
REMARK  9 active torsions:
REMARK  status: ('A' for Active; 'I' for Inactive)
REMARK    1  A    between atoms: C2_2  and  N1_3 
REMARK       I    between atoms: N1_3  and  C3_5 
REMARK       I    between atoms: C3_5  and  N2_7 
REMARK    2  A    between atoms: N2_7  and  C4_9 
REMARK    3  A    between atoms: C6_11  and  C7_12 
REMARK    4  A    between atoms: C7_12  and  N3_13 
REMARK    5  A    between atoms: N3_13  and  C8_14 
REMARK    6  A    between atoms: N3_13  and  S1_18 
REMARK    7  A    between atoms: C8_14  and  C9_15 
REMARK    8  A    between atoms: S1_18  and  C12_21 
REMARK    9  A    between atoms: C19_28  and  C20_29 
ROOT
HETATM    1  C4  UNL     1      11.272 -70.002 -25.012  1.00  0.00     0.109 A 
HETATM    2  C5  UNL     1      12.322 -69.322 -24.456  1.00  0.00     0.062 A 
HETATM    3  C6  UNL     1      13.383 -69.939 -23.839  1.00  0.00    -0.009 A 
HETATM    4  C19 UNL     1      13.320 -71.339 -23.818  1.00  0.00    -0.031 A 
HETATM    5  C22 UNL     1      12.278 -71.991 -24.388  1.00  0.00     0.097 A 
HETATM    6  N4  UNL     1      11.275 -71.399 -24.974  1.00  0.00    -0.352 N 
ATOM      7  H4  UNL     1      10.516 -71.938 -25.391  1.00  0.00     0.166 HD
ENDROOT
BRANCH   3   8
HETATM    8  C7  UNL     1      14.461 -69.327 -23.108  1.00  0.00     0.115 C 
BRANCH   8   9
HETATM    9  N3  UNL     1      14.644 -69.117 -21.751  1.00  0.00    -0.281 N 
BRANCH   9  10
HETATM   10  C8  UNL     1      13.891 -67.878 -21.443  1.00  0.00     0.145 C 
BRANCH  10  11
HETATM   11  C9  UNL     1      12.632 -68.012 -20.719  1.00  0.00    -0.004 C 
HETATM   12  C10 UNL     1      11.659 -66.995 -21.400  1.00  0.00     0.011 C 
HETATM   13  C11 UNL     1      11.917 -69.303 -20.672  1.00  0.00     0.011 C 
ENDBRANCH  10  11
ENDBRANCH   9  10
BRANCH   9  14
HETATM   14  S1  UNL     1      15.973 -69.207 -20.788  1.00  0.00     0.264 S 
HETATM   15  O2  UNL     1      15.582 -69.308 -19.275  1.00  0.00    -0.200 OA
HETATM   16  O3  UNL     1      16.789 -67.897 -20.772  1.00  0.00    -0.200 OA
BRANCH  14  17
HETATM   17  C12 UNL     1      17.094 -70.525 -21.051  1.00  0.00     0.080 A 
HETATM   18  C13 UNL     1      17.257 -71.479 -20.016  1.00  0.00     0.026 A 
HETATM   19  C14 UNL     1      18.093 -72.549 -20.101  1.00  0.00     0.008 A 
HETATM   20  C15 UNL     1      18.850 -72.760 -21.232  1.00  0.00    -0.062 A 
HETATM   21  C16 UNL     1      19.756 -73.947 -21.311  1.00  0.00     0.048 C 
HETATM   22  C17 UNL     1      18.708 -71.845 -22.251  1.00  0.00     0.008 A 
HETATM   23  C18 UNL     1      17.841 -70.754 -22.152  1.00  0.00     0.026 A 
ENDBRANCH  14  17
ENDBRANCH   9  14
ENDBRANCH   8   9
ENDBRANCH   3   8
BRANCH   4  24
HETATM   24  C20 UNL     1      14.285 -72.154 -23.024  1.00  0.00     0.036 C 
HETATM   25  C21 UNL     1      13.595 -72.611 -21.716  1.00  0.00     0.010 C 
ENDBRANCH   4  24
BRANCH   1  26
HETATM   26  N2  UNL     1      10.076 -69.617 -25.196  1.00  0.00    -0.295 N 
HETATM   27  C3  UNL     1       8.799 -70.134 -25.016  1.00  0.00     0.321 C 
HETATM   28  N1  UNL     1       8.091 -70.516 -26.244  1.00  0.00    -0.343 N 
HETATM   29  O1  UNL     1       8.228 -70.301 -23.948  1.00  0.00    -0.247 OA
ATOM     30  H1  UNL     1       8.577 -70.353 -27.126  1.00  0.00     0.164 HD
ATOM     31  H2  UNL     1      10.043 -68.672 -25.578  1.00  0.00     0.172 HD
BRANCH  28  32
HETATM   32  C2  UNL     1       6.805 -71.089 -26.321  1.00  0.00     0.120 C 
HETATM   33  C1  UNL     1       5.860 -70.143 -27.069  1.00  0.00     0.026 C 
ENDBRANCH  28  32
ENDBRANCH   1  26
TORSDOF 9
ENDMDL
MODEL 2
REMARK VINA RESULT: -8.975176067      3.463      8.056
REMARK  9 active torsions:
REMARK  status: ('A' for Active; 'I' for Inactive)
REMARK    1  A    between atoms: C2_2  and  N1_3 
REMARK       I    between atoms: N1_3  and  C3_5 
REMARK       I    between atoms: C3_5  and  N2_7 
REMARK    2  A    between atoms: N2_7  and  C4_9 
REMARK    3  A    between atoms: C6_11  and  C7_12 
REMARK    4  A    between atoms: C7_12  and  N3_13 
REMARK    5  A    between atoms: N3_13  and  C8_14 
REMARK    6  A    between atoms: N3_13  and  S1_18 
REMARK    7  A    between atoms: C8_14  and  C9_15 
REMARK    8  A    between atoms: S1_18  and  C12_21 
REMARK    9  A    between atoms: C19_28  and  C20_29 
ROOT
HETATM    1  C4  UNL     1      17.306 -67.669 -22.760  1.00  0.00     0.109 A 
HETATM    2  C5  UNL     1      16.052 -67.749 -23.303  1.00  0.00     0.062 A 
HETATM    3  C6  UNL     1      15.395 -68.936 -23.523  1.00  0.00    -0.009 A 
HETATM    4  C19 UNL     1      16.107 -70.082 -23.144  1.00  0.00    -0.031 A 
HETATM    5  C22 UNL     1      17.341 -69.977 -22.595  1.00  0.00     0.097 A 
HETATM    6  N4  UNL     1      17.958 -68.847 -22.388  1.00  0.00    -0.352 N 
ATOM      7  H4  UNL     1      18.887 -68.824 -21.967  1.00  0.00     0.166 HD
ENDROOT
BRANCH   3   8
HETATM    8  C7  UNL     1      14.145 -69.144 -24.206  1.00  0.00     0.115 C 
BRANCH   8   9
HETATM    9  N3  UNL     1      12.840 -68.864 -23.835  1.00  0.00    -0.281 N 
BRANCH   9  10
HETATM   10  C8  UNL     1      12.738 -69.291 -22.419  1.00  0.00     0.145 C 
BRANCH  10  11
HETATM   11  C9  UNL     1      12.481 -68.262 -21.417  1.00  0.00    -0.004 C 
HETATM   12  C10 UNL     1      13.562 -68.489 -20.311  1.00  0.00     0.011 C 
HETATM   13  C11 UNL     1      12.541 -66.829 -21.768  1.00  0.00     0.011 C 
ENDBRANCH  10  11
ENDBRANCH   9  10
BRANCH   9  14
HETATM   14  S1  UNL     1      11.401 -69.105 -24.589  1.00  0.00     0.264 S 
HETATM   15  O2  UNL     1      11.279 -68.244 -25.890  1.00  0.00    -0.200 OA
HETATM   16  O3  UNL     1      10.205 -68.552 -23.784  1.00  0.00    -0.200 OA
BRANCH  14  17
HETATM   17  C12 UNL     1      10.994 -70.733 -25.087  1.00  0.00     0.080 A 
HETATM   18  C13 UNL     1       9.642 -71.015 -25.404  1.00  0.00     0.026 A 
HETATM   19  C14 UNL     1       9.201 -72.238 -25.808  1.00  0.00     0.008 A 
HETATM   20  C15 UNL     1      10.075 -73.295 -25.926  1.00  0.00    -0.062 A 
HETATM   21  C16 UNL     1       9.574 -74.629 -26.380  1.00  0.00     0.048 C 
HETATM   22  C17 UNL     1      11.395 -73.044 -25.622  1.00  0.00     0.008 A 
HETATM   23  C18 UNL     1      11.834 -71.782 -25.215  1.00  0.00     0.026 A 
ENDBRANCH  14  17
ENDBRANCH   9  14
ENDBRANCH   8   9
ENDBRANCH   3   8
BRANCH   4  24
HETATM   24  C20 UNL     1      15.626 -71.451 -23.490  1.00  0.00     0.036 C 
HETATM   25  C21 UNL     1      16.850 -72.361 -23.748  1.00  0.00     0.010 C 
ENDBRANCH   4  24
BRANCH   1  26
HETATM   26  N2  UNL     1      18.184 -66.763 -22.904  1.00  0.00    -0.295 N 
HETATM   27  C3  UNL     1      18.565 -65.600 -22.246  1.00  0.00     0.321 C 
HETATM   28  N1  UNL     1      18.211 -64.345 -22.922  1.00  0.00    -0.343 N 
HETATM   29  O1  UNL     1      19.150 -65.531 -21.175  1.00  0.00    -0.247 OA
ATOM     30  H1  UNL     1      17.740 -64.423 -23.823  1.00  0.00     0.164 HD
ATOM     31  H2  UNL     1      18.766 -66.935 -23.723  1.00  0.00     0.172 HD
BRANCH  28  32
HETATM   32  C2  UNL     1      18.462 -63.042 -22.444  1.00  0.00     0.120 C 
HETATM   33  C1  UNL     1      19.657 -62.437 -23.188  1.00  0.00     0.026 C 
ENDBRANCH  28  32
ENDBRANCH   1  26
TORSDOF 9
ENDMDL
MODEL 3
REMARK VINA RESULT: -8.964697476      3.826      8.146
REMARK  9 active torsions:
REMARK  status: ('A' for Active; 'I' for Inactive)
REMARK    1  A    between atoms: C2_2  and  N1_3 
REMARK       I    between atoms: N1_3  and  C3_5 
REMARK       I    between atoms: C3_5  and  N2_7 
REMARK    2  A    between atoms: N2_7  and  C4_9 
REMARK    3  A    between atoms: C6_11  and  C7_12 
REMARK    4  A    between atoms: C7_12  and  N3_13 
REMARK    5  A    between atoms: N3_13  and  C8_14 
REMARK    6  A    between atoms: N3_13  and  S1_18 
REMARK    7  A    between atoms: C8_14  and  C9_15 
REMARK    8  A    between atoms: S1_18  and  C12_21 
REMARK    9  A    between atoms: C19_28  and  C20_29 
ROOT
HETATM    1  C4  UNL     1      17.734 -66.461 -21.905  1.00  0.00     0.109 A 
HETATM    2  C5  UNL     1      16.923 -67.288 -21.176  1.00  0.00     0.062 A 
HETATM    3  C6  UNL     1      16.464 -68.499 -21.637  1.00  0.00    -0.009 A 
HETATM    4  C19 UNL     1      16.889 -68.837 -22.928  1.00  0.00    -0.031 A 
HETATM    5  C22 UNL     1      17.703 -68.009 -23.625  1.00  0.00     0.097 A 
HETATM    6  N4  UNL     1      18.138 -66.863 -23.181  1.00  0.00    -0.352 N 
ATOM      7  H4  UNL     1      18.753 -66.278 -23.746  1.00  0.00     0.166 HD
ENDROOT
BRANCH   3   8
HETATM    8  C7  UNL     1      15.507 -69.377 -21.017  1.00  0.00     0.115 C 
BRANCH   8   9
HETATM    9  N3  UNL     1      14.233 -69.763 -21.401  1.00  0.00    -0.281 N 
BRANCH   9  10
HETATM   10  C8  UNL     1      13.325 -68.751 -20.811  1.00  0.00     0.145 C 
BRANCH  10  11
HETATM   11  C9  UNL     1      12.408 -68.058 -21.709  1.00  0.00    -0.004 C 
HETATM   12  C10 UNL     1      11.635 -67.047 -20.801  1.00  0.00     0.011 C 
HETATM   13  C11 UNL     1      12.913 -67.281 -22.859  1.00  0.00     0.011 C 
ENDBRANCH  10  11
ENDBRANCH   9  10
BRANCH   9  14
HETATM   14  S1  UNL     1      13.483 -71.225 -21.434  1.00  0.00     0.264 S 
HETATM   15  O2  UNL     1      12.405 -71.344 -20.305  1.00  0.00    -0.200 OA
HETATM   16  O3  UNL     1      14.421 -72.385 -21.038  1.00  0.00    -0.200 OA
BRANCH  14  17
HETATM   17  C12 UNL     1      12.652 -71.693 -22.901  1.00  0.00     0.080 A 
HETATM   18  C13 UNL     1      11.999 -72.950 -22.925  1.00  0.00     0.026 A 
HETATM   19  C14 UNL     1      11.317 -73.425 -24.002  1.00  0.00     0.008 A 
HETATM   20  C15 UNL     1      11.230 -72.685 -25.160  1.00  0.00    -0.062 A 
HETATM   21  C16 UNL     1      10.468 -73.219 -26.330  1.00  0.00     0.048 C 
HETATM   22  C17 UNL     1      11.858 -71.459 -25.160  1.00  0.00     0.008 A 
HETATM   23  C18 UNL     1      12.551 -70.983 -24.044  1.00  0.00     0.026 A 
ENDBRANCH  14  17
ENDBRANCH   9  14
ENDBRANCH   8   9
ENDBRANCH   3   8
BRANCH   4  24
HETATM   24  C20 UNL     1      16.331 -70.016 -23.651  1.00  0.00     0.036 C 
HETATM   25  C21 UNL     1      17.380 -71.153 -23.641  1.00  0.00     0.010 C 
ENDBRANCH   4  24
BRANCH   1  26
HETATM   26  N2  UNL     1      17.865 -65.200 -21.831  1.00  0.00    -0.295 N 
HETATM   27  C3  UNL     1      18.856 -64.261 -22.090  1.00  0.00     0.321 C 
HETATM   28  N1  UNL     1      19.488 -63.664 -20.907  1.00  0.00    -0.343 N 
HETATM   29  O1  UNL     1      19.244 -63.901 -23.192  1.00  0.00    -0.247 OA
ATOM     30  H1  UNL     1      19.139 -63.964 -19.996  1.00  0.00     0.164 HD
ATOM     31  H2  UNL     1      17.013 -64.756 -21.488  1.00  0.00     0.172 HD
BRANCH  28  32
HETATM   32  C2  UNL     1      20.532 -62.716 -20.908  1.00  0.00     0.120 C 
HETATM   33  C1  UNL     1      21.314 -62.803 -19.593  1.00  0.00     0.026 C 
ENDBRANCH  28  32
ENDBRANCH   1  26
TORSDOF 9
ENDMDL
MODEL 4
REMARK VINA RESULT: -8.939451774      3.948      7.769
REMARK  9 active torsions:
REMARK  status: ('A' for Active; 'I' for Inactive)
REMARK    1  A    between atoms: C2_2  and  N1_3 
REMARK       I    between atoms: N1_3  and  C3_5 
REMARK       I    between atoms: C3_5  and  N2_7 
REMARK    2  A    between atoms: N2_7  and  C4_9 
REMARK    3  A    between atoms: C6_11  and  C7_12 
REMARK    4  A    between atoms: C7_12  and  N3_13 
REMARK    5  A    between atoms: N3_13  and  C8_14 
REMARK    6  A    between atoms: N3_13  and  S1_18 
REMARK    7  A    between atoms: C8_14  and  C9_15 
REMARK    8  A    between atoms: S1_18  and  C12_21 
REMARK    9  A    between atoms: C19_28  and  C20_29 
ROOT
HETATM    1  C4  UNL     1      17.859 -67.956 -23.588  1.00  0.00     0.109 A 
HETATM    2  C5  UNL     1      17.831 -69.316 -23.435  1.00  0.00     0.062 A 
HETATM    3  C6  UNL     1      16.715 -70.082 -23.669  1.00  0.00    -0.009 A 
HETATM    4  C19 UNL     1      15.585 -69.366 -24.085  1.00  0.00    -0.031 A 
HETATM    5  C22 UNL     1      15.641 -68.021 -24.244  1.00  0.00     0.097 A 
HETATM    6  N4  UNL     1      16.704 -67.300 -24.022  1.00  0.00    -0.352 N 
ATOM      7  H4  UNL     1      16.693 -66.290 -24.161  1.00  0.00     0.166 HD
ENDROOT
BRANCH   3   8
HETATM    8  C7  UNL     1      16.535 -71.487 -23.411  1.00  0.00     0.115 C 
BRANCH   8   9
HETATM    9  N3  UNL     1      16.482 -72.201 -22.226  1.00  0.00    -0.281 N 
BRANCH   9  10
HETATM   10  C8  UNL     1      16.502 -73.627 -22.630  1.00  0.00     0.145 C 
BRANCH  10  11
HETATM   11  C9  UNL     1      17.673 -74.418 -22.269  1.00  0.00    -0.004 C 
HETATM   12  C10 UNL     1      18.309 -74.852 -23.630  1.00  0.00     0.011 C 
HETATM   13  C11 UNL     1      18.766 -73.834 -21.467  1.00  0.00     0.011 C 
ENDBRANCH  10  11
ENDBRANCH   9  10
BRANCH   9  14
HETATM   14  S1  UNL     1      15.573 -72.026 -20.868  1.00  0.00     0.264 S 
HETATM   15  O2  UNL     1      16.462 -71.743 -19.611  1.00  0.00    -0.200 OA
HETATM   16  O3  UNL     1      14.893 -73.341 -20.432  1.00  0.00    -0.200 OA
BRANCH  14  17
HETATM   17  C12 UNL     1      14.355 -70.769 -20.849  1.00  0.00     0.080 A 
HETATM   18  C13 UNL     1      14.775 -69.437 -20.610  1.00  0.00     0.026 A 
HETATM   19  C14 UNL     1      13.927 -68.373 -20.574  1.00  0.00     0.008 A 
HETATM   20  C15 UNL     1      12.574 -68.548 -20.769  1.00  0.00    -0.062 A 
HETATM   21  C16 UNL     1      11.659 -67.366 -20.736  1.00  0.00     0.048 C 
HETATM   22  C17 UNL     1      12.143 -69.834 -21.002  1.00  0.00     0.008 A 
HETATM   23  C18 UNL     1      13.027 -70.916 -21.042  1.00  0.00     0.026 A 
ENDBRANCH  14  17
ENDBRANCH   9  14
ENDBRANCH   8   9
ENDBRANCH   3   8
BRANCH   4  24
HETATM   24  C20 UNL     1      14.245 -70.013 -24.194  1.00  0.00     0.036 C 
HETATM   25  C21 UNL     1      13.193 -68.930 -24.531  1.00  0.00     0.010 C 
ENDBRANCH   4  24
BRANCH   1  26
HETATM   26  N2  UNL     1      18.605 -67.101 -23.017  1.00  0.00    -0.295 N 
HETATM   27  C3  UNL     1      18.439 -65.965 -22.235  1.00  0.00     0.321 C 
HETATM   28  N1  UNL     1      18.728 -64.689 -22.901  1.00  0.00    -0.343 N 
HETATM   29  O1  UNL     1      18.075 -65.934 -21.068  1.00  0.00    -0.247 OA
ATOM     30  H1  UNL     1      19.047 -64.736 -23.869  1.00  0.00     0.164 HD
ATOM     31  H2  UNL     1      19.592 -67.303 -23.174  1.00  0.00     0.172 HD
BRANCH  28  32
HETATM   32  C2  UNL     1      18.606 -63.405 -22.332  1.00  0.00     0.120 C 
HETATM   33  C1  UNL     1      19.321 -62.376 -23.214  1.00  0.00     0.026 C 
ENDBRANCH  28  32
ENDBRANCH   1  26
TORSDOF 9
ENDMDL
MODEL 5
REMARK VINA RESULT: -8.933453180      3.305      7.887
REMARK  9 active torsions:
REMARK  status: ('A' for Active; 'I' for Inactive)
REMARK    1  A    between atoms: C2_2  and  N1_3 
REMARK       I    between atoms: N1_3  and  C3_5 
REMARK       I    between atoms: C3_5  and  N2_7 
REMARK    2  A    between atoms: N2_7  and  C4_9 
REMARK    3  A    between atoms: C6_11  and  C7_12 
REMARK    4  A    between atoms: C7_12  and  N3_13 
REMARK    5  A    between atoms: N3_13  and  C8_14 
REMARK    6  A    between atoms: N3_13  and  S1_18 
REMARK    7  A    between atoms: C8_14  and  C9_15 
REMARK    8  A    between atoms: S1_18  and  C12_21 
REMARK    9  A    between atoms: C19_28  and  C20_29 
ROOT
HETATM    1  C4  UNL     1      17.461 -68.135 -23.510  1.00  0.00     0.109 A 
HETATM    2  C5  UNL     1      17.143 -69.397 -23.084  1.00  0.00     0.062 A 
HETATM    3  C6  UNL     1      15.930 -69.995 -23.324  1.00  0.00    -0.009 A 
HETATM    4  C19 UNL     1      15.022 -69.213 -24.051  1.00  0.00    -0.031 A 
HETATM    5  C22 UNL     1      15.365 -67.973 -24.475  1.00  0.00     0.097 A 
HETATM    6  N4  UNL     1      16.519 -67.412 -24.245  1.00  0.00    -0.352 N 
ATOM      7  H4  UNL     1      16.727 -66.476 -24.591  1.00  0.00     0.166 HD
ENDROOT
BRANCH   3   8
HETATM    8  C7  UNL     1      15.443 -71.248 -22.812  1.00  0.00     0.115 C 
BRANCH   8   9
HETATM    9  N3  UNL     1      14.797 -71.566 -21.628  1.00  0.00    -0.281 N 
BRANCH   9  10
HETATM   10  C8  UNL     1      15.804 -72.292 -20.818  1.00  0.00     0.145 C 
BRANCH  10  11
HETATM   11  C9  UNL     1      16.755 -73.145 -21.523  1.00  0.00    -0.004 C 
HETATM   12  C10 UNL     1      18.146 -72.817 -20.889  1.00  0.00     0.011 C 
HETATM   13  C11 UNL     1      16.622 -74.615 -21.495  1.00  0.00     0.011 C 
ENDBRANCH  10  11
ENDBRANCH   9  10
BRANCH   9  14
HETATM   14  S1  UNL     1      13.300 -72.163 -21.310  1.00  0.00     0.264 S 
HETATM   15  O2  UNL     1      12.532 -71.275 -20.275  1.00  0.00    -0.200 OA
HETATM   16  O3  UNL     1      13.342 -73.502 -20.543  1.00  0.00    -0.200 OA
BRANCH  14  17
HETATM   17  C12 UNL     1      12.188 -72.355 -22.648  1.00  0.00     0.080 A 
HETATM   18  C13 UNL     1      11.031 -71.538 -22.675  1.00  0.00     0.026 A 
HETATM   19  C14 UNL     1      10.094 -71.590 -23.662  1.00  0.00     0.008 A 
HETATM   20  C15 UNL     1      10.229 -72.470 -24.712  1.00  0.00    -0.062 A 
HETATM   21  C16 UNL     1       9.195 -72.505 -25.792  1.00  0.00     0.048 C 
HETATM   22  C17 UNL     1      11.347 -73.274 -24.706  1.00  0.00     0.008 A 
HETATM   23  C18 UNL     1      12.303 -73.206 -23.689  1.00  0.00     0.026 A 
ENDBRANCH  14  17
ENDBRANCH   9  14
ENDBRANCH   8   9
ENDBRANCH   3   8
BRANCH   4  24
HETATM   24  C20 UNL     1      13.600 -69.630 -24.231  1.00  0.00     0.036 C 
HETATM   25  C21 UNL     1      12.908 -68.640 -25.197  1.00  0.00     0.010 C 
ENDBRANCH   4  24
BRANCH   1  26
HETATM   26  N2  UNL     1      18.293 -67.311 -23.019  1.00  0.00    -0.295 N 
HETATM   27  C3  UNL     1      18.250 -66.163 -22.237  1.00  0.00     0.321 C 
HETATM   28  N1  UNL     1      18.531 -64.906 -22.941  1.00  0.00    -0.343 N 
HETATM   29  O1  UNL     1      17.999 -66.109 -21.042  1.00  0.00    -0.247 OA
ATOM     30  H1  UNL     1      18.756 -64.973 -23.934  1.00  0.00     0.164 HD
ATOM     31  H2  UNL     1      19.252 -67.558 -23.265  1.00  0.00     0.172 HD
BRANCH  28  32
HETATM   32  C2  UNL     1      18.518 -63.613 -22.377  1.00  0.00     0.120 C 
HETATM   33  C1  UNL     1      19.264 -62.639 -23.294  1.00  0.00     0.026 C 
ENDBRANCH  28  32
ENDBRANCH   1  26
TORSDOF 9
ENDMDL
