MODEL 1
REMARK VINA RESULT: -9.618182239      0.000      0.000
REMARK  9 active torsions:
REMARK  status: ('A' for Active; 'I' for Inactive)
REMARK    1  A    between atoms: C2_2  and  C3_3 
REMARK    2  A    between atoms: C3_3  and  C4_4 
REMARK    3  A    between atoms: N1_5  and  S1_7 
REMARK    4  A    between atoms: S1_7  and  C5_10 
REMARK    5  A    between atoms: C8_13  and  N2_14 
REMARK       I    between atoms: N2_14  and  C9_16 
REMARK    6  A    between atoms: C9_16  and  C10_18 
REMARK    7  A    between atoms: C11_19  and  C12_20 
REMARK       I    between atoms: C12_20  and  N3_22 
REMARK    8  A    between atoms: N3_22  and  C13_24 
REMARK    9  A    between atoms: C15_26  and  C16_27 
ROOT
HETATM    1  N2  UNL     1      13.682 -71.291 -21.337  1.00  0.00    -0.324 N 
ATOM      2  H2  UNL     1      12.967 -71.738 -20.762  1.00  0.00     0.169 HD
HETATM    3  C9  UNL     1      13.633 -69.892 -21.412  1.00  0.00     0.245 C 
HETATM    4  O3  UNL     1      14.487 -69.318 -22.115  1.00  0.00    -0.268 OA
ENDROOT
BRANCH   3   5
HETATM    5  C10 UNL     1      12.610 -69.192 -20.678  1.00  0.00     0.080 C 
HETATM    6  C11 UNL     1      11.829 -68.223 -20.960  1.00  0.00     0.080 C 
BRANCH   6   7
HETATM    7  C12 UNL     1      11.696 -67.463 -22.164  1.00  0.00     0.246 C 
HETATM    8  O4  UNL     1      12.332 -66.419 -22.391  1.00  0.00    -0.268 OA
HETATM    9  N3  UNL     1      10.766 -67.913 -23.204  1.00  0.00    -0.310 N 
ATOM     10  H3  UNL     1       9.884 -67.417 -23.335  1.00  0.00     0.170 HD
BRANCH   9  11
HETATM   11  C13 UNL     1      11.040 -68.919 -23.955  1.00  0.00     0.108 A 
HETATM   12  C14 UNL     1      10.072 -69.888 -24.235  1.00  0.00     0.056 A 
HETATM   13  C15 UNL     1      10.301 -70.970 -25.015  1.00  0.00    -0.050 A 
HETATM   14  C19 UNL     1      11.547 -71.140 -25.571  1.00  0.00     0.024 A 
HETATM   15  C20 UNL     1      12.491 -70.174 -25.284  1.00  0.00     0.090 A 
HETATM   16  N4  UNL     1      12.254 -69.102 -24.507  1.00  0.00    -0.352 N 
ATOM     17  H4  UNL     1      12.998 -68.425 -24.336  1.00  0.00     0.166 HD
BRANCH  13  18
HETATM   18  C16 UNL     1       9.274 -72.001 -25.324  1.00  0.00     0.010 C 
HETATM   19  C17 UNL     1       8.111 -71.489 -26.106  1.00  0.00     0.015 C 
HETATM   20  C18 UNL     1      10.000 -73.026 -26.213  1.00  0.00     0.015 C 
ENDBRANCH  13  18
ENDBRANCH   9  11
ENDBRANCH   6   7
ENDBRANCH   3   5
BRANCH   1  21
HETATM   21  C8  UNL     1      14.601 -72.150 -21.963  1.00  0.00     0.035 A 
HETATM   22  C7  UNL     1      15.688 -72.642 -21.203  1.00  0.00     0.031 A 
HETATM   23  C6  UNL     1      16.636 -73.456 -21.747  1.00  0.00     0.027 A 
HETATM   24  C5  UNL     1      16.603 -73.857 -23.068  1.00  0.00     0.080 A 
HETATM   25  C22 UNL     1      15.558 -73.395 -23.828  1.00  0.00     0.027 A 
HETATM   26  C21 UNL     1      14.586 -72.560 -23.273  1.00  0.00     0.031 A 
BRANCH  24  27
HETATM   27  S1  UNL     1      17.821 -74.883 -23.758  1.00  0.00     0.262 S 
HETATM   28  O1  UNL     1      17.192 -75.699 -24.853  1.00  0.00    -0.200 OA
HETATM   29  O2  UNL     1      18.208 -75.886 -22.681  1.00  0.00    -0.200 OA
BRANCH  27  30
HETATM   30  N1  UNL     1      19.212 -74.074 -24.269  1.00  0.00    -0.295 N 
HETATM   31  C4  UNL     1      19.460 -72.842 -24.067  1.00  0.00     0.073 C 
ATOM     32  H1  UNL     1      19.910 -74.616 -24.779  1.00  0.00     0.177 HD
BRANCH  31  33
HETATM   33  C3  UNL     1      20.728 -72.241 -24.571  1.00  0.00     0.045 C 
BRANCH  33  34
HETATM   34  C2  UNL     1      20.617 -71.882 -26.037  1.00  0.00     0.001 C 
HETATM   35  C1  UNL     1      21.585 -72.732 -26.840  1.00  0.00     0.005 C 
ENDBRANCH  33  34
ENDBRANCH  31  33
ENDBRANCH  27  30
ENDBRANCH  24  27
ENDBRANCH   1  21
TORSDOF 9
ENDMDL
MODEL 2
REMARK VINA RESULT: -9.591724753      3.632      7.386
REMARK  9 active torsions:
REMARK  status: ('A' for Active; 'I' for Inactive)
REMARK    1  A    between atoms: C2_2  and  C3_3 
REMARK    2  A    between atoms: C3_3  and  C4_4 
REMARK    3  A    between atoms: N1_5  and  S1_7 
REMARK    4  A    between atoms: S1_7  and  C5_10 
REMARK    5  A    between atoms: C8_13  and  N2_14 
REMARK       I    between atoms: N2_14  and  C9_16 
REMARK    6  A    between atoms: C9_16  and  C10_18 
REMARK    7  A    between atoms: C11_19  and  C12_20 
REMARK       I    between atoms: C12_20  and  N3_22 
REMARK    8  A    between atoms: N3_22  and  C13_24 
REMARK    9  A    between atoms: C15_26  and  C16_27 
ROOT
HETATM    1  N2  UNL     1      14.213 -68.729 -23.072  1.00  0.00    -0.324 N 
ATOM      2  H2  UNL     1      14.996 -69.367 -23.217  1.00  0.00     0.169 HD
HETATM    3  C9  UNL     1      14.485 -67.572 -22.327  1.00  0.00     0.245 C 
HETATM    4  O3  UNL     1      13.547 -66.778 -22.125  1.00  0.00    -0.268 OA
ENDROOT
BRANCH   3   5
HETATM    5  C10 UNL     1      15.824 -67.358 -21.840  1.00  0.00     0.080 C 
HETATM    6  C11 UNL     1      16.553 -67.950 -20.975  1.00  0.00     0.080 C 
BRANCH   6   7
HETATM    7  C12 UNL     1      16.274 -69.086 -20.153  1.00  0.00     0.246 C 
HETATM    8  O4  UNL     1      15.441 -69.077 -19.230  1.00  0.00    -0.268 OA
HETATM    9  N3  UNL     1      16.993 -70.341 -20.385  1.00  0.00    -0.310 N 
ATOM     10  H3  UNL     1      17.727 -70.625 -19.735  1.00  0.00     0.170 HD
BRANCH   9  11
HETATM   11  C13 UNL     1      16.719 -71.092 -21.390  1.00  0.00     0.108 A 
HETATM   12  C14 UNL     1      15.440 -71.634 -21.553  1.00  0.00     0.056 A 
HETATM   13  C15 UNL     1      15.092 -72.434 -22.589  1.00  0.00    -0.050 A 
HETATM   14  C19 UNL     1      16.035 -72.738 -23.541  1.00  0.00     0.024 A 
HETATM   15  C20 UNL     1      17.292 -72.196 -23.366  1.00  0.00     0.090 A 
HETATM   16  N4  UNL     1      17.629 -71.402 -22.334  1.00  0.00    -0.352 N 
ATOM     17  H4  UNL     1      18.578 -71.034 -22.265  1.00  0.00     0.166 HD
BRANCH  13  18
HETATM   18  C16 UNL     1      13.732 -73.006 -22.772  1.00  0.00     0.010 C 
HETATM   19  C17 UNL     1      13.222 -72.932 -24.173  1.00  0.00     0.015 C 
HETATM   20  C18 UNL     1      13.882 -74.498 -22.424  1.00  0.00     0.015 C 
ENDBRANCH  13  18
ENDBRANCH   9  11
ENDBRANCH   6   7
ENDBRANCH   3   5
BRANCH   1  21
HETATM   21  C8  UNL     1      12.987 -69.111 -23.641  1.00  0.00     0.035 A 
HETATM   22  C7  UNL     1      12.026 -69.738 -22.813  1.00  0.00     0.031 A 
HETATM   23  C6  UNL     1      10.826 -70.163 -23.299  1.00  0.00     0.027 A 
HETATM   24  C5  UNL     1      10.464 -70.013 -24.623  1.00  0.00     0.080 A 
HETATM   25  C22 UNL     1      11.378 -69.408 -25.449  1.00  0.00     0.027 A 
HETATM   26  C21 UNL     1      12.609 -68.972 -24.954  1.00  0.00     0.031 A 
BRANCH  24  27
HETATM   27  S1  UNL     1       8.939 -70.569 -25.237  1.00  0.00     0.262 S 
HETATM   28  O1  UNL     1       8.415 -69.546 -26.207  1.00  0.00    -0.200 OA
HETATM   29  O2  UNL     1       7.965 -70.553 -24.068  1.00  0.00    -0.200 OA
BRANCH  27  30
HETATM   30  N1  UNL     1       8.972 -72.125 -25.892  1.00  0.00    -0.295 N 
HETATM   31  C4  UNL     1       9.868 -72.999 -25.661  1.00  0.00     0.073 C 
ATOM     32  H1  UNL     1       8.213 -72.386 -26.523  1.00  0.00     0.177 HD
BRANCH  31  33
HETATM   33  C3  UNL     1       9.787 -74.343 -26.303  1.00  0.00     0.045 C 
BRANCH  33  34
HETATM   34  C2  UNL     1       8.391 -74.620 -26.817  1.00  0.00     0.001 C 
HETATM   35  C1  UNL     1       8.445 -75.726 -27.855  1.00  0.00     0.005 C 
ENDBRANCH  33  34
ENDBRANCH  31  33
ENDBRANCH  27  30
ENDBRANCH  24  27
ENDBRANCH   1  21
TORSDOF 9
ENDMDL
MODEL 3
REMARK VINA RESULT: -9.581710256      1.895      2.041
REMARK  9 active torsions:
REMARK  status: ('A' for Active; 'I' for Inactive)
REMARK    1  A    between atoms: C2_2  and  C3_3 
REMARK    2  A    between atoms: C3_3  and  C4_4 
REMARK    3  A    between atoms: N1_5  and  S1_7 
REMARK    4  A    between atoms: S1_7  and  C5_10 
REMARK    5  A    between atoms: C8_13  and  N2_14 
REMARK       I    between atoms: N2_14  and  C9_16 
REMARK    6  A    between atoms: C9_16  and  C10_18 
REMARK    7  A    between atoms: C11_19  and  C12_20 
REMARK       I    between atoms: C12_20  and  N3_22 
REMARK    8  A    between atoms: N3_22  and  C13_24 
REMARK    9  A    between atoms: C15_26  and  C16_27 
ROOT
HETATM    1  N2  UNL     1      13.128 -71.113 -21.898  1.00  0.00    -0.324 N 
ATOM      2  H2  UNL     1      12.163 -71.240 -22.205  1.00  0.00     0.169 HD
HETATM    3  C9  UNL     1      13.365 -70.040 -21.026  1.00  0.00     0.245 C 
HETATM    4  O3  UNL     1      14.535 -69.853 -20.641  1.00  0.00    -0.268 OA
ENDROOT
BRANCH   3   5
HETATM    5  C10 UNL     1      12.255 -69.217 -20.619  1.00  0.00     0.080 C 
HETATM    6  C11 UNL     1      11.637 -68.239 -21.160  1.00  0.00     0.080 C 
BRANCH   6   7
HETATM    7  C12 UNL     1      11.848 -67.595 -22.419  1.00  0.00     0.246 C 
HETATM    8  O4  UNL     1      12.783 -66.805 -22.638  1.00  0.00    -0.268 OA
HETATM    9  N3  UNL     1      10.929 -67.860 -23.529  1.00  0.00    -0.310 N 
ATOM     10  H3  UNL     1      10.249 -67.147 -23.796  1.00  0.00     0.170 HD
BRANCH   9  11
HETATM   11  C13 UNL     1      10.962 -68.971 -24.173  1.00  0.00     0.108 A 
HETATM   12  C14 UNL     1       9.787 -69.680 -24.439  1.00  0.00     0.056 A 
HETATM   13  C15 UNL     1       9.758 -70.856 -25.110  1.00  0.00    -0.050 A 
HETATM   14  C19 UNL     1      10.939 -71.395 -25.561  1.00  0.00     0.024 A 
HETATM   15  C20 UNL     1      12.090 -70.682 -25.291  1.00  0.00     0.090 A 
HETATM   16  N4  UNL     1      12.109 -69.514 -24.624  1.00  0.00    -0.352 N 
ATOM     17  H4  UNL     1      12.996 -69.039 -24.458  1.00  0.00     0.166 HD
BRANCH  13  18
HETATM   18  C16 UNL     1       8.511 -71.612 -25.402  1.00  0.00     0.010 C 
HETATM   19  C17 UNL     1       7.518 -70.858 -26.222  1.00  0.00     0.015 C 
HETATM   20  C18 UNL     1       8.969 -72.817 -26.243  1.00  0.00     0.015 C 
ENDBRANCH  13  18
ENDBRANCH   9  11
ENDBRANCH   6   7
ENDBRANCH   3   5
BRANCH   1  21
HETATM   21  C8  UNL     1      14.064 -72.033 -22.398  1.00  0.00     0.035 A 
HETATM   22  C7  UNL     1      13.980 -73.379 -21.972  1.00  0.00     0.031 A 
HETATM   23  C6  UNL     1      14.869 -74.323 -22.390  1.00  0.00     0.027 A 
HETATM   24  C5  UNL     1      15.908 -74.035 -23.253  1.00  0.00     0.080 A 
HETATM   25  C22 UNL     1      16.014 -72.736 -23.682  1.00  0.00     0.027 A 
HETATM   26  C21 UNL     1      15.104 -71.767 -23.255  1.00  0.00     0.031 A 
BRANCH  24  27
HETATM   27  S1  UNL     1      17.045 -75.240 -23.772  1.00  0.00     0.262 S 
HETATM   28  O1  UNL     1      17.016 -75.307 -25.274  1.00  0.00    -0.200 OA
HETATM   29  O2  UNL     1      16.506 -76.582 -23.298  1.00  0.00    -0.200 OA
BRANCH  27  30
HETATM   30  N1  UNL     1      18.607 -75.039 -23.162  1.00  0.00    -0.295 N 
HETATM   31  C4  UNL     1      18.899 -74.872 -21.934  1.00  0.00     0.073 C 
ATOM     32  H1  UNL     1      19.377 -75.051 -23.830  1.00  0.00     0.177 HD
BRANCH  31  33
HETATM   33  C3  UNL     1      20.321 -74.703 -21.518  1.00  0.00     0.045 C 
BRANCH  33  34
HETATM   34  C2  UNL     1      20.510 -73.428 -20.726  1.00  0.00     0.001 C 
HETATM   35  C1  UNL     1      19.154 -72.824 -20.409  1.00  0.00     0.005 C 
ENDBRANCH  33  34
ENDBRANCH  31  33
ENDBRANCH  27  30
ENDBRANCH  24  27
ENDBRANCH   1  21
TORSDOF 9
ENDMDL
MODEL 4
REMARK VINA RESULT: -9.448509015      2.562      4.268
REMARK  9 active torsions:
REMARK  status: ('A' for Active; 'I' for Inactive)
REMARK    1  A    between atoms: C2_2  and  C3_3 
REMARK    2  A    between atoms: C3_3  and  C4_4 
REMARK    3  A    between atoms: N1_5  and  S1_7 
REMARK    4  A    between atoms: S1_7  and  C5_10 
REMARK    5  A    between atoms: C8_13  and  N2_14 
REMARK       I    between atoms: N2_14  and  C9_16 
REMARK    6  A    between atoms: C9_16  and  C10_18 
REMARK    7  A    between atoms: C11_19  and  C12_20 
REMARK       I    between atoms: C12_20  and  N3_22 
REMARK    8  A    between atoms: N3_22  and  C13_24 
REMARK    9  A    between atoms: C15_26  and  C16_27 
ROOT
HETATM    1  N2  UNL     1      12.459 -72.184 -24.309  1.00  0.00    -0.324 N 
ATOM      2  H2  UNL     1      12.563 -71.751 -25.227  1.00  0.00     0.169 HD
HETATM    3  C9  UNL     1      11.204 -72.741 -24.024  1.00  0.00     0.245 C 
HETATM    4  O3  UNL     1      11.043 -73.268 -22.907  1.00  0.00    -0.268 OA
ENDROOT
BRANCH   3   5
HETATM    5  C10 UNL     1      10.172 -72.679 -25.027  1.00  0.00     0.080 C 
HETATM    6  C11 UNL     1       9.216 -71.865 -25.260  1.00  0.00     0.080 C 
BRANCH   6   7
HETATM    7  C12 UNL     1       8.824 -70.677 -24.568  1.00  0.00     0.246 C 
HETATM    8  O4  UNL     1       8.073 -70.676 -23.577  1.00  0.00    -0.268 OA
HETATM    9  N3  UNL     1       9.316 -69.376 -25.029  1.00  0.00    -0.310 N 
ATOM     10  H3  UNL     1       8.682 -68.748 -25.524  1.00  0.00     0.170 HD
BRANCH   9  11
HETATM   11  C13 UNL     1      10.530 -69.009 -24.822  1.00  0.00     0.108 A 
HETATM   12  C14 UNL     1      10.897 -68.390 -23.624  1.00  0.00     0.056 A 
HETATM   13  C15 UNL     1      12.158 -67.979 -23.350  1.00  0.00    -0.050 A 
HETATM   14  C19 UNL     1      13.142 -68.175 -24.290  1.00  0.00     0.024 A 
HETATM   15  C20 UNL     1      12.763 -68.788 -25.467  1.00  0.00     0.090 A 
HETATM   16  N4  UNL     1      11.507 -69.192 -25.731  1.00  0.00    -0.352 N 
ATOM     17  H4  UNL     1      11.294 -69.640 -26.623  1.00  0.00     0.166 HD
BRANCH  13  18
HETATM   18  C16 UNL     1      12.558 -67.328 -22.074  1.00  0.00     0.010 C 
HETATM   19  C17 UNL     1      12.156 -68.082 -20.851  1.00  0.00     0.015 C 
HETATM   20  C18 UNL     1      14.096 -67.308 -22.107  1.00  0.00     0.015 C 
ENDBRANCH  13  18
ENDBRANCH   9  11
ENDBRANCH   6   7
ENDBRANCH   3   5
BRANCH   1  21
HETATM   21  C8  UNL     1      13.591 -72.154 -23.477  1.00  0.00     0.035 A 
HETATM   22  C7  UNL     1      13.674 -71.144 -22.490  1.00  0.00     0.031 A 
HETATM   23  C6  UNL     1      14.753 -71.032 -21.665  1.00  0.00     0.027 A 
HETATM   24  C5  UNL     1      15.834 -71.890 -21.733  1.00  0.00     0.080 A 
HETATM   25  C22 UNL     1      15.778 -72.879 -22.682  1.00  0.00     0.027 A 
HETATM   26  C21 UNL     1      14.674 -72.996 -23.529  1.00  0.00     0.031 A 
BRANCH  24  27
HETATM   27  S1  UNL     1      17.210 -71.733 -20.687  1.00  0.00     0.262 S 
HETATM   28  O1  UNL     1      16.937 -72.500 -19.423  1.00  0.00    -0.200 OA
HETATM   29  O2  UNL     1      17.275 -70.272 -20.267  1.00  0.00    -0.200 OA
BRANCH  27  30
HETATM   30  N1  UNL     1      18.682 -72.158 -21.398  1.00  0.00    -0.295 N 
HETATM   31  C4  UNL     1      19.139 -71.674 -22.483  1.00  0.00     0.073 C 
ATOM     32  H1  UNL     1      19.250 -72.857 -20.920  1.00  0.00     0.177 HD
BRANCH  31  33
HETATM   33  C3  UNL     1      20.455 -72.132 -23.012  1.00  0.00     0.045 C 
BRANCH  33  34
HETATM   34  C2  UNL     1      20.483 -72.085 -24.524  1.00  0.00     0.001 C 
HETATM   35  C1  UNL     1      19.062 -72.014 -25.054  1.00  0.00     0.005 C 
ENDBRANCH  33  34
ENDBRANCH  31  33
ENDBRANCH  27  30
ENDBRANCH  24  27
ENDBRANCH   1  21
TORSDOF 9
ENDMDL
MODEL 5
REMARK VINA RESULT: -9.426293513      4.385      6.383
REMARK  9 active torsions:
REMARK  status: ('A' for Active; 'I' for Inactive)
REMARK    1  A    between atoms: C2_2  and  C3_3 
REMARK    2  A    between atoms: C3_3  and  C4_4 
REMARK    3  A    between atoms: N1_5  and  S1_7 
REMARK    4  A    between atoms: S1_7  and  C5_10 
REMARK    5  A    between atoms: C8_13  and  N2_14 
REMARK       I    between atoms: N2_14  and  C9_16 
REMARK    6  A    between atoms: C9_16  and  C10_18 
REMARK    7  A    between atoms: C11_19  and  C12_20 
REMARK       I    between atoms: C12_20  and  N3_22 
REMARK    8  A    between atoms: N3_22  and  C13_24 
REMARK    9  A    between atoms: C15_26  and  C16_27 
ROOT
HETATM    1  N2  UNL     1      11.680 -68.249 -24.288  1.00  0.00    -0.324 N 
ATOM      2  H2  UNL     1      10.980 -67.703 -23.785  1.00  0.00     0.169 HD
HETATM    3  C9  UNL     1      11.204 -69.061 -25.327  1.00  0.00     0.245 C 
HETATM    4  O3  UNL     1      12.033 -69.747 -25.954  1.00  0.00    -0.268 OA
ENDROOT
BRANCH   3   5
HETATM    5  C10 UNL     1       9.793 -69.062 -25.617  1.00  0.00     0.080 C 
HETATM    6  C11 UNL     1       8.878 -69.949 -25.548  1.00  0.00     0.080 C 
BRANCH   6   7
HETATM    7  C12 UNL     1       8.946 -71.317 -25.136  1.00  0.00     0.246 C 
HETATM    8  O4  UNL     1       8.888 -72.276 -25.926  1.00  0.00    -0.268 OA
HETATM    9  N3  UNL     1       9.091 -71.637 -23.713  1.00  0.00    -0.310 N 
ATOM     10  H3  UNL     1       8.289 -71.998 -23.198  1.00  0.00     0.170 HD
BRANCH   9  11
HETATM   11  C13 UNL     1      10.209 -71.472 -23.102  1.00  0.00     0.108 A 
HETATM   12  C14 UNL     1      11.368 -72.121 -23.538  1.00  0.00     0.056 A 
HETATM   13  C15 UNL     1      12.572 -71.989 -22.934  1.00  0.00    -0.050 A 
HETATM   14  C19 UNL     1      12.679 -71.176 -21.831  1.00  0.00     0.024 A 
HETATM   15  C20 UNL     1      11.526 -70.542 -21.413  1.00  0.00     0.090 A 
HETATM   16  N4  UNL     1      10.333 -70.680 -22.019  1.00  0.00    -0.352 N 
ATOM     17  H4  UNL     1       9.520 -70.181 -21.658  1.00  0.00     0.166 HD
BRANCH  13  18
HETATM   18  C16 UNL     1      13.810 -72.671 -23.397  1.00  0.00     0.010 C 
HETATM   19  C17 UNL     1      15.061 -71.894 -23.156  1.00  0.00     0.015 C 
HETATM   20  C18 UNL     1      13.900 -73.948 -22.544  1.00  0.00     0.015 C 
ENDBRANCH  13  18
ENDBRANCH   9  11
ENDBRANCH   6   7
ENDBRANCH   3   5
BRANCH   1  21
HETATM   21  C8  UNL     1      13.010 -68.099 -23.860  1.00  0.00     0.035 A 
HETATM   22  C7  UNL     1      13.250 -67.479 -22.611  1.00  0.00     0.031 A 
HETATM   23  C6  UNL     1      14.512 -67.273 -22.142  1.00  0.00     0.027 A 
HETATM   24  C5  UNL     1      15.639 -67.650 -22.846  1.00  0.00     0.080 A 
HETATM   25  C22 UNL     1      15.435 -68.254 -24.061  1.00  0.00     0.027 A 
HETATM   26  C21 UNL     1      14.142 -68.466 -24.545  1.00  0.00     0.031 A 
BRANCH  24  27
HETATM   27  S1  UNL     1      17.244 -67.372 -22.247  1.00  0.00     0.262 S 
HETATM   28  O1  UNL     1      18.043 -68.633 -22.424  1.00  0.00    -0.200 OA
HETATM   29  O2  UNL     1      17.122 -67.179 -20.743  1.00  0.00    -0.200 OA
BRANCH  27  30
HETATM   30  N1  UNL     1      18.013 -66.020 -22.905  1.00  0.00    -0.295 N 
HETATM   31  C4  UNL     1      18.314 -64.962 -22.264  1.00  0.00     0.073 C 
ATOM     32  H1  UNL     1      18.256 -66.053 -23.895  1.00  0.00     0.177 HD
BRANCH  31  33
HETATM   33  C3  UNL     1      18.992 -63.831 -22.958  1.00  0.00     0.045 C 
BRANCH  33  34
HETATM   34  C2  UNL     1      18.687 -62.513 -22.282  1.00  0.00     0.001 C 
HETATM   35  C1  UNL     1      19.458 -61.401 -22.970  1.00  0.00     0.005 C 
ENDBRANCH  33  34
ENDBRANCH  31  33
ENDBRANCH  27  30
ENDBRANCH  24  27
ENDBRANCH   1  21
TORSDOF 9
ENDMDL
