MODEL 1
REMARK VINA RESULT: -8.840174700      0.000      0.000
REMARK  9 active torsions:
REMARK  status: ('A' for Active; 'I' for Inactive)
REMARK    1  A    between atoms: C2_2  and  C3_3 
REMARK    2  A    between atoms: C3_3  and  C4_4 
REMARK    3  A    between atoms: C4_4  and  N1_5 
REMARK    4  A    between atoms: N1_5  and  C5_6 
REMARK       I    between atoms: N1_5  and  C8_9 
REMARK    5  A    between atoms: C5_6  and  C6_7 
REMARK    6  A    between atoms: C8_9  and  C9_11 
REMARK    7  A    between atoms: C10_12  and  C11_13 
REMARK    8  A    between atoms: C12_14  and  C13_15 
REMARK    9  A    between atoms: C13_15  and  C14_16 
ROOT
HETATM    1  C11 UNL     1      16.232 -73.023 -23.468  1.00  0.00     0.044 A 
HETATM    2  C12 UNL     1      17.184 -72.314 -22.855  1.00  0.00     0.030 A 
HETATM    3  C25 UNL     1      18.478 -72.635 -23.435  1.00  0.00     0.255 A 
HETATM    4  O2  UNL     1      19.627 -72.156 -23.109  1.00  0.00    -0.268 OA
HETATM    5  N3  UNL     1      18.246 -73.594 -24.452  1.00  0.00    -0.289 N 
ATOM      6  H3  UNL     1      18.950 -74.025 -25.050  1.00  0.00     0.172 HD
HETATM    7  C26 UNL     1      16.854 -73.841 -24.480  1.00  0.00     0.259 A 
HETATM    8  O3  UNL     1      16.291 -74.663 -25.287  1.00  0.00    -0.267 OA
ENDROOT
BRANCH   2   9
HETATM    9  C13 UNL     1      16.963 -71.332 -21.730  1.00  0.00     0.086 C 
BRANCH   9  10
HETATM   10  C14 UNL     1      16.480 -70.018 -22.189  1.00  0.00    -0.019 A 
HETATM   11  C15 UNL     1      17.234 -69.051 -22.818  1.00  0.00     0.013 A 
HETATM   12  C16 UNL     1      18.684 -69.139 -23.197  1.00  0.00     0.068 C 
HETATM   13  N2  UNL     1      16.411 -68.009 -23.026  1.00  0.00    -0.359 N 
HETATM   14  C17 UNL     1      15.180 -68.275 -22.559  1.00  0.00     0.043 A 
ATOM     15  H2  UNL     1      16.683 -67.135 -23.478  1.00  0.00     0.166 HD
HETATM   16  C18 UNL     1      13.989 -67.570 -22.507  1.00  0.00     0.037 A 
HETATM   17  C24 UNL     1      15.167 -69.552 -22.009  1.00  0.00    -0.000 A 
HETATM   18  C19 UNL     1      12.824 -68.046 -21.959  1.00  0.00    -0.054 A 
HETATM   19  C20 UNL     1      11.565 -67.254 -21.925  1.00  0.00     0.049 C 
HETATM   20  C21 UNL     1      12.867 -69.335 -21.419  1.00  0.00    -0.055 A 
HETATM   21  C22 UNL     1      11.606 -69.847 -20.827  1.00  0.00     0.049 C 
HETATM   22  C23 UNL     1      14.024 -70.078 -21.445  1.00  0.00     0.021 A 
ENDBRANCH   9  10
ENDBRANCH   2   9
BRANCH   1  23
HETATM   23  C10 UNL     1      14.792 -72.951 -23.137  1.00  0.00     0.023 C 
HETATM   24  C9  UNL     1      13.859 -72.811 -24.044  1.00  0.00     0.075 C 
BRANCH  24  25
HETATM   25  C8  UNL     1      12.459 -72.749 -23.630  1.00  0.00     0.243 C 
HETATM   26  N1  UNL     1      11.500 -71.970 -24.331  1.00  0.00    -0.349 N 
HETATM   27  O1  UNL     1      12.127 -73.421 -22.615  1.00  0.00    -0.268 OA
BRANCH  26  28
HETATM   28  C4  UNL     1      10.138 -71.968 -23.858  1.00  0.00     0.126 C 
BRANCH  28  29
HETATM   29  C3  UNL     1       9.178 -71.924 -25.054  1.00  0.00     0.020 C 
BRANCH  29  30
HETATM   30  C2  UNL     1       8.216 -70.771 -24.910  1.00  0.00    -0.003 C 
HETATM   31  C1  UNL     1       7.470 -70.543 -26.210  1.00  0.00     0.005 C 
ENDBRANCH  29  30
ENDBRANCH  28  29
ENDBRANCH  26  28
BRANCH  26  32
HETATM   32  C5  UNL     1      11.862 -71.200 -25.478  1.00  0.00     0.125 C 
BRANCH  32  33
HETATM   33  C6  UNL     1      12.391 -69.823 -25.112  1.00  0.00     0.015 C 
HETATM   34  C7  UNL     1      11.369 -68.819 -25.571  1.00  0.00     0.006 C 
ENDBRANCH  32  33
ENDBRANCH  26  32
ENDBRANCH  24  25
ENDBRANCH   1  23
TORSDOF 9
ENDMDL
MODEL 2
REMARK VINA RESULT: -8.784139743      1.973      2.747
REMARK  9 active torsions:
REMARK  status: ('A' for Active; 'I' for Inactive)
REMARK    1  A    between atoms: C2_2  and  C3_3 
REMARK    2  A    between atoms: C3_3  and  C4_4 
REMARK    3  A    between atoms: C4_4  and  N1_5 
REMARK    4  A    between atoms: N1_5  and  C5_6 
REMARK       I    between atoms: N1_5  and  C8_9 
REMARK    5  A    between atoms: C5_6  and  C6_7 
REMARK    6  A    between atoms: C8_9  and  C9_11 
REMARK    7  A    between atoms: C10_12  and  C11_13 
REMARK    8  A    between atoms: C12_14  and  C13_15 
REMARK    9  A    between atoms: C13_15  and  C14_16 
ROOT
HETATM    1  C11 UNL     1      14.146 -73.710 -22.715  1.00  0.00     0.044 A 
HETATM    2  C12 UNL     1      15.357 -73.209 -22.972  1.00  0.00     0.030 A 
HETATM    3  C25 UNL     1      16.354 -74.261 -22.851  1.00  0.00     0.255 A 
HETATM    4  O2  UNL     1      17.625 -74.164 -23.024  1.00  0.00    -0.268 OA
HETATM    5  N3  UNL     1      15.660 -75.446 -22.501  1.00  0.00    -0.289 N 
ATOM      6  H3  UNL     1      16.072 -76.365 -22.341  1.00  0.00     0.172 HD
HETATM    7  C26 UNL     1      14.288 -75.114 -22.414  1.00  0.00     0.259 A 
HETATM    8  O3  UNL     1      13.368 -75.955 -22.114  1.00  0.00    -0.267 OA
ENDROOT
BRANCH   2   9
HETATM    9  C13 UNL     1      15.658 -71.775 -23.331  1.00  0.00     0.086 C 
BRANCH   9  10
HETATM   10  C14 UNL     1      15.465 -70.839 -22.210  1.00  0.00    -0.019 A 
HETATM   11  C15 UNL     1      16.249 -70.754 -21.079  1.00  0.00     0.013 A 
HETATM   12  C16 UNL     1      17.473 -71.565 -20.765  1.00  0.00     0.068 C 
HETATM   13  N2  UNL     1      15.698 -69.798 -20.311  1.00  0.00    -0.359 N 
HETATM   14  C17 UNL     1      14.609 -69.281 -20.904  1.00  0.00     0.043 A 
ATOM     15  H2  UNL     1      16.058 -69.506 -19.402  1.00  0.00     0.166 HD
HETATM   16  C18 UNL     1      13.689 -68.306 -20.558  1.00  0.00     0.037 A 
HETATM   17  C24 UNL     1      14.412 -69.913 -22.126  1.00  0.00    -0.000 A 
HETATM   18  C19 UNL     1      12.618 -67.935 -21.333  1.00  0.00    -0.054 A 
HETATM   19  C20 UNL     1      11.652 -66.880 -20.922  1.00  0.00     0.049 C 
HETATM   20  C21 UNL     1      12.466 -68.603 -22.551  1.00  0.00    -0.055 A 
HETATM   21  C22 UNL     1      11.307 -68.200 -23.386  1.00  0.00     0.049 C 
HETATM   22  C23 UNL     1      13.351 -69.579 -22.942  1.00  0.00     0.021 A 
ENDBRANCH   9  10
ENDBRANCH   2   9
BRANCH   1  23
HETATM   23  C10 UNL     1      12.893 -72.925 -22.745  1.00  0.00     0.023 C 
HETATM   24  C9  UNL     1      12.008 -73.033 -23.704  1.00  0.00     0.075 C 
BRANCH  24  25
HETATM   25  C8  UNL     1      10.796 -72.219 -23.656  1.00  0.00     0.243 C 
HETATM   26  N1  UNL     1       9.899 -72.139 -24.755  1.00  0.00    -0.349 N 
HETATM   27  O1  UNL     1      10.570 -71.582 -22.590  1.00  0.00    -0.268 OA
BRANCH  26  28
HETATM   28  C4  UNL     1       8.722 -71.315 -24.623  1.00  0.00     0.126 C 
BRANCH  28  29
HETATM   29  C3  UNL     1       8.376 -70.689 -25.981  1.00  0.00     0.020 C 
BRANCH  29  30
HETATM   30  C2  UNL     1       6.880 -70.601 -26.150  1.00  0.00    -0.003 C 
HETATM   31  C1  UNL     1       6.380 -71.750 -27.003  1.00  0.00     0.005 C 
ENDBRANCH  29  30
ENDBRANCH  28  29
ENDBRANCH  26  28
BRANCH  26  32
HETATM   32  C5  UNL     1      10.144 -72.849 -25.969  1.00  0.00     0.125 C 
BRANCH  32  33
HETATM   33  C6  UNL     1       9.751 -74.314 -25.876  1.00  0.00     0.015 C 
HETATM   34  C7  UNL     1       8.736 -74.570 -26.956  1.00  0.00     0.006 C 
ENDBRANCH  32  33
ENDBRANCH  26  32
ENDBRANCH  24  25
ENDBRANCH   1  23
TORSDOF 9
ENDMDL
MODEL 3
REMARK VINA RESULT: -8.780918828      2.043      3.416
REMARK  9 active torsions:
REMARK  status: ('A' for Active; 'I' for Inactive)
REMARK    1  A    between atoms: C2_2  and  C3_3 
REMARK    2  A    between atoms: C3_3  and  C4_4 
REMARK    3  A    between atoms: C4_4  and  N1_5 
REMARK    4  A    between atoms: N1_5  and  C5_6 
REMARK       I    between atoms: N1_5  and  C8_9 
REMARK    5  A    between atoms: C5_6  and  C6_7 
REMARK    6  A    between atoms: C8_9  and  C9_11 
REMARK    7  A    between atoms: C10_12  and  C11_13 
REMARK    8  A    between atoms: C12_14  and  C13_15 
REMARK    9  A    between atoms: C13_15  and  C14_16 
ROOT
HETATM    1  C11 UNL     1      14.900 -73.563 -23.177  1.00  0.00     0.044 A 
HETATM    2  C12 UNL     1      16.105 -73.755 -23.721  1.00  0.00     0.030 A 
HETATM    3  C25 UNL     1      16.731 -74.920 -23.116  1.00  0.00     0.255 A 
HETATM    4  O2  UNL     1      17.888 -75.416 -23.378  1.00  0.00    -0.268 OA
HETATM    5  N3  UNL     1      15.816 -75.427 -22.159  1.00  0.00    -0.289 N 
ATOM      6  H3  UNL     1      15.955 -76.241 -21.561  1.00  0.00     0.172 HD
HETATM    7  C26 UNL     1      14.677 -74.591 -22.190  1.00  0.00     0.259 A 
HETATM    8  O3  UNL     1      13.646 -74.762 -21.446  1.00  0.00    -0.267 OA
ENDROOT
BRANCH   2   9
HETATM    9  C13 UNL     1      16.731 -72.901 -24.795  1.00  0.00     0.086 C 
BRANCH   9  10
HETATM   10  C14 UNL     1      17.652 -71.879 -24.267  1.00  0.00    -0.019 A 
HETATM   11  C15 UNL     1      19.020 -72.001 -24.152  1.00  0.00     0.013 A 
HETATM   12  C16 UNL     1      19.861 -73.175 -24.565  1.00  0.00     0.068 C 
HETATM   13  N2  UNL     1      19.454 -70.858 -23.596  1.00  0.00    -0.359 N 
HETATM   14  C17 UNL     1      18.427 -70.026 -23.356  1.00  0.00     0.043 A 
ATOM     15  H2  UNL     1      20.430 -70.649 -23.383  1.00  0.00     0.166 HD
HETATM   16  C18 UNL     1      18.311 -68.762 -22.804  1.00  0.00     0.037 A 
HETATM   17  C24 UNL     1      17.244 -70.632 -23.768  1.00  0.00    -0.000 A 
HETATM   18  C19 UNL     1      17.128 -68.086 -22.643  1.00  0.00    -0.054 A 
HETATM   19  C20 UNL     1      17.050 -66.726 -22.044  1.00  0.00     0.049 C 
HETATM   20  C21 UNL     1      15.969 -68.740 -23.072  1.00  0.00    -0.055 A 
HETATM   21  C22 UNL     1      14.691 -68.007 -22.896  1.00  0.00     0.049 C 
HETATM   22  C23 UNL     1      16.028 -69.997 -23.628  1.00  0.00     0.021 A 
ENDBRANCH   9  10
ENDBRANCH   2   9
BRANCH   1  23
HETATM   23  C10 UNL     1      13.978 -72.468 -23.551  1.00  0.00     0.023 C 
HETATM   24  C9  UNL     1      12.868 -72.668 -24.215  1.00  0.00     0.075 C 
BRANCH  24  25
HETATM   25  C8  UNL     1      12.014 -71.529 -24.544  1.00  0.00     0.243 C 
HETATM   26  N1  UNL     1      10.653 -71.692 -24.918  1.00  0.00    -0.349 N 
HETATM   27  O1  UNL     1      12.535 -70.381 -24.484  1.00  0.00    -0.268 OA
BRANCH  26  28
HETATM   28  C4  UNL     1       9.879 -70.513 -25.223  1.00  0.00     0.126 C 
BRANCH  28  29
HETATM   29  C3  UNL     1       8.386 -70.817 -25.043  1.00  0.00     0.020 C 
BRANCH  29  30
HETATM   30  C2  UNL     1       7.615 -70.393 -26.268  1.00  0.00    -0.003 C 
HETATM   31  C1  UNL     1       6.692 -71.508 -26.720  1.00  0.00     0.005 C 
ENDBRANCH  29  30
ENDBRANCH  28  29
ENDBRANCH  26  28
BRANCH  26  32
HETATM   32  C5  UNL     1      10.052 -72.984 -24.996  1.00  0.00     0.125 C 
BRANCH  32  33
HETATM   33  C6  UNL     1      10.196 -73.612 -26.372  1.00  0.00     0.015 C 
HETATM   34  C7  UNL     1       9.031 -74.545 -26.558  1.00  0.00     0.006 C 
ENDBRANCH  32  33
ENDBRANCH  26  32
ENDBRANCH  24  25
ENDBRANCH   1  23
TORSDOF 9
ENDMDL
MODEL 4
REMARK VINA RESULT: -8.733823998      2.225      7.151
REMARK  9 active torsions:
REMARK  status: ('A' for Active; 'I' for Inactive)
REMARK    1  A    between atoms: C2_2  and  C3_3 
REMARK    2  A    between atoms: C3_3  and  C4_4 
REMARK    3  A    between atoms: C4_4  and  N1_5 
REMARK    4  A    between atoms: N1_5  and  C5_6 
REMARK       I    between atoms: N1_5  and  C8_9 
REMARK    5  A    between atoms: C5_6  and  C6_7 
REMARK    6  A    between atoms: C8_9  and  C9_11 
REMARK    7  A    between atoms: C10_12  and  C11_13 
REMARK    8  A    between atoms: C12_14  and  C13_15 
REMARK    9  A    between atoms: C13_15  and  C14_16 
ROOT
HETATM    1  C11 UNL     1      13.933 -72.472 -22.513  1.00  0.00     0.044 A 
HETATM    2  C12 UNL     1      13.193 -71.360 -22.519  1.00  0.00     0.030 A 
HETATM    3  C25 UNL     1      12.327 -71.346 -21.351  1.00  0.00     0.255 A 
HETATM    4  O2  UNL     1      11.475 -70.443 -21.014  1.00  0.00    -0.268 OA
HETATM    5  N3  UNL     1      12.595 -72.535 -20.627  1.00  0.00    -0.289 N 
ATOM      6  H3  UNL     1      12.152 -72.827 -19.756  1.00  0.00     0.172 HD
HETATM    7  C26 UNL     1      13.591 -73.240 -21.341  1.00  0.00     0.259 A 
HETATM    8  O3  UNL     1      14.074 -74.367 -20.967  1.00  0.00    -0.267 OA
ENDROOT
BRANCH   2   9
HETATM    9  C13 UNL     1      13.237 -70.280 -23.572  1.00  0.00     0.086 C 
BRANCH   9  10
HETATM   10  C14 UNL     1      11.905 -69.769 -23.941  1.00  0.00    -0.019 A 
HETATM   11  C15 UNL     1      11.411 -68.512 -23.662  1.00  0.00     0.013 A 
HETATM   12  C16 UNL     1      12.127 -67.396 -22.958  1.00  0.00     0.068 C 
HETATM   13  N2  UNL     1      10.158 -68.485 -24.146  1.00  0.00    -0.359 N 
HETATM   14  C17 UNL     1       9.842 -69.661 -24.714  1.00  0.00     0.043 A 
ATOM     15  H2  UNL     1       9.532 -67.681 -24.090  1.00  0.00     0.166 HD
HETATM   16  C18 UNL     1       8.713 -70.163 -25.338  1.00  0.00     0.037 A 
HETATM   17  C24 UNL     1      10.928 -70.523 -24.610  1.00  0.00    -0.000 A 
HETATM   18  C19 UNL     1       8.604 -71.432 -25.849  1.00  0.00    -0.054 A 
HETATM   19  C20 UNL     1       7.369 -71.932 -26.514  1.00  0.00     0.049 C 
HETATM   20  C21 UNL     1       9.724 -72.258 -25.718  1.00  0.00    -0.055 A 
HETATM   21  C22 UNL     1       9.603 -73.630 -26.271  1.00  0.00     0.049 C 
HETATM   22  C23 UNL     1      10.870 -71.809 -25.106  1.00  0.00     0.021 A 
ENDBRANCH   9  10
ENDBRANCH   2   9
BRANCH   1  23
HETATM   23  C10 UNL     1      14.928 -72.820 -23.551  1.00  0.00     0.023 C 
HETATM   24  C9  UNL     1      16.207 -72.936 -23.301  1.00  0.00     0.075 C 
BRANCH  24  25
HETATM   25  C8  UNL     1      17.122 -73.283 -24.386  1.00  0.00     0.243 C 
HETATM   26  N1  UNL     1      18.467 -72.824 -24.413  1.00  0.00    -0.349 N 
HETATM   27  O1  UNL     1      16.670 -74.014 -25.309  1.00  0.00    -0.268 OA
BRANCH  26  28
HETATM   28  C4  UNL     1      19.304 -73.217 -25.519  1.00  0.00     0.126 C 
BRANCH  28  29
HETATM   29  C3  UNL     1      19.421 -72.056 -26.515  1.00  0.00     0.020 C 
BRANCH  29  30
HETATM   30  C2  UNL     1      20.867 -71.659 -26.687  1.00  0.00    -0.003 C 
HETATM   31  C1  UNL     1      21.753 -72.889 -26.697  1.00  0.00     0.005 C 
ENDBRANCH  29  30
ENDBRANCH  28  29
ENDBRANCH  26  28
BRANCH  26  32
HETATM   32  C5  UNL     1      18.990 -71.991 -23.378  1.00  0.00     0.125 C 
BRANCH  32  33
HETATM   33  C6  UNL     1      20.370 -72.431 -22.918  1.00  0.00     0.015 C 
HETATM   34  C7  UNL     1      20.171 -73.440 -21.821  1.00  0.00     0.006 C 
ENDBRANCH  32  33
ENDBRANCH  26  32
ENDBRANCH  24  25
ENDBRANCH   1  23
TORSDOF 9
ENDMDL
MODEL 5
REMARK VINA RESULT: -8.719066256      2.590      7.418
REMARK  9 active torsions:
REMARK  status: ('A' for Active; 'I' for Inactive)
REMARK    1  A    between atoms: C2_2  and  C3_3 
REMARK    2  A    between atoms: C3_3  and  C4_4 
REMARK    3  A    between atoms: C4_4  and  N1_5 
REMARK    4  A    between atoms: N1_5  and  C5_6 
REMARK       I    between atoms: N1_5  and  C8_9 
REMARK    5  A    between atoms: C5_6  and  C6_7 
REMARK    6  A    between atoms: C8_9  and  C9_11 
REMARK    7  A    between atoms: C10_12  and  C11_13 
REMARK    8  A    between atoms: C12_14  and  C13_15 
REMARK    9  A    between atoms: C13_15  and  C14_16 
ROOT
HETATM    1  C11 UNL     1      13.696 -72.161 -22.906  1.00  0.00     0.044 A 
HETATM    2  C12 UNL     1      12.496 -71.821 -23.384  1.00  0.00     0.030 A 
HETATM    3  C25 UNL     1      11.606 -71.499 -22.281  1.00  0.00     0.255 A 
HETATM    4  O2  UNL     1      10.376 -71.129 -22.344  1.00  0.00    -0.268 OA
HETATM    5  N3  UNL     1      12.354 -71.666 -21.089  1.00  0.00    -0.289 N 
ATOM      6  H3  UNL     1      12.018 -71.519 -20.137  1.00  0.00     0.172 HD
HETATM    7  C26 UNL     1      13.652 -72.077 -21.467  1.00  0.00     0.259 A 
HETATM    8  O3  UNL     1      14.595 -72.322 -20.633  1.00  0.00    -0.267 OA
ENDROOT
BRANCH   2   9
HETATM    9  C13 UNL     1      12.111 -71.777 -24.843  1.00  0.00     0.086 C 
BRANCH   9  10
HETATM   10  C14 UNL     1      11.285 -70.609 -25.195  1.00  0.00    -0.019 A 
HETATM   11  C15 UNL     1      11.673 -69.288 -25.120  1.00  0.00     0.013 A 
HETATM   12  C16 UNL     1      13.015 -68.763 -24.699  1.00  0.00     0.068 C 
HETATM   13  N2  UNL     1      10.608 -68.561 -25.499  1.00  0.00    -0.359 N 
HETATM   14  C17 UNL     1       9.573 -69.360 -25.807  1.00  0.00     0.043 A 
ATOM     15  H2  UNL     1      10.588 -67.542 -25.546  1.00  0.00     0.166 HD
HETATM   16  C18 UNL     1       8.274 -69.142 -26.233  1.00  0.00     0.037 A 
HETATM   17  C24 UNL     1       9.952 -70.687 -25.629  1.00  0.00    -0.000 A 
HETATM   18  C19 UNL     1       7.359 -70.134 -26.485  1.00  0.00    -0.054 A 
HETATM   19  C20 UNL     1       5.970 -69.855 -26.942  1.00  0.00     0.049 C 
HETATM   20  C21 UNL     1       7.791 -71.449 -26.289  1.00  0.00    -0.055 A 
HETATM   21  C22 UNL     1       6.799 -72.519 -26.561  1.00  0.00     0.049 C 
HETATM   22  C23 UNL     1       9.071 -71.721 -25.867  1.00  0.00     0.021 A 
ENDBRANCH   9  10
ENDBRANCH   2   9
BRANCH   1  23
HETATM   23  C10 UNL     1      14.851 -72.550 -23.745  1.00  0.00     0.023 C 
HETATM   24  C9  UNL     1      15.388 -73.743 -23.707  1.00  0.00     0.075 C 
BRANCH  24  25
HETATM   25  C8  UNL     1      16.528 -74.044 -24.569  1.00  0.00     0.243 C 
HETATM   26  N1  UNL     1      17.869 -73.942 -24.109  1.00  0.00    -0.349 N 
HETATM   27  O1  UNL     1      16.277 -74.404 -25.753  1.00  0.00    -0.268 OA
BRANCH  26  28
HETATM   28  C4  UNL     1      18.936 -74.263 -25.024  1.00  0.00     0.126 C 
BRANCH  28  29
HETATM   29  C3  UNL     1      19.570 -72.968 -25.550  1.00  0.00     0.020 C 
BRANCH  29  30
HETATM   30  C2  UNL     1      20.677 -73.287 -26.524  1.00  0.00    -0.003 C 
HETATM   31  C1  UNL     1      21.282 -72.008 -27.069  1.00  0.00     0.005 C 
ENDBRANCH  29  30
ENDBRANCH  28  29
ENDBRANCH  26  28
BRANCH  26  32
HETATM   32  C5  UNL     1      18.168 -73.532 -22.775  1.00  0.00     0.125 C 
BRANCH  32  33
HETATM   33  C6  UNL     1      18.678 -74.675 -21.914  1.00  0.00     0.015 C 
HETATM   34  C7  UNL     1      20.066 -74.308 -21.465  1.00  0.00     0.006 C 
ENDBRANCH  32  33
ENDBRANCH  26  32
ENDBRANCH  24  25
ENDBRANCH   1  23
TORSDOF 9
ENDMDL
