MODEL 1
REMARK VINA RESULT: -5.301727432      0.000      0.000
REMARK  11 active torsions:
REMARK  status: ('A' for Active; 'I' for Inactive)
REMARK    1  A    between atoms: O1_1  and  N1_3 
REMARK    2  A    between atoms: N1_3  and  C1_5 
REMARK    3  A    between atoms: C1_5  and  C2_6 
REMARK    4  A    between atoms: C2_6  and  N2_7 
REMARK    5  A    between atoms: N2_7  and  C3_10 
REMARK    6  A    between atoms: C3_10  and  C4_11 
REMARK    7  A    between atoms: C4_11  and  C5_12 
REMARK    8  A    between atoms: C5_12  and  C6_13 
REMARK    9  A    between atoms: C5_12  and  C7_16 
REMARK   10  A    between atoms: C6_13  and  O2_14 
REMARK   11  A    between atoms: C7_16  and  O3_17 
ROOT
HETATM    1  N2  UNL     1      -4.418  20.981   3.576  1.00  0.00    -0.074 N 
ATOM      2  H21 UNL     1      -5.242  21.580   3.543  1.00  0.00     0.277 HD
ATOM      3  H22 UNL     1      -3.883  21.482   4.286  1.00  0.00     0.277 HD
ENDROOT
BRANCH   1   4
HETATM    4  C2  UNL     1      -3.736  20.969   2.323  1.00  0.00     0.253 C 
BRANCH   4   5
HETATM    5  C1  UNL     1      -3.022  22.268   2.057  1.00  0.00     0.173 C 
BRANCH   5   6
HETATM    6  N1  UNL     1      -3.689  23.355   2.671  1.00  0.00    -0.303 N 
ATOM      7  H1  UNL     1      -4.465  23.810   2.191  1.00  0.00     0.187 HD
BRANCH   6   8
HETATM    8  O1  UNL     1      -3.348  23.743   3.747  1.00  0.00    -0.294 OA
ATOM      9  H1  UNL     1      -3.154  24.662   3.888  1.00  0.00     0.244 HD
ENDBRANCH   6   8
ENDBRANCH   5   6
ENDBRANCH   4   5
ENDBRANCH   1   4
BRANCH   1  10
HETATM   10  C3  UNL     1      -4.756  19.643   4.018  1.00  0.00     0.233 C 
BRANCH  10  11
HETATM   11  C4  UNL     1      -5.488  18.880   2.938  1.00  0.00     0.036 C 
BRANCH  11  12
HETATM   12  C5  UNL     1      -6.967  19.073   2.980  1.00  0.00     0.034 C 
BRANCH  12  13
HETATM   13  C6  UNL     1      -7.353  20.010   1.855  1.00  0.00     0.170 C 
BRANCH  13  14
HETATM   14  O2  UNL     1      -7.238  21.345   2.189  1.00  0.00    -0.400 OA
ATOM     15  H2  UNL     1      -8.075  21.789   2.263  1.00  0.00     0.209 HD
ENDBRANCH  13  14
ENDBRANCH  12  13
BRANCH  12  16
HETATM   16  C7  UNL     1      -7.765  17.803   2.812  1.00  0.00     0.170 C 
BRANCH  16  17
HETATM   17  O3  UNL     1      -7.016  16.790   3.454  1.00  0.00    -0.400 OA
ATOM     18  H3  UNL     1      -7.608  16.053   3.552  1.00  0.00     0.209 HD
ENDBRANCH  16  17
ENDBRANCH  12  16
ENDBRANCH  11  12
ENDBRANCH  10  11
ENDBRANCH   1  10
TORSDOF 11
ENDMDL
MODEL 2
REMARK VINA RESULT: -5.220006560      1.834      2.378
REMARK  11 active torsions:
REMARK  status: ('A' for Active; 'I' for Inactive)
REMARK    1  A    between atoms: O1_1  and  N1_3 
REMARK    2  A    between atoms: N1_3  and  C1_5 
REMARK    3  A    between atoms: C1_5  and  C2_6 
REMARK    4  A    between atoms: C2_6  and  N2_7 
REMARK    5  A    between atoms: N2_7  and  C3_10 
REMARK    6  A    between atoms: C3_10  and  C4_11 
REMARK    7  A    between atoms: C4_11  and  C5_12 
REMARK    8  A    between atoms: C5_12  and  C6_13 
REMARK    9  A    between atoms: C5_12  and  C7_16 
REMARK   10  A    between atoms: C6_13  and  O2_14 
REMARK   11  A    between atoms: C7_16  and  O3_17 
ROOT
HETATM    1  N2  UNL     1      -3.961  22.552   2.480  1.00  0.00    -0.074 N 
ATOM      2  H21 UNL     1      -4.742  22.774   1.864  1.00  0.00     0.277 HD
ATOM      3  H22 UNL     1      -4.468  22.483   3.363  1.00  0.00     0.277 HD
ENDROOT
BRANCH   1   4
HETATM    4  C2  UNL     1      -3.008  23.613   2.510  1.00  0.00     0.253 C 
BRANCH   4   5
HETATM    5  C1  UNL     1      -1.725  23.239   1.817  1.00  0.00     0.173 C 
BRANCH   5   6
HETATM    6  N1  UNL     1      -0.798  24.308   1.841  1.00  0.00    -0.303 N 
ATOM      7  H1  UNL     1      -0.468  24.713   0.965  1.00  0.00     0.187 HD
BRANCH   6   8
HETATM    8  O1  UNL     1      -0.399  24.739   2.881  1.00  0.00    -0.294 OA
ATOM      9  H1  UNL     1      -0.861  24.549   3.689  1.00  0.00     0.244 HD
ENDBRANCH   6   8
ENDBRANCH   5   6
ENDBRANCH   4   5
ENDBRANCH   1   4
BRANCH   1  10
HETATM   10  C3  UNL     1      -3.349  21.288   2.123  1.00  0.00     0.233 C 
BRANCH  10  11
HETATM   11  C4  UNL     1      -4.394  20.262   1.750  1.00  0.00     0.036 C 
BRANCH  11  12
HETATM   12  C5  UNL     1      -5.466  20.113   2.777  1.00  0.00     0.034 C 
BRANCH  12  13
HETATM   13  C6  UNL     1      -6.793  20.437   2.124  1.00  0.00     0.170 C 
BRANCH  13  14
HETATM   14  O2  UNL     1      -7.071  21.790   2.090  1.00  0.00    -0.400 OA
ATOM     15  H2  UNL     1      -7.986  21.983   1.927  1.00  0.00     0.209 HD
ENDBRANCH  13  14
ENDBRANCH  12  13
BRANCH  12  16
HETATM   16  C7  UNL     1      -5.573  18.728   3.367  1.00  0.00     0.170 C 
BRANCH  16  17
HETATM   17  O3  UNL     1      -4.402  18.546   4.139  1.00  0.00    -0.400 OA
ATOM     18  H3  UNL     1      -3.865  17.931   3.653  1.00  0.00     0.209 HD
ENDBRANCH  16  17
ENDBRANCH  12  16
ENDBRANCH  11  12
ENDBRANCH  10  11
ENDBRANCH   1  10
TORSDOF 11
ENDMDL
MODEL 3
REMARK VINA RESULT: -5.182368331      0.435      2.199
REMARK  11 active torsions:
REMARK  status: ('A' for Active; 'I' for Inactive)
REMARK    1  A    between atoms: O1_1  and  N1_3 
REMARK    2  A    between atoms: N1_3  and  C1_5 
REMARK    3  A    between atoms: C1_5  and  C2_6 
REMARK    4  A    between atoms: C2_6  and  N2_7 
REMARK    5  A    between atoms: N2_7  and  C3_10 
REMARK    6  A    between atoms: C3_10  and  C4_11 
REMARK    7  A    between atoms: C4_11  and  C5_12 
REMARK    8  A    between atoms: C5_12  and  C6_13 
REMARK    9  A    between atoms: C5_12  and  C7_16 
REMARK   10  A    between atoms: C6_13  and  O2_14 
REMARK   11  A    between atoms: C7_16  and  O3_17 
ROOT
HETATM    1  N2  UNL     1      -4.399  20.920   3.535  1.00  0.00    -0.074 N 
ATOM      2  H21 UNL     1      -5.186  21.568   3.539  1.00  0.00     0.277 HD
ATOM      3  H22 UNL     1      -3.834  21.350   4.268  1.00  0.00     0.277 HD
ENDROOT
BRANCH   1   4
HETATM    4  C2  UNL     1      -3.721  20.936   2.280  1.00  0.00     0.253 C 
BRANCH   4   5
HETATM    5  C1  UNL     1      -2.997  22.235   2.046  1.00  0.00     0.173 C 
BRANCH   5   6
HETATM    6  N1  UNL     1      -3.685  23.320   2.640  1.00  0.00    -0.303 N 
ATOM      7  H1  UNL     1      -4.427  23.794   2.124  1.00  0.00     0.187 HD
BRANCH   6   8
HETATM    8  O1  UNL     1      -3.402  23.686   3.740  1.00  0.00    -0.294 OA
ATOM      9  H1  UNL     1      -3.097  24.573   3.889  1.00  0.00     0.244 HD
ENDBRANCH   6   8
ENDBRANCH   5   6
ENDBRANCH   4   5
ENDBRANCH   1   4
BRANCH   1  10
HETATM   10  C3  UNL     1      -4.814  19.583   3.907  1.00  0.00     0.233 C 
BRANCH  10  11
HETATM   11  C4  UNL     1      -6.316  19.434   3.819  1.00  0.00     0.036 C 
BRANCH  11  12
HETATM   12  C5  UNL     1      -6.789  19.017   2.467  1.00  0.00     0.034 C 
BRANCH  12  13
HETATM   13  C6  UNL     1      -7.609  17.754   2.623  1.00  0.00     0.170 C 
BRANCH  13  14
HETATM   14  O2  UNL     1      -7.007  16.805   3.427  1.00  0.00    -0.400 OA
ATOM     15  H2  UNL     1      -7.628  16.260   3.897  1.00  0.00     0.209 HD
ENDBRANCH  13  14
ENDBRANCH  12  13
BRANCH  12  16
HETATM   16  C7  UNL     1      -7.652  20.039   1.768  1.00  0.00     0.170 C 
BRANCH  16  17
HETATM   17  O3  UNL     1      -7.200  21.300   2.222  1.00  0.00    -0.400 OA
ATOM     18  H3  UNL     1      -6.912  21.766   1.446  1.00  0.00     0.209 HD
ENDBRANCH  16  17
ENDBRANCH  12  16
ENDBRANCH  11  12
ENDBRANCH  10  11
ENDBRANCH   1  10
TORSDOF 11
ENDMDL
MODEL 4
REMARK VINA RESULT: -5.115561698      1.700      2.481
REMARK  11 active torsions:
REMARK  status: ('A' for Active; 'I' for Inactive)
REMARK    1  A    between atoms: O1_1  and  N1_3 
REMARK    2  A    between atoms: N1_3  and  C1_5 
REMARK    3  A    between atoms: C1_5  and  C2_6 
REMARK    4  A    between atoms: C2_6  and  N2_7 
REMARK    5  A    between atoms: N2_7  and  C3_10 
REMARK    6  A    between atoms: C3_10  and  C4_11 
REMARK    7  A    between atoms: C4_11  and  C5_12 
REMARK    8  A    between atoms: C5_12  and  C6_13 
REMARK    9  A    between atoms: C5_12  and  C7_16 
REMARK   10  A    between atoms: C6_13  and  O2_14 
REMARK   11  A    between atoms: C7_16  and  O3_17 
ROOT
HETATM    1  N2  UNL     1      -5.682  20.144   4.094  1.00  0.00    -0.074 N 
ATOM      2  H21 UNL     1      -6.221  20.813   3.546  1.00  0.00     0.277 HD
ATOM      3  H22 UNL     1      -6.053  20.359   5.020  1.00  0.00     0.277 HD
ENDROOT
BRANCH   1   4
HETATM    4  C2  UNL     1      -4.284  20.417   4.017  1.00  0.00     0.253 C 
BRANCH   4   5
HETATM    5  C1  UNL     1      -3.895  20.994   2.682  1.00  0.00     0.173 C 
BRANCH   5   6
HETATM    6  N1  UNL     1      -4.397  22.308   2.525  1.00  0.00    -0.303 N 
ATOM      7  H1  UNL     1      -5.346  22.450   2.179  1.00  0.00     0.187 HD
BRANCH   6   8
HETATM    8  O1  UNL     1      -3.717  23.251   2.795  1.00  0.00    -0.294 OA
ATOM      9  H1  UNL     1      -2.774  23.210   2.693  1.00  0.00     0.244 HD
ENDBRANCH   6   8
ENDBRANCH   5   6
ENDBRANCH   4   5
ENDBRANCH   1   4
BRANCH   1  10
HETATM   10  C3  UNL     1      -5.987  18.780   3.708  1.00  0.00     0.233 C 
BRANCH  10  11
HETATM   11  C4  UNL     1      -7.246  18.717   2.875  1.00  0.00     0.036 C 
BRANCH  11  12
HETATM   12  C5  UNL     1      -7.116  19.408   1.559  1.00  0.00     0.034 C 
BRANCH  12  13
HETATM   13  C6  UNL     1      -7.496  18.426   0.471  1.00  0.00     0.170 C 
BRANCH  13  14
HETATM   14  O2  UNL     1      -8.144  19.014  -0.598  1.00  0.00    -0.400 OA
ATOM     15  H2  UNL     1      -8.604  18.392  -1.149  1.00  0.00     0.209 HD
ENDBRANCH  13  14
ENDBRANCH  12  13
BRANCH  12  16
HETATM   16  C7  UNL     1      -7.998  20.623   1.405  1.00  0.00     0.170 C 
BRANCH  16  17
HETATM   17  O3  UNL     1      -7.305  21.684   2.031  1.00  0.00    -0.400 OA
ATOM     18  H3  UNL     1      -7.974  22.255   2.391  1.00  0.00     0.209 HD
ENDBRANCH  16  17
ENDBRANCH  12  16
ENDBRANCH  11  12
ENDBRANCH  10  11
ENDBRANCH   1  10
TORSDOF 11
ENDMDL
MODEL 5
REMARK VINA RESULT: -5.108023474      2.533      3.252
REMARK  11 active torsions:
REMARK  status: ('A' for Active; 'I' for Inactive)
REMARK    1  A    between atoms: O1_1  and  N1_3 
REMARK    2  A    between atoms: N1_3  and  C1_5 
REMARK    3  A    between atoms: C1_5  and  C2_6 
REMARK    4  A    between atoms: C2_6  and  N2_7 
REMARK    5  A    between atoms: N2_7  and  C3_10 
REMARK    6  A    between atoms: C3_10  and  C4_11 
REMARK    7  A    between atoms: C4_11  and  C5_12 
REMARK    8  A    between atoms: C5_12  and  C6_13 
REMARK    9  A    between atoms: C5_12  and  C7_16 
REMARK   10  A    between atoms: C6_13  and  O2_14 
REMARK   11  A    between atoms: C7_16  and  O3_17 
ROOT
HETATM    1  N2  UNL     1      -6.124  20.978   2.537  1.00  0.00    -0.074 N 
ATOM      2  H21 UNL     1      -6.263  21.950   2.262  1.00  0.00     0.277 HD
ATOM      3  H22 UNL     1      -6.417  21.045   3.512  1.00  0.00     0.277 HD
ENDROOT
BRANCH   1   4
HETATM    4  C2  UNL     1      -4.752  20.601   2.432  1.00  0.00     0.253 C 
BRANCH   4   5
HETATM    5  C1  UNL     1      -4.022  20.756   3.739  1.00  0.00     0.173 C 
BRANCH   5   6
HETATM    6  N1  UNL     1      -4.012  19.544   4.468  1.00  0.00    -0.303 N 
ATOM      7  H1  UNL     1      -3.573  19.509   5.388  1.00  0.00     0.187 HD
BRANCH   6   8
HETATM    8  O1  UNL     1      -4.514  18.560   4.014  1.00  0.00    -0.294 OA
ATOM      9  H1  UNL     1      -4.039  18.019   3.395  1.00  0.00     0.244 HD
ENDBRANCH   6   8
ENDBRANCH   5   6
ENDBRANCH   4   5
ENDBRANCH   1   4
BRANCH   1  10
HETATM   10  C3  UNL     1      -6.987  20.089   1.787  1.00  0.00     0.233 C 
BRANCH  10  11
HETATM   11  C4  UNL     1      -6.180  19.087   0.993  1.00  0.00     0.036 C 
BRANCH  11  12
HETATM   12  C5  UNL     1      -6.629  17.678   1.193  1.00  0.00     0.034 C 
BRANCH  12  13
HETATM   13  C6  UNL     1      -7.480  17.627   2.444  1.00  0.00     0.170 C 
BRANCH  13  14
HETATM   14  O2  UNL     1      -6.921  16.872   3.457  1.00  0.00    -0.400 OA
ATOM     15  H2  UNL     1      -6.542  16.055   3.154  1.00  0.00     0.209 HD
ENDBRANCH  13  14
ENDBRANCH  12  13
BRANCH  12  16
HETATM   16  C7  UNL     1      -7.452  17.121   0.058  1.00  0.00     0.170 C 
BRANCH  16  17
HETATM   17  O3  UNL     1      -6.998  15.795  -0.132  1.00  0.00    -0.400 OA
ATOM     18  H3  UNL     1      -6.115  15.771   0.216  1.00  0.00     0.209 HD
ENDBRANCH  16  17
ENDBRANCH  12  16
ENDBRANCH  11  12
ENDBRANCH  10  11
ENDBRANCH   1  10
TORSDOF 11
ENDMDL
