MODEL 1
REMARK VINA RESULT: -7.094854075      0.000      0.000
REMARK  9 active torsions:
REMARK  status: ('A' for Active; 'I' for Inactive)
REMARK    1  A    between atoms: C3_3  and  O1_5 
REMARK    2  A    between atoms: O1_5  and  C5_6 
REMARK    3  A    between atoms: C5_6  and  O3_8 
REMARK    4  A    between atoms: O3_8  and  C6_9 
REMARK    5  A    between atoms: C13_16  and  C14_17 
REMARK    6  A    between atoms: C15_18  and  C16_19 
REMARK    7  A    between atoms: C16_19  and  C17_20 
REMARK    8  A    between atoms: C17_20  and  C20_23 
REMARK    9  A    between atoms: C26_31  and  O6_33 
ROOT
HETATM    1  C6  UNL     1      11.195  26.974   5.493  1.00  0.00     0.151 C 
HETATM    2  C7  UNL     1      12.695  27.052   5.365  1.00  0.00     0.040 C 
HETATM    3  C8  UNL     1      13.434  25.830   5.825  1.00  0.00     0.005 C 
HETATM    4  C9  UNL     1      12.937  25.433   7.196  1.00  0.00    -0.037 C 
HETATM    5  C10 UNL     1      13.809  24.461   7.980  1.00  0.00     0.015 C 
HETATM    6  C11 UNL     1      12.544  26.534   8.114  1.00  0.00     0.015 C 
HETATM    7  C12 UNL     1      11.855  24.728   6.384  1.00  0.00     0.021 C 
HETATM    8  C13 UNL     1      10.731  25.608   5.981  1.00  0.00     0.027 C 
HETATM    9  C21 UNL     1      10.015  25.004   4.821  1.00  0.00    -0.004 C 
HETATM   10  C22 UNL     1      10.737  24.568   3.829  1.00  0.00    -0.044 C 
HETATM   11  C23 UNL     1      12.214  24.678   3.872  1.00  0.00     0.026 C 
HETATM   12  C24 UNL     1      12.537  23.538   2.889  1.00  0.00     0.013 C 
HETATM   13  C25 UNL     1      11.563  23.907   1.758  1.00  0.00     0.043 C 
HETATM   14  C26 UNL     1      10.277  23.925   2.548  1.00  0.00     0.078 C 
HETATM   15  C27 UNL     1       9.873  22.510   2.822  1.00  0.00     0.051 C 
HETATM   16  C28 UNL     1      12.825  24.558   5.206  1.00  0.00    -0.026 C 
HETATM   17  C29 UNL     1      13.721  23.354   5.275  1.00  0.00     0.016 C 
ENDROOT
BRANCH   8  18
HETATM   18  C14 UNL     1       9.674  25.717   7.038  1.00  0.00    -0.014 C 
HETATM   19  C15 UNL     1       9.290  26.934   7.393  1.00  0.00    -0.025 C 
BRANCH  19  20
HETATM   20  C16 UNL     1       8.259  27.229   8.422  1.00  0.00     0.072 C 
BRANCH  20  21
HETATM   21  C17 UNL     1       7.852  28.648   8.354  1.00  0.00     0.018 C 
HETATM   22  C18 UNL     1       6.721  29.009   7.749  1.00  0.00    -0.017 C 
HETATM   23  C19 UNL     1       5.865  27.968   7.140  1.00  0.00     0.036 C 
BRANCH  21  24
HETATM   24  C20 UNL     1       8.666  29.694   8.936  1.00  0.00     0.205 C 
HETATM   25  O4  UNL     1       8.514  30.061  10.141  1.00  0.00    -0.644 OA
HETATM   26  O5  UNL     1       9.638  30.326   8.186  1.00  0.00    -0.644 OA
ENDBRANCH  21  24
ENDBRANCH  20  21
ENDBRANCH  19  20
ENDBRANCH   8  18
BRANCH   1  27
HETATM   27  O3  UNL     1      10.552  27.335   4.268  1.00  0.00    -0.291 OA
BRANCH  27  28
HETATM   28  C5  UNL     1       9.545  28.252   4.166  1.00  0.00     0.411 C 
HETATM   29  O2  UNL     1       9.390  29.021   5.172  1.00  0.00    -0.229 OA
BRANCH  28  30
HETATM   30  O1  UNL     1       8.718  28.379   3.063  1.00  0.00    -0.261 OA
BRANCH  30  31
HETATM   31  C3  UNL     1       7.689  27.503   2.775  1.00  0.00     0.051 C 
HETATM   32  C2  UNL     1       7.366  27.311   1.506  1.00  0.00     0.001 C 
HETATM   33  C1  UNL     1       6.276  26.390   1.093  1.00  0.00     0.038 C 
HETATM   34  C4  UNL     1       6.930  26.772   3.807  1.00  0.00     0.076 C 
ENDBRANCH  30  31
ENDBRANCH  28  30
ENDBRANCH  27  28
ENDBRANCH   1  27
BRANCH  14  35
HETATM   35  O6  UNL     1       9.311  24.678   1.913  1.00  0.00    -0.386 OA
ATOM     36  H6  UNL     1       8.462  24.254   1.934  1.00  0.00     0.211 HD
ENDBRANCH  14  35
TORSDOF 9
ENDMDL
MODEL 2
REMARK VINA RESULT: -6.995596078      8.344     12.204
REMARK  9 active torsions:
REMARK  status: ('A' for Active; 'I' for Inactive)
REMARK    1  A    between atoms: C3_3  and  O1_5 
REMARK    2  A    between atoms: O1_5  and  C5_6 
REMARK    3  A    between atoms: C5_6  and  O3_8 
REMARK    4  A    between atoms: O3_8  and  C6_9 
REMARK    5  A    between atoms: C13_16  and  C14_17 
REMARK    6  A    between atoms: C15_18  and  C16_19 
REMARK    7  A    between atoms: C16_19  and  C17_20 
REMARK    8  A    between atoms: C17_20  and  C20_23 
REMARK    9  A    between atoms: C26_31  and  O6_33 
ROOT
HETATM    1  C6  UNL     1      17.510  20.836   8.933  1.00  0.00     0.151 C 
HETATM    2  C7  UNL     1      16.024  20.844   8.682  1.00  0.00     0.040 C 
HETATM    3  C8  UNL     1      15.584  21.668   7.508  1.00  0.00     0.005 C 
HETATM    4  C9  UNL     1      16.216  23.038   7.595  1.00  0.00    -0.037 C 
HETATM    5  C10 UNL     1      15.608  24.124   6.718  1.00  0.00     0.015 C 
HETATM    6  C11 UNL     1      16.407  23.605   8.955  1.00  0.00     0.015 C 
HETATM    7  C12 UNL     1      17.385  22.325   6.922  1.00  0.00     0.021 C 
HETATM    8  C13 UNL     1      18.276  21.603   7.863  1.00  0.00     0.027 C 
HETATM    9  C21 UNL     1      19.050  20.567   7.122  1.00  0.00    -0.004 C 
HETATM   10  C22 UNL     1      18.394  19.794   6.307  1.00  0.00    -0.044 C 
HETATM   11  C23 UNL     1      16.930  19.955   6.136  1.00  0.00     0.026 C 
HETATM   12  C24 UNL     1      16.813  19.327   4.735  1.00  0.00     0.013 C 
HETATM   13  C25 UNL     1      17.633  18.049   4.971  1.00  0.00     0.043 C 
HETATM   14  C26 UNL     1      18.921  18.677   5.447  1.00  0.00     0.078 C 
HETATM   15  C27 UNL     1      19.628  19.255   4.262  1.00  0.00     0.051 C 
HETATM   16  C28 UNL     1      16.421  21.330   6.260  1.00  0.00    -0.026 C 
HETATM   17  C29 UNL     1      15.805  21.790   4.969  1.00  0.00     0.016 C 
ENDROOT
BRANCH   8  18
HETATM   18  C14 UNL     1      19.332  22.488   8.452  1.00  0.00    -0.014 C 
HETATM   19  C15 UNL     1      19.855  22.124   9.614  1.00  0.00    -0.025 C 
BRANCH  19  20
HETATM   20  C16 UNL     1      20.908  22.878  10.342  1.00  0.00     0.072 C 
BRANCH  20  21
HETATM   21  C17 UNL     1      21.737  21.961  11.150  1.00  0.00     0.018 C 
HETATM   22  C18 UNL     1      22.885  22.369  11.689  1.00  0.00    -0.017 C 
HETATM   23  C19 UNL     1      23.328  23.763  11.473  1.00  0.00     0.036 C 
BRANCH  21  24
HETATM   24  C20 UNL     1      21.337  20.589  11.380  1.00  0.00     0.205 C 
HETATM   25  O4  UNL     1      21.487  19.694  10.494  1.00  0.00    -0.644 OA
HETATM   26  O5  UNL     1      20.774  20.216  12.586  1.00  0.00    -0.644 OA
ENDBRANCH  21  24
ENDBRANCH  20  21
ENDBRANCH  19  20
ENDBRANCH   8  18
BRANCH   1  27
HETATM   27  O3  UNL     1      18.005  19.502   9.072  1.00  0.00    -0.291 OA
BRANCH  27  28
HETATM   28  C5  UNL     1      17.892  18.752  10.207  1.00  0.00     0.411 C 
HETATM   29  O2  UNL     1      18.073  19.374  11.306  1.00  0.00    -0.229 OA
BRANCH  28  30
HETATM   30  O1  UNL     1      17.601  17.398  10.218  1.00  0.00    -0.261 OA
BRANCH  30  31
HETATM   31  C3  UNL     1      17.110  16.732  11.325  1.00  0.00     0.051 C 
HETATM   32  C2  UNL     1      15.837  16.899  11.643  1.00  0.00     0.001 C 
HETATM   33  C1  UNL     1      15.213  16.228  12.813  1.00  0.00     0.038 C 
HETATM   34  C4  UNL     1      17.931  15.845  12.172  1.00  0.00     0.076 C 
ENDBRANCH  30  31
ENDBRANCH  28  30
ENDBRANCH  27  28
ENDBRANCH   1  27
BRANCH  14  35
HETATM   35  O6  UNL     1      19.674  17.779   6.175  1.00  0.00    -0.386 OA
ATOM     36  H6  UNL     1      19.447  16.880   5.972  1.00  0.00     0.211 HD
ENDBRANCH  14  35
TORSDOF 9
ENDMDL
MODEL 3
REMARK VINA RESULT: -6.975188761      2.742      7.593
REMARK  9 active torsions:
REMARK  status: ('A' for Active; 'I' for Inactive)
REMARK    1  A    between atoms: C3_3  and  O1_5 
REMARK    2  A    between atoms: O1_5  and  C5_6 
REMARK    3  A    between atoms: C5_6  and  O3_8 
REMARK    4  A    between atoms: O3_8  and  C6_9 
REMARK    5  A    between atoms: C13_16  and  C14_17 
REMARK    6  A    between atoms: C15_18  and  C16_19 
REMARK    7  A    between atoms: C16_19  and  C17_20 
REMARK    8  A    between atoms: C17_20  and  C20_23 
REMARK    9  A    between atoms: C26_31  and  O6_33 
ROOT
HETATM    1  C6  UNL     1      12.538  25.599   5.117  1.00  0.00     0.151 C 
HETATM    2  C7  UNL     1      12.133  26.394   3.902  1.00  0.00     0.040 C 
HETATM    3  C8  UNL     1      10.811  26.009   3.305  1.00  0.00     0.005 C 
HETATM    4  C9  UNL     1      10.763  24.510   3.123  1.00  0.00    -0.037 C 
HETATM    5  C10 UNL     1       9.677  23.973   2.200  1.00  0.00     0.015 C 
HETATM    6  C11 UNL     1      12.038  23.834   2.767  1.00  0.00     0.015 C 
HETATM    7  C12 UNL     1      10.328  24.543   4.585  1.00  0.00     0.021 C 
HETATM    8  C13 UNL     1      11.453  24.619   5.548  1.00  0.00     0.027 C 
HETATM    9  C21 UNL     1      10.958  25.140   6.855  1.00  0.00    -0.004 C 
HETATM   10  C22 UNL     1      10.200  26.198   6.832  1.00  0.00    -0.044 C 
HETATM   11  C23 UNL     1       9.854  26.845   5.545  1.00  0.00     0.026 C 
HETATM   12  C24 UNL     1       8.556  27.536   6.000  1.00  0.00     0.013 C 
HETATM   13  C25 UNL     1       9.061  28.169   7.306  1.00  0.00     0.043 C 
HETATM   14  C26 UNL     1       9.573  26.925   7.991  1.00  0.00     0.078 C 
HETATM   15  C27 UNL     1       8.398  26.144   8.489  1.00  0.00     0.051 C 
HETATM   16  C28 UNL     1       9.721  25.941   4.391  1.00  0.00    -0.026 C 
HETATM   17  C29 UNL     1       8.319  25.966   3.852  1.00  0.00     0.016 C 
ENDROOT
BRANCH   8  18
HETATM   18  C14 UNL     1      12.015  23.272   5.888  1.00  0.00    -0.014 C 
HETATM   19  C15 UNL     1      13.278  23.037   5.564  1.00  0.00    -0.025 C 
BRANCH  19  20
HETATM   20  C16 UNL     1      13.995  21.763   5.823  1.00  0.00     0.072 C 
BRANCH  20  21
HETATM   21  C17 UNL     1      15.429  21.900   5.494  1.00  0.00     0.018 C 
HETATM   22  C18 UNL     1      16.363  21.307   6.238  1.00  0.00    -0.017 C 
HETATM   23  C19 UNL     1      15.950  20.501   7.407  1.00  0.00     0.036 C 
BRANCH  21  24
HETATM   24  C20 UNL     1      15.870  22.683   4.360  1.00  0.00     0.205 C 
HETATM   25  O4  UNL     1      15.554  22.370   3.172  1.00  0.00    -0.644 OA
HETATM   26  O5  UNL     1      16.657  23.803   4.545  1.00  0.00    -0.644 OA
ENDBRANCH  21  24
ENDBRANCH  20  21
ENDBRANCH  19  20
ENDBRANCH   8  18
BRANCH   1  27
HETATM   27  O3  UNL     1      12.922  26.457   6.194  1.00  0.00    -0.291 OA
BRANCH  27  28
HETATM   28  C5  UNL     1      13.784  26.105   7.191  1.00  0.00     0.411 C 
HETATM   29  O2  UNL     1      13.584  26.661   8.322  1.00  0.00    -0.229 OA
BRANCH  28  30
HETATM   30  O1  UNL     1      14.826  25.205   7.037  1.00  0.00    -0.261 OA
BRANCH  30  31
HETATM   31  C3  UNL     1      15.306  24.411   8.060  1.00  0.00     0.051 C 
HETATM   32  C2  UNL     1      14.438  23.697   8.759  1.00  0.00     0.001 C 
HETATM   33  C1  UNL     1      14.853  22.812   9.878  1.00  0.00     0.038 C 
HETATM   34  C4  UNL     1      16.735  24.317   8.416  1.00  0.00     0.076 C 
ENDBRANCH  30  31
ENDBRANCH  28  30
ENDBRANCH  27  28
ENDBRANCH   1  27
BRANCH  14  35
HETATM   35  O6  UNL     1      10.501  27.237   8.964  1.00  0.00    -0.386 OA
ATOM     36  H6  UNL     1      10.088  27.434   9.796  1.00  0.00     0.211 HD
ENDBRANCH  14  35
TORSDOF 9
ENDMDL
MODEL 4
REMARK VINA RESULT: -6.872512230      2.259      6.059
REMARK  9 active torsions:
REMARK  status: ('A' for Active; 'I' for Inactive)
REMARK    1  A    between atoms: C3_3  and  O1_5 
REMARK    2  A    between atoms: O1_5  and  C5_6 
REMARK    3  A    between atoms: C5_6  and  O3_8 
REMARK    4  A    between atoms: O3_8  and  C6_9 
REMARK    5  A    between atoms: C13_16  and  C14_17 
REMARK    6  A    between atoms: C15_18  and  C16_19 
REMARK    7  A    between atoms: C16_19  and  C17_20 
REMARK    8  A    between atoms: C17_20  and  C20_23 
REMARK    9  A    between atoms: C26_31  and  O6_33 
ROOT
HETATM    1  C6  UNL     1       8.811  28.355   4.469  1.00  0.00     0.151 C 
HETATM    2  C7  UNL     1       9.099  28.541   3.002  1.00  0.00     0.040 C 
HETATM    3  C8  UNL     1       9.112  27.277   2.194  1.00  0.00     0.005 C 
HETATM    4  C9  UNL     1       9.985  26.253   2.883  1.00  0.00    -0.037 C 
HETATM    5  C10 UNL     1      10.422  25.058   2.046  1.00  0.00     0.015 C 
HETATM    6  C11 UNL     1      11.179  26.764   3.606  1.00  0.00     0.015 C 
HETATM    7  C12 UNL     1       8.706  25.983   3.671  1.00  0.00     0.021 C 
HETATM    8  C13 UNL     1       8.492  26.905   4.812  1.00  0.00     0.027 C 
HETATM    9  C21 UNL     1       7.050  26.904   5.192  1.00  0.00    -0.004 C 
HETATM   10  C22 UNL     1       6.176  27.025   4.235  1.00  0.00    -0.044 C 
HETATM   11  C23 UNL     1       6.619  27.156   2.827  1.00  0.00     0.026 C 
HETATM   12  C24 UNL     1       5.335  26.640   2.154  1.00  0.00     0.013 C 
HETATM   13  C25 UNL     1       4.301  27.468   2.934  1.00  0.00     0.043 C 
HETATM   14  C26 UNL     1       4.675  27.056   4.337  1.00  0.00     0.078 C 
HETATM   15  C27 UNL     1       4.165  25.670   4.572  1.00  0.00     0.051 C 
HETATM   16  C28 UNL     1       7.854  26.435   2.476  1.00  0.00    -0.026 C 
HETATM   17  C29 UNL     1       7.579  25.380   1.442  1.00  0.00     0.016 C 
ENDROOT
BRANCH   8  18
HETATM   18  C14 UNL     1       9.192  26.455   6.058  1.00  0.00    -0.014 C 
HETATM   19  C15 UNL     1       9.740  25.248   6.049  1.00  0.00    -0.025 C 
BRANCH  19  20
HETATM   20  C16 UNL     1      10.468  24.640   7.192  1.00  0.00     0.072 C 
BRANCH  20  21
HETATM   21  C17 UNL     1      11.835  24.251   6.787  1.00  0.00     0.018 C 
HETATM   22  C18 UNL     1      12.861  25.087   6.944  1.00  0.00    -0.017 C 
HETATM   23  C19 UNL     1      12.620  26.421   7.534  1.00  0.00     0.036 C 
BRANCH  21  24
HETATM   24  C20 UNL     1      12.107  22.955   6.203  1.00  0.00     0.205 C 
HETATM   25  O4  UNL     1      11.600  21.893   6.676  1.00  0.00    -0.644 OA
HETATM   26  O5  UNL     1      12.936  22.841   5.104  1.00  0.00    -0.644 OA
ENDBRANCH  21  24
ENDBRANCH  20  21
ENDBRANCH  19  20
ENDBRANCH   8  18
BRANCH   1  27
HETATM   27  O3  UNL     1       7.772  29.234   4.909  1.00  0.00    -0.291 OA
BRANCH  27  28
HETATM   28  C5  UNL     1       7.630  29.680   6.191  1.00  0.00     0.411 C 
HETATM   29  O2  UNL     1       6.431  29.784   6.615  1.00  0.00    -0.229 OA
BRANCH  28  30
HETATM   30  O1  UNL     1       8.689  30.011   7.021  1.00  0.00    -0.261 OA
BRANCH  30  31
HETATM   31  C3  UNL     1       8.881  29.454   8.271  1.00  0.00     0.051 C 
HETATM   32  C2  UNL     1       9.517  28.296   8.350  1.00  0.00     0.001 C 
HETATM   33  C1  UNL     1       9.774  27.616   9.645  1.00  0.00     0.038 C 
HETATM   34  C4  UNL     1       8.416  30.082   9.522  1.00  0.00     0.076 C 
ENDBRANCH  30  31
ENDBRANCH  28  30
ENDBRANCH  27  28
ENDBRANCH   1  27
BRANCH  14  35
HETATM   35  O6  UNL     1       4.242  27.985   5.261  1.00  0.00    -0.386 OA
ATOM     36  H6  UNL     1       3.571  28.553   4.904  1.00  0.00     0.211 HD
ENDBRANCH  14  35
TORSDOF 9
ENDMDL
MODEL 5
REMARK VINA RESULT: -6.780887388      3.217      6.642
REMARK  9 active torsions:
REMARK  status: ('A' for Active; 'I' for Inactive)
REMARK    1  A    between atoms: C3_3  and  O1_5 
REMARK    2  A    between atoms: O1_5  and  C5_6 
REMARK    3  A    between atoms: C5_6  and  O3_8 
REMARK    4  A    between atoms: O3_8  and  C6_9 
REMARK    5  A    between atoms: C13_16  and  C14_17 
REMARK    6  A    between atoms: C15_18  and  C16_19 
REMARK    7  A    between atoms: C16_19  and  C17_20 
REMARK    8  A    between atoms: C17_20  and  C20_23 
REMARK    9  A    between atoms: C26_31  and  O6_33 
ROOT
HETATM    1  C6  UNL     1      11.270  24.727   7.159  1.00  0.00     0.151 C 
HETATM    2  C7  UNL     1       9.811  25.017   7.399  1.00  0.00     0.040 C 
HETATM    3  C8  UNL     1       9.390  26.429   7.115  1.00  0.00     0.005 C 
HETATM    4  C9  UNL     1      10.344  27.381   7.800  1.00  0.00    -0.037 C 
HETATM    5  C10 UNL     1       9.878  28.824   7.942  1.00  0.00     0.015 C 
HETATM    6  C11 UNL     1      10.900  26.950   9.109  1.00  0.00     0.015 C 
HETATM    7  C12 UNL     1      11.169  27.152   6.537  1.00  0.00     0.021 C 
HETATM    8  C13 UNL     1      12.004  25.927   6.574  1.00  0.00     0.027 C 
HETATM    9  C21 UNL     1      12.361  25.524   5.183  1.00  0.00    -0.004 C 
HETATM   10  C22 UNL     1      11.405  25.493   4.302  1.00  0.00    -0.044 C 
HETATM   11  C23 UNL     1      10.019  25.850   4.686  1.00  0.00     0.026 C 
HETATM   12  C24 UNL     1       9.511  26.252   3.290  1.00  0.00     0.013 C 
HETATM   13  C25 UNL     1      10.021  25.045   2.487  1.00  0.00     0.043 C 
HETATM   14  C26 UNL     1      11.486  25.122   2.845  1.00  0.00     0.078 C 
HETATM   15  C27 UNL     1      12.098  26.253   2.080  1.00  0.00     0.051 C 
HETATM   16  C28 UNL     1       9.891  26.879   5.730  1.00  0.00    -0.026 C 
HETATM   17  C29 UNL     1       9.193  28.097   5.195  1.00  0.00     0.016 C 
ENDROOT
BRANCH   8  18
HETATM   18  C14 UNL     1      13.330  26.152   7.234  1.00  0.00    -0.014 C 
HETATM   19  C15 UNL     1      13.925  25.102   7.782  1.00  0.00    -0.025 C 
BRANCH  19  20
HETATM   20  C16 UNL     1      15.238  25.140   8.478  1.00  0.00     0.072 C 
BRANCH  20  21
HETATM   21  C17 UNL     1      15.711  23.771   8.764  1.00  0.00     0.018 C 
HETATM   22  C18 UNL     1      16.702  23.227   8.059  1.00  0.00    -0.017 C 
HETATM   23  C19 UNL     1      17.333  24.012   6.976  1.00  0.00     0.036 C 
BRANCH  21  24
HETATM   24  C20 UNL     1      15.117  22.972   9.814  1.00  0.00     0.205 C 
HETATM   25  O4  UNL     1      14.700  21.794   9.599  1.00  0.00    -0.644 OA
HETATM   26  O5  UNL     1      14.987  23.479  11.093  1.00  0.00    -0.644 OA
ENDBRANCH  21  24
ENDBRANCH  20  21
ENDBRANCH  19  20
ENDBRANCH   8  18
BRANCH   1  27
HETATM   27  O3  UNL     1      11.440  23.565   6.343  1.00  0.00    -0.291 OA
BRANCH  27  28
HETATM   28  C5  UNL     1      12.031  22.408   6.761  1.00  0.00     0.411 C 
HETATM   29  O2  UNL     1      11.243  21.427   6.976  1.00  0.00    -0.229 OA
BRANCH  28  30
HETATM   30  O1  UNL     1      13.393  22.257   6.956  1.00  0.00    -0.261 OA
BRANCH  30  31
HETATM   31  C3  UNL     1      14.282  21.966   5.938  1.00  0.00     0.051 C 
HETATM   32  C2  UNL     1      14.486  22.882   5.004  1.00  0.00     0.001 C 
HETATM   33  C1  UNL     1      15.421  22.667   3.869  1.00  0.00     0.038 C 
HETATM   34  C4  UNL     1      15.014  20.690   5.836  1.00  0.00     0.076 C 
ENDBRANCH  30  31
ENDBRANCH  28  30
ENDBRANCH  27  28
ENDBRANCH   1  27
BRANCH  14  35
HETATM   35  O6  UNL     1      12.110  23.907   2.658  1.00  0.00    -0.386 OA
ATOM     36  H6  UNL     1      12.641  23.899   1.870  1.00  0.00     0.211 HD
ENDBRANCH  14  35
TORSDOF 9
ENDMDL
