MODEL 1
REMARK VINA RESULT: -7.809541258      0.000      0.000
REMARK  10 active torsions:
REMARK  status: ('A' for Active; 'I' for Inactive)
REMARK    1  A    between atoms: C2_2  and  C3_3 
REMARK    2  A    between atoms: C2_2  and  C28_35 
REMARK    3  A    between atoms: C3_3  and  C4_4 
REMARK    4  A    between atoms: C4_4  and  C5_5 
REMARK    5  A    between atoms: C5_5  and  C7_7 
REMARK    6  A    between atoms: C15_16  and  O2_17 
REMARK    7  A    between atoms: C19_22  and  O3_23 
REMARK    8  A    between atoms: O3_23  and  C20_24 
REMARK    9  A    between atoms: C20_24  and  C21_26 
REMARK   10  A    between atoms: C21_26  and  O5_29 
ROOT
HETATM    1  C7  UNL     1      11.573  25.964   4.486  1.00  0.00     0.004 C 
HETATM    2  C8  UNL     1      11.967  25.302   3.171  1.00  0.00    -0.013 C 
HETATM    3  C9  UNL     1      12.155  23.847   3.152  1.00  0.00     0.010 C 
HETATM    4  C10 UNL     1      10.854  25.565   2.182  1.00  0.00     0.010 C 
HETATM    5  C11 UNL     1       9.977  26.449   2.978  1.00  0.00     0.002 C 
HETATM    6  C12 UNL     1       8.686  26.748   2.381  1.00  0.00     0.009 C 
HETATM    7  C13 UNL     1       7.794  25.669   1.913  1.00  0.00     0.087 C 
HETATM    8  C14 UNL     1       6.506  25.778   2.701  1.00  0.00     0.162 C 
HETATM    9  O1  UNL     1       5.813  24.836   2.978  1.00  0.00    -0.295 OA
HETATM   10  C15 UNL     1       6.368  27.236   2.997  1.00  0.00     0.126 C 
HETATM   11  C16 UNL     1       5.724  27.473   4.368  1.00  0.00     0.047 C 
HETATM   12  C17 UNL     1       6.900  27.704   5.341  1.00  0.00     0.011 C 
HETATM   13  C18 UNL     1       7.962  27.014   4.621  1.00  0.00     0.028 C 
HETATM   14  C19 UNL     1       9.393  27.178   5.113  1.00  0.00     0.145 C 
HETATM   15  C24 UNL     1      10.109  26.063   4.442  1.00  0.00    -0.009 C 
HETATM   16  C25 UNL     1       9.510  24.773   4.860  1.00  0.00     0.018 C 
HETATM   17  C26 UNL     1       7.806  27.609   3.226  1.00  0.00     0.005 C 
HETATM   18  C27 UNL     1       8.090  29.062   3.166  1.00  0.00     0.020 C 
ENDROOT
BRANCH   1  19
HETATM   19  C5  UNL     1      12.332  25.328   5.534  1.00  0.00    -0.013 C 
HETATM   20  C6  UNL     1      12.280  25.790   6.940  1.00  0.00     0.010 C 
BRANCH  19  21
HETATM   21  C4  UNL     1      13.822  25.380   5.160  1.00  0.00     0.009 C 
BRANCH  21  22
HETATM   22  C3  UNL     1      14.713  24.728   6.174  1.00  0.00     0.034 C 
BRANCH  22  23
HETATM   23  C2  UNL     1      14.685  23.243   5.851  1.00  0.00    -0.086 C 
HETATM   24  C1  UNL     1      15.204  22.835   4.717  1.00  0.00     0.014 C 
BRANCH  23  25
HETATM   25  C28 UNL     1      14.091  22.273   6.768  1.00  0.00     0.005 C 
HETATM   26  C29 UNL     1      14.194  22.647   8.220  1.00  0.00     0.014 C 
HETATM   27  C30 UNL     1      12.653  22.016   6.415  1.00  0.00     0.014 C 
ENDBRANCH  23  25
ENDBRANCH  22  23
ENDBRANCH  21  22
ENDBRANCH  19  21
ENDBRANCH   1  19
BRANCH  14  28
HETATM   28  O3  UNL     1       9.224  27.193   6.480  1.00  0.00    -0.312 OA
BRANCH  28  29
HETATM   29  C20 UNL     1       9.401  28.367   7.180  1.00  0.00     0.293 C 
HETATM   30  O4  UNL     1       9.408  29.471   6.613  1.00  0.00    -0.262 OA
BRANCH  29  31
HETATM   31  C21 UNL     1       9.588  28.317   8.638  1.00  0.00     0.138 C 
HETATM   32  C22 UNL     1       9.074  27.020   9.225  1.00  0.00     0.056 C 
HETATM   33  C23 UNL     1       8.936  29.519   9.315  1.00  0.00     0.056 C 
BRANCH  31  34
HETATM   34  O5  UNL     1      10.954  28.381   8.968  1.00  0.00    -0.380 OA
ATOM     35  H5  UNL     1      11.126  29.117   9.544  1.00  0.00     0.211 HD
ENDBRANCH  31  34
ENDBRANCH  29  31
ENDBRANCH  28  29
ENDBRANCH  14  28
BRANCH  10  36
HETATM   36  O2  UNL     1       5.751  27.941   2.002  1.00  0.00    -0.381 OA
ATOM     37  H2  UNL     1       5.512  28.825   2.253  1.00  0.00     0.211 HD
ENDBRANCH  10  36
TORSDOF 10
ENDMDL
MODEL 2
REMARK VINA RESULT: -7.527738116      0.512      1.073
REMARK  10 active torsions:
REMARK  status: ('A' for Active; 'I' for Inactive)
REMARK    1  A    between atoms: C2_2  and  C3_3 
REMARK    2  A    between atoms: C2_2  and  C28_35 
REMARK    3  A    between atoms: C3_3  and  C4_4 
REMARK    4  A    between atoms: C4_4  and  C5_5 
REMARK    5  A    between atoms: C5_5  and  C7_7 
REMARK    6  A    between atoms: C15_16  and  O2_17 
REMARK    7  A    between atoms: C19_22  and  O3_23 
REMARK    8  A    between atoms: O3_23  and  C20_24 
REMARK    9  A    between atoms: C20_24  and  C21_26 
REMARK   10  A    between atoms: C21_26  and  O5_29 
ROOT
HETATM    1  C7  UNL     1      11.527  25.917   4.718  1.00  0.00     0.004 C 
HETATM    2  C8  UNL     1      11.998  25.211   3.452  1.00  0.00    -0.013 C 
HETATM    3  C9  UNL     1      12.152  23.752   3.483  1.00  0.00     0.010 C 
HETATM    4  C10 UNL     1      10.966  25.473   2.379  1.00  0.00     0.010 C 
HETATM    5  C11 UNL     1      10.056  26.397   3.087  1.00  0.00     0.002 C 
HETATM    6  C12 UNL     1       8.818  26.708   2.391  1.00  0.00     0.009 C 
HETATM    7  C13 UNL     1       7.937  25.638   1.886  1.00  0.00     0.087 C 
HETATM    8  C14 UNL     1       6.598  25.797   2.575  1.00  0.00     0.162 C 
HETATM    9  O1  UNL     1       5.865  24.878   2.825  1.00  0.00    -0.295 OA
HETATM   10  C15 UNL     1       6.475  27.264   2.824  1.00  0.00     0.126 C 
HETATM   11  C16 UNL     1       5.740  27.552   4.139  1.00  0.00     0.047 C 
HETATM   12  C17 UNL     1       6.848  27.783   5.188  1.00  0.00     0.011 C 
HETATM   13  C18 UNL     1       7.942  27.050   4.564  1.00  0.00     0.028 C 
HETATM   14  C19 UNL     1       9.338  27.195   5.155  1.00  0.00     0.145 C 
HETATM   15  C24 UNL     1      10.073  26.047   4.566  1.00  0.00    -0.009 C 
HETATM   16  C25 UNL     1       9.415  24.782   4.971  1.00  0.00     0.018 C 
HETATM   17  C26 UNL     1       7.902  27.612   3.148  1.00  0.00     0.005 C 
HETATM   18  C27 UNL     1       8.224  29.056   3.072  1.00  0.00     0.020 C 
ENDROOT
BRANCH   1  19
HETATM   19  C5  UNL     1      12.193  25.292   5.834  1.00  0.00    -0.013 C 
HETATM   20  C6  UNL     1      12.124  25.845   7.207  1.00  0.00     0.010 C 
BRANCH  19  21
HETATM   21  C4  UNL     1      13.695  25.207   5.521  1.00  0.00     0.009 C 
BRANCH  21  22
HETATM   22  C3  UNL     1      14.476  24.454   6.557  1.00  0.00     0.034 C 
BRANCH  22  23
HETATM   23  C2  UNL     1      14.395  22.992   6.151  1.00  0.00    -0.086 C 
HETATM   24  C1  UNL     1      13.458  22.242   6.683  1.00  0.00     0.014 C 
BRANCH  23  25
HETATM   25  C28 UNL     1      15.334  22.411   5.195  1.00  0.00     0.005 C 
HETATM   26  C29 UNL     1      16.603  23.195   5.018  1.00  0.00     0.014 C 
HETATM   27  C30 UNL     1      15.665  20.993   5.566  1.00  0.00     0.014 C 
ENDBRANCH  23  25
ENDBRANCH  22  23
ENDBRANCH  21  22
ENDBRANCH  19  21
ENDBRANCH   1  19
BRANCH  14  28
HETATM   28  O3  UNL     1       9.071  27.250   6.505  1.00  0.00    -0.312 OA
BRANCH  28  29
HETATM   29  C20 UNL     1       9.304  28.416   7.203  1.00  0.00     0.293 C 
HETATM   30  O4  UNL     1       9.366  29.517   6.634  1.00  0.00    -0.262 OA
BRANCH  29  31
HETATM   31  C21 UNL     1       9.485  28.360   8.662  1.00  0.00     0.138 C 
HETATM   32  C22 UNL     1       9.111  27.005   9.222  1.00  0.00     0.056 C 
HETATM   33  C23 UNL     1       8.703  29.473   9.354  1.00  0.00     0.056 C 
BRANCH  31  34
HETATM   34  O5  UNL     1      10.834  28.566   9.004  1.00  0.00    -0.380 OA
ATOM     35  H5  UNL     1      10.904  29.077   9.802  1.00  0.00     0.211 HD
ENDBRANCH  31  34
ENDBRANCH  29  31
ENDBRANCH  28  29
ENDBRANCH  14  28
BRANCH  10  36
HETATM   36  O2  UNL     1       5.948  27.956   1.770  1.00  0.00    -0.381 OA
ATOM     37  H2  UNL     1       6.599  28.243   1.139  1.00  0.00     0.211 HD
ENDBRANCH  10  36
TORSDOF 10
ENDMDL
MODEL 3
REMARK VINA RESULT: -7.493238710      7.076     11.255
REMARK  10 active torsions:
REMARK  status: ('A' for Active; 'I' for Inactive)
REMARK    1  A    between atoms: C2_2  and  C3_3 
REMARK    2  A    between atoms: C2_2  and  C28_35 
REMARK    3  A    between atoms: C3_3  and  C4_4 
REMARK    4  A    between atoms: C4_4  and  C5_5 
REMARK    5  A    between atoms: C5_5  and  C7_7 
REMARK    6  A    between atoms: C15_16  and  O2_17 
REMARK    7  A    between atoms: C19_22  and  O3_23 
REMARK    8  A    between atoms: O3_23  and  C20_24 
REMARK    9  A    between atoms: C20_24  and  C21_26 
REMARK   10  A    between atoms: C21_26  and  O5_29 
ROOT
HETATM    1  C7  UNL     1      18.280  19.226   8.394  1.00  0.00     0.004 C 
HETATM    2  C8  UNL     1      18.180  19.554   9.878  1.00  0.00    -0.013 C 
HETATM    3  C9  UNL     1      19.404  19.929  10.594  1.00  0.00     0.010 C 
HETATM    4  C10 UNL     1      17.265  20.749  10.016  1.00  0.00     0.010 C 
HETATM    5  C11 UNL     1      16.830  20.930   8.615  1.00  0.00     0.002 C 
HETATM    6  C12 UNL     1      16.071  22.141   8.349  1.00  0.00     0.009 C 
HETATM    7  C13 UNL     1      16.582  23.465   8.751  1.00  0.00     0.087 C 
HETATM    8  C14 UNL     1      16.726  24.292   7.491  1.00  0.00     0.162 C 
HETATM    9  O1  UNL     1      17.554  25.151   7.348  1.00  0.00    -0.295 OA
HETATM   10  C15 UNL     1      15.655  23.781   6.582  1.00  0.00     0.126 C 
HETATM   11  C16 UNL     1      16.102  23.809   5.115  1.00  0.00     0.047 C 
HETATM   12  C17 UNL     1      16.607  22.383   4.811  1.00  0.00     0.011 C 
HETATM   13  C18 UNL     1      16.949  21.945   6.158  1.00  0.00     0.028 C 
HETATM   14  C19 UNL     1      17.289  20.477   6.376  1.00  0.00     0.145 C 
HETATM   15  C24 UNL     1      17.959  20.480   7.702  1.00  0.00    -0.009 C 
HETATM   16  C25 UNL     1      19.166  21.338   7.641  1.00  0.00     0.018 C 
HETATM   17  C26 UNL     1      15.681  22.316   6.919  1.00  0.00     0.005 C 
HETATM   18  C27 UNL     1      14.485  21.556   6.486  1.00  0.00     0.020 C 
ENDROOT
BRANCH   1  19
HETATM   19  C5  UNL     1      19.485  18.455   8.201  1.00  0.00    -0.013 C 
HETATM   20  C6  UNL     1      20.272  18.517   6.949  1.00  0.00     0.010 C 
BRANCH  19  21
HETATM   21  C4  UNL     1      19.146  16.967   8.378  1.00  0.00     0.009 C 
BRANCH  21  22
HETATM   22  C3  UNL     1      20.023  16.273   9.376  1.00  0.00     0.034 C 
BRANCH  22  23
HETATM   23  C2  UNL     1      19.179  16.119  10.631  1.00  0.00    -0.086 C 
HETATM   24  C1  UNL     1      17.903  15.841  10.500  1.00  0.00     0.014 C 
BRANCH  23  25
HETATM   25  C28 UNL     1      19.754  16.278  11.964  1.00  0.00     0.005 C 
HETATM   26  C29 UNL     1      21.102  16.941  11.982  1.00  0.00     0.014 C 
HETATM   27  C30 UNL     1      18.813  17.026  12.865  1.00  0.00     0.014 C 
ENDBRANCH  23  25
ENDBRANCH  22  23
ENDBRANCH  21  22
ENDBRANCH  19  21
ENDBRANCH   1  19
BRANCH  14  28
HETATM   28  O3  UNL     1      17.988  20.173   5.229  1.00  0.00    -0.312 OA
BRANCH  28  29
HETATM   29  C20 UNL     1      17.731  18.996   4.560  1.00  0.00     0.293 C 
HETATM   30  O4  UNL     1      17.331  17.981   5.154  1.00  0.00    -0.262 OA
BRANCH  29  31
HETATM   31  C21 UNL     1      17.933  18.932   3.104  1.00  0.00     0.138 C 
HETATM   32  C22 UNL     1      16.836  19.657   2.354  1.00  0.00     0.056 C 
HETATM   33  C23 UNL     1      18.057  17.487   2.631  1.00  0.00     0.056 C 
BRANCH  31  34
HETATM   34  O5  UNL     1      19.138  19.562   2.742  1.00  0.00    -0.380 OA
ATOM     35  H5  UNL     1      19.534  19.125   1.997  1.00  0.00     0.211 HD
ENDBRANCH  31  34
ENDBRANCH  29  31
ENDBRANCH  28  29
ENDBRANCH  14  28
BRANCH  10  36
HETATM   36  O2  UNL     1      14.444  24.385   6.770  1.00  0.00    -0.381 OA
ATOM     37  H2  UNL     1      13.778  23.803   7.118  1.00  0.00     0.211 HD
ENDBRANCH  10  36
TORSDOF 10
ENDMDL
MODEL 4
REMARK VINA RESULT: -7.453641562      2.307      6.795
REMARK  10 active torsions:
REMARK  status: ('A' for Active; 'I' for Inactive)
REMARK    1  A    between atoms: C2_2  and  C3_3 
REMARK    2  A    between atoms: C2_2  and  C28_35 
REMARK    3  A    between atoms: C3_3  and  C4_4 
REMARK    4  A    between atoms: C4_4  and  C5_5 
REMARK    5  A    between atoms: C5_5  and  C7_7 
REMARK    6  A    between atoms: C15_16  and  O2_17 
REMARK    7  A    between atoms: C19_22  and  O3_23 
REMARK    8  A    between atoms: O3_23  and  C20_24 
REMARK    9  A    between atoms: C20_24  and  C21_26 
REMARK   10  A    between atoms: C21_26  and  O5_29 
ROOT
HETATM    1  C7  UNL     1      10.148  25.398   4.222  1.00  0.00     0.004 C 
HETATM    2  C8  UNL     1      10.266  24.724   2.861  1.00  0.00    -0.013 C 
HETATM    3  C9  UNL     1      10.617  25.551   1.701  1.00  0.00     0.010 C 
HETATM    4  C10 UNL     1      11.374  23.699   2.959  1.00  0.00     0.010 C 
HETATM    5  C11 UNL     1      11.714  23.794   4.394  1.00  0.00     0.002 C 
HETATM    6  C12 UNL     1      12.900  23.061   4.804  1.00  0.00     0.009 C 
HETATM    7  C13 UNL     1      14.188  23.243   4.108  1.00  0.00     0.087 C 
HETATM    8  C14 UNL     1      15.183  23.751   5.129  1.00  0.00     0.162 C 
HETATM    9  O1  UNL     1      16.103  24.476   4.860  1.00  0.00    -0.295 OA
HETATM   10  C15 UNL     1      14.734  23.151   6.422  1.00  0.00     0.126 C 
HETATM   11  C16 UNL     1      14.985  24.101   7.600  1.00  0.00     0.047 C 
HETATM   12  C17 UNL     1      13.646  24.832   7.833  1.00  0.00     0.011 C 
HETATM   13  C18 UNL     1      13.054  24.699   6.508  1.00  0.00     0.028 C 
HETATM   14  C19 UNL     1      11.594  25.091   6.327  1.00  0.00     0.145 C 
HETATM   15  C24 UNL     1      11.460  25.221   4.854  1.00  0.00    -0.009 C 
HETATM   16  C25 UNL     1      12.392  26.266   4.367  1.00  0.00     0.018 C 
HETATM   17  C26 UNL     1      13.241  23.209   6.251  1.00  0.00     0.005 C 
HETATM   18  C27 UNL     1      12.474  22.345   7.178  1.00  0.00     0.020 C 
ENDROOT
BRANCH   1  19
HETATM   19  C5  UNL     1       9.485  26.664   4.021  1.00  0.00    -0.013 C 
HETATM   20  C6  UNL     1       9.970  27.918   4.642  1.00  0.00     0.010 C 
BRANCH  19  21
HETATM   21  C4  UNL     1       8.027  26.532   4.489  1.00  0.00     0.009 C 
BRANCH  21  22
HETATM   22  C3  UNL     1       7.040  27.130   3.532  1.00  0.00     0.034 C 
BRANCH  22  23
HETATM   23  C2  UNL     1       6.465  25.961   2.749  1.00  0.00    -0.086 C 
HETATM   24  C1  UNL     1       5.851  25.005   3.406  1.00  0.00     0.014 C 
BRANCH  23  25
HETATM   25  C28 UNL     1       6.586  25.881   1.295  1.00  0.00     0.005 C 
HETATM   26  C29 UNL     1       5.275  25.808   0.566  1.00  0.00     0.014 C 
HETATM   27  C30 UNL     1       7.395  27.031   0.764  1.00  0.00     0.014 C 
ENDBRANCH  23  25
ENDBRANCH  22  23
ENDBRANCH  21  22
ENDBRANCH  19  21
ENDBRANCH   1  19
BRANCH  14  28
HETATM   28  O3  UNL     1      11.490  26.191   7.149  1.00  0.00    -0.312 OA
BRANCH  28  29
HETATM   29  C20 UNL     1      10.317  26.428   7.833  1.00  0.00     0.293 C 
HETATM   30  O4  UNL     1       9.348  25.656   7.756  1.00  0.00    -0.262 OA
BRANCH  29  31
HETATM   31  C21 UNL     1      10.204  27.626   8.679  1.00  0.00     0.138 C 
HETATM   32  C22 UNL     1       9.501  28.757   7.960  1.00  0.00     0.056 C 
HETATM   33  C23 UNL     1      11.573  28.069   9.187  1.00  0.00     0.056 C 
BRANCH  31  34
HETATM   34  O5  UNL     1       9.436  27.354   9.827  1.00  0.00    -0.380 OA
ATOM     35  H5  UNL     1       9.588  28.011  10.496  1.00  0.00     0.211 HD
ENDBRANCH  31  34
ENDBRANCH  29  31
ENDBRANCH  28  29
ENDBRANCH  14  28
BRANCH  10  36
HETATM   36  O2  UNL     1      15.231  21.898   6.646  1.00  0.00    -0.381 OA
ATOM     37  H2  UNL     1      15.696  21.814   7.471  1.00  0.00     0.211 HD
ENDBRANCH  10  36
TORSDOF 10
ENDMDL
MODEL 5
REMARK VINA RESULT: -7.388760944      2.307      7.085
REMARK  10 active torsions:
REMARK  status: ('A' for Active; 'I' for Inactive)
REMARK    1  A    between atoms: C2_2  and  C3_3 
REMARK    2  A    between atoms: C2_2  and  C28_35 
REMARK    3  A    between atoms: C3_3  and  C4_4 
REMARK    4  A    between atoms: C4_4  and  C5_5 
REMARK    5  A    between atoms: C5_5  and  C7_7 
REMARK    6  A    between atoms: C15_16  and  O2_17 
REMARK    7  A    between atoms: C19_22  and  O3_23 
REMARK    8  A    between atoms: O3_23  and  C20_24 
REMARK    9  A    between atoms: C20_24  and  C21_26 
REMARK   10  A    between atoms: C21_26  and  O5_29 
ROOT
HETATM    1  C7  UNL     1       9.817  27.851   7.383  1.00  0.00     0.004 C 
HETATM    2  C8  UNL     1      10.901  27.914   8.451  1.00  0.00    -0.013 C 
HETATM    3  C9  UNL     1      10.594  27.398   9.789  1.00  0.00     0.010 C 
HETATM    4  C10 UNL     1      12.062  27.075   7.966  1.00  0.00     0.010 C 
HETATM    5  C11 UNL     1      11.590  26.700   6.617  1.00  0.00     0.002 C 
HETATM    6  C12 UNL     1      12.400  25.712   5.925  1.00  0.00     0.009 C 
HETATM    7  C13 UNL     1      12.748  24.428   6.564  1.00  0.00     0.087 C 
HETATM    8  C14 UNL     1      12.178  23.326   5.696  1.00  0.00     0.162 C 
HETATM    9  O1  UNL     1      11.806  22.266   6.125  1.00  0.00    -0.295 OA
HETATM   10  C15 UNL     1      12.212  23.882   4.310  1.00  0.00     0.126 C 
HETATM   11  C16 UNL     1      11.016  23.397   3.481  1.00  0.00     0.047 C 
HETATM   12  C17 UNL     1       9.966  24.524   3.573  1.00  0.00     0.011 C 
HETATM   13  C18 UNL     1      10.380  25.152   4.821  1.00  0.00     0.028 C 
HETATM   14  C19 UNL     1       9.748  26.483   5.205  1.00  0.00     0.145 C 
HETATM   15  C24 UNL     1      10.073  26.606   6.649  1.00  0.00    -0.009 C 
HETATM   16  C25 UNL     1       9.480  25.463   7.384  1.00  0.00     0.018 C 
HETATM   17  C26 UNL     1      11.876  25.323   4.581  1.00  0.00     0.005 C 
HETATM   18  C27 UNL     1      12.198  26.256   3.477  1.00  0.00     0.020 C 
ENDROOT
BRANCH   1  19
HETATM   19  C5  UNL     1       8.568  28.202   8.014  1.00  0.00    -0.013 C 
HETATM   20  C6  UNL     1       7.485  27.215   8.230  1.00  0.00     0.010 C 
BRANCH  19  21
HETATM   21  C4  UNL     1       7.913  29.332   7.205  1.00  0.00     0.009 C 
BRANCH  21  22
HETATM   22  C3  UNL     1       7.016  30.209   8.028  1.00  0.00     0.034 C 
BRANCH  22  23
HETATM   23  C2  UNL     1       5.689  30.250   7.288  1.00  0.00    -0.086 C 
HETATM   24  C1  UNL     1       4.974  31.348   7.340  1.00  0.00     0.014 C 
BRANCH  23  25
HETATM   25  C28 UNL     1       5.199  29.098   6.535  1.00  0.00     0.005 C 
HETATM   26  C29 UNL     1       4.121  28.315   7.229  1.00  0.00     0.014 C 
HETATM   27  C30 UNL     1       4.719  29.517   5.174  1.00  0.00     0.014 C 
ENDBRANCH  23  25
ENDBRANCH  22  23
ENDBRANCH  21  22
ENDBRANCH  19  21
ENDBRANCH   1  19
BRANCH  14  28
HETATM   28  O3  UNL     1       8.449  26.314   4.781  1.00  0.00    -0.312 OA
BRANCH  28  29
HETATM   29  C20 UNL     1       7.885  27.227   3.917  1.00  0.00     0.293 C 
HETATM   30  O4  UNL     1       8.077  28.447   4.038  1.00  0.00    -0.262 OA
BRANCH  29  31
HETATM   31  C21 UNL     1       7.031  26.749   2.817  1.00  0.00     0.138 C 
HETATM   32  C22 UNL     1       6.346  25.446   3.166  1.00  0.00     0.056 C 
HETATM   33  C23 UNL     1       7.828  26.619   1.522  1.00  0.00     0.056 C 
BRANCH  31  34
HETATM   34  O5  UNL     1       6.005  27.672   2.548  1.00  0.00    -0.380 OA
ATOM     35  H5  UNL     1       5.152  27.261   2.634  1.00  0.00     0.211 HD
ENDBRANCH  31  34
ENDBRANCH  29  31
ENDBRANCH  28  29
ENDBRANCH  14  28
BRANCH  10  36
HETATM   36  O2  UNL     1      13.403  23.688   3.671  1.00  0.00    -0.381 OA
ATOM     37  H2  UNL     1      13.463  24.131   2.832  1.00  0.00     0.211 HD
ENDBRANCH  10  36
TORSDOF 10
ENDMDL
