MODEL 1
REMARK VINA RESULT: -8.079340593      0.000      0.000
REMARK  12 active torsions:
REMARK  status: ('A' for Active; 'I' for Inactive)
REMARK    1  A    between atoms: O1_2  and  C2_3 
REMARK    2  A    between atoms: C5_8  and  C6_9 
REMARK    3  A    between atoms: C6_9  and  N2_10 
REMARK    4  A    between atoms: N2_10  and  C7_11 
REMARK    5  A    between atoms: C7_11  and  C8_12 
REMARK    6  A    between atoms: C8_12  and  C9_13 
REMARK    7  A    between atoms: N3_16  and  C12_17 
REMARK    8  A    between atoms: C12_17  and  C13_18 
REMARK    9  A    between atoms: C13_18  and  C14_19 
REMARK   10  A    between atoms: C14_19  and  C15_20 
REMARK   11  A    between atoms: C15_20  and  N4_21 
REMARK       I    between atoms: N4_21  and  C16_23 
REMARK   12  A    between atoms: C23_36  and  O3_37 
ROOT
HETATM    1  N2  UNL     1      45.435  20.666  39.721  1.00  0.00    -0.458 NA
ENDROOT
BRANCH   1   2
HETATM    2  C6  UNL     1      45.796  19.645  40.146  1.00  0.00     0.206 C 
BRANCH   2   3
HETATM    3  C5  UNL     1      46.226  18.419  39.440  1.00  0.00     0.089 A 
HETATM    4  N1  UNL     1      46.640  18.475  38.141  1.00  0.00    -0.352 N 
HETATM    5  C4  UNL     1      47.035  17.401  37.448  1.00  0.00     0.050 A 
ATOM      6  H1  UNL     1      46.650  19.383  37.676  1.00  0.00     0.166 HD
HETATM    7  C3  UNL     1      47.449  17.485  36.125  1.00  0.00     0.070 A 
HETATM    8  C21 UNL     1      47.011  16.195  38.110  1.00  0.00     0.045 A 
HETATM    9  C2  UNL     1      47.853  16.370  35.419  1.00  0.00     0.103 A 
HETATM   10  C23 UNL     1      47.829  15.157  36.087  1.00  0.00     0.102 A 
HETATM   11  C22 UNL     1      47.417  15.068  37.403  1.00  0.00     0.057 A 
HETATM   12  C20 UNL     1      46.613  16.047  39.402  1.00  0.00     0.210 A 
HETATM   13  C19 UNL     1      46.207  17.217  40.082  1.00  0.00     0.126 A 
HETATM   14  O2  UNL     1      46.586  14.965  40.009  1.00  0.00    -0.285 OA
HETATM   15  N7  UNL     1      45.782  17.065  41.413  1.00  0.00    -0.096 NA
BRANCH   9  16
HETATM   16  O1  UNL     1      48.262  16.473  34.100  1.00  0.00    -0.353 OA
HETATM   17  C1  UNL     1      48.924  17.651  33.680  1.00  0.00     0.210 C 
ENDBRANCH   9  16
BRANCH  10  18
HETATM   18  O3  UNL     1      48.228  14.023  35.410  1.00  0.00    -0.353 OA
HETATM   19  C24 UNL     1      47.437  12.873  35.224  1.00  0.00     0.210 C 
ENDBRANCH  10  18
ENDBRANCH   2   3
ENDBRANCH   1   2
BRANCH   1  20
HETATM   20  C7  UNL     1      45.021  21.836  39.236  1.00  0.00     0.217 C 
BRANCH  20  21
HETATM   21  C8  UNL     1      44.281  21.626  37.914  1.00  0.00     0.038 C 
BRANCH  21  22
HETATM   22  C9  UNL     1      44.341  22.860  37.021  1.00  0.00    -0.009 C 
HETATM   23  C10 UNL     1      43.896  22.567  35.646  1.00  0.00     0.035 C 
HETATM   24  C11 UNL     1      44.533  23.398  34.592  1.00  0.00     0.272 C 
HETATM   25  N3  UNL     1      45.974  23.284  34.742  1.00  0.00     0.088 N 
HETATM   26  C17 UNL     1      46.414  23.904  35.966  1.00  0.00     0.272 C 
HETATM   27  C18 UNL     1      45.689  23.434  37.168  1.00  0.00     0.035 C 
BRANCH  25  28
HETATM   28  C12 UNL     1      46.615  23.782  33.554  1.00  0.00     0.272 C 
BRANCH  28  29
HETATM   29  C13 UNL     1      45.742  24.646  32.706  1.00  0.00     0.032 C 
BRANCH  29  30
HETATM   30  C14 UNL     1      46.002  26.096  33.013  1.00  0.00     0.021 C 
BRANCH  30  31
HETATM   31  C15 UNL     1      44.709  26.837  33.191  1.00  0.00     0.122 C 
BRANCH  31  32
HETATM   32  N4  UNL     1      44.518  27.714  32.042  1.00  0.00    -0.365 N 
HETATM   33  C16 UNL     1      43.557  27.367  31.025  1.00  0.00     0.181 C 
HETATM   34  N5  UNL     1      42.312  27.487  31.305  1.00  0.00    -0.374 N 
HETATM   35  N6  UNL     1      44.056  26.914  29.784  1.00  0.00    -0.064 NA
ATOM     36  H52 UNL     1      41.952  27.815  32.201  1.00  0.00     0.158 HD
ATOM     37  H51 UNL     1      41.632  27.242  30.585  1.00  0.00     0.158 HD
ATOM     38  H4  UNL     1      45.062  28.573  31.958  1.00  0.00     0.162 HD
ENDBRANCH  31  32
ENDBRANCH  30  31
ENDBRANCH  29  30
ENDBRANCH  28  29
ENDBRANCH  25  28
ENDBRANCH  21  22
ENDBRANCH  20  21
ENDBRANCH   1  20
TORSDOF 12
ENDMDL
MODEL 2
REMARK VINA RESULT: -8.045864630      1.593      1.918
REMARK  12 active torsions:
REMARK  status: ('A' for Active; 'I' for Inactive)
REMARK    1  A    between atoms: O1_2  and  C2_3 
REMARK    2  A    between atoms: C5_8  and  C6_9 
REMARK    3  A    between atoms: C6_9  and  N2_10 
REMARK    4  A    between atoms: N2_10  and  C7_11 
REMARK    5  A    between atoms: C7_11  and  C8_12 
REMARK    6  A    between atoms: C8_12  and  C9_13 
REMARK    7  A    between atoms: N3_16  and  C12_17 
REMARK    8  A    between atoms: C12_17  and  C13_18 
REMARK    9  A    between atoms: C13_18  and  C14_19 
REMARK   10  A    between atoms: C14_19  and  C15_20 
REMARK   11  A    between atoms: C15_20  and  N4_21 
REMARK       I    between atoms: N4_21  and  C16_23 
REMARK   12  A    between atoms: C23_36  and  O3_37 
ROOT
HETATM    1  N2  UNL     1      46.524  20.045  39.511  1.00  0.00    -0.458 NA
ENDROOT
BRANCH   1   2
HETATM    2  C6  UNL     1      46.918  18.952  39.472  1.00  0.00     0.206 C 
BRANCH   2   3
HETATM    3  C5  UNL     1      47.141  18.061  38.313  1.00  0.00     0.089 A 
HETATM    4  N1  UNL     1      48.377  17.956  37.745  1.00  0.00    -0.352 N 
HETATM    5  C4  UNL     1      48.639  17.173  36.693  1.00  0.00     0.050 A 
ATOM      6  H1  UNL     1      49.140  18.503  38.145  1.00  0.00     0.166 HD
HETATM    7  C3  UNL     1      49.907  17.087  36.132  1.00  0.00     0.070 A 
HETATM    8  C21 UNL     1      47.586  16.448  36.184  1.00  0.00     0.045 A 
HETATM    9  C2  UNL     1      50.166  16.276  35.045  1.00  0.00     0.103 A 
HETATM   10  C23 UNL     1      49.104  15.547  34.534  1.00  0.00     0.102 A 
HETATM   11  C22 UNL     1      47.842  15.630  35.088  1.00  0.00     0.057 A 
HETATM   12  C20 UNL     1      46.323  16.493  36.686  1.00  0.00     0.210 A 
HETATM   13  C19 UNL     1      46.107  17.338  37.797  1.00  0.00     0.126 A 
HETATM   14  O2  UNL     1      45.365  15.845  36.235  1.00  0.00    -0.285 OA
HETATM   15  N7  UNL     1      44.799  17.396  38.309  1.00  0.00    -0.096 NA
BRANCH   9  16
HETATM   16  O1  UNL     1      51.435  16.204  34.498  1.00  0.00    -0.353 OA
HETATM   17  C1  UNL     1      52.251  17.361  34.509  1.00  0.00     0.210 C 
ENDBRANCH   9  16
BRANCH  10  18
HETATM   18  O3  UNL     1      49.330  14.726  33.449  1.00  0.00    -0.353 OA
HETATM   19  C24 UNL     1      49.262  13.319  33.473  1.00  0.00     0.210 C 
ENDBRANCH  10  18
ENDBRANCH   2   3
ENDBRANCH   1   2
BRANCH   1  20
HETATM   20  C7  UNL     1      46.071  21.297  39.555  1.00  0.00     0.217 C 
BRANCH  20  21
HETATM   21  C8  UNL     1      44.739  21.402  38.808  1.00  0.00     0.038 C 
BRANCH  21  22
HETATM   22  C9  UNL     1      44.636  22.690  37.999  1.00  0.00    -0.009 C 
HETATM   23  C10 UNL     1      43.977  22.472  36.698  1.00  0.00     0.035 C 
HETATM   24  C11 UNL     1      44.423  23.382  35.612  1.00  0.00     0.272 C 
HETATM   25  N3  UNL     1      45.871  23.295  35.519  1.00  0.00     0.088 N 
HETATM   26  C17 UNL     1      46.494  23.849  36.694  1.00  0.00     0.272 C 
HETATM   27  C18 UNL     1      45.982  23.287  37.964  1.00  0.00     0.035 C 
BRANCH  25  28
HETATM   28  C12 UNL     1      46.302  23.882  34.279  1.00  0.00     0.272 C 
BRANCH  28  29
HETATM   29  C13 UNL     1      46.354  25.373  34.293  1.00  0.00     0.032 C 
BRANCH  29  30
HETATM   30  C14 UNL     1      45.867  25.917  32.978  1.00  0.00     0.021 C 
BRANCH  30  31
HETATM   31  C15 UNL     1      44.493  26.502  33.127  1.00  0.00     0.122 C 
BRANCH  31  32
HETATM   32  N4  UNL     1      44.324  27.544  32.121  1.00  0.00    -0.365 N 
HETATM   33  C16 UNL     1      43.411  27.343  31.024  1.00  0.00     0.181 C 
HETATM   34  N5  UNL     1      42.154  27.396  31.268  1.00  0.00    -0.374 N 
HETATM   35  N6  UNL     1      43.967  27.097  29.749  1.00  0.00    -0.064 NA
ATOM     36  H52 UNL     1      41.752  27.574  32.189  1.00  0.00     0.158 HD
ATOM     37  H51 UNL     1      41.508  27.254  30.492  1.00  0.00     0.158 HD
ATOM     38  H4  UNL     1      44.851  28.415  32.193  1.00  0.00     0.162 HD
ENDBRANCH  31  32
ENDBRANCH  30  31
ENDBRANCH  29  30
ENDBRANCH  28  29
ENDBRANCH  25  28
ENDBRANCH  21  22
ENDBRANCH  20  21
ENDBRANCH   1  20
TORSDOF 12
ENDMDL
MODEL 3
REMARK VINA RESULT: -8.035533465      2.640      4.568
REMARK  12 active torsions:
REMARK  status: ('A' for Active; 'I' for Inactive)
REMARK    1  A    between atoms: O1_2  and  C2_3 
REMARK    2  A    between atoms: C5_8  and  C6_9 
REMARK    3  A    between atoms: C6_9  and  N2_10 
REMARK    4  A    between atoms: N2_10  and  C7_11 
REMARK    5  A    between atoms: C7_11  and  C8_12 
REMARK    6  A    between atoms: C8_12  and  C9_13 
REMARK    7  A    between atoms: N3_16  and  C12_17 
REMARK    8  A    between atoms: C12_17  and  C13_18 
REMARK    9  A    between atoms: C13_18  and  C14_19 
REMARK   10  A    between atoms: C14_19  and  C15_20 
REMARK   11  A    between atoms: C15_20  and  N4_21 
REMARK       I    between atoms: N4_21  and  C16_23 
REMARK   12  A    between atoms: C23_36  and  O3_37 
ROOT
HETATM    1  N2  UNL     1      46.806  17.677  40.926  1.00  0.00    -0.458 NA
ENDROOT
BRANCH   1   2
HETATM    2  C6  UNL     1      46.925  16.883  40.085  1.00  0.00     0.206 C 
BRANCH   2   3
HETATM    3  C5  UNL     1      47.281  17.051  38.659  1.00  0.00     0.089 A 
HETATM    4  N1  UNL     1      48.588  17.088  38.270  1.00  0.00    -0.352 N 
HETATM    5  C4  UNL     1      48.972  17.244  36.998  1.00  0.00     0.050 A 
ATOM      6  H1  UNL     1      49.308  16.991  38.986  1.00  0.00     0.166 HD
HETATM    7  C3  UNL     1      50.311  17.281  36.629  1.00  0.00     0.070 A 
HETATM    8  C21 UNL     1      47.973  17.368  36.060  1.00  0.00     0.045 A 
HETATM    9  C2  UNL     1      50.696  17.444  35.313  1.00  0.00     0.103 A 
HETATM   10  C23 UNL     1      49.688  17.568  34.371  1.00  0.00     0.102 A 
HETATM   11  C22 UNL     1      48.356  17.532  34.733  1.00  0.00     0.057 A 
HETATM   12  C20 UNL     1      46.646  17.343  36.360  1.00  0.00     0.210 A 
HETATM   13  C19 UNL     1      46.302  17.177  37.719  1.00  0.00     0.126 A 
HETATM   14  O2  UNL     1      45.736  17.456  35.524  1.00  0.00    -0.285 OA
HETATM   15  N7  UNL     1      44.931  17.164  38.033  1.00  0.00    -0.096 NA
BRANCH   9  16
HETATM   16  O1  UNL     1      52.035  17.480  34.964  1.00  0.00    -0.353 OA
HETATM   17  C1  UNL     1      52.722  16.259  34.761  1.00  0.00     0.210 C 
ENDBRANCH   9  16
BRANCH  10  18
HETATM   18  O3  UNL     1      50.040  17.730  33.047  1.00  0.00    -0.353 OA
HETATM   19  C24 UNL     1      49.674  16.860  32.002  1.00  0.00     0.210 C 
ENDBRANCH  10  18
ENDBRANCH   2   3
ENDBRANCH   1   2
BRANCH   1  20
HETATM   20  C7  UNL     1      46.671  18.586  41.890  1.00  0.00     0.217 C 
BRANCH  20  21
HETATM   21  C8  UNL     1      47.899  19.499  41.929  1.00  0.00     0.038 C 
BRANCH  21  22
HETATM   22  C9  UNL     1      47.530  20.964  41.723  1.00  0.00    -0.009 C 
HETATM   23  C10 UNL     1      46.082  21.141  41.505  1.00  0.00     0.035 C 
HETATM   24  C11 UNL     1      45.717  22.297  40.647  1.00  0.00     0.272 C 
HETATM   25  N3  UNL     1      46.453  22.181  39.399  1.00  0.00     0.088 N 
HETATM   26  C17 UNL     1      47.866  22.362  39.619  1.00  0.00     0.272 C 
HETATM   27  C18 UNL     1      48.423  21.493  40.679  1.00  0.00     0.035 C 
BRANCH  25  28
HETATM   28  C12 UNL     1      45.879  23.069  38.426  1.00  0.00     0.272 C 
BRANCH  28  29
HETATM   29  C13 UNL     1      44.431  22.829  38.157  1.00  0.00     0.032 C 
BRANCH  29  30
HETATM   30  C14 UNL     1      44.273  21.758  37.112  1.00  0.00     0.021 C 
BRANCH  30  31
HETATM   31  C15 UNL     1      43.981  22.368  35.772  1.00  0.00     0.122 C 
BRANCH  31  32
HETATM   32  N4  UNL     1      45.237  22.512  35.046  1.00  0.00    -0.365 N 
HETATM   33  C16 UNL     1      45.539  23.750  34.373  1.00  0.00     0.181 C 
HETATM   34  N5  UNL     1      45.854  24.766  35.088  1.00  0.00    -0.374 N 
HETATM   35  N6  UNL     1      45.464  23.760  32.962  1.00  0.00    -0.064 NA
ATOM     36  H52 UNL     1      45.908  24.759  36.107  1.00  0.00     0.158 HD
ATOM     37  H51 UNL     1      46.068  25.641  34.611  1.00  0.00     0.158 HD
ATOM     38  H4  UNL     1      45.901  21.739  35.015  1.00  0.00     0.162 HD
ENDBRANCH  31  32
ENDBRANCH  30  31
ENDBRANCH  29  30
ENDBRANCH  28  29
ENDBRANCH  25  28
ENDBRANCH  21  22
ENDBRANCH  20  21
ENDBRANCH   1  20
TORSDOF 12
ENDMDL
MODEL 4
REMARK VINA RESULT: -7.888145703      1.645      1.982
REMARK  12 active torsions:
REMARK  status: ('A' for Active; 'I' for Inactive)
REMARK    1  A    between atoms: O1_2  and  C2_3 
REMARK    2  A    between atoms: C5_8  and  C6_9 
REMARK    3  A    between atoms: C6_9  and  N2_10 
REMARK    4  A    between atoms: N2_10  and  C7_11 
REMARK    5  A    between atoms: C7_11  and  C8_12 
REMARK    6  A    between atoms: C8_12  and  C9_13 
REMARK    7  A    between atoms: N3_16  and  C12_17 
REMARK    8  A    between atoms: C12_17  and  C13_18 
REMARK    9  A    between atoms: C13_18  and  C14_19 
REMARK   10  A    between atoms: C14_19  and  C15_20 
REMARK   11  A    between atoms: C15_20  and  N4_21 
REMARK       I    between atoms: N4_21  and  C16_23 
REMARK   12  A    between atoms: C23_36  and  O3_37 
ROOT
HETATM    1  N2  UNL     1      44.979  19.756  39.102  1.00  0.00    -0.458 NA
ENDROOT
BRANCH   1   2
HETATM    2  C6  UNL     1      45.452  18.693  39.139  1.00  0.00     0.206 C 
BRANCH   2   3
HETATM    3  C5  UNL     1      46.666  18.168  38.478  1.00  0.00     0.089 A 
HETATM    4  N1  UNL     1      46.639  17.804  37.164  1.00  0.00    -0.352 N 
HETATM    5  C4  UNL     1      47.701  17.318  36.513  1.00  0.00     0.050 A 
ATOM      6  H1  UNL     1      45.762  17.908  36.652  1.00  0.00     0.166 HD
HETATM    7  C3  UNL     1      47.645  16.950  35.174  1.00  0.00     0.070 A 
HETATM    8  C21 UNL     1      48.866  17.194  37.235  1.00  0.00     0.045 A 
HETATM    9  C2  UNL     1      48.748  16.449  34.513  1.00  0.00     0.103 A 
HETATM   10  C23 UNL     1      49.920  16.326  35.242  1.00  0.00     0.102 A 
HETATM   11  C22 UNL     1      49.981  16.689  36.573  1.00  0.00     0.057 A 
HETATM   12  C20 UNL     1      48.983  17.533  38.547  1.00  0.00     0.210 A 
HETATM   13  C19 UNL     1      47.827  18.040  39.181  1.00  0.00     0.126 A 
HETATM   14  O2  UNL     1      50.027  17.426  39.210  1.00  0.00    -0.285 OA
HETATM   15  N7  UNL     1      47.942  18.378  40.541  1.00  0.00    -0.096 NA
BRANCH   9  16
HETATM   16  O1  UNL     1      48.673  16.086  33.179  1.00  0.00    -0.353 OA
HETATM   17  C1  UNL     1      48.821  17.088  32.190  1.00  0.00     0.210 C 
ENDBRANCH   9  16
BRANCH  10  18
HETATM   18  O3  UNL     1      51.041  15.830  34.610  1.00  0.00    -0.353 OA
HETATM   19  C24 UNL     1      52.090  16.614  34.091  1.00  0.00     0.210 C 
ENDBRANCH  10  18
ENDBRANCH   2   3
ENDBRANCH   1   2
BRANCH   1  20
HETATM   20  C7  UNL     1      44.439  20.972  39.061  1.00  0.00     0.217 C 
BRANCH  20  21
HETATM   21  C8  UNL     1      45.524  22.023  38.819  1.00  0.00     0.038 C 
BRANCH  21  22
HETATM   22  C9  UNL     1      45.088  23.075  37.806  1.00  0.00    -0.009 C 
HETATM   23  C10 UNL     1      44.189  22.512  36.781  1.00  0.00     0.035 C 
HETATM   24  C11 UNL     1      44.268  23.170  35.451  1.00  0.00     0.272 C 
HETATM   25  N3  UNL     1      45.659  23.164  35.030  1.00  0.00     0.088 N 
HETATM   26  C17 UNL     1      46.454  24.020  35.873  1.00  0.00     0.272 C 
HETATM   27  C18 UNL     1      46.308  23.739  37.318  1.00  0.00     0.035 C 
BRANCH  25  28
HETATM   28  C12 UNL     1      45.730  23.471  33.627  1.00  0.00     0.272 C 
BRANCH  28  29
HETATM   29  C13 UNL     1      46.490  24.715  33.311  1.00  0.00     0.032 C 
BRANCH  29  30
HETATM   30  C14 UNL     1      45.744  25.527  32.288  1.00  0.00     0.021 C 
BRANCH  30  31
HETATM   31  C15 UNL     1      44.772  26.454  32.957  1.00  0.00     0.122 C 
BRANCH  31  32
HETATM   32  N4  UNL     1      44.455  27.537  32.033  1.00  0.00    -0.365 N 
HETATM   33  C16 UNL     1      43.506  27.319  30.970  1.00  0.00     0.181 C 
HETATM   34  N5  UNL     1      42.264  27.238  31.276  1.00  0.00    -0.374 N 
HETATM   35  N6  UNL     1      44.013  27.207  29.656  1.00  0.00    -0.064 NA
ATOM     36  H52 UNL     1      41.899  27.319  32.225  1.00  0.00     0.158 HD
ATOM     37  H51 UNL     1      41.593  27.084  30.524  1.00  0.00     0.158 HD
ATOM     38  H4  UNL     1      44.903  28.446  32.139  1.00  0.00     0.162 HD
ENDBRANCH  31  32
ENDBRANCH  30  31
ENDBRANCH  29  30
ENDBRANCH  28  29
ENDBRANCH  25  28
ENDBRANCH  21  22
ENDBRANCH  20  21
ENDBRANCH   1  20
TORSDOF 12
ENDMDL
MODEL 5
REMARK VINA RESULT: -7.837162607      5.175      6.799
REMARK  12 active torsions:
REMARK  status: ('A' for Active; 'I' for Inactive)
REMARK    1  A    between atoms: O1_2  and  C2_3 
REMARK    2  A    between atoms: C5_8  and  C6_9 
REMARK    3  A    between atoms: C6_9  and  N2_10 
REMARK    4  A    between atoms: N2_10  and  C7_11 
REMARK    5  A    between atoms: C7_11  and  C8_12 
REMARK    6  A    between atoms: C8_12  and  C9_13 
REMARK    7  A    between atoms: N3_16  and  C12_17 
REMARK    8  A    between atoms: C12_17  and  C13_18 
REMARK    9  A    between atoms: C13_18  and  C14_19 
REMARK   10  A    between atoms: C14_19  and  C15_20 
REMARK   11  A    between atoms: C15_20  and  N4_21 
REMARK       I    between atoms: N4_21  and  C16_23 
REMARK   12  A    between atoms: C23_36  and  O3_37 
ROOT
HETATM    1  N2  UNL     1      46.406  21.302  39.955  1.00  0.00    -0.458 NA
ENDROOT
BRANCH   1   2
HETATM    2  C6  UNL     1      47.449  20.824  40.145  1.00  0.00     0.206 C 
BRANCH   2   3
HETATM    3  C5  UNL     1      48.495  21.181  41.127  1.00  0.00     0.089 A 
HETATM    4  N1  UNL     1      49.286  22.275  40.933  1.00  0.00    -0.352 N 
HETATM    5  C4  UNL     1      50.251  22.645  41.781  1.00  0.00     0.050 A 
ATOM      6  H1  UNL     1      49.134  22.839  40.096  1.00  0.00     0.166 HD
HETATM    7  C3  UNL     1      51.046  23.762  41.557  1.00  0.00     0.070 A 
HETATM    8  C21 UNL     1      50.426  21.861  42.899  1.00  0.00     0.045 A 
HETATM    9  C2  UNL     1      52.040  24.134  42.440  1.00  0.00     0.103 A 
HETATM   10  C23 UNL     1      52.214  23.344  43.565  1.00  0.00     0.102 A 
HETATM   11  C22 UNL     1      51.427  22.232  43.792  1.00  0.00     0.057 A 
HETATM   12  C20 UNL     1      49.683  20.755  43.173  1.00  0.00     0.210 A 
HETATM   13  C19 UNL     1      48.680  20.414  42.239  1.00  0.00     0.126 A 
HETATM   14  O2  UNL     1      49.832  20.040  44.176  1.00  0.00    -0.285 OA
HETATM   15  N7  UNL     1      47.920  19.263  42.512  1.00  0.00    -0.096 NA
BRANCH   9  16
HETATM   16  O1  UNL     1      52.824  25.249  42.200  1.00  0.00    -0.353 OA
HETATM   17  C1  UNL     1      52.336  26.523  42.581  1.00  0.00     0.210 C 
ENDBRANCH   9  16
BRANCH  10  18
HETATM   18  O3  UNL     1      53.198  23.690  44.468  1.00  0.00    -0.353 OA
HETATM   19  C24 UNL     1      52.974  24.340  45.697  1.00  0.00     0.210 C 
ENDBRANCH  10  18
ENDBRANCH   2   3
ENDBRANCH   1   2
BRANCH   1  20
HETATM   20  C7  UNL     1      45.212  21.851  39.738  1.00  0.00     0.217 C 
BRANCH  20  21
HETATM   21  C8  UNL     1      44.718  21.500  38.333  1.00  0.00     0.038 C 
BRANCH  21  22
HETATM   22  C9  UNL     1      44.614  22.731  37.438  1.00  0.00    -0.009 C 
HETATM   23  C10 UNL     1      44.130  22.390  36.088  1.00  0.00     0.035 C 
HETATM   24  C11 UNL     1      44.631  23.273  35.003  1.00  0.00     0.272 C 
HETATM   25  N3  UNL     1      46.082  23.299  35.079  1.00  0.00     0.088 N 
HETATM   26  C17 UNL     1      46.521  23.964  36.280  1.00  0.00     0.272 C 
HETATM   27  C18 UNL     1      45.906  23.432  37.517  1.00  0.00     0.035 C 
BRANCH  25  28
HETATM   28  C12 UNL     1      46.610  23.850  33.861  1.00  0.00     0.272 C 
BRANCH  28  29
HETATM   29  C13 UNL     1      45.570  24.351  32.915  1.00  0.00     0.032 C 
BRANCH  29  30
HETATM   30  C14 UNL     1      45.810  25.803  32.609  1.00  0.00     0.021 C 
BRANCH  30  31
HETATM   31  C15 UNL     1      44.636  26.634  33.039  1.00  0.00     0.122 C 
BRANCH  31  32
HETATM   32  N4  UNL     1      44.382  27.639  32.014  1.00  0.00    -0.365 N 
HETATM   33  C16 UNL     1      43.438  27.368  30.960  1.00  0.00     0.181 C 
HETATM   34  N5  UNL     1      42.189  27.372  31.251  1.00  0.00    -0.374 N 
HETATM   35  N6  UNL     1      43.956  27.112  29.671  1.00  0.00    -0.064 NA
ATOM     36  H52 UNL     1      41.816  27.556  32.182  1.00  0.00     0.158 HD
ATOM     37  H51 UNL     1      41.522  27.180  30.505  1.00  0.00     0.158 HD
ATOM     38  H4  UNL     1      44.871  28.534  32.044  1.00  0.00     0.162 HD
ENDBRANCH  31  32
ENDBRANCH  30  31
ENDBRANCH  29  30
ENDBRANCH  28  29
ENDBRANCH  25  28
ENDBRANCH  21  22
ENDBRANCH  20  21
ENDBRANCH   1  20
TORSDOF 12
ENDMDL
