MODEL 1
REMARK VINA RESULT: -6.593973822      0.000      0.000
REMARK  15 active torsions:
REMARK  status: ('A' for Active; 'I' for Inactive)
REMARK    1  A    between atoms: C3_3  and  C5_5 
REMARK    2  A    between atoms: C6_6  and  N1_7 
REMARK    3  A    between atoms: C8_9  and  C9_10 
REMARK    4  A    between atoms: C12_13  and  O1_14 
REMARK    5  A    between atoms: C13_16  and  O2_17 
REMARK    6  A    between atoms: C14_19  and  O3_20 
REMARK    7  A    between atoms: C15_22  and  N2_23 
REMARK    8  A    between atoms: N4_29  and  C17_30 
REMARK    9  A    between atoms: C17_30  and  C18_31 
REMARK   10  A    between atoms: C18_31  and  C19_32 
REMARK   11  A    between atoms: C19_32  and  C20_33 
REMARK   12  A    between atoms: C20_33  and  N5_34 
REMARK   13  A    between atoms: N5_34  and  C21_35 
REMARK   14  A    between atoms: N5_34  and  C23_37 
REMARK   15  A    between atoms: C23_37  and  C24_38 
ROOT
HETATM    1  C1  UNL     1      51.151  17.437  37.809  1.00  0.00     0.012 C 
HETATM    2  C2  UNL     1      50.107  17.288  38.405  1.00  0.00    -0.111 C 
HETATM    3  C3  UNL     1      48.827  17.074  39.138  1.00  0.00     0.095 C 
HETATM    4  C4  UNL     1      49.165  17.373  40.581  1.00  0.00     0.026 C 
ENDROOT
BRANCH   3   5
HETATM    5  C5  UNL     1      47.790  17.937  38.545  1.00  0.00     0.264 C 
HETATM    6  C6  UNL     1      46.947  17.494  37.427  1.00  0.00     0.170 C 
HETATM    7  C16 UNL     1      45.923  17.045  38.427  1.00  0.00     0.302 C 
HETATM    8  N4  UNL     1      46.572  17.943  39.378  1.00  0.00     0.098 N 
BRANCH   6   9
HETATM    9  N1  UNL     1      47.381  16.545  36.472  1.00  0.00    -0.292 N 
HETATM   10  C7  UNL     1      48.060  16.888  35.365  1.00  0.00     0.122 A 
HETATM   11  C8  UNL     1      48.350  15.764  34.659  1.00  0.00     0.011 A 
HETATM   12  C15 UNL     1      47.818  14.723  35.385  1.00  0.00     0.121 A 
HETATM   13  N3  UNL     1      47.235  15.243  36.487  1.00  0.00    -0.283 N 
ATOM     14  H3  UNL     1      46.758  14.710  37.213  1.00  0.00     0.189 HD
BRANCH  11  15
HETATM   15  C9  UNL     1      49.091  15.642  33.362  1.00  0.00     0.055 C 
HETATM   16  C10 UNL     1      50.537  15.315  33.707  1.00  0.00     0.015 C 
HETATM   17  C11 UNL     1      51.260  14.884  32.449  1.00  0.00     0.035 C 
HETATM   18  C12 UNL     1      50.822  15.718  31.264  1.00  0.00     0.149 C 
HETATM   19  C13 UNL     1      50.288  17.062  31.704  1.00  0.00     0.176 C 
HETATM   20  C14 UNL     1      49.111  16.960  32.639  1.00  0.00     0.158 C 
BRANCH  18  21
HETATM   21  O1  UNL     1      49.933  15.015  30.453  1.00  0.00    -0.393 OA
ATOM     22  H1  UNL     1      49.033  15.181  30.705  1.00  0.00     0.210 HD
ENDBRANCH  18  21
BRANCH  19  23
HETATM   23  O2  UNL     1      51.356  17.757  32.275  1.00  0.00    -0.390 OA
ATOM     24  H2  UNL     1      51.449  18.570  31.791  1.00  0.00     0.210 HD
ENDBRANCH  19  23
BRANCH  20  25
HETATM   25  O3  UNL     1      47.966  17.175  31.882  1.00  0.00    -0.392 OA
ATOM     26  H3  UNL     1      47.939  16.642  31.096  1.00  0.00     0.210 HD
ENDBRANCH  20  25
ENDBRANCH  11  15
BRANCH  12  27
HETATM   27  N2  UNL     1      47.883  13.466  35.049  1.00  0.00    -0.384 N 
ATOM     28  H22 UNL     1      48.521  12.762  35.420  1.00  0.00     0.157 HD
ATOM     29  H21 UNL     1      47.292  13.016  34.352  1.00  0.00     0.157 HD
ENDBRANCH  12  27
ENDBRANCH   6   9
BRANCH   8  30
HETATM   30  C17 UNL     1      45.911  19.222  39.479  1.00  0.00     0.273 C 
BRANCH  30  31
HETATM   31  C18 UNL     1      46.183  19.837  40.810  1.00  0.00     0.032 C 
BRANCH  31  32
HETATM   32  C19 UNL     1      45.592  21.247  40.897  1.00  0.00     0.032 C 
BRANCH  32  33
HETATM   33  C20 UNL     1      44.852  21.498  39.621  1.00  0.00     0.272 C 
BRANCH  33  34
HETATM   34  N5  UNL     1      45.069  22.833  39.054  1.00  0.00     0.088 N 
BRANCH  34  35
HETATM   35  C21 UNL     1      46.469  23.049  39.020  1.00  0.00     0.268 C 
HETATM   36  C22 UNL     1      47.015  23.799  37.860  1.00  0.00     0.037 C 
ENDBRANCH  34  35
BRANCH  34  37
HETATM   37  C23 UNL     1      44.305  23.022  37.877  1.00  0.00     0.272 C 
BRANCH  37  38
HETATM   38  C24 UNL     1      43.978  21.856  37.029  1.00  0.00     0.026 C 
HETATM   39  C25 UNL     1      44.290  22.294  35.573  1.00  0.00     0.007 C 
ENDBRANCH  37  38
ENDBRANCH  34  37
ENDBRANCH  33  34
ENDBRANCH  32  33
ENDBRANCH  31  32
ENDBRANCH  30  31
ENDBRANCH   8  30
ENDBRANCH   3   5
TORSDOF 15
ENDMDL
MODEL 2
REMARK VINA RESULT: -6.416115992      6.097      8.386
REMARK  15 active torsions:
REMARK  status: ('A' for Active; 'I' for Inactive)
REMARK    1  A    between atoms: C3_3  and  C5_5 
REMARK    2  A    between atoms: C6_6  and  N1_7 
REMARK    3  A    between atoms: C8_9  and  C9_10 
REMARK    4  A    between atoms: C12_13  and  O1_14 
REMARK    5  A    between atoms: C13_16  and  O2_17 
REMARK    6  A    between atoms: C14_19  and  O3_20 
REMARK    7  A    between atoms: C15_22  and  N2_23 
REMARK    8  A    between atoms: N4_29  and  C17_30 
REMARK    9  A    between atoms: C17_30  and  C18_31 
REMARK   10  A    between atoms: C18_31  and  C19_32 
REMARK   11  A    between atoms: C19_32  and  C20_33 
REMARK   12  A    between atoms: C20_33  and  N5_34 
REMARK   13  A    between atoms: N5_34  and  C21_35 
REMARK   14  A    between atoms: N5_34  and  C23_37 
REMARK   15  A    between atoms: C23_37  and  C24_38 
ROOT
HETATM    1  C1  UNL     1      45.493  18.925  39.254  1.00  0.00     0.012 C 
HETATM    2  C2  UNL     1      45.610  20.088  39.571  1.00  0.00    -0.111 C 
HETATM    3  C3  UNL     1      45.725  21.525  39.950  1.00  0.00     0.095 C 
HETATM    4  C4  UNL     1      45.449  21.546  41.436  1.00  0.00     0.026 C 
ENDROOT
BRANCH   3   5
HETATM    5  C5  UNL     1      47.056  22.017  39.553  1.00  0.00     0.264 C 
HETATM    6  C6  UNL     1      47.240  23.001  38.480  1.00  0.00     0.170 C 
HETATM    7  C16 UNL     1      47.212  24.083  39.518  1.00  0.00     0.302 C 
HETATM    8  N4  UNL     1      47.539  23.046  40.493  1.00  0.00     0.098 N 
BRANCH   6   9
HETATM    9  N1  UNL     1      46.343  23.121  37.392  1.00  0.00    -0.292 N 
HETATM   10  C7  UNL     1      46.592  23.903  36.328  1.00  0.00     0.122 A 
HETATM   11  C8  UNL     1      45.560  23.797  35.451  1.00  0.00     0.011 A 
HETATM   12  C15 UNL     1      44.673  22.917  36.028  1.00  0.00     0.121 A 
HETATM   13  N3  UNL     1      45.189  22.527  37.214  1.00  0.00    -0.283 N 
ATOM     14  H3  UNL     1      44.752  21.875  37.864  1.00  0.00     0.189 HD
BRANCH  11  15
HETATM   15  C9  UNL     1      45.387  24.477  34.127  1.00  0.00     0.055 C 
HETATM   16  C10 UNL     1      46.782  24.791  33.606  1.00  0.00     0.015 C 
HETATM   17  C11 UNL     1      46.687  25.197  32.151  1.00  0.00     0.035 C 
HETATM   18  C12 UNL     1      45.462  26.054  31.911  1.00  0.00     0.149 C 
HETATM   19  C13 UNL     1      45.020  26.749  33.178  1.00  0.00     0.176 C 
HETATM   20  C14 UNL     1      44.687  25.796  34.297  1.00  0.00     0.158 C 
BRANCH  18  21
HETATM   21  O1  UNL     1      44.444  25.321  31.305  1.00  0.00    -0.393 OA
ATOM     22  H1  UNL     1      44.104  25.770  30.541  1.00  0.00     0.210 HD
ENDBRANCH  18  21
BRANCH  19  23
HETATM   23  O2  UNL     1      46.035  27.641  33.529  1.00  0.00    -0.390 OA
ATOM     24  H2  UNL     1      45.979  28.376  32.930  1.00  0.00     0.210 HD
ENDBRANCH  19  23
BRANCH  20  25
HETATM   25  O3  UNL     1      43.304  25.671  34.330  1.00  0.00    -0.392 OA
ATOM     26  H3  UNL     1      42.865  26.294  33.765  1.00  0.00     0.210 HD
ENDBRANCH  20  25
ENDBRANCH  11  15
BRANCH  12  27
HETATM   27  N2  UNL     1      43.543  22.541  35.500  1.00  0.00    -0.384 N 
ATOM     28  H22 UNL     1      42.611  22.884  35.731  1.00  0.00     0.157 HD
ATOM     29  H21 UNL     1      43.444  21.834  34.772  1.00  0.00     0.157 HD
ENDBRANCH  12  27
ENDBRANCH   6   9
BRANCH   8  30
HETATM   30  C17 UNL     1      48.950  22.984  40.791  1.00  0.00     0.273 C 
BRANCH  30  31
HETATM   31  C18 UNL     1      49.158  22.520  42.194  1.00  0.00     0.032 C 
BRANCH  31  32
HETATM   32  C19 UNL     1      50.451  23.096  42.778  1.00  0.00     0.032 C 
BRANCH  32  33
HETATM   33  C20 UNL     1      51.576  22.631  41.909  1.00  0.00     0.272 C 
BRANCH  33  34
HETATM   34  N5  UNL     1      52.522  23.688  41.535  1.00  0.00     0.088 N 
BRANCH  34  35
HETATM   35  C21 UNL     1      53.116  23.300  40.308  1.00  0.00     0.268 C 
HETATM   36  C22 UNL     1      52.580  22.084  39.644  1.00  0.00     0.037 C 
ENDBRANCH  34  35
BRANCH  34  37
HETATM   37  C23 UNL     1      51.933  24.970  41.650  1.00  0.00     0.272 C 
BRANCH  37  38
HETATM   38  C24 UNL     1      52.798  26.168  41.660  1.00  0.00     0.026 C 
HETATM   39  C25 UNL     1      52.442  26.934  42.963  1.00  0.00     0.007 C 
ENDBRANCH  37  38
ENDBRANCH  34  37
ENDBRANCH  33  34
ENDBRANCH  32  33
ENDBRANCH  31  32
ENDBRANCH  30  31
ENDBRANCH   8  30
ENDBRANCH   3   5
TORSDOF 15
ENDMDL
MODEL 3
REMARK VINA RESULT: -6.361528886      5.177      7.962
REMARK  15 active torsions:
REMARK  status: ('A' for Active; 'I' for Inactive)
REMARK    1  A    between atoms: C3_3  and  C5_5 
REMARK    2  A    between atoms: C6_6  and  N1_7 
REMARK    3  A    between atoms: C8_9  and  C9_10 
REMARK    4  A    between atoms: C12_13  and  O1_14 
REMARK    5  A    between atoms: C13_16  and  O2_17 
REMARK    6  A    between atoms: C14_19  and  O3_20 
REMARK    7  A    between atoms: C15_22  and  N2_23 
REMARK    8  A    between atoms: N4_29  and  C17_30 
REMARK    9  A    between atoms: C17_30  and  C18_31 
REMARK   10  A    between atoms: C18_31  and  C19_32 
REMARK   11  A    between atoms: C19_32  and  C20_33 
REMARK   12  A    between atoms: C20_33  and  N5_34 
REMARK   13  A    between atoms: N5_34  and  C21_35 
REMARK   14  A    between atoms: N5_34  and  C23_37 
REMARK   15  A    between atoms: C23_37  and  C24_38 
ROOT
HETATM    1  C1  UNL     1      45.400  18.945  39.190  1.00  0.00     0.012 C 
HETATM    2  C2  UNL     1      45.539  20.106  39.508  1.00  0.00    -0.111 C 
HETATM    3  C3  UNL     1      45.682  21.540  39.888  1.00  0.00     0.095 C 
HETATM    4  C4  UNL     1      45.413  21.564  41.375  1.00  0.00     0.026 C 
ENDROOT
BRANCH   3   5
HETATM    5  C5  UNL     1      47.020  22.008  39.485  1.00  0.00     0.264 C 
HETATM    6  C6  UNL     1      47.217  22.987  38.409  1.00  0.00     0.170 C 
HETATM    7  C16 UNL     1      47.211  24.071  39.445  1.00  0.00     0.302 C 
HETATM    8  N4  UNL     1      47.523  23.031  40.421  1.00  0.00     0.098 N 
BRANCH   6   9
HETATM    9  N1  UNL     1      46.318  23.121  37.325  1.00  0.00    -0.292 N 
HETATM   10  C7  UNL     1      46.568  23.909  36.266  1.00  0.00     0.122 A 
HETATM   11  C8  UNL     1      45.534  23.816  35.391  1.00  0.00     0.011 A 
HETATM   12  C15 UNL     1      44.644  22.936  35.963  1.00  0.00     0.121 A 
HETATM   13  N3  UNL     1      45.161  22.534  37.144  1.00  0.00    -0.283 N 
ATOM     14  H3  UNL     1      44.722  21.879  37.790  1.00  0.00     0.189 HD
BRANCH  11  15
HETATM   15  C9  UNL     1      45.363  24.506  34.072  1.00  0.00     0.055 C 
HETATM   16  C10 UNL     1      46.758  24.811  33.547  1.00  0.00     0.015 C 
HETATM   17  C11 UNL     1      46.660  25.229  32.095  1.00  0.00     0.035 C 
HETATM   18  C12 UNL     1      45.442  26.099  31.867  1.00  0.00     0.149 C 
HETATM   19  C13 UNL     1      45.013  26.789  33.141  1.00  0.00     0.176 C 
HETATM   20  C14 UNL     1      44.675  25.831  34.255  1.00  0.00     0.158 C 
BRANCH  18  21
HETATM   21  O1  UNL     1      44.415  25.380  31.260  1.00  0.00    -0.393 OA
ATOM     22  H1  UNL     1      44.167  25.767  30.430  1.00  0.00     0.210 HD
ENDBRANCH  18  21
BRANCH  19  23
HETATM   23  O2  UNL     1      46.038  27.669  33.494  1.00  0.00    -0.390 OA
ATOM     24  H2  UNL     1      46.517  27.265  34.209  1.00  0.00     0.210 HD
ENDBRANCH  19  23
BRANCH  20  25
HETATM   25  O3  UNL     1      43.291  25.718  34.293  1.00  0.00    -0.392 OA
ATOM     26  H3  UNL     1      42.854  26.561  34.304  1.00  0.00     0.210 HD
ENDBRANCH  20  25
ENDBRANCH  11  15
BRANCH  12  27
HETATM   27  N2  UNL     1      43.511  22.569  35.434  1.00  0.00    -0.384 N 
ATOM     28  H22 UNL     1      43.362  22.192  34.498  1.00  0.00     0.157 HD
ATOM     29  H21 UNL     1      42.605  22.617  35.900  1.00  0.00     0.157 HD
ENDBRANCH  12  27
ENDBRANCH   6   9
BRANCH   8  30
HETATM   30  C17 UNL     1      48.934  22.945  40.714  1.00  0.00     0.273 C 
BRANCH  30  31
HETATM   31  C18 UNL     1      49.141  22.701  42.171  1.00  0.00     0.032 C 
BRANCH  31  32
HETATM   32  C19 UNL     1      48.793  21.256  42.542  1.00  0.00     0.032 C 
BRANCH  32  33
HETATM   33  C20 UNL     1      49.565  20.364  41.622  1.00  0.00     0.272 C 
BRANCH  33  34
HETATM   34  N5  UNL     1      48.791  19.238  41.088  1.00  0.00     0.088 N 
BRANCH  34  35
HETATM   35  C21 UNL     1      49.522  18.710  39.995  1.00  0.00     0.268 C 
HETATM   36  C22 UNL     1      48.821  17.747  39.108  1.00  0.00     0.037 C 
ENDBRANCH  34  35
BRANCH  34  37
HETATM   37  C23 UNL     1      48.361  18.373  42.123  1.00  0.00     0.272 C 
BRANCH  37  38
HETATM   38  C24 UNL     1      46.918  18.269  42.430  1.00  0.00     0.026 C 
HETATM   39  C25 UNL     1      46.504  16.829  42.029  1.00  0.00     0.007 C 
ENDBRANCH  37  38
ENDBRANCH  34  37
ENDBRANCH  33  34
ENDBRANCH  32  33
ENDBRANCH  31  32
ENDBRANCH  30  31
ENDBRANCH   8  30
ENDBRANCH   3   5
TORSDOF 15
ENDMDL
MODEL 4
REMARK VINA RESULT: -6.286130558      5.561      8.065
REMARK  15 active torsions:
REMARK  status: ('A' for Active; 'I' for Inactive)
REMARK    1  A    between atoms: C3_3  and  C5_5 
REMARK    2  A    between atoms: C6_6  and  N1_7 
REMARK    3  A    between atoms: C8_9  and  C9_10 
REMARK    4  A    between atoms: C12_13  and  O1_14 
REMARK    5  A    between atoms: C13_16  and  O2_17 
REMARK    6  A    between atoms: C14_19  and  O3_20 
REMARK    7  A    between atoms: C15_22  and  N2_23 
REMARK    8  A    between atoms: N4_29  and  C17_30 
REMARK    9  A    between atoms: C17_30  and  C18_31 
REMARK   10  A    between atoms: C18_31  and  C19_32 
REMARK   11  A    between atoms: C19_32  and  C20_33 
REMARK   12  A    between atoms: C20_33  and  N5_34 
REMARK   13  A    between atoms: N5_34  and  C21_35 
REMARK   14  A    between atoms: N5_34  and  C23_37 
REMARK   15  A    between atoms: C23_37  and  C24_38 
ROOT
HETATM    1  C1  UNL     1      45.465  18.924  39.236  1.00  0.00     0.012 C 
HETATM    2  C2  UNL     1      45.594  20.083  39.565  1.00  0.00    -0.111 C 
HETATM    3  C3  UNL     1      45.724  21.513  39.960  1.00  0.00     0.095 C 
HETATM    4  C4  UNL     1      45.457  21.520  41.447  1.00  0.00     0.026 C 
ENDROOT
BRANCH   3   5
HETATM    5  C5  UNL     1      47.057  21.998  39.560  1.00  0.00     0.264 C 
HETATM    6  C6  UNL     1      47.245  22.984  38.489  1.00  0.00     0.170 C 
HETATM    7  C16 UNL     1      47.227  24.063  39.531  1.00  0.00     0.302 C 
HETATM    8  N4  UNL     1      47.550  23.022  40.502  1.00  0.00     0.098 N 
BRANCH   6   9
HETATM    9  N1  UNL     1      46.345  23.114  37.405  1.00  0.00    -0.292 N 
HETATM   10  C7  UNL     1      46.605  23.883  36.334  1.00  0.00     0.122 A 
HETATM   11  C8  UNL     1      45.567  23.790  35.462  1.00  0.00     0.011 A 
HETATM   12  C15 UNL     1      44.666  22.933  36.050  1.00  0.00     0.121 A 
HETATM   13  N3  UNL     1      45.179  22.541  37.236  1.00  0.00    -0.283 N 
ATOM     14  H3  UNL     1      44.733  21.903  37.894  1.00  0.00     0.189 HD
BRANCH  11  15
HETATM   15  C9  UNL     1      45.403  24.463  34.133  1.00  0.00     0.055 C 
HETATM   16  C10 UNL     1      46.800  24.789  33.626  1.00  0.00     0.015 C 
HETATM   17  C11 UNL     1      46.716  25.188  32.168  1.00  0.00     0.035 C 
HETATM   18  C12 UNL     1      45.485  26.032  31.912  1.00  0.00     0.149 C 
HETATM   19  C13 UNL     1      45.022  26.727  33.171  1.00  0.00     0.176 C 
HETATM   20  C14 UNL     1      44.687  25.775  34.290  1.00  0.00     0.158 C 
BRANCH  18  21
HETATM   21  O1  UNL     1      44.481  25.286  31.297  1.00  0.00    -0.393 OA
ATOM     22  H1  UNL     1      44.847  24.620  30.728  1.00  0.00     0.210 HD
ENDBRANCH  18  21
BRANCH  19  23
HETATM   23  O2  UNL     1      46.025  27.631  33.530  1.00  0.00    -0.390 OA
ATOM     24  H2  UNL     1      45.611  28.481  33.627  1.00  0.00     0.210 HD
ENDBRANCH  19  23
BRANCH  20  25
HETATM   25  O3  UNL     1      43.305  25.636  34.309  1.00  0.00    -0.392 OA
ATOM     26  H3  UNL     1      43.016  24.795  33.976  1.00  0.00     0.210 HD
ENDBRANCH  20  25
ENDBRANCH  11  15
BRANCH  12  27
HETATM   27  N2  UNL     1      43.526  22.574  35.529  1.00  0.00    -0.384 N 
ATOM     28  H22 UNL     1      42.839  23.177  35.077  1.00  0.00     0.157 HD
ATOM     29  H21 UNL     1      43.166  21.621  35.511  1.00  0.00     0.157 HD
ENDBRANCH  12  27
ENDBRANCH   6   9
BRANCH   8  30
HETATM   30  C17 UNL     1      48.961  22.949  40.796  1.00  0.00     0.273 C 
BRANCH  30  31
HETATM   31  C18 UNL     1      49.169  22.658  42.244  1.00  0.00     0.032 C 
BRANCH  31  32
HETATM   32  C19 UNL     1      48.946  21.173  42.544  1.00  0.00     0.032 C 
BRANCH  32  33
HETATM   33  C20 UNL     1      50.285  20.507  42.504  1.00  0.00     0.272 C 
BRANCH  33  34
HETATM   34  N5  UNL     1      50.468  19.596  41.369  1.00  0.00     0.088 N 
BRANCH  34  35
HETATM   35  C21 UNL     1      49.179  19.171  40.963  1.00  0.00     0.268 C 
HETATM   36  C22 UNL     1      49.066  18.500  39.643  1.00  0.00     0.037 C 
ENDBRANCH  34  35
BRANCH  34  37
HETATM   37  C23 UNL     1      51.356  20.141  40.411  1.00  0.00     0.272 C 
BRANCH  37  38
HETATM   38  C24 UNL     1      52.367  21.132  40.838  1.00  0.00     0.026 C 
HETATM   39  C25 UNL     1      52.510  22.126  39.654  1.00  0.00     0.007 C 
ENDBRANCH  37  38
ENDBRANCH  34  37
ENDBRANCH  33  34
ENDBRANCH  32  33
ENDBRANCH  31  32
ENDBRANCH  30  31
ENDBRANCH   8  30
ENDBRANCH   3   5
TORSDOF 15
ENDMDL
MODEL 5
REMARK VINA RESULT: -6.223369183      1.214      2.144
REMARK  15 active torsions:
REMARK  status: ('A' for Active; 'I' for Inactive)
REMARK    1  A    between atoms: C3_3  and  C5_5 
REMARK    2  A    between atoms: C6_6  and  N1_7 
REMARK    3  A    between atoms: C8_9  and  C9_10 
REMARK    4  A    between atoms: C12_13  and  O1_14 
REMARK    5  A    between atoms: C13_16  and  O2_17 
REMARK    6  A    between atoms: C14_19  and  O3_20 
REMARK    7  A    between atoms: C15_22  and  N2_23 
REMARK    8  A    between atoms: N4_29  and  C17_30 
REMARK    9  A    between atoms: C17_30  and  C18_31 
REMARK   10  A    between atoms: C18_31  and  C19_32 
REMARK   11  A    between atoms: C19_32  and  C20_33 
REMARK   12  A    between atoms: C20_33  and  N5_34 
REMARK   13  A    between atoms: N5_34  and  C21_35 
REMARK   14  A    between atoms: N5_34  and  C23_37 
REMARK   15  A    between atoms: C23_37  and  C24_38 
ROOT
HETATM    1  C1  UNL     1      51.513  17.723  38.362  1.00  0.00     0.012 C 
HETATM    2  C2  UNL     1      50.420  17.379  38.756  1.00  0.00    -0.111 C 
HETATM    3  C3  UNL     1      49.084  16.926  39.235  1.00  0.00     0.095 C 
HETATM    4  C4  UNL     1      49.214  16.892  40.741  1.00  0.00     0.026 C 
ENDROOT
BRANCH   3   5
HETATM    5  C5  UNL     1      48.056  17.846  38.716  1.00  0.00     0.264 C 
HETATM    6  C6  UNL     1      47.153  17.475  37.619  1.00  0.00     0.170 C 
HETATM    7  C16 UNL     1      46.154  17.026  38.643  1.00  0.00     0.302 C 
HETATM    8  N4  UNL     1      46.873  17.865  39.598  1.00  0.00     0.098 N 
BRANCH   6   9
HETATM    9  N1  UNL     1      47.514  16.546  36.614  1.00  0.00    -0.292 N 
HETATM   10  C7  UNL     1      48.188  16.900  35.507  1.00  0.00     0.122 A 
HETATM   11  C8  UNL     1      48.400  15.794  34.747  1.00  0.00     0.011 A 
HETATM   12  C15 UNL     1      47.825  14.753  35.440  1.00  0.00     0.121 A 
HETATM   13  N3  UNL     1      47.296  15.255  36.577  1.00  0.00    -0.283 N 
ATOM     14  H3  UNL     1      46.805  14.717  37.290  1.00  0.00     0.189 HD
BRANCH  11  15
HETATM   15  C9  UNL     1      49.106  15.688  33.429  1.00  0.00     0.055 C 
HETATM   16  C10 UNL     1      50.559  15.352  33.731  1.00  0.00     0.015 C 
HETATM   17  C11 UNL     1      51.247  14.937  32.448  1.00  0.00     0.035 C 
HETATM   18  C12 UNL     1      50.780  15.790  31.288  1.00  0.00     0.149 C 
HETATM   19  C13 UNL     1      50.264  17.129  31.762  1.00  0.00     0.176 C 
HETATM   20  C14 UNL     1      49.111  17.017  32.726  1.00  0.00     0.158 C 
BRANCH  18  21
HETATM   21  O1  UNL     1      49.868  15.102  30.490  1.00  0.00    -0.393 OA
ATOM     22  H1  UNL     1      49.720  15.555  29.668  1.00  0.00     0.210 HD
ENDBRANCH  18  21
BRANCH  19  23
HETATM   23  O2  UNL     1      51.349  17.813  32.314  1.00  0.00    -0.390 OA
ATOM     24  H2  UNL     1      51.143  17.970  33.228  1.00  0.00     0.210 HD
ENDBRANCH  19  23
BRANCH  20  25
HETATM   25  O3  UNL     1      47.948  17.248  32.002  1.00  0.00    -0.392 OA
ATOM     26  H3  UNL     1      47.706  16.513  31.451  1.00  0.00     0.210 HD
ENDBRANCH  20  25
ENDBRANCH  11  15
BRANCH  12  27
HETATM   27  N2  UNL     1      47.814  13.511  35.049  1.00  0.00    -0.384 N 
ATOM     28  H22 UNL     1      47.198  13.091  34.352  1.00  0.00     0.157 HD
ATOM     29  H21 UNL     1      48.431  12.780  35.401  1.00  0.00     0.157 HD
ENDBRANCH  12  27
ENDBRANCH   6   9
BRANCH   8  30
HETATM   30  C17 UNL     1      46.264  19.163  39.770  1.00  0.00     0.273 C 
BRANCH  30  31
HETATM   31  C18 UNL     1      46.343  19.580  41.200  1.00  0.00     0.032 C 
BRANCH  31  32
HETATM   32  C19 UNL     1      46.359  21.106  41.328  1.00  0.00     0.032 C 
BRANCH  32  33
HETATM   33  C20 UNL     1      46.487  21.666  39.946  1.00  0.00     0.272 C 
BRANCH  33  34
HETATM   34  N5  UNL     1      47.681  22.492  39.741  1.00  0.00     0.088 N 
BRANCH  34  35
HETATM   35  C21 UNL     1      47.242  23.740  39.230  1.00  0.00     0.268 C 
HETATM   36  C22 UNL     1      46.904  23.804  37.786  1.00  0.00     0.037 C 
ENDBRANCH  34  35
BRANCH  34  37
HETATM   37  C23 UNL     1      48.528  22.462  40.875  1.00  0.00     0.272 C 
BRANCH  37  38
HETATM   38  C24 UNL     1      49.960  22.136  40.703  1.00  0.00     0.026 C 
HETATM   39  C25 UNL     1      50.028  20.591  40.573  1.00  0.00     0.007 C 
ENDBRANCH  37  38
ENDBRANCH  34  37
ENDBRANCH  33  34
ENDBRANCH  32  33
ENDBRANCH  31  32
ENDBRANCH  30  31
ENDBRANCH   8  30
ENDBRANCH   3   5
TORSDOF 15
ENDMDL
