MODEL 1
REMARK VINA RESULT: -7.195711793      0.000      0.000
REMARK  14 active torsions:
REMARK  status: ('A' for Active; 'I' for Inactive)
REMARK    1  A    between atoms: N1_1  and  C1_4 
REMARK    2  A    between atoms: C3_8  and  C4_9 
REMARK    3  A    between atoms: C11_18  and  C12_19 
REMARK    4  A    between atoms: C12_19  and  C13_20 
REMARK    5  A    between atoms: C13_20  and  C14_21 
REMARK    6  A    between atoms: C14_21  and  C15_22 
REMARK    7  A    between atoms: C15_22  and  O1_23 
REMARK    8  A    between atoms: C16_25  and  C17_26 
REMARK    9  A    between atoms: C17_26  and  N4_27 
REMARK   10  A    between atoms: N4_27  and  C18_28 
REMARK   11  A    between atoms: N4_27  and  C20_32 
REMARK   12  A    between atoms: C18_28  and  C19_29 
REMARK   13  A    between atoms: C19_29  and  O2_30 
REMARK   14  A    between atoms: C20_32  and  C21_33 
ROOT
HETATM    1  C4  UNL     1      44.802  23.587  35.523  1.00  0.00    -0.007 A 
HETATM    2  C5  UNL     1      43.969  22.506  35.436  1.00  0.00     0.016 A 
HETATM    3  C6  UNL     1      43.905  21.593  36.481  1.00  0.00     0.038 A 
HETATM    4  C7  UNL     1      44.701  21.813  37.595  1.00  0.00     0.081 A 
HETATM    5  C8  UNL     1      45.541  22.908  37.677  1.00  0.00     0.013 A 
HETATM    6  C9  UNL     1      45.606  23.812  36.644  1.00  0.00     0.029 A 
HETATM    7  C10 UNL     1      46.425  23.213  38.835  1.00  0.00     0.097 C 
HETATM    8  N3  UNL     1      45.883  23.013  40.105  1.00  0.00    -0.391 N 
ATOM      9  H3  UNL     1      45.761  23.822  40.713  1.00  0.00     0.159 HD
HETATM   10  C11 UNL     1      45.500  21.755  40.585  1.00  0.00     0.112 C 
HETATM   11  C16 UNL     1      45.515  20.613  39.623  1.00  0.00     0.179 C 
HETATM   12  O3  UNL     1      44.544  20.828  38.570  1.00  0.00    -0.341 OA
ENDROOT
BRANCH  11  13
HETATM   13  C17 UNL     1      45.026  19.369  40.324  1.00  0.00     0.306 C 
BRANCH  13  14
HETATM   14  N4  UNL     1      45.629  18.170  39.776  1.00  0.00     0.093 N 
BRANCH  14  15
HETATM   15  C18 UNL     1      46.748  18.421  38.928  1.00  0.00     0.298 C 
BRANCH  15  16
HETATM   16  C19 UNL     1      46.686  17.763  37.576  1.00  0.00     0.194 C 
BRANCH  16  17
HETATM   17  O2  UNL     1      45.709  18.463  36.826  1.00  0.00    -0.399 OA
ATOM     18  H2  UNL     1      45.138  17.808  36.441  1.00  0.00     0.209 HD
ENDBRANCH  16  17
ENDBRANCH  15  16
ENDBRANCH  14  15
BRANCH  14  19
HETATM   19  C20 UNL     1      45.912  17.168  40.773  1.00  0.00     0.277 C 
BRANCH  19  20
HETATM   20  C21 UNL     1      47.215  17.331  41.476  1.00  0.00     0.014 C 
HETATM   21  C22 UNL     1      47.115  17.855  42.868  1.00  0.00     0.006 C 
HETATM   22  C23 UNL     1      46.725  16.680  43.701  1.00  0.00     0.000 C 
HETATM   23  C24 UNL     1      47.060  15.458  42.902  1.00  0.00     0.000 C 
HETATM   24  C25 UNL     1      47.782  15.926  41.680  1.00  0.00     0.006 C 
ENDBRANCH  19  20
ENDBRANCH  14  19
ENDBRANCH  13  14
ENDBRANCH  11  13
BRANCH  10  25
HETATM   25  C12 UNL     1      46.363  21.400  41.770  1.00  0.00     0.028 C 
BRANCH  25  26
HETATM   26  C13 UNL     1      47.802  21.158  41.379  1.00  0.00     0.004 C 
BRANCH  26  27
HETATM   27  C14 UNL     1      48.761  21.649  42.443  1.00  0.00     0.026 C 
BRANCH  27  28
HETATM   28  C15 UNL     1      49.607  22.741  41.820  1.00  0.00     0.164 C 
BRANCH  28  29
HETATM   29  O1  UNL     1      48.814  23.638  41.111  1.00  0.00    -0.401 OA
ATOM     30  H1  UNL     1      48.980  24.530  41.390  1.00  0.00     0.209 HD
ENDBRANCH  28  29
ENDBRANCH  27  28
ENDBRANCH  26  27
ENDBRANCH  25  26
ENDBRANCH  10  25
BRANCH   1  31
HETATM   31  C3  UNL     1      44.898  24.574  34.441  1.00  0.00     0.058 A 
HETATM   32  N2  UNL     1      44.158  25.721  34.516  1.00  0.00    -0.361 N 
HETATM   33  C2  UNL     1      44.183  26.672  33.576  1.00  0.00     0.136 A 
ATOM     34  H2  UNL     1      43.557  25.858  35.329  1.00  0.00     0.165 HD
HETATM   35  C1  UNL     1      44.979  26.517  32.471  1.00  0.00     0.114 A 
HETATM   36  N5  UNL     1      45.709  25.403  32.380  1.00  0.00    -0.349 N 
HETATM   37  C26 UNL     1      45.687  24.432  33.333  1.00  0.00     0.120 A 
ATOM     38  H5  UNL     1      46.307  25.274  31.563  1.00  0.00     0.167 HD
BRANCH  35  39
HETATM   39  N1  UNL     1      45.043  27.406  31.528  1.00  0.00    -0.384 N 
ATOM     40  H12 UNL     1      45.069  28.397  31.769  1.00  0.00     0.157 HD
ATOM     41  H11 UNL     1      45.068  27.155  30.539  1.00  0.00     0.157 HD
ENDBRANCH  35  39
ENDBRANCH   1  31
TORSDOF 14
ENDMDL
MODEL 2
REMARK VINA RESULT: -7.069808122      1.245      2.514
REMARK  14 active torsions:
REMARK  status: ('A' for Active; 'I' for Inactive)
REMARK    1  A    between atoms: N1_1  and  C1_4 
REMARK    2  A    between atoms: C3_8  and  C4_9 
REMARK    3  A    between atoms: C11_18  and  C12_19 
REMARK    4  A    between atoms: C12_19  and  C13_20 
REMARK    5  A    between atoms: C13_20  and  C14_21 
REMARK    6  A    between atoms: C14_21  and  C15_22 
REMARK    7  A    between atoms: C15_22  and  O1_23 
REMARK    8  A    between atoms: C16_25  and  C17_26 
REMARK    9  A    between atoms: C17_26  and  N4_27 
REMARK   10  A    between atoms: N4_27  and  C18_28 
REMARK   11  A    between atoms: N4_27  and  C20_32 
REMARK   12  A    between atoms: C18_28  and  C19_29 
REMARK   13  A    between atoms: C19_29  and  O2_30 
REMARK   14  A    between atoms: C20_32  and  C21_33 
ROOT
HETATM    1  C4  UNL     1      44.792  23.650  35.633  1.00  0.00    -0.007 A 
HETATM    2  C5  UNL     1      43.982  22.557  35.495  1.00  0.00     0.016 A 
HETATM    3  C6  UNL     1      43.938  21.593  36.495  1.00  0.00     0.038 A 
HETATM    4  C7  UNL     1      44.730  21.776  37.618  1.00  0.00     0.081 A 
HETATM    5  C8  UNL     1      45.548  22.884  37.753  1.00  0.00     0.013 A 
HETATM    6  C9  UNL     1      45.592  23.837  36.764  1.00  0.00     0.029 A 
HETATM    7  C10 UNL     1      46.426  23.151  38.924  1.00  0.00     0.097 C 
HETATM    8  N3  UNL     1      45.890  22.879  40.183  1.00  0.00    -0.391 N 
ATOM      9  H3  UNL     1      45.750  23.655  40.829  1.00  0.00     0.159 HD
HETATM   10  C11 UNL     1      45.534  21.591  40.602  1.00  0.00     0.112 C 
HETATM   11  C16 UNL     1      45.571  20.497  39.586  1.00  0.00     0.179 C 
HETATM   12  O3  UNL     1      44.595  20.742  38.544  1.00  0.00    -0.341 OA
ENDROOT
BRANCH  11  13
HETATM   13  C17 UNL     1      45.109  19.211  40.226  1.00  0.00     0.306 C 
BRANCH  13  14
HETATM   14  N4  UNL     1      45.963  18.095  39.870  1.00  0.00     0.093 N 
BRANCH  14  15
HETATM   15  C18 UNL     1      46.288  17.243  40.967  1.00  0.00     0.298 C 
BRANCH  15  16
HETATM   16  C19 UNL     1      46.231  15.768  40.669  1.00  0.00     0.194 C 
BRANCH  16  17
HETATM   17  O2  UNL     1      45.104  15.255  41.357  1.00  0.00    -0.399 OA
ATOM     18  H2  UNL     1      44.888  14.426  40.949  1.00  0.00     0.209 HD
ENDBRANCH  16  17
ENDBRANCH  15  16
ENDBRANCH  14  15
BRANCH  14  19
HETATM   19  C20 UNL     1      45.490  17.357  38.725  1.00  0.00     0.277 C 
BRANCH  19  20
HETATM   20  C21 UNL     1      46.187  17.669  37.446  1.00  0.00     0.014 C 
HETATM   21  C22 UNL     1      47.669  17.514  37.486  1.00  0.00     0.006 C 
HETATM   22  C23 UNL     1      47.914  16.048  37.352  1.00  0.00     0.000 C 
HETATM   23  C24 UNL     1      46.662  15.456  36.781  1.00  0.00     0.000 C 
HETATM   24  C25 UNL     1      45.759  16.598  36.443  1.00  0.00     0.006 C 
ENDBRANCH  19  20
ENDBRANCH  14  19
ENDBRANCH  13  14
ENDBRANCH  11  13
BRANCH  10  25
HETATM   25  C12 UNL     1      46.405  21.198  41.768  1.00  0.00     0.028 C 
BRANCH  25  26
HETATM   26  C13 UNL     1      47.867  21.134  41.395  1.00  0.00     0.004 C 
BRANCH  26  27
HETATM   27  C14 UNL     1      48.748  21.709  42.485  1.00  0.00     0.026 C 
BRANCH  27  28
HETATM   28  C15 UNL     1      49.602  22.788  41.851  1.00  0.00     0.164 C 
BRANCH  28  29
HETATM   29  O1  UNL     1      48.827  23.640  41.071  1.00  0.00    -0.401 OA
ATOM     30  H1  UNL     1      49.320  24.412  40.821  1.00  0.00     0.209 HD
ENDBRANCH  28  29
ENDBRANCH  27  28
ENDBRANCH  26  27
ENDBRANCH  25  26
ENDBRANCH  10  25
BRANCH   1  31
HETATM   31  C3  UNL     1      44.867  24.689  34.600  1.00  0.00     0.058 A 
HETATM   32  N2  UNL     1      43.927  25.682  34.583  1.00  0.00    -0.361 N 
HETATM   33  C2  UNL     1      43.918  26.667  33.678  1.00  0.00     0.136 A 
ATOM     34  H2  UNL     1      43.197  25.671  35.296  1.00  0.00     0.165 HD
HETATM   35  C1  UNL     1      44.884  26.709  32.707  1.00  0.00     0.114 A 
HETATM   36  N5  UNL     1      45.811  25.748  32.707  1.00  0.00    -0.349 N 
HETATM   37  C26 UNL     1      45.824  24.743  33.626  1.00  0.00     0.120 A 
ATOM     38  H5  UNL     1      46.536  25.766  31.991  1.00  0.00     0.167 HD
BRANCH  35  39
HETATM   39  N1  UNL     1      44.924  27.640  31.804  1.00  0.00    -0.384 N 
ATOM     40  H12 UNL     1      44.164  27.722  31.129  1.00  0.00     0.157 HD
ATOM     41  H11 UNL     1      45.695  28.305  31.737  1.00  0.00     0.157 HD
ENDBRANCH  35  39
ENDBRANCH   1  31
TORSDOF 14
ENDMDL
MODEL 3
REMARK VINA RESULT: -7.068067726      1.408      1.889
REMARK  14 active torsions:
REMARK  status: ('A' for Active; 'I' for Inactive)
REMARK    1  A    between atoms: N1_1  and  C1_4 
REMARK    2  A    between atoms: C3_8  and  C4_9 
REMARK    3  A    between atoms: C11_18  and  C12_19 
REMARK    4  A    between atoms: C12_19  and  C13_20 
REMARK    5  A    between atoms: C13_20  and  C14_21 
REMARK    6  A    between atoms: C14_21  and  C15_22 
REMARK    7  A    between atoms: C15_22  and  O1_23 
REMARK    8  A    between atoms: C16_25  and  C17_26 
REMARK    9  A    between atoms: C17_26  and  N4_27 
REMARK   10  A    between atoms: N4_27  and  C18_28 
REMARK   11  A    between atoms: N4_27  and  C20_32 
REMARK   12  A    between atoms: C18_28  and  C19_29 
REMARK   13  A    between atoms: C19_29  and  O2_30 
REMARK   14  A    between atoms: C20_32  and  C21_33 
ROOT
HETATM    1  C4  UNL     1      44.900  23.625  35.492  1.00  0.00    -0.007 A 
HETATM    2  C5  UNL     1      44.144  22.489  35.407  1.00  0.00     0.016 A 
HETATM    3  C6  UNL     1      44.150  21.570  36.449  1.00  0.00     0.038 A 
HETATM    4  C7  UNL     1      44.937  21.842  37.558  1.00  0.00     0.081 A 
HETATM    5  C8  UNL     1      45.699  22.993  37.639  1.00  0.00     0.013 A 
HETATM    6  C9  UNL     1      45.694  23.902  36.608  1.00  0.00     0.029 A 
HETATM    7  C10 UNL     1      46.568  23.354  38.792  1.00  0.00     0.097 C 
HETATM    8  N3  UNL     1      46.050  23.112  40.065  1.00  0.00    -0.391 N 
ATOM      9  H3  UNL     1      45.875  23.909  40.677  1.00  0.00     0.159 HD
HETATM   10  C11 UNL     1      45.759  21.829  40.543  1.00  0.00     0.112 C 
HETATM   11  C16 UNL     1      45.846  20.694  39.576  1.00  0.00     0.179 C 
HETATM   12  O3  UNL     1      44.855  20.844  38.530  1.00  0.00    -0.341 OA
ENDROOT
BRANCH  11  13
HETATM   13  C17 UNL     1      45.449  19.417  40.275  1.00  0.00     0.306 C 
BRANCH  13  14
HETATM   14  N4  UNL     1      46.256  18.293  39.842  1.00  0.00     0.093 N 
BRANCH  14  15
HETATM   15  C18 UNL     1      45.660  17.519  38.804  1.00  0.00     0.298 C 
BRANCH  15  16
HETATM   16  C19 UNL     1      46.379  17.560  37.482  1.00  0.00     0.194 C 
BRANCH  16  17
HETATM   17  O2  UNL     1      45.702  18.509  36.677  1.00  0.00    -0.399 OA
ATOM     18  H2  UNL     1      45.605  18.118  35.817  1.00  0.00     0.209 HD
ENDBRANCH  16  17
ENDBRANCH  15  16
ENDBRANCH  14  15
BRANCH  14  19
HETATM   19  C20 UNL     1      47.620  18.653  39.542  1.00  0.00     0.277 C 
BRANCH  19  20
HETATM   20  C21 UNL     1      48.626  18.178  40.532  1.00  0.00     0.014 C 
HETATM   21  C22 UNL     1      48.870  16.708  40.523  1.00  0.00     0.006 C 
HETATM   22  C23 UNL     1      49.782  16.470  39.365  1.00  0.00     0.000 C 
HETATM   23  C24 UNL     1      50.407  17.790  39.034  1.00  0.00     0.000 C 
HETATM   24  C25 UNL     1      49.974  18.751  40.094  1.00  0.00     0.006 C 
ENDBRANCH  19  20
ENDBRANCH  14  19
ENDBRANCH  13  14
ENDBRANCH  11  13
BRANCH  10  25
HETATM   25  C12 UNL     1      46.652  21.532  41.721  1.00  0.00     0.028 C 
BRANCH  25  26
HETATM   26  C13 UNL     1      48.113  21.743  41.399  1.00  0.00     0.004 C 
BRANCH  26  27
HETATM   27  C14 UNL     1      48.874  22.289  42.589  1.00  0.00     0.026 C 
BRANCH  27  28
HETATM   28  C15 UNL     1      49.991  21.312  42.897  1.00  0.00     0.164 C 
BRANCH  28  29
HETATM   29  O1  UNL     1      49.491  20.159  43.493  1.00  0.00    -0.401 OA
ATOM     30  H1  UNL     1      50.197  19.582  43.760  1.00  0.00     0.209 HD
ENDBRANCH  28  29
ENDBRANCH  27  28
ENDBRANCH  26  27
ENDBRANCH  25  26
ENDBRANCH  10  25
BRANCH   1  31
HETATM   31  C3  UNL     1      44.920  24.620  34.413  1.00  0.00     0.058 A 
HETATM   32  N2  UNL     1      44.131  25.732  34.516  1.00  0.00    -0.361 N 
HETATM   33  C2  UNL     1      44.086  26.687  33.580  1.00  0.00     0.136 A 
ATOM     34  H2  UNL     1      43.549  25.838  35.347  1.00  0.00     0.165 HD
HETATM   35  C1  UNL     1      44.855  26.573  32.452  1.00  0.00     0.114 A 
HETATM   36  N5  UNL     1      45.633  25.494  32.334  1.00  0.00    -0.349 N 
HETATM   37  C26 UNL     1      45.683  24.519  33.283  1.00  0.00     0.120 A 
ATOM     38  H5  UNL     1      46.212  25.395  31.500  1.00  0.00     0.167 HD
BRANCH  35  39
HETATM   39  N1  UNL     1      44.852  27.468  31.513  1.00  0.00    -0.384 N 
ATOM     40  H12 UNL     1      44.348  28.344  31.652  1.00  0.00     0.157 HD
ATOM     41  H11 UNL     1      45.338  27.333  30.626  1.00  0.00     0.157 HD
ENDBRANCH  35  39
ENDBRANCH   1  31
TORSDOF 14
ENDMDL
MODEL 4
REMARK VINA RESULT: -7.009000617      1.454      2.663
REMARK  14 active torsions:
REMARK  status: ('A' for Active; 'I' for Inactive)
REMARK    1  A    between atoms: N1_1  and  C1_4 
REMARK    2  A    between atoms: C3_8  and  C4_9 
REMARK    3  A    between atoms: C11_18  and  C12_19 
REMARK    4  A    between atoms: C12_19  and  C13_20 
REMARK    5  A    between atoms: C13_20  and  C14_21 
REMARK    6  A    between atoms: C14_21  and  C15_22 
REMARK    7  A    between atoms: C15_22  and  O1_23 
REMARK    8  A    between atoms: C16_25  and  C17_26 
REMARK    9  A    between atoms: C17_26  and  N4_27 
REMARK   10  A    between atoms: N4_27  and  C18_28 
REMARK   11  A    between atoms: N4_27  and  C20_32 
REMARK   12  A    between atoms: C18_28  and  C19_29 
REMARK   13  A    between atoms: C19_29  and  O2_30 
REMARK   14  A    between atoms: C20_32  and  C21_33 
ROOT
HETATM    1  C4  UNL     1      44.838  23.607  35.545  1.00  0.00    -0.007 A 
HETATM    2  C5  UNL     1      44.020  22.515  35.466  1.00  0.00     0.016 A 
HETATM    3  C6  UNL     1      43.977  21.601  36.511  1.00  0.00     0.038 A 
HETATM    4  C7  UNL     1      44.779  21.832  37.619  1.00  0.00     0.081 A 
HETATM    5  C8  UNL     1      45.604  22.939  37.694  1.00  0.00     0.013 A 
HETATM    6  C9  UNL     1      45.648  23.843  36.660  1.00  0.00     0.029 A 
HETATM    7  C10 UNL     1      46.493  23.256  38.845  1.00  0.00     0.097 C 
HETATM    8  N3  UNL     1      45.964  23.049  40.119  1.00  0.00    -0.391 N 
ATOM      9  H3  UNL     1      45.834  23.856  40.728  1.00  0.00     0.159 HD
HETATM   10  C11 UNL     1      45.602  21.785  40.602  1.00  0.00     0.112 C 
HETATM   11  C16 UNL     1      45.625  20.644  39.640  1.00  0.00     0.179 C 
HETATM   12  O3  UNL     1      44.643  20.845  38.595  1.00  0.00    -0.341 OA
ENDROOT
BRANCH  11  13
HETATM   13  C17 UNL     1      45.159  19.393  40.344  1.00  0.00     0.306 C 
BRANCH  13  14
HETATM   14  N4  UNL     1      45.972  18.244  39.997  1.00  0.00     0.093 N 
BRANCH  14  15
HETATM   15  C18 UNL     1      46.243  17.375  41.095  1.00  0.00     0.298 C 
BRANCH  15  16
HETATM   16  C19 UNL     1      47.564  17.604  41.780  1.00  0.00     0.194 C 
BRANCH  16  17
HETATM   17  O2  UNL     1      47.286  18.298  42.983  1.00  0.00    -0.399 OA
ATOM     18  H2  UNL     1      46.394  18.080  43.224  1.00  0.00     0.209 HD
ENDBRANCH  16  17
ENDBRANCH  15  16
ENDBRANCH  14  15
BRANCH  14  19
HETATM   19  C20 UNL     1      45.488  17.532  38.841  1.00  0.00     0.277 C 
BRANCH  19  20
HETATM   20  C21 UNL     1      46.259  17.769  37.589  1.00  0.00     0.014 C 
HETATM   21  C22 UNL     1      47.721  17.502  37.693  1.00  0.00     0.006 C 
HETATM   22  C23 UNL     1      47.856  16.019  37.586  1.00  0.00     0.000 C 
HETATM   23  C24 UNL     1      46.587  15.517  36.970  1.00  0.00     0.000 C 
HETATM   24  C25 UNL     1      45.790  16.720  36.581  1.00  0.00     0.006 C 
ENDBRANCH  19  20
ENDBRANCH  14  19
ENDBRANCH  13  14
ENDBRANCH  11  13
BRANCH  10  25
HETATM   25  C12 UNL     1      46.479  21.443  41.780  1.00  0.00     0.028 C 
BRANCH  25  26
HETATM   26  C13 UNL     1      47.946  21.440  41.421  1.00  0.00     0.004 C 
BRANCH  26  27
HETATM   27  C14 UNL     1      48.787  22.101  42.494  1.00  0.00     0.026 C 
BRANCH  27  28
HETATM   28  C15 UNL     1      49.916  21.150  42.831  1.00  0.00     0.164 C 
BRANCH  28  29
HETATM   29  O1  UNL     1      49.450  20.069  43.574  1.00  0.00    -0.401 OA
ATOM     30  H1  UNL     1      49.658  20.176  44.494  1.00  0.00     0.209 HD
ENDBRANCH  28  29
ENDBRANCH  27  28
ENDBRANCH  26  27
ENDBRANCH  25  26
ENDBRANCH  10  25
BRANCH   1  31
HETATM   31  C3  UNL     1      44.912  24.595  34.463  1.00  0.00     0.058 A 
HETATM   32  N2  UNL     1      44.191  25.752  34.564  1.00  0.00    -0.361 N 
HETATM   33  C2  UNL     1      44.198  26.705  33.626  1.00  0.00     0.136 A 
ATOM     34  H2  UNL     1      43.620  25.896  35.397  1.00  0.00     0.165 HD
HETATM   35  C1  UNL     1      44.955  26.541  32.495  1.00  0.00     0.114 A 
HETATM   36  N5  UNL     1      45.666  25.417  32.377  1.00  0.00    -0.349 N 
HETATM   37  C26 UNL     1      45.663  24.445  33.329  1.00  0.00     0.120 A 
ATOM     38  H5  UNL     1      46.235  25.282  31.541  1.00  0.00     0.167 HD
BRANCH  35  39
HETATM   39  N1  UNL     1      45.000  27.432  31.552  1.00  0.00    -0.384 N 
ATOM     40  H12 UNL     1      45.895  27.671  31.126  1.00  0.00     0.157 HD
ATOM     41  H11 UNL     1      44.167  27.911  31.211  1.00  0.00     0.157 HD
ENDBRANCH  35  39
ENDBRANCH   1  31
TORSDOF 14
ENDMDL
MODEL 5
REMARK VINA RESULT: -7.005057172      0.932      1.045
REMARK  14 active torsions:
REMARK  status: ('A' for Active; 'I' for Inactive)
REMARK    1  A    between atoms: N1_1  and  C1_4 
REMARK    2  A    between atoms: C3_8  and  C4_9 
REMARK    3  A    between atoms: C11_18  and  C12_19 
REMARK    4  A    between atoms: C12_19  and  C13_20 
REMARK    5  A    between atoms: C13_20  and  C14_21 
REMARK    6  A    between atoms: C14_21  and  C15_22 
REMARK    7  A    between atoms: C15_22  and  O1_23 
REMARK    8  A    between atoms: C16_25  and  C17_26 
REMARK    9  A    between atoms: C17_26  and  N4_27 
REMARK   10  A    between atoms: N4_27  and  C18_28 
REMARK   11  A    between atoms: N4_27  and  C20_32 
REMARK   12  A    between atoms: C18_28  and  C19_29 
REMARK   13  A    between atoms: C19_29  and  O2_30 
REMARK   14  A    between atoms: C20_32  and  C21_33 
ROOT
HETATM    1  C4  UNL     1      44.890  23.564  35.689  1.00  0.00    -0.007 A 
HETATM    2  C5  UNL     1      44.042  22.492  35.684  1.00  0.00     0.016 A 
HETATM    3  C6  UNL     1      44.021  21.617  36.763  1.00  0.00     0.038 A 
HETATM    4  C7  UNL     1      44.877  21.865  37.825  1.00  0.00     0.081 A 
HETATM    5  C8  UNL     1      45.733  22.951  37.825  1.00  0.00     0.013 A 
HETATM    6  C9  UNL     1      45.754  23.817  36.758  1.00  0.00     0.029 A 
HETATM    7  C10 UNL     1      46.680  23.284  38.924  1.00  0.00     0.097 C 
HETATM    8  N3  UNL     1      46.202  23.135  40.227  1.00  0.00    -0.391 N 
ATOM      9  H3  UNL     1      46.121  23.966  40.811  1.00  0.00     0.159 HD
HETATM   10  C11 UNL     1      45.830  21.900  40.770  1.00  0.00     0.112 C 
HETATM   11  C16 UNL     1      45.781  20.725  39.850  1.00  0.00     0.179 C 
HETATM   12  O3  UNL     1      44.759  20.916  38.841  1.00  0.00    -0.341 OA
ENDROOT
BRANCH  11  13
HETATM   13  C17 UNL     1      45.314  19.513  40.618  1.00  0.00     0.306 C 
BRANCH  13  14
HETATM   14  N4  UNL     1      45.793  18.281  40.023  1.00  0.00     0.093 N 
BRANCH  14  15
HETATM   15  C18 UNL     1      46.732  18.475  38.967  1.00  0.00     0.298 C 
BRANCH  15  16
HETATM   16  C19 UNL     1      46.431  17.723  37.698  1.00  0.00     0.194 C 
BRANCH  16  17
HETATM   17  O2  UNL     1      45.681  18.596  36.873  1.00  0.00    -0.399 OA
ATOM     18  H2  UNL     1      46.238  19.342  36.686  1.00  0.00     0.209 HD
ENDBRANCH  16  17
ENDBRANCH  15  16
ENDBRANCH  14  15
BRANCH  14  19
HETATM   19  C20 UNL     1      46.252  17.319  40.994  1.00  0.00     0.277 C 
BRANCH  19  20
HETATM   20  C21 UNL     1      46.761  17.905  42.266  1.00  0.00     0.014 C 
HETATM   21  C22 UNL     1      46.486  17.093  43.485  1.00  0.00     0.006 C 
HETATM   22  C23 UNL     1      47.519  16.016  43.478  1.00  0.00     0.000 C 
HETATM   23  C24 UNL     1      48.615  16.479  42.569  1.00  0.00     0.000 C 
HETATM   24  C25 UNL     1      48.287  17.884  42.177  1.00  0.00     0.006 C 
ENDBRANCH  19  20
ENDBRANCH  14  19
ENDBRANCH  13  14
ENDBRANCH  11  13
BRANCH  10  25
HETATM   25  C12 UNL     1      46.749  21.575  41.921  1.00  0.00     0.028 C 
BRANCH  25  26
HETATM   26  C13 UNL     1      48.198  21.520  41.498  1.00  0.00     0.004 C 
BRANCH  26  27
HETATM   27  C14 UNL     1      49.099  22.220  42.496  1.00  0.00     0.026 C 
BRANCH  27  28
HETATM   28  C15 UNL     1      50.200  21.248  42.868  1.00  0.00     0.164 C 
BRANCH  28  29
HETATM   29  O1  UNL     1      49.824  20.463  43.953  1.00  0.00    -0.401 OA
ATOM     30  H1  UNL     1      48.948  20.115  43.832  1.00  0.00     0.209 HD
ENDBRANCH  28  29
ENDBRANCH  27  28
ENDBRANCH  26  27
ENDBRANCH  25  26
ENDBRANCH  10  25
BRANCH   1  31
HETATM   31  C3  UNL     1      44.941  24.511  34.569  1.00  0.00     0.058 A 
HETATM   32  N2  UNL     1      44.185  25.648  34.621  1.00  0.00    -0.361 N 
HETATM   33  C2  UNL     1      44.169  26.564  33.647  1.00  0.00     0.136 A 
ATOM     34  H2  UNL     1      43.603  25.807  35.445  1.00  0.00     0.165 HD
HETATM   35  C1  UNL     1      44.938  26.381  32.527  1.00  0.00     0.114 A 
HETATM   36  N5  UNL     1      45.685  25.275  32.458  1.00  0.00    -0.349 N 
HETATM   37  C26 UNL     1      45.704  24.341  33.447  1.00  0.00     0.120 A 
ATOM     38  H5  UNL     1      46.263  25.126  31.631  1.00  0.00     0.167 HD
BRANCH  35  39
HETATM   39  N1  UNL     1      44.963  27.235  31.551  1.00  0.00    -0.384 N 
ATOM     40  H12 UNL     1      45.830  27.389  31.037  1.00  0.00     0.157 HD
ATOM     41  H11 UNL     1      44.140  27.768  31.269  1.00  0.00     0.157 HD
ENDBRANCH  35  39
ENDBRANCH   1  31
TORSDOF 14
ENDMDL
