MODEL 1
REMARK VINA RESULT: -10.010363668      0.000      0.000
REMARK  7 active torsions:
REMARK  status: ('A' for Active; 'I' for Inactive)
REMARK    1  A    between atoms: C2_2  and  C3_3 
REMARK       I    between atoms: C3_3  and  N1_5 
REMARK    2  A    between atoms: N1_5  and  C4_7 
REMARK    3  A    between atoms: C7_12  and  C8_13 
REMARK    4  A    between atoms: C11_18  and  N4_19 
REMARK    5  A    between atoms: N4_19  and  C13_21 
REMARK    6  A    between atoms: C13_21  and  C14_22 
REMARK    7  A    between atoms: C14_22  and  O2_23 
ROOT
HETATM    1  C8  UNL     1       6.657  -7.820  41.427  1.00  0.00     0.127 A 
HETATM    2  N3  UNL     1       7.690  -8.703  41.269  1.00  0.00    -0.338 N 
ATOM      3  H3  UNL     1       8.174  -9.186  42.025  1.00  0.00     0.167 HD
HETATM    4  C9  UNL     1       7.963  -8.832  39.980  1.00  0.00     0.080 A 
HETATM    5  C10 UNL     1       8.886  -9.571  39.232  1.00  0.00     0.065 A 
HETATM    6  C11 UNL     1       8.938  -9.501  37.865  1.00  0.00     0.054 A 
HETATM    7  C16 UNL     1       8.032  -8.658  37.189  1.00  0.00     0.033 A 
HETATM    8  C17 UNL     1       8.072  -8.569  35.705  1.00  0.00     0.070 C 
HETATM    9  N5  UNL     1       7.169  -7.972  37.941  1.00  0.00    -0.342 N 
ATOM     10  H5  UNL     1       6.507  -7.358  37.466  1.00  0.00     0.167 HD
HETATM   11  C18 UNL     1       7.112  -8.035  39.282  1.00  0.00     0.134 A 
HETATM   12  N6  UNL     1       6.322  -7.428  40.228  1.00  0.00    -0.326 N 
ATOM     13  H6  UNL     1       5.576  -6.763  40.022  1.00  0.00     0.169 HD
ENDROOT
BRANCH   1  14
HETATM   14  C7  UNL     1       6.093  -7.438  42.720  1.00  0.00     0.074 A 
HETATM   15  C5  UNL     1       5.065  -6.626  43.089  1.00  0.00     0.028 A 
HETATM   16  N2  UNL     1       4.798  -6.487  44.361  1.00  0.00    -0.339 N 
HETATM   17  C6  UNL     1       4.253  -5.905  42.019  1.00  0.00     0.070 C 
HETATM   18  C4  UNL     1       5.540  -7.141  45.250  1.00  0.00     0.152 A 
ATOM     19  H2  UNL     1       4.034  -5.885  44.666  1.00  0.00     0.168 HD
HETATM   20  S1  UNL     1       6.651  -7.984  44.279  1.00  0.00    -0.048 SA
BRANCH  18  21
HETATM   21  N1  UNL     1       5.451  -7.146  46.552  1.00  0.00    -0.307 N 
HETATM   22  C3  UNL     1       4.831  -6.028  47.163  1.00  0.00     0.223 C 
HETATM   23  O1  UNL     1       5.398  -4.895  47.100  1.00  0.00    -0.273 OA
ATOM     24  H1  UNL     1       5.812  -7.921  47.107  1.00  0.00     0.171 HD
BRANCH  22  25
HETATM   25  C2  UNL     1       3.537  -6.191  47.862  1.00  0.00     0.099 C 
HETATM   26  C1  UNL     1       2.772  -4.897  47.789  1.00  0.00     0.014 C 
ENDBRANCH  22  25
ENDBRANCH  18  21
ENDBRANCH   1  14
BRANCH   6  27
HETATM   27  N4  UNL     1       9.851 -10.280  37.134  1.00  0.00    -0.382 N 
HETATM   28  C12 UNL     1      11.232  -9.734  37.027  1.00  0.00     0.150 C 
BRANCH  27  29
HETATM   29  C13 UNL     1       9.670 -11.550  36.519  1.00  0.00     0.148 C 
BRANCH  29  30
HETATM   30  C14 UNL     1       9.901 -11.653  35.053  1.00  0.00     0.186 C 
BRANCH  30  31
HETATM   31  O2  UNL     1       9.856 -12.904  34.503  1.00  0.00    -0.394 OA
HETATM   32  C15 UNL     1       9.077 -13.733  35.341  1.00  0.00     0.201 C 
ENDBRANCH  30  31
ENDBRANCH  29  30
ENDBRANCH  27  29
ENDBRANCH   6  27
TORSDOF 7
ENDMDL
MODEL 2
REMARK VINA RESULT: -9.870855696      1.223      1.824
REMARK  7 active torsions:
REMARK  status: ('A' for Active; 'I' for Inactive)
REMARK    1  A    between atoms: C2_2  and  C3_3 
REMARK       I    between atoms: C3_3  and  N1_5 
REMARK    2  A    between atoms: N1_5  and  C4_7 
REMARK    3  A    between atoms: C7_12  and  C8_13 
REMARK    4  A    between atoms: C11_18  and  N4_19 
REMARK    5  A    between atoms: N4_19  and  C13_21 
REMARK    6  A    between atoms: C13_21  and  C14_22 
REMARK    7  A    between atoms: C14_22  and  O2_23 
ROOT
HETATM    1  C8  UNL     1       6.672  -7.844  41.395  1.00  0.00     0.127 A 
HETATM    2  N3  UNL     1       7.710  -8.720  41.238  1.00  0.00    -0.338 N 
ATOM      3  H3  UNL     1       8.203  -9.192  41.996  1.00  0.00     0.167 HD
HETATM    4  C9  UNL     1       7.977  -8.858  39.949  1.00  0.00     0.080 A 
HETATM    5  C10 UNL     1       8.901  -9.596  39.202  1.00  0.00     0.065 A 
HETATM    6  C11 UNL     1       8.944  -9.538  37.834  1.00  0.00     0.054 A 
HETATM    7  C16 UNL     1       8.027  -8.708  37.156  1.00  0.00     0.033 A 
HETATM    8  C17 UNL     1       8.057  -8.632  35.672  1.00  0.00     0.070 C 
HETATM    9  N5  UNL     1       7.163  -8.022  37.908  1.00  0.00    -0.342 N 
ATOM     10  H5  UNL     1       6.493  -7.418  37.431  1.00  0.00     0.167 HD
HETATM   11  C18 UNL     1       7.115  -8.074  39.250  1.00  0.00     0.134 A 
HETATM   12  N6  UNL     1       6.326  -7.465  40.195  1.00  0.00    -0.326 N 
ATOM     13  H6  UNL     1       5.574  -6.807  39.988  1.00  0.00     0.169 HD
ENDROOT
BRANCH   1  14
HETATM   14  C7  UNL     1       6.113  -7.455  42.688  1.00  0.00     0.074 A 
HETATM   15  C5  UNL     1       5.089  -6.637  43.057  1.00  0.00     0.028 A 
HETATM   16  N2  UNL     1       4.827  -6.492  44.329  1.00  0.00    -0.339 N 
HETATM   17  C6  UNL     1       4.278  -5.916  41.987  1.00  0.00     0.070 C 
HETATM   18  C4  UNL     1       5.568  -7.147  45.218  1.00  0.00     0.152 A 
ATOM     19  H2  UNL     1       4.066  -5.886  44.635  1.00  0.00     0.168 HD
HETATM   20  S1  UNL     1       6.673  -7.998  44.248  1.00  0.00    -0.048 SA
BRANCH  18  21
HETATM   21  N1  UNL     1       5.482  -7.147  46.521  1.00  0.00    -0.307 N 
HETATM   22  C3  UNL     1       4.852  -6.033  47.129  1.00  0.00     0.223 C 
HETATM   23  O1  UNL     1       5.407  -4.894  47.059  1.00  0.00    -0.273 OA
ATOM     24  H1  UNL     1       5.852  -7.916  47.079  1.00  0.00     0.171 HD
BRANCH  22  25
HETATM   25  C2  UNL     1       3.562  -6.206  47.832  1.00  0.00     0.099 C 
HETATM   26  C1  UNL     1       2.788  -4.917  47.765  1.00  0.00     0.014 C 
ENDBRANCH  22  25
ENDBRANCH  18  21
ENDBRANCH   1  14
BRANCH   6  27
HETATM   27  N4  UNL     1       9.858 -10.316  37.104  1.00  0.00    -0.382 N 
HETATM   28  C12 UNL     1       9.524 -11.760  36.974  1.00  0.00     0.150 C 
BRANCH  27  29
HETATM   29  C13 UNL     1      11.040  -9.920  36.416  1.00  0.00     0.148 C 
BRANCH  29  30
HETATM   30  C14 UNL     1      12.349 -10.323  36.994  1.00  0.00     0.186 C 
BRANCH  30  31
HETATM   31  O2  UNL     1      13.430  -9.543  36.689  1.00  0.00    -0.394 OA
HETATM   32  C15 UNL     1      13.740  -9.723  35.323  1.00  0.00     0.201 C 
ENDBRANCH  30  31
ENDBRANCH  29  30
ENDBRANCH  27  29
ENDBRANCH   6  27
TORSDOF 7
ENDMDL
MODEL 3
REMARK VINA RESULT: -9.630447873      1.267      1.587
REMARK  7 active torsions:
REMARK  status: ('A' for Active; 'I' for Inactive)
REMARK    1  A    between atoms: C2_2  and  C3_3 
REMARK       I    between atoms: C3_3  and  N1_5 
REMARK    2  A    between atoms: N1_5  and  C4_7 
REMARK    3  A    between atoms: C7_12  and  C8_13 
REMARK    4  A    between atoms: C11_18  and  N4_19 
REMARK    5  A    between atoms: N4_19  and  C13_21 
REMARK    6  A    between atoms: C13_21  and  C14_22 
REMARK    7  A    between atoms: C14_22  and  O2_23 
ROOT
HETATM    1  C8  UNL     1       6.306  -7.630  41.244  1.00  0.00     0.127 A 
HETATM    2  N3  UNL     1       7.293  -8.575  41.216  1.00  0.00    -0.338 N 
ATOM      3  H3  UNL     1       7.662  -9.067  42.029  1.00  0.00     0.167 HD
HETATM    4  C9  UNL     1       7.696  -8.752  39.967  1.00  0.00     0.080 A 
HETATM    5  C10 UNL     1       8.647  -9.562  39.338  1.00  0.00     0.065 A 
HETATM    6  C11 UNL     1       8.851  -9.529  37.984  1.00  0.00     0.054 A 
HETATM    7  C16 UNL     1       8.076  -8.651  37.198  1.00  0.00     0.033 A 
HETATM    8  C17 UNL     1       8.281  -8.602  35.726  1.00  0.00     0.070 C 
HETATM    9  N5  UNL     1       7.180  -7.897  37.838  1.00  0.00    -0.342 N 
ATOM     10  H5  UNL     1       6.612  -7.258  37.282  1.00  0.00     0.167 HD
HETATM   11  C18 UNL     1       6.975  -7.924  39.166  1.00  0.00     0.134 A 
HETATM   12  N6  UNL     1       6.126  -7.248  40.009  1.00  0.00    -0.326 N 
ATOM     13  H6  UNL     1       5.449  -6.546  39.710  1.00  0.00     0.169 HD
ENDROOT
BRANCH   1  14
HETATM   14  C7  UNL     1       5.630  -7.183  42.460  1.00  0.00     0.074 A 
HETATM   15  C5  UNL     1       5.863  -7.379  43.787  1.00  0.00     0.028 A 
HETATM   16  N2  UNL     1       5.057  -6.828  44.656  1.00  0.00    -0.339 N 
HETATM   17  C6  UNL     1       7.051  -8.228  44.225  1.00  0.00     0.070 C 
HETATM   18  C4  UNL     1       4.037  -6.097  44.215  1.00  0.00     0.152 A 
ATOM     19  H2  UNL     1       5.207  -6.958  45.656  1.00  0.00     0.168 HD
HETATM   20  S1  UNL     1       4.206  -6.177  42.526  1.00  0.00    -0.048 SA
BRANCH  18  21
HETATM   21  N1  UNL     1       3.121  -5.466  44.899  1.00  0.00    -0.307 N 
HETATM   22  C3  UNL     1       3.120  -5.649  46.303  1.00  0.00     0.223 C 
HETATM   23  O1  UNL     1       2.839  -6.791  46.779  1.00  0.00    -0.273 OA
ATOM     24  H1  UNL     1       2.434  -4.867  44.441  1.00  0.00     0.171 HD
BRANCH  22  25
HETATM   25  C2  UNL     1       3.445  -4.514  47.196  1.00  0.00     0.099 C 
HETATM   26  C1  UNL     1       2.225  -4.159  48.003  1.00  0.00     0.014 C 
ENDBRANCH  22  25
ENDBRANCH  18  21
ENDBRANCH   1  14
BRANCH   6  27
HETATM   27  N4  UNL     1       9.788 -10.378  37.371  1.00  0.00    -0.382 N 
HETATM   28  C12 UNL     1      11.219 -10.036  37.596  1.00  0.00     0.150 C 
BRANCH  27  29
HETATM   29  C13 UNL     1       9.578 -11.559  36.605  1.00  0.00     0.148 C 
BRANCH  29  30
HETATM   30  C14 UNL     1      10.187 -11.627  35.251  1.00  0.00     0.186 C 
BRANCH  30  31
HETATM   31  O2  UNL     1       9.790 -12.655  34.441  1.00  0.00    -0.394 OA
HETATM   32  C15 UNL     1       9.482 -13.770  35.252  1.00  0.00     0.201 C 
ENDBRANCH  30  31
ENDBRANCH  29  30
ENDBRANCH  27  29
ENDBRANCH   6  27
TORSDOF 7
ENDMDL
MODEL 4
REMARK VINA RESULT: -9.601806820      1.792      2.540
REMARK  7 active torsions:
REMARK  status: ('A' for Active; 'I' for Inactive)
REMARK    1  A    between atoms: C2_2  and  C3_3 
REMARK       I    between atoms: C3_3  and  N1_5 
REMARK    2  A    between atoms: N1_5  and  C4_7 
REMARK    3  A    between atoms: C7_12  and  C8_13 
REMARK    4  A    between atoms: C11_18  and  N4_19 
REMARK    5  A    between atoms: N4_19  and  C13_21 
REMARK    6  A    between atoms: C13_21  and  C14_22 
REMARK    7  A    between atoms: C14_22  and  O2_23 
ROOT
HETATM    1  C8  UNL     1       6.394  -7.704  41.172  1.00  0.00     0.127 A 
HETATM    2  N3  UNL     1       7.451  -8.570  41.219  1.00  0.00    -0.338 N 
ATOM      3  H3  UNL     1       7.844  -8.975  42.069  1.00  0.00     0.167 HD
HETATM    4  C9  UNL     1       7.885  -8.801  39.990  1.00  0.00     0.080 A 
HETATM    5  C10 UNL     1       8.906  -9.576  39.429  1.00  0.00     0.065 A 
HETATM    6  C11 UNL     1       9.127  -9.621  38.078  1.00  0.00     0.054 A 
HETATM    7  C16 UNL     1       8.300  -8.862  37.224  1.00  0.00     0.033 A 
HETATM    8  C17 UNL     1       8.523  -8.898  35.755  1.00  0.00     0.070 C 
HETATM    9  N5  UNL     1       7.339  -8.137  37.802  1.00  0.00    -0.342 N 
ATOM     10  H5  UNL     1       6.733  -7.583  37.197  1.00  0.00     0.167 HD
HETATM   11  C18 UNL     1       7.116  -8.088  39.126  1.00  0.00     0.134 A 
HETATM   12  N6  UNL     1       6.205  -7.424  39.911  1.00  0.00    -0.326 N 
ATOM     13  H6  UNL     1       5.481  -6.798  39.557  1.00  0.00     0.169 HD
ENDROOT
BRANCH   1  14
HETATM   14  C7  UNL     1       5.667  -7.229  42.347  1.00  0.00     0.074 A 
HETATM   15  C5  UNL     1       5.838  -7.400  43.686  1.00  0.00     0.028 A 
HETATM   16  N2  UNL     1       4.998  -6.827  44.506  1.00  0.00    -0.339 N 
HETATM   17  C6  UNL     1       6.998  -8.249  44.195  1.00  0.00     0.070 C 
HETATM   18  C4  UNL     1       4.005  -6.097  44.005  1.00  0.00     0.152 A 
ATOM     19  H2  UNL     1       5.101  -6.938  45.515  1.00  0.00     0.168 HD
HETATM   20  S1  UNL     1       4.250  -6.212  42.328  1.00  0.00    -0.048 SA
BRANCH  18  21
HETATM   21  N1  UNL     1       3.064  -5.446  44.634  1.00  0.00    -0.307 N 
HETATM   22  C3  UNL     1       3.064  -5.513  46.049  1.00  0.00     0.223 C 
HETATM   23  O1  UNL     1       2.822  -6.622  46.615  1.00  0.00    -0.273 OA
ATOM     24  H1  UNL     1       2.358  -4.911  44.128  1.00  0.00     0.171 HD
BRANCH  22  25
HETATM   25  C2  UNL     1       3.344  -4.299  46.846  1.00  0.00     0.099 C 
HETATM   26  C1  UNL     1       2.312  -4.177  47.936  1.00  0.00     0.014 C 
ENDBRANCH  22  25
ENDBRANCH  18  21
ENDBRANCH   1  14
BRANCH   6  27
HETATM   27  N4  UNL     1      10.136 -10.435  37.535  1.00  0.00    -0.382 N 
HETATM   28  C12 UNL     1       9.673 -11.662  36.831  1.00  0.00     0.150 C 
BRANCH  27  29
HETATM   29  C13 UNL     1      11.545 -10.237  37.508  1.00  0.00     0.148 C 
BRANCH  29  30
HETATM   30  C14 UNL     1      12.138  -9.619  36.293  1.00  0.00     0.186 C 
BRANCH  30  31
HETATM   31  O2  UNL     1      13.443  -9.220  36.372  1.00  0.00    -0.394 OA
HETATM   32  C15 UNL     1      13.724  -8.388  35.265  1.00  0.00     0.201 C 
ENDBRANCH  30  31
ENDBRANCH  29  30
ENDBRANCH  27  29
ENDBRANCH   6  27
TORSDOF 7
ENDMDL
MODEL 5
REMARK VINA RESULT: -9.003433099      1.522      2.275
REMARK  7 active torsions:
REMARK  status: ('A' for Active; 'I' for Inactive)
REMARK    1  A    between atoms: C2_2  and  C3_3 
REMARK       I    between atoms: C3_3  and  N1_5 
REMARK    2  A    between atoms: N1_5  and  C4_7 
REMARK    3  A    between atoms: C7_12  and  C8_13 
REMARK    4  A    between atoms: C11_18  and  N4_19 
REMARK    5  A    between atoms: N4_19  and  C13_21 
REMARK    6  A    between atoms: C13_21  and  C14_22 
REMARK    7  A    between atoms: C14_22  and  O2_23 
ROOT
HETATM    1  C8  UNL     1       6.568  -8.052  41.505  1.00  0.00     0.127 A 
HETATM    2  N3  UNL     1       6.154  -8.181  40.208  1.00  0.00    -0.338 N 
ATOM      3  H3  UNL     1       5.236  -7.914  39.853  1.00  0.00     0.167 HD
HETATM    4  C9  UNL     1       7.131  -8.705  39.485  1.00  0.00     0.080 A 
HETATM    5  C10 UNL     1       7.290  -9.058  38.141  1.00  0.00     0.065 A 
HETATM    6  C11 UNL     1       8.453  -9.600  37.662  1.00  0.00     0.054 A 
HETATM    7  C16 UNL     1       9.526  -9.809  38.552  1.00  0.00     0.033 A 
HETATM    8  C17 UNL     1      10.798 -10.395  38.052  1.00  0.00     0.070 C 
HETATM    9  N5  UNL     1       9.333  -9.457  39.826  1.00  0.00    -0.342 N 
ATOM     10  H5  UNL     1      10.101  -9.602  40.481  1.00  0.00     0.167 HD
HETATM   11  C18 UNL     1       8.194  -8.926  40.303  1.00  0.00     0.134 A 
HETATM   12  N6  UNL     1       7.793  -8.503  41.546  1.00  0.00    -0.326 N 
ATOM     13  H6  UNL     1       8.371  -8.537  42.386  1.00  0.00     0.169 HD
ENDROOT
BRANCH   1  14
HETATM   14  C7  UNL     1       5.743  -7.508  42.581  1.00  0.00     0.074 A 
HETATM   15  C5  UNL     1       5.748  -7.663  43.934  1.00  0.00     0.028 A 
HETATM   16  N2  UNL     1       4.858  -7.022  44.643  1.00  0.00    -0.339 N 
HETATM   17  C6  UNL     1       6.784  -8.573  44.584  1.00  0.00     0.070 C 
HETATM   18  C4  UNL     1       3.978  -6.241  44.021  1.00  0.00     0.152 A 
ATOM     19  H2  UNL     1       4.837  -7.119  45.658  1.00  0.00     0.168 HD
HETATM   20  S1  UNL     1       4.406  -6.405  42.385  1.00  0.00    -0.048 SA
BRANCH  18  21
HETATM   21  N1  UNL     1       3.015  -5.520  44.528  1.00  0.00    -0.307 N 
HETATM   22  C3  UNL     1       2.929  -5.454  45.941  1.00  0.00     0.223 C 
HETATM   23  O1  UNL     1       2.631  -6.502  46.592  1.00  0.00    -0.273 OA
ATOM     24  H1  UNL     1       2.352  -5.025  43.932  1.00  0.00     0.171 HD
BRANCH  22  25
HETATM   25  C2  UNL     1       3.187  -4.175  46.638  1.00  0.00     0.099 C 
HETATM   26  C1  UNL     1       2.385  -4.140  47.911  1.00  0.00     0.014 C 
ENDBRANCH  22  25
ENDBRANCH  18  21
ENDBRANCH   1  14
BRANCH   6  27
HETATM   27  N4  UNL     1       8.600  -9.914  36.301  1.00  0.00    -0.382 N 
HETATM   28  C12 UNL     1       8.526  -8.765  35.357  1.00  0.00     0.150 C 
BRANCH  27  29
HETATM   29  C13 UNL     1       8.865 -11.168  35.682  1.00  0.00     0.148 C 
BRANCH  29  30
HETATM   30  C14 UNL     1      10.047 -11.266  34.785  1.00  0.00     0.186 C 
BRANCH  30  31
HETATM   31  O2  UNL     1      10.681 -12.476  34.722  1.00  0.00    -0.394 OA
HETATM   32  C15 UNL     1       9.766 -13.481  35.106  1.00  0.00     0.201 C 
ENDBRANCH  30  31
ENDBRANCH  29  30
ENDBRANCH  27  29
ENDBRANCH   6  27
TORSDOF 7
ENDMDL
