MODEL 1
REMARK VINA RESULT: -9.100709342      0.000      0.000
REMARK  7 active torsions:
REMARK  status: ('A' for Active; 'I' for Inactive)
REMARK    1  A    between atoms: C2_2  and  C3_3 
REMARK    2  A    between atoms: C3_3  and  N1_4 
REMARK    3  A    between atoms: N1_4  and  C4_6 
REMARK    4  A    between atoms: C6_10  and  C7_11 
REMARK    5  A    between atoms: C9_15  and  C10_16 
REMARK    6  A    between atoms: C13_19  and  S1_20 
REMARK    7  A    between atoms: N5_25  and  C16_27 
ROOT
HETATM    1  C7  UNL     1       6.580  -8.169  39.736  1.00  0.00     0.087 A 
HETATM    2  N3  UNL     1       5.332  -8.136  39.689  1.00  0.00    -0.358 N 
ATOM      3  H3  UNL     1       4.858  -8.356  38.813  1.00  0.00     0.166 HD
HETATM    4  C8  UNL     1       4.587  -7.810  40.797  1.00  0.00     0.108 A 
HETATM    5  C9  UNL     1       5.211  -7.531  41.909  1.00  0.00     0.036 A 
HETATM    6  S2  UNL     1       6.966  -7.725  41.424  1.00  0.00    -0.069 SA
ENDROOT
BRANCH   1   7
HETATM    7  C6  UNL     1       7.585  -8.479  38.721  1.00  0.00     0.030 A 
HETATM    8  C5  UNL     1       7.540  -7.893  37.478  1.00  0.00     0.121 A 
HETATM    9  N2  UNL     1       8.446  -8.151  36.515  1.00  0.00    -0.201 N 
HETATM   10  C4  UNL     1       9.441  -9.017  36.774  1.00  0.00     0.677 A 
ATOM     11  H2  UNL     1       8.378  -7.696  35.605  1.00  0.00     0.183 HD
HETATM   12  N6  UNL     1       9.524  -9.623  37.996  1.00  0.00    -0.201 N 
HETATM   13  C18 UNL     1       8.613  -9.364  38.964  1.00  0.00     0.121 A 
ATOM     14  H6  UNL     1      10.283 -10.280  38.181  1.00  0.00     0.183 HD
BRANCH  10  15
HETATM   15  N1  UNL     1      10.295  -9.254  35.849  1.00  0.00    -0.226 N 
ATOM     16  H1  UNL     1      10.641  -8.487  35.274  1.00  0.00     0.177 HD
BRANCH  15  17
HETATM   17  C3  UNL     1      10.771 -10.592  35.612  1.00  0.00     0.137 C 
BRANCH  17  18
HETATM   18  C2  UNL     1       9.680 -11.303  34.820  1.00  0.00     0.016 C 
HETATM   19  C1  UNL     1       9.714 -12.782  35.145  1.00  0.00     0.006 C 
ENDBRANCH  17  18
ENDBRANCH  15  17
ENDBRANCH  10  15
ENDBRANCH   1   7
BRANCH   5  20
HETATM   20  C10 UNL     1       4.797  -7.154  43.248  1.00  0.00     0.026 A 
HETATM   21  C11 UNL     1       3.823  -6.157  43.419  1.00  0.00     0.019 A 
HETATM   22  C12 UNL     1       3.407  -5.776  44.678  1.00  0.00     0.038 A 
HETATM   23  C13 UNL     1       3.928  -6.354  45.815  1.00  0.00     0.070 A 
HETATM   24  N4  UNL     1       4.853  -7.301  45.632  1.00  0.00    -0.337 N 
HETATM   25  C15 UNL     1       5.289  -7.704  44.393  1.00  0.00     0.113 A 
ATOM     26  H4  UNL     1       5.257  -7.748  46.456  1.00  0.00     0.168 HD
HETATM   27  N5  UNL     1       6.172  -8.614  44.358  1.00  0.00    -0.376 N 
ATOM     28  H5  UNL     1       6.480  -8.898  43.428  1.00  0.00     0.161 HD
BRANCH  23  29
HETATM   29  S1  UNL     1       3.403  -5.875  47.452  1.00  0.00    -0.117 SA
HETATM   30  C14 UNL     1       2.598  -4.245  47.371  1.00  0.00     0.097 C 
ENDBRANCH  23  29
BRANCH  27  31
HETATM   31  C16 UNL     1       6.789  -9.291  45.450  1.00  0.00     0.116 C 
HETATM   32  C17 UNL     1       6.268 -10.668  45.696  1.00  0.00     0.026 C 
ENDBRANCH  27  31
ENDBRANCH   5  20
TORSDOF 7
ENDMDL
MODEL 2
REMARK VINA RESULT: -8.965378436      0.841      1.433
REMARK  7 active torsions:
REMARK  status: ('A' for Active; 'I' for Inactive)
REMARK    1  A    between atoms: C2_2  and  C3_3 
REMARK    2  A    between atoms: C3_3  and  N1_4 
REMARK    3  A    between atoms: N1_4  and  C4_6 
REMARK    4  A    between atoms: C6_10  and  C7_11 
REMARK    5  A    between atoms: C9_15  and  C10_16 
REMARK    6  A    between atoms: C13_19  and  S1_20 
REMARK    7  A    between atoms: N5_25  and  C16_27 
ROOT
HETATM    1  C7  UNL     1       6.359  -8.179  39.516  1.00  0.00     0.087 A 
HETATM    2  N3  UNL     1       5.118  -8.117  39.643  1.00  0.00    -0.358 N 
ATOM      3  H3  UNL     1       4.521  -8.377  38.859  1.00  0.00     0.166 HD
HETATM    4  C8  UNL     1       4.543  -7.705  40.822  1.00  0.00     0.108 A 
HETATM    5  C9  UNL     1       5.323  -7.375  41.815  1.00  0.00     0.036 A 
HETATM    6  S2  UNL     1       6.988  -7.643  41.101  1.00  0.00    -0.069 SA
ENDROOT
BRANCH   1   7
HETATM    7  C6  UNL     1       7.204  -8.576  38.392  1.00  0.00     0.030 A 
HETATM    8  C5  UNL     1       7.592  -9.884  38.225  1.00  0.00     0.121 A 
HETATM    9  N2  UNL     1       8.369 -10.292  37.204  1.00  0.00    -0.201 N 
HETATM   10  C4  UNL     1       8.787  -9.386  36.303  1.00  0.00     0.677 A 
ATOM     11  H2  UNL     1       8.636 -11.272  37.115  1.00  0.00     0.183 HD
HETATM   12  N6  UNL     1       8.427  -8.074  36.429  1.00  0.00    -0.201 N 
HETATM   13  C18 UNL     1       7.645  -7.664  37.456  1.00  0.00     0.121 A 
ATOM     14  H6  UNL     1       8.751  -7.394  35.741  1.00  0.00     0.183 HD
BRANCH  10  15
HETATM   15  N1  UNL     1       9.528  -9.787  35.338  1.00  0.00    -0.226 N 
ATOM     16  H1  UNL     1       9.335  -9.468  34.388  1.00  0.00     0.177 HD
BRANCH  15  17
HETATM   17  C3  UNL     1      10.630 -10.682  35.578  1.00  0.00     0.137 C 
BRANCH  17  18
HETATM   18  C2  UNL     1      11.724  -9.849  36.239  1.00  0.00     0.016 C 
HETATM   19  C1  UNL     1      12.121 -10.501  37.546  1.00  0.00     0.006 C 
ENDBRANCH  17  18
ENDBRANCH  15  17
ENDBRANCH  10  15
ENDBRANCH   1   7
BRANCH   5  20
HETATM   20  C10 UNL     1       5.110  -6.907  43.172  1.00  0.00     0.026 A 
HETATM   21  C11 UNL     1       4.277  -5.799  43.402  1.00  0.00     0.019 A 
HETATM   22  C12 UNL     1       4.054  -5.330  44.680  1.00  0.00     0.038 A 
HETATM   23  C13 UNL     1       4.635  -5.924  45.778  1.00  0.00     0.070 A 
HETATM   24  N4  UNL     1       5.424  -6.977  45.540  1.00  0.00    -0.337 N 
HETATM   25  C15 UNL     1       5.668  -7.469  44.280  1.00  0.00     0.113 A 
ATOM     26  H4  UNL     1       5.868  -7.437  46.334  1.00  0.00     0.168 HD
HETATM   27  N5  UNL     1       6.435  -8.475  44.191  1.00  0.00    -0.376 N 
ATOM     28  H5  UNL     1       6.601  -8.825  43.248  1.00  0.00     0.161 HD
BRANCH  23  29
HETATM   29  S1  UNL     1       4.358  -5.331  47.439  1.00  0.00    -0.117 SA
HETATM   30  C14 UNL     1       2.784  -4.422  47.497  1.00  0.00     0.097 C 
ENDBRANCH  23  29
BRANCH  27  31
HETATM   31  C16 UNL     1       7.095  -9.181  45.239  1.00  0.00     0.116 C 
HETATM   32  C17 UNL     1       6.392 -10.417  45.690  1.00  0.00     0.026 C 
ENDBRANCH  27  31
ENDBRANCH   5  20
TORSDOF 7
ENDMDL
MODEL 3
REMARK VINA RESULT: -8.628060891      2.953     10.016
REMARK  7 active torsions:
REMARK  status: ('A' for Active; 'I' for Inactive)
REMARK    1  A    between atoms: C2_2  and  C3_3 
REMARK    2  A    between atoms: C3_3  and  N1_4 
REMARK    3  A    between atoms: N1_4  and  C4_6 
REMARK    4  A    between atoms: C6_10  and  C7_11 
REMARK    5  A    between atoms: C9_15  and  C10_16 
REMARK    6  A    between atoms: C13_19  and  S1_20 
REMARK    7  A    between atoms: N5_25  and  C16_27 
ROOT
HETATM    1  C7  UNL     1       7.111  -8.228  39.103  1.00  0.00     0.087 A 
HETATM    2  N3  UNL     1       7.199  -7.956  37.888  1.00  0.00    -0.358 N 
ATOM      3  H3  UNL     1       6.561  -7.273  37.480  1.00  0.00     0.166 HD
HETATM    4  C8  UNL     1       8.141  -8.560  37.089  1.00  0.00     0.108 A 
HETATM    5  C9  UNL     1       8.949  -9.433  37.628  1.00  0.00     0.036 A 
HETATM    6  S2  UNL     1       8.393  -9.444  39.373  1.00  0.00    -0.069 SA
ENDROOT
BRANCH   1   7
HETATM    7  C6  UNL     1       6.216  -7.737  40.149  1.00  0.00     0.030 A 
HETATM    8  C5  UNL     1       6.714  -7.168  41.297  1.00  0.00     0.121 A 
HETATM    9  N2  UNL     1       5.925  -6.702  42.284  1.00  0.00    -0.201 N 
HETATM   10  C4  UNL     1       4.591  -6.793  42.147  1.00  0.00     0.677 A 
ATOM     11  H2  UNL     1       6.333  -6.287  43.121  1.00  0.00     0.183 HD
HETATM   12  N6  UNL     1       4.052  -7.352  41.023  1.00  0.00    -0.201 N 
HETATM   13  C18 UNL     1       4.845  -7.820  40.030  1.00  0.00     0.121 A 
ATOM     14  H6  UNL     1       3.038  -7.418  40.930  1.00  0.00     0.183 HD
BRANCH  10  15
HETATM   15  N1  UNL     1       3.852  -6.349  43.094  1.00  0.00    -0.226 N 
ATOM     16  H1  UNL     1       2.874  -6.126  42.909  1.00  0.00     0.177 HD
BRANCH  15  17
HETATM   17  C3  UNL     1       4.386  -6.160  44.418  1.00  0.00     0.137 C 
BRANCH  17  18
HETATM   18  C2  UNL     1       3.840  -4.826  44.916  1.00  0.00     0.016 C 
HETATM   19  C1  UNL     1       4.501  -4.480  46.234  1.00  0.00     0.006 C 
ENDBRANCH  17  18
ENDBRANCH  15  17
ENDBRANCH  10  15
ENDBRANCH   1   7
BRANCH   5  20
HETATM   20  C10 UNL     1      10.039 -10.258  37.139  1.00  0.00     0.026 A 
HETATM   21  C11 UNL     1      11.340  -9.731  37.089  1.00  0.00     0.019 A 
HETATM   22  C12 UNL     1      12.397 -10.488  36.630  1.00  0.00     0.038 A 
HETATM   23  C13 UNL     1      12.223 -11.787  36.204  1.00  0.00     0.070 A 
HETATM   24  N4  UNL     1      10.978 -12.271  36.259  1.00  0.00    -0.337 N 
HETATM   25  C15 UNL     1       9.903 -11.543  36.710  1.00  0.00     0.113 A 
ATOM     26  H4  UNL     1      10.818 -13.230  35.949  1.00  0.00     0.168 HD
HETATM   27  N5  UNL     1       8.774 -12.121  36.713  1.00  0.00    -0.376 N 
ATOM     28  H5  UNL     1       7.991 -11.563  37.053  1.00  0.00     0.161 HD
BRANCH  23  29
HETATM   29  S1  UNL     1      13.578 -12.783  35.606  1.00  0.00    -0.117 SA
HETATM   30  C14 UNL     1      14.811 -11.705  34.814  1.00  0.00     0.097 C 
ENDBRANCH  23  29
BRANCH  27  31
HETATM   31  C16 UNL     1       8.457 -13.448  36.302  1.00  0.00     0.116 C 
HETATM   32  C17 UNL     1       7.359 -14.090  37.082  1.00  0.00     0.026 C 
ENDBRANCH  27  31
ENDBRANCH   5  20
TORSDOF 7
ENDMDL
MODEL 4
REMARK VINA RESULT: -8.619270520      2.954     10.011
REMARK  7 active torsions:
REMARK  status: ('A' for Active; 'I' for Inactive)
REMARK    1  A    between atoms: C2_2  and  C3_3 
REMARK    2  A    between atoms: C3_3  and  N1_4 
REMARK    3  A    between atoms: N1_4  and  C4_6 
REMARK    4  A    between atoms: C6_10  and  C7_11 
REMARK    5  A    between atoms: C9_15  and  C10_16 
REMARK    6  A    between atoms: C13_19  and  S1_20 
REMARK    7  A    between atoms: N5_25  and  C16_27 
ROOT
HETATM    1  C7  UNL     1       7.156  -8.303  39.116  1.00  0.00     0.087 A 
HETATM    2  N3  UNL     1       7.183  -8.096  37.885  1.00  0.00    -0.358 N 
ATOM      3  H3  UNL     1       6.503  -7.462  37.468  1.00  0.00     0.166 HD
HETATM    4  C8  UNL     1       8.114  -8.710  37.080  1.00  0.00     0.108 A 
HETATM    5  C9  UNL     1       8.978  -9.520  37.630  1.00  0.00     0.036 A 
HETATM    6  S2  UNL     1       8.495  -9.454  39.396  1.00  0.00    -0.069 SA
ENDROOT
BRANCH   1   7
HETATM    7  C6  UNL     1       6.287  -7.787  40.171  1.00  0.00     0.030 A 
HETATM    8  C5  UNL     1       4.918  -7.868  40.064  1.00  0.00     0.121 A 
HETATM    9  N2  UNL     1       4.082  -7.406  41.012  1.00  0.00    -0.201 N 
HETATM   10  C4  UNL     1       4.600  -6.840  42.117  1.00  0.00     0.677 A 
ATOM     11  H2  UNL     1       3.072  -7.485  40.896  1.00  0.00     0.183 HD
HETATM   12  N6  UNL     1       5.954  -6.737  42.265  1.00  0.00    -0.201 N 
HETATM   13  C18 UNL     1       6.795  -7.202  41.311  1.00  0.00     0.121 A 
ATOM     14  H6  UNL     1       6.337  -6.305  43.106  1.00  0.00     0.183 HD
BRANCH  10  15
HETATM   15  N1  UNL     1       3.793  -6.403  43.010  1.00  0.00    -0.226 N 
ATOM     16  H1  UNL     1       2.847  -6.132  42.745  1.00  0.00     0.177 HD
BRANCH  15  17
HETATM   17  C3  UNL     1       4.207  -6.291  44.385  1.00  0.00     0.137 C 
BRANCH  17  18
HETATM   18  C2  UNL     1       3.776  -4.906  44.853  1.00  0.00     0.016 C 
HETATM   19  C1  UNL     1       4.503  -4.568  46.137  1.00  0.00     0.006 C 
ENDBRANCH  17  18
ENDBRANCH  15  17
ENDBRANCH  10  15
ENDBRANCH   1   7
BRANCH   5  20
HETATM   20  C10 UNL     1      10.077 -10.330  37.140  1.00  0.00     0.026 A 
HETATM   21  C11 UNL     1      11.381  -9.807  37.143  1.00  0.00     0.019 A 
HETATM   22  C12 UNL     1      12.448 -10.551  36.684  1.00  0.00     0.038 A 
HETATM   23  C13 UNL     1      12.281 -11.832  36.207  1.00  0.00     0.070 A 
HETATM   24  N4  UNL     1      11.034 -12.313  36.212  1.00  0.00    -0.337 N 
HETATM   25  C15 UNL     1       9.949 -11.599  36.662  1.00  0.00     0.113 A 
ATOM     26  H4  UNL     1      10.880 -13.260  35.864  1.00  0.00     0.168 HD
HETATM   27  N5  UNL     1       8.819 -12.173  36.614  1.00  0.00    -0.376 N 
ATOM     28  H5  UNL     1       8.029 -11.625  36.953  1.00  0.00     0.161 HD
BRANCH  23  29
HETATM   29  S1  UNL     1      13.649 -12.810  35.609  1.00  0.00    -0.117 SA
HETATM   30  C14 UNL     1      13.106 -14.533  35.393  1.00  0.00     0.097 C 
ENDBRANCH  23  29
BRANCH  27  31
HETATM   31  C16 UNL     1       8.510 -13.483  36.148  1.00  0.00     0.116 C 
HETATM   32  C17 UNL     1       7.347 -14.123  36.829  1.00  0.00     0.026 C 
ENDBRANCH  27  31
ENDBRANCH   5  20
TORSDOF 7
ENDMDL
MODEL 5
REMARK VINA RESULT: -8.411665113      3.845     10.458
REMARK  7 active torsions:
REMARK  status: ('A' for Active; 'I' for Inactive)
REMARK    1  A    between atoms: C2_2  and  C3_3 
REMARK    2  A    between atoms: C3_3  and  N1_4 
REMARK    3  A    between atoms: N1_4  and  C4_6 
REMARK    4  A    between atoms: C6_10  and  C7_11 
REMARK    5  A    between atoms: C9_15  and  C10_16 
REMARK    6  A    between atoms: C13_19  and  S1_20 
REMARK    7  A    between atoms: N5_25  and  C16_27 
ROOT
HETATM    1  C7  UNL     1       8.133  -9.826  37.934  1.00  0.00     0.087 A 
HETATM    2  N3  UNL     1       8.415  -9.642  36.732  1.00  0.00    -0.358 N 
ATOM      3  H3  UNL     1       8.303  -8.712  36.328  1.00  0.00     0.166 HD
HETATM    4  C8  UNL     1       8.874 -10.670  35.943  1.00  0.00     0.108 A 
HETATM    5  C9  UNL     1       9.011 -11.854  36.477  1.00  0.00     0.036 A 
HETATM    6  S2  UNL     1       8.472 -11.560  38.203  1.00  0.00    -0.069 SA
ENDROOT
BRANCH   1   7
HETATM    7  C6  UNL     1       7.637  -8.919  38.968  1.00  0.00     0.030 A 
HETATM    8  C5  UNL     1       8.161  -8.940  40.239  1.00  0.00     0.121 A 
HETATM    9  N2  UNL     1       7.734  -8.122  41.219  1.00  0.00    -0.201 N 
HETATM   10  C4  UNL     1       6.751  -7.244  40.951  1.00  0.00     0.677 A 
ATOM     11  H2  UNL     1       8.148  -8.169  42.150  1.00  0.00     0.183 HD
HETATM   12  N6  UNL     1       6.200  -7.189  39.702  1.00  0.00    -0.201 N 
HETATM   13  C18 UNL     1       6.631  -8.011  38.716  1.00  0.00     0.121 A 
ATOM     14  H6  UNL     1       5.455  -6.520  39.510  1.00  0.00     0.183 HD
BRANCH  10  15
HETATM   15  N1  UNL     1       6.352  -6.474  41.894  1.00  0.00    -0.226 N 
ATOM     16  H1  UNL     1       6.719  -5.524  41.958  1.00  0.00     0.177 HD
BRANCH  15  17
HETATM   17  C3  UNL     1       5.392  -6.933  42.864  1.00  0.00     0.137 C 
BRANCH  17  18
HETATM   18  C2  UNL     1       4.082  -6.223  42.542  1.00  0.00     0.016 C 
HETATM   19  C1  UNL     1       3.564  -5.547  43.794  1.00  0.00     0.006 C 
ENDBRANCH  17  18
ENDBRANCH  15  17
ENDBRANCH  10  15
ENDBRANCH   1   7
BRANCH   5  20
HETATM   20  C10 UNL     1       9.450 -13.150  35.995  1.00  0.00     0.026 A 
HETATM   21  C11 UNL     1      10.803 -13.349  35.672  1.00  0.00     0.019 A 
HETATM   22  C12 UNL     1      11.253 -14.568  35.212  1.00  0.00     0.038 A 
HETATM   23  C13 UNL     1      10.399 -15.637  35.049  1.00  0.00     0.070 A 
HETATM   24  N4  UNL     1       9.116 -15.429  35.361  1.00  0.00    -0.337 N 
HETATM   25  C15 UNL     1       8.635 -14.227  35.822  1.00  0.00     0.113 A 
ATOM     26  H4  UNL     1       8.460 -16.203  35.251  1.00  0.00     0.168 HD
HETATM   27  N5  UNL     1       7.396 -14.162  36.084  1.00  0.00    -0.376 N 
ATOM     28  H5  UNL     1       7.061 -13.262  36.425  1.00  0.00     0.161 HD
BRANCH  23  29
HETATM   29  S1  UNL     1      10.963 -17.223  34.454  1.00  0.00    -0.117 SA
HETATM   30  C14 UNL     1       9.688 -18.477  34.789  1.00  0.00     0.097 C 
ENDBRANCH  23  29
BRANCH  27  31
HETATM   31  C16 UNL     1       6.411 -15.185  35.962  1.00  0.00     0.116 C 
HETATM   32  C17 UNL     1       5.126 -14.891  36.662  1.00  0.00     0.026 C 
ENDBRANCH  27  31
ENDBRANCH   5  20
TORSDOF 7
ENDMDL
