MODEL 1
REMARK VINA RESULT: -8.688663042      0.000      0.000
REMARK  7 active torsions:
REMARK  status: ('A' for Active; 'I' for Inactive)
REMARK    1  A    between atoms: C5_7  and  N2_8 
REMARK    2  A    between atoms: N2_8  and  C6_10 
REMARK    3  A    between atoms: C6_10  and  C7_11 
REMARK    4  A    between atoms: C7_11  and  C8_12 
REMARK    5  A    between atoms: C8_12  and  N3_13 
REMARK    6  A    between atoms: N6_24  and  C14_25 
REMARK    7  A    between atoms: C14_25  and  C15_26 
ROOT
HETATM    1  C1  UNL     1       6.908  -9.869  45.711  1.00  0.00     0.089 C 
HETATM    2  C2  UNL     1       6.444  -8.874  44.675  1.00  0.00     0.080 A 
HETATM    3  N1  UNL     1       5.329  -8.166  44.909  1.00  0.00    -0.330 N 
ATOM      4  H1  UNL     1       4.809  -8.304  45.775  1.00  0.00     0.168 HD
HETATM    5  C3  UNL     1       4.902  -7.275  43.997  1.00  0.00     0.136 A 
HETATM    6  C4  UNL     1       5.619  -7.087  42.807  1.00  0.00     0.118 A 
HETATM    7  C5  UNL     1       6.766  -7.812  42.562  1.00  0.00     0.137 A 
HETATM    8  N4  UNL     1       7.132  -8.700  43.546  1.00  0.00    -0.330 N 
ATOM      9  H4  UNL     1       7.975  -9.256  43.404  1.00  0.00     0.168 HD
HETATM   10  N5  UNL     1       4.915  -6.093  42.044  1.00  0.00    -0.368 N 
ATOM     11  H5  UNL     1       5.302  -5.461  41.342  1.00  0.00     0.161 HD
HETATM   12  C13 UNL     1       3.528  -6.182  42.489  1.00  0.00     0.248 C 
HETATM   13  N6  UNL     1       3.782  -6.387  43.929  1.00  0.00    -0.349 N 
ENDROOT
BRANCH   7  14
HETATM   14  N2  UNL     1       7.461  -7.715  41.556  1.00  0.00    -0.354 N 
ATOM     15  H2  UNL     1       8.082  -6.917  41.685  1.00  0.00     0.166 HD
BRANCH  14  16
HETATM   16  C6  UNL     1       7.730  -8.260  40.323  1.00  0.00     0.064 C 
BRANCH  16  17
HETATM   17  C7  UNL     1       6.539  -8.410  39.393  1.00  0.00     0.074 C 
BRANCH  17  18
HETATM   18  C8  UNL     1       7.011  -8.612  37.975  1.00  0.00     0.277 C 
BRANCH  18  19
HETATM   19  N3  UNL     1       8.197  -9.398  37.861  1.00  0.00     0.090 N 
HETATM   20  C9  UNL     1       8.877  -9.050  36.624  1.00  0.00     0.282 C 
HETATM   21  C10 UNL     1      10.359  -9.341  36.680  1.00  0.00     0.104 C 
HETATM   22  S1  UNL     1      10.518 -11.133  36.941  1.00  0.00    -0.166 SA
HETATM   23  C11 UNL     1       9.256 -11.589  38.170  1.00  0.00     0.104 C 
HETATM   24  C12 UNL     1       7.982 -10.802  37.991  1.00  0.00     0.282 C 
ENDBRANCH  18  19
ENDBRANCH  17  18
ENDBRANCH  16  17
ENDBRANCH  14  16
ENDBRANCH   7  14
BRANCH  13  25
HETATM   25  C14 UNL     1       3.028  -5.814  44.991  1.00  0.00     0.130 C 
BRANCH  25  26
HETATM   26  C15 UNL     1       3.688  -4.748  45.788  1.00  0.00     0.004 C 
HETATM   27  C16 UNL     1       2.802  -4.014  46.747  1.00  0.00     0.006 C 
HETATM   28  C17 UNL     1       3.055  -4.394  48.202  1.00  0.00     0.000 C 
HETATM   29  C18 UNL     1       3.200  -5.872  48.335  1.00  0.00     0.000 C 
HETATM   30  C19 UNL     1       4.347  -6.361  47.506  1.00  0.00     0.000 C 
HETATM   31  C20 UNL     1       4.859  -5.358  46.529  1.00  0.00     0.006 C 
ENDBRANCH  25  26
ENDBRANCH  13  25
TORSDOF 7
ENDMDL
MODEL 2
REMARK VINA RESULT: -8.309033166      2.822      8.625
REMARK  7 active torsions:
REMARK  status: ('A' for Active; 'I' for Inactive)
REMARK    1  A    between atoms: C5_7  and  N2_8 
REMARK    2  A    between atoms: N2_8  and  C6_10 
REMARK    3  A    between atoms: C6_10  and  C7_11 
REMARK    4  A    between atoms: C7_11  and  C8_12 
REMARK    5  A    between atoms: C8_12  and  N3_13 
REMARK    6  A    between atoms: N6_24  and  C14_25 
REMARK    7  A    between atoms: C14_25  and  C15_26 
ROOT
HETATM    1  C1  UNL     1       6.995  -8.929  45.070  1.00  0.00     0.089 C 
HETATM    2  C2  UNL     1       6.392  -8.354  43.811  1.00  0.00     0.080 A 
HETATM    3  N1  UNL     1       7.052  -8.496  42.652  1.00  0.00    -0.330 N 
ATOM      4  H1  UNL     1       7.946  -8.986  42.629  1.00  0.00     0.168 HD
HETATM    5  C3  UNL     1       6.529  -7.990  41.521  1.00  0.00     0.136 A 
HETATM    6  C4  UNL     1       5.299  -7.317  41.554  1.00  0.00     0.118 A 
HETATM    7  C5  UNL     1       4.617  -7.169  42.743  1.00  0.00     0.137 A 
HETATM    8  N4  UNL     1       5.222  -7.716  43.850  1.00  0.00    -0.330 N 
ATOM      9  H4  UNL     1       4.749  -7.628  44.750  1.00  0.00     0.168 HD
HETATM   10  N5  UNL     1       5.016  -6.890  40.212  1.00  0.00    -0.368 N 
ATOM     11  H5  UNL     1       4.101  -6.712  39.797  1.00  0.00     0.161 HD
HETATM   12  C13 UNL     1       6.321  -6.765  39.568  1.00  0.00     0.248 C 
HETATM   13  N6  UNL     1       6.960  -7.957  40.158  1.00  0.00    -0.349 N 
ENDROOT
BRANCH   7  14
HETATM   14  N2  UNL     1       3.537  -6.602  42.872  1.00  0.00    -0.354 N 
ATOM     15  H2  UNL     1       2.868  -7.068  42.260  1.00  0.00     0.166 HD
BRANCH  14  16
HETATM   16  C6  UNL     1       2.875  -5.584  43.517  1.00  0.00     0.064 C 
BRANCH  16  17
HETATM   17  C7  UNL     1       3.746  -4.448  44.026  1.00  0.00     0.074 C 
BRANCH  17  18
HETATM   18  C8  UNL     1       3.775  -4.454  45.534  1.00  0.00     0.277 C 
BRANCH  18  19
HETATM   19  N3  UNL     1       4.021  -5.738  46.108  1.00  0.00     0.090 N 
HETATM   20  C9  UNL     1       2.770  -6.272  46.622  1.00  0.00     0.282 C 
HETATM   21  C10 UNL     1       2.774  -7.782  46.694  1.00  0.00     0.104 C 
HETATM   22  S1  UNL     1       4.110  -8.234  47.842  1.00  0.00    -0.166 SA
HETATM   23  C11 UNL     1       5.513  -7.142  47.456  1.00  0.00     0.104 C 
HETATM   24  C12 UNL     1       5.063  -5.753  47.082  1.00  0.00     0.282 C 
ENDBRANCH  18  19
ENDBRANCH  17  18
ENDBRANCH  16  17
ENDBRANCH  14  16
ENDBRANCH   7  14
BRANCH  13  25
HETATM   25  C14 UNL     1       7.835  -8.849  39.474  1.00  0.00     0.130 C 
BRANCH  25  26
HETATM   26  C15 UNL     1       7.315  -9.484  38.235  1.00  0.00     0.004 C 
HETATM   27  C16 UNL     1       7.385  -8.640  36.999  1.00  0.00     0.006 C 
HETATM   28  C17 UNL     1       8.473  -9.092  36.031  1.00  0.00     0.000 C 
HETATM   29  C18 UNL     1       9.731  -9.401  36.770  1.00  0.00     0.000 C 
HETATM   30  C19 UNL     1       9.496 -10.491  37.768  1.00  0.00     0.000 C 
HETATM   31  C20 UNL     1       8.055 -10.786  38.016  1.00  0.00     0.006 C 
ENDBRANCH  25  26
ENDBRANCH  13  25
TORSDOF 7
ENDMDL
MODEL 3
REMARK VINA RESULT: -8.205319324      1.120      2.052
REMARK  7 active torsions:
REMARK  status: ('A' for Active; 'I' for Inactive)
REMARK    1  A    between atoms: C5_7  and  N2_8 
REMARK    2  A    between atoms: N2_8  and  C6_10 
REMARK    3  A    between atoms: C6_10  and  C7_11 
REMARK    4  A    between atoms: C7_11  and  C8_12 
REMARK    5  A    between atoms: C8_12  and  N3_13 
REMARK    6  A    between atoms: N6_24  and  C14_25 
REMARK    7  A    between atoms: C14_25  and  C15_26 
ROOT
HETATM    1  C1  UNL     1       7.289 -10.000  45.288  1.00  0.00     0.089 C 
HETATM    2  C2  UNL     1       6.440  -8.867  44.762  1.00  0.00     0.080 A 
HETATM    3  N1  UNL     1       5.335  -8.519  45.436  1.00  0.00    -0.330 N 
ATOM      4  H1  UNL     1       5.078  -9.015  46.290  1.00  0.00     0.168 HD
HETATM    5  C3  UNL     1       4.567  -7.512  44.982  1.00  0.00     0.136 A 
HETATM    6  C4  UNL     1       4.921  -6.830  43.810  1.00  0.00     0.118 A 
HETATM    7  C5  UNL     1       6.057  -7.185  43.113  1.00  0.00     0.137 A 
HETATM    8  N4  UNL     1       6.784  -8.224  43.646  1.00  0.00    -0.330 N 
ATOM      9  H4  UNL     1       7.632  -8.517  43.161  1.00  0.00     0.168 HD
HETATM   10  N5  UNL     1       3.914  -5.832  43.582  1.00  0.00    -0.368 N 
ATOM     11  H5  UNL     1       4.015  -4.953  43.073  1.00  0.00     0.161 HD
HETATM   12  C13 UNL     1       2.713  -6.345  44.235  1.00  0.00     0.248 C 
HETATM   13  N6  UNL     1       3.355  -6.907  45.440  1.00  0.00    -0.349 N 
ENDROOT
BRANCH   7  14
HETATM   14  N2  UNL     1       6.451  -6.648  42.083  1.00  0.00    -0.354 N 
ATOM     15  H2  UNL     1       7.391  -6.295  42.258  1.00  0.00     0.166 HD
BRANCH  14  16
HETATM   16  C6  UNL     1       6.121  -6.335  40.786  1.00  0.00     0.064 C 
BRANCH  16  17
HETATM   17  C7  UNL     1       6.008  -7.512  39.831  1.00  0.00     0.074 C 
BRANCH  17  18
HETATM   18  C8  UNL     1       7.205  -8.418  39.981  1.00  0.00     0.277 C 
BRANCH  18  19
HETATM   19  N3  UNL     1       7.594  -9.074  38.775  1.00  0.00     0.090 N 
HETATM   20  C9  UNL     1       8.831  -9.801  39.011  1.00  0.00     0.282 C 
HETATM   21  C10 UNL     1       9.010 -10.961  38.058  1.00  0.00     0.104 C 
HETATM   22  S1  UNL     1       9.071 -10.243  36.388  1.00  0.00    -0.166 SA
HETATM   23  C11 UNL     1       7.788  -8.955  36.332  1.00  0.00     0.104 C 
HETATM   24  C12 UNL     1       7.674  -8.213  37.640  1.00  0.00     0.282 C 
ENDBRANCH  18  19
ENDBRANCH  17  18
ENDBRANCH  16  17
ENDBRANCH  14  16
ENDBRANCH   7  14
BRANCH  13  25
HETATM   25  C14 UNL     1       2.825  -6.850  46.760  1.00  0.00     0.130 C 
BRANCH  25  26
HETATM   26  C15 UNL     1       3.634  -6.135  47.780  1.00  0.00     0.004 C 
HETATM   27  C16 UNL     1       4.962  -5.625  47.310  1.00  0.00     0.006 C 
HETATM   28  C17 UNL     1       4.988  -4.111  47.131  1.00  0.00     0.000 C 
HETATM   29  C18 UNL     1       3.749  -3.647  46.444  1.00  0.00     0.000 C 
HETATM   30  C19 UNL     1       2.539  -4.013  47.245  1.00  0.00     0.000 C 
HETATM   31  C20 UNL     1       2.808  -4.994  48.335  1.00  0.00     0.006 C 
ENDBRANCH  25  26
ENDBRANCH  13  25
TORSDOF 7
ENDMDL
MODEL 4
REMARK VINA RESULT: -8.064462312      4.520      7.722
REMARK  7 active torsions:
REMARK  status: ('A' for Active; 'I' for Inactive)
REMARK    1  A    between atoms: C5_7  and  N2_8 
REMARK    2  A    between atoms: N2_8  and  C6_10 
REMARK    3  A    between atoms: C6_10  and  C7_11 
REMARK    4  A    between atoms: C7_11  and  C8_12 
REMARK    5  A    between atoms: C8_12  and  N3_13 
REMARK    6  A    between atoms: N6_24  and  C14_25 
REMARK    7  A    between atoms: C14_25  and  C15_26 
ROOT
HETATM    1  C1  UNL     1       9.416 -13.766  38.100  1.00  0.00     0.089 C 
HETATM    2  C2  UNL     1       9.403 -12.312  37.693  1.00  0.00     0.080 A 
HETATM    3  N1  UNL     1       8.466 -11.503  38.210  1.00  0.00    -0.330 N 
ATOM      4  H1  UNL     1       7.777 -11.871  38.866  1.00  0.00     0.168 HD
HETATM    5  C3  UNL     1       8.439 -10.205  37.858  1.00  0.00     0.136 A 
HETATM    6  C4  UNL     1       9.387  -9.700  36.957  1.00  0.00     0.118 A 
HETATM    7  C5  UNL     1      10.352 -10.528  36.423  1.00  0.00     0.137 A 
HETATM    8  N4  UNL     1      10.307 -11.839  36.835  1.00  0.00    -0.330 N 
ATOM      9  H4  UNL     1      11.005 -12.485  36.464  1.00  0.00     0.168 HD
HETATM   10  N5  UNL     1       9.094  -8.305  36.775  1.00  0.00    -0.368 N 
ATOM     11  H5  UNL     1       9.743  -7.565  36.505  1.00  0.00     0.161 HD
HETATM   12  C13 UNL     1       7.668  -8.174  37.059  1.00  0.00     0.248 C 
HETATM   13  N6  UNL     1       7.597  -9.102  38.205  1.00  0.00    -0.349 N 
ENDROOT
BRANCH   7  14
HETATM   14  N2  UNL     1      11.222 -10.180  35.633  1.00  0.00    -0.354 N 
ATOM     15  H2  UNL     1      10.842  -9.420  35.069  1.00  0.00     0.166 HD
BRANCH  14  16
HETATM   16  C6  UNL     1      12.509 -10.412  35.208  1.00  0.00     0.064 C 
BRANCH  16  17
HETATM   17  C7  UNL     1      13.597  -9.664  35.960  1.00  0.00     0.074 C 
BRANCH  17  18
HETATM   18  C8  UNL     1      13.922  -8.372  35.252  1.00  0.00     0.277 C 
BRANCH  18  19
HETATM   19  N3  UNL     1      15.319  -8.145  35.066  1.00  0.00     0.090 N 
HETATM   20  C9  UNL     1      15.540  -6.727  34.833  1.00  0.00     0.282 C 
HETATM   21  C10 UNL     1      16.937  -6.291  35.210  1.00  0.00     0.104 C 
HETATM   22  S1  UNL     1      18.071  -7.235  34.146  1.00  0.00    -0.166 SA
HETATM   23  C11 UNL     1      17.424  -8.934  34.081  1.00  0.00     0.104 C 
HETATM   24  C12 UNL     1      15.916  -8.964  34.062  1.00  0.00     0.282 C 
ENDBRANCH  18  19
ENDBRANCH  17  18
ENDBRANCH  16  17
ENDBRANCH  14  16
ENDBRANCH   7  14
BRANCH  13  25
HETATM   25  C14 UNL     1       6.819  -8.904  39.381  1.00  0.00     0.130 C 
BRANCH  25  26
HETATM   26  C15 UNL     1       6.275  -7.541  39.607  1.00  0.00     0.004 C 
HETATM   27  C16 UNL     1       4.783  -7.449  39.710  1.00  0.00     0.006 C 
HETATM   28  C17 UNL     1       4.299  -7.203  41.135  1.00  0.00     0.000 C 
HETATM   29  C18 UNL     1       5.040  -8.072  42.094  1.00  0.00     0.000 C 
HETATM   30  C19 UNL     1       6.508  -7.786  42.030  1.00  0.00     0.000 C 
HETATM   31  C20 UNL     1       6.916  -6.967  40.853  1.00  0.00     0.006 C 
ENDBRANCH  25  26
ENDBRANCH  13  25
TORSDOF 7
ENDMDL
MODEL 5
REMARK VINA RESULT: -8.016038931      5.126      8.129
REMARK  7 active torsions:
REMARK  status: ('A' for Active; 'I' for Inactive)
REMARK    1  A    between atoms: C5_7  and  N2_8 
REMARK    2  A    between atoms: N2_8  and  C6_10 
REMARK    3  A    between atoms: C6_10  and  C7_11 
REMARK    4  A    between atoms: C7_11  and  C8_12 
REMARK    5  A    between atoms: C8_12  and  N3_13 
REMARK    6  A    between atoms: N6_24  and  C14_25 
REMARK    7  A    between atoms: C14_25  and  C15_26 
ROOT
HETATM    1  C1  UNL     1       8.774 -13.399  38.379  1.00  0.00     0.089 C 
HETATM    2  C2  UNL     1       9.076 -12.148  37.590  1.00  0.00     0.080 A 
HETATM    3  N1  UNL     1       8.308 -11.064  37.773  1.00  0.00    -0.330 N 
ATOM      4  H1  UNL     1       7.534 -11.092  38.437  1.00  0.00     0.168 HD
HETATM    5  C3  UNL     1       8.563  -9.942  37.078  1.00  0.00     0.136 A 
HETATM    6  C4  UNL     1       9.628  -9.904  36.166  1.00  0.00     0.118 A 
HETATM    7  C5  UNL     1      10.420 -11.016  35.975  1.00  0.00     0.137 A 
HETATM    8  N4  UNL     1      10.091 -12.121  36.725  1.00  0.00    -0.330 N 
ATOM      9  H4  UNL     1      10.653 -12.965  36.613  1.00  0.00     0.168 HD
HETATM   10  N5  UNL     1       9.637  -8.592  35.582  1.00  0.00    -0.368 N 
ATOM     11  H5  UNL     1      10.434  -8.096  35.182  1.00  0.00     0.161 HD
HETATM   12  C13 UNL     1       8.259  -8.120  35.683  1.00  0.00     0.248 C 
HETATM   13  N6  UNL     1       7.955  -8.648  37.027  1.00  0.00    -0.349 N 
ENDROOT
BRANCH   7  14
HETATM   14  N2  UNL     1      11.373 -11.080  35.205  1.00  0.00    -0.354 N 
ATOM     15  H2  UNL     1      11.038 -11.484  34.331  1.00  0.00     0.166 HD
BRANCH  14  16
HETATM   16  C6  UNL     1      12.715 -10.821  35.059  1.00  0.00     0.064 C 
BRANCH  16  17
HETATM   17  C7  UNL     1      13.304  -9.816  36.034  1.00  0.00     0.074 C 
BRANCH  17  18
HETATM   18  C8  UNL     1      13.776  -8.590  35.293  1.00  0.00     0.277 C 
BRANCH  18  19
HETATM   19  N3  UNL     1      15.126  -8.222  35.575  1.00  0.00     0.090 N 
HETATM   20  C9  UNL     1      15.527  -7.164  34.662  1.00  0.00     0.282 C 
HETATM   21  C10 UNL     1      16.646  -6.315  35.220  1.00  0.00     0.104 C 
HETATM   22  S1  UNL     1      18.060  -7.432  35.466  1.00  0.00    -0.166 SA
HETATM   23  C11 UNL     1      17.387  -8.970  36.165  1.00  0.00     0.104 C 
HETATM   24  C12 UNL     1      16.041  -9.317  35.579  1.00  0.00     0.282 C 
ENDBRANCH  18  19
ENDBRANCH  17  18
ENDBRANCH  16  17
ENDBRANCH  14  16
ENDBRANCH   7  14
BRANCH  13  25
HETATM   25  C14 UNL     1       7.191  -7.978  38.025  1.00  0.00     0.130 C 
BRANCH  25  26
HETATM   26  C15 UNL     1       6.829  -8.760  39.235  1.00  0.00     0.004 C 
HETATM   27  C16 UNL     1       7.724  -8.568  40.421  1.00  0.00     0.006 C 
HETATM   28  C17 UNL     1       7.078  -7.738  41.526  1.00  0.00     0.000 C 
HETATM   29  C18 UNL     1       6.378  -6.556  40.946  1.00  0.00     0.000 C 
HETATM   30  C19 UNL     1       5.312  -6.995  39.992  1.00  0.00     0.000 C 
HETATM   31  C20 UNL     1       5.399  -8.433  39.608  1.00  0.00     0.006 C 
ENDBRANCH  25  26
ENDBRANCH  13  25
TORSDOF 7
ENDMDL
