MODEL 1
REMARK VINA RESULT: -9.774349988      0.000      0.000
REMARK  6 active torsions:
REMARK  status: ('A' for Active; 'I' for Inactive)
REMARK    1  A    between atoms: C2_2  and  O1_3 
REMARK    2  A    between atoms: O1_3  and  C3_4 
REMARK    3  A    between atoms: C8_9  and  O2_10 
REMARK    4  A    between atoms: O2_10  and  C9_11 
REMARK    5  A    between atoms: C9_11  and  C10_12 
REMARK    6  A    between atoms: C10_12  and  O3_13 
ROOT
HETATM    1  C3  UNL     1       8.444  -9.044  39.206  1.00  0.00     0.103 A 
HETATM    2  C4  UNL     1       8.058  -8.830  40.499  1.00  0.00     0.054 A 
HETATM    3  C5  UNL     1       6.846  -8.235  40.738  1.00  0.00     0.001 A 
HETATM    4  C6  UNL     1       5.998  -7.835  39.732  1.00  0.00    -0.039 A 
HETATM    5  C7  UNL     1       6.394  -8.052  38.439  1.00  0.00     0.048 A 
HETATM    6  C8  UNL     1       7.606  -8.654  38.111  1.00  0.00     0.108 A 
HETATM    7  C12 UNL     1       4.691  -7.168  39.956  1.00  0.00     0.067 C 
HETATM    8  C13 UNL     1       4.242  -7.114  41.328  1.00  0.00    -0.006 C 
HETATM    9  C14 UNL     1       5.155  -7.537  42.365  1.00  0.00     0.015 A 
HETATM   10  C15 UNL     1       6.388  -8.067  42.107  1.00  0.00     0.058 A 
HETATM   11  N1  UNL     1       7.133  -8.436  43.170  1.00  0.00    -0.321 N 
ATOM     12  H1  UNL     1       8.057  -8.835  43.001  1.00  0.00     0.169 HD
HETATM   13  C16 UNL     1       6.711  -8.299  44.452  1.00  0.00     0.256 A 
HETATM   14  O4  UNL     1       7.413  -8.641  45.438  1.00  0.00    -0.267 OA
HETATM   15  C17 UNL     1       5.466  -7.764  44.718  1.00  0.00     0.061 A 
HETATM   16  C18 UNL     1       4.682  -7.379  43.674  1.00  0.00     0.056 A 
HETATM   17  N2  UNL     1       3.412  -6.829  43.964  1.00  0.00    -0.363 N 
ATOM     18  H2  UNL     1       2.824  -6.515  43.192  1.00  0.00     0.162 HD
HETATM   19  C19 UNL     1       2.921  -6.696  45.312  1.00  0.00     0.217 A 
HETATM   20  C20 UNL     1       2.656  -5.209  45.589  1.00  0.00     0.063 C 
HETATM   21  O5  UNL     1       3.724  -7.151  46.286  1.00  0.00    -0.362 OA
HETATM   22  C21 UNL     1       4.952  -7.611  46.088  1.00  0.00     0.217 A 
ENDROOT
BRANCH   6  23
HETATM   23  O2  UNL     1       7.982  -8.863  36.885  1.00  0.00    -0.318 OA
BRANCH  23  24
HETATM   24  C9  UNL     1       8.355  -9.071  35.672  1.00  0.00     0.166 C 
BRANCH  24  25
HETATM   25  C10 UNL     1       9.566  -9.797  35.200  1.00  0.00     0.158 C 
BRANCH  25  26
HETATM   26  O3  UNL     1       9.487 -10.917  34.483  1.00  0.00    -0.366 OA
HETATM   27  C11 UNL     1       9.507 -12.151  35.013  1.00  0.00     0.209 C 
ENDBRANCH  25  26
ENDBRANCH  24  25
ENDBRANCH  23  24
ENDBRANCH   6  23
BRANCH   1  28
HETATM   28  O1  UNL     1       9.631  -9.634  38.810  1.00  0.00    -0.349 OA
BRANCH  28  29
HETATM   29  C2  UNL     1       9.813 -10.986  38.603  1.00  0.00     0.171 C 
HETATM   30  C1  UNL     1      11.198 -11.410  38.198  1.00  0.00     0.034 C 
ENDBRANCH  28  29
ENDBRANCH   1  28
TORSDOF 6
ENDMDL
MODEL 2
REMARK VINA RESULT: -9.573681255      1.107      1.256
REMARK  6 active torsions:
REMARK  status: ('A' for Active; 'I' for Inactive)
REMARK    1  A    between atoms: C2_2  and  O1_3 
REMARK    2  A    between atoms: O1_3  and  C3_4 
REMARK    3  A    between atoms: C8_9  and  O2_10 
REMARK    4  A    between atoms: O2_10  and  C9_11 
REMARK    5  A    between atoms: C9_11  and  C10_12 
REMARK    6  A    between atoms: C10_12  and  O3_13 
ROOT
HETATM    1  C3  UNL     1       8.900  -9.767  38.824  1.00  0.00     0.103 A 
HETATM    2  C4  UNL     1       8.435  -9.318  40.027  1.00  0.00     0.054 A 
HETATM    3  C5  UNL     1       7.278  -8.583  40.058  1.00  0.00     0.001 A 
HETATM    4  C6  UNL     1       6.563  -8.268  38.927  1.00  0.00    -0.039 A 
HETATM    5  C7  UNL     1       7.036  -8.721  37.725  1.00  0.00     0.048 A 
HETATM    6  C8  UNL     1       8.199  -9.477  37.608  1.00  0.00     0.108 A 
HETATM    7  C12 UNL     1       5.321  -7.455  38.923  1.00  0.00     0.067 C 
HETATM    8  C13 UNL     1       4.771  -7.145  40.223  1.00  0.00    -0.006 C 
HETATM    9  C14 UNL     1       5.546  -7.483  41.394  1.00  0.00     0.015 A 
HETATM   10  C15 UNL     1       6.732  -8.160  41.337  1.00  0.00     0.058 A 
HETATM   11  N1  UNL     1       7.346  -8.425  42.509  1.00  0.00    -0.321 N 
ATOM     12  H1  UNL     1       8.231  -8.931  42.491  1.00  0.00     0.169 HD
HETATM   13  C16 UNL     1       6.838  -8.050  43.711  1.00  0.00     0.256 A 
HETATM   14  O4  UNL     1       7.418  -8.297  44.799  1.00  0.00    -0.267 OA
HETATM   15  C17 UNL     1       5.640  -7.366  43.773  1.00  0.00     0.061 A 
HETATM   16  C18 UNL     1       4.989  -7.078  42.614  1.00  0.00     0.056 A 
HETATM   17  N2  UNL     1       3.766  -6.373  42.696  1.00  0.00    -0.363 N 
ATOM     18  H2  UNL     1       3.279  -6.131  41.833  1.00  0.00     0.162 HD
HETATM   19  C19 UNL     1       3.184  -5.985  43.955  1.00  0.00     0.217 A 
HETATM   20  C20 UNL     1       3.059  -4.455  43.982  1.00  0.00     0.063 C 
HETATM   21  O5  UNL     1       3.852  -6.355  45.059  1.00  0.00    -0.362 OA
HETATM   22  C21 UNL     1       5.037  -6.953  45.050  1.00  0.00     0.217 A 
ENDROOT
BRANCH   6  23
HETATM   23  O2  UNL     1       8.648  -9.911  36.468  1.00  0.00    -0.318 OA
BRANCH  23  24
HETATM   24  C9  UNL     1       9.093 -10.340  35.340  1.00  0.00     0.166 C 
BRANCH  24  25
HETATM   25  C10 UNL     1      10.074 -11.435  35.102  1.00  0.00     0.158 C 
BRANCH  25  26
HETATM   26  O3  UNL     1       9.721 -12.596  34.555  1.00  0.00    -0.366 OA
HETATM   27  C11 UNL     1       9.114 -13.590  35.225  1.00  0.00     0.209 C 
ENDBRANCH  25  26
ENDBRANCH  24  25
ENDBRANCH  23  24
ENDBRANCH   6  23
BRANCH   1  28
HETATM   28  O1  UNL     1      10.044 -10.520  38.635  1.00  0.00    -0.349 OA
BRANCH  28  29
HETATM   29  C2  UNL     1      11.306 -10.004  38.422  1.00  0.00     0.171 C 
HETATM   30  C1  UNL     1      12.343 -10.976  37.933  1.00  0.00     0.034 C 
ENDBRANCH  28  29
ENDBRANCH   1  28
TORSDOF 6
ENDMDL
MODEL 3
REMARK VINA RESULT: -7.473995165      2.293      8.533
REMARK  6 active torsions:
REMARK  status: ('A' for Active; 'I' for Inactive)
REMARK    1  A    between atoms: C2_2  and  O1_3 
REMARK    2  A    between atoms: O1_3  and  C3_4 
REMARK    3  A    between atoms: C8_9  and  O2_10 
REMARK    4  A    between atoms: O2_10  and  C9_11 
REMARK    5  A    between atoms: C9_11  and  C10_12 
REMARK    6  A    between atoms: C10_12  and  O3_13 
ROOT
HETATM    1  C3  UNL     1       6.453  -7.593  42.093  1.00  0.00     0.103 A 
HETATM    2  C4  UNL     1       7.450  -8.183  41.370  1.00  0.00     0.054 A 
HETATM    3  C5  UNL     1       7.209  -8.520  40.062  1.00  0.00     0.001 A 
HETATM    4  C6  UNL     1       6.002  -8.297  39.443  1.00  0.00    -0.039 A 
HETATM    5  C7  UNL     1       5.007  -7.706  40.176  1.00  0.00     0.048 A 
HETATM    6  C8  UNL     1       5.172  -7.330  41.506  1.00  0.00     0.108 A 
HETATM    7  C12 UNL     1       5.701  -8.670  38.039  1.00  0.00     0.067 C 
HETATM    8  C13 UNL     1       6.827  -9.133  37.259  1.00  0.00    -0.006 C 
HETATM    9  C14 UNL     1       8.082  -9.363  37.936  1.00  0.00     0.015 A 
HETATM   10  C15 UNL     1       8.282  -9.081  39.258  1.00  0.00     0.058 A 
HETATM   11  N1  UNL     1       9.509  -9.330  39.761  1.00  0.00    -0.321 N 
ATOM     12  H1  UNL     1       9.682  -9.126  40.745  1.00  0.00     0.169 HD
HETATM   13  C16 UNL     1      10.523  -9.838  39.017  1.00  0.00     0.256 A 
HETATM   14  O4  UNL     1      11.664 -10.071  39.493  1.00  0.00    -0.267 OA
HETATM   15  C17 UNL     1      10.326 -10.125  37.680  1.00  0.00     0.061 A 
HETATM   16  C18 UNL     1       9.103  -9.888  37.134  1.00  0.00     0.056 A 
HETATM   17  N2  UNL     1       8.916 -10.191  35.765  1.00  0.00    -0.363 N 
ATOM     18  H2  UNL     1       7.998 -10.041  35.348  1.00  0.00     0.162 HD
HETATM   19  C19 UNL     1       9.979 -10.705  34.939  1.00  0.00     0.217 A 
HETATM   20  C20 UNL     1       9.554 -12.078  34.399  1.00  0.00     0.063 C 
HETATM   21  O5  UNL     1      11.174 -10.856  35.532  1.00  0.00    -0.362 OA
HETATM   22  C21 UNL     1      11.396 -10.659  36.824  1.00  0.00     0.217 A 
ENDROOT
BRANCH   6  23
HETATM   23  O2  UNL     1       4.230  -6.766  42.203  1.00  0.00    -0.318 OA
BRANCH  23  24
HETATM   24  C9  UNL     1       3.299  -6.209  42.892  1.00  0.00     0.166 C 
BRANCH  24  25
HETATM   25  C10 UNL     1       3.354  -5.767  44.314  1.00  0.00     0.158 C 
BRANCH  25  26
HETATM   26  O3  UNL     1       4.363  -5.043  44.792  1.00  0.00    -0.366 OA
HETATM   27  C11 UNL     1       4.330  -4.390  45.966  1.00  0.00     0.209 C 
ENDBRANCH  25  26
ENDBRANCH  24  25
ENDBRANCH  23  24
ENDBRANCH   6  23
BRANCH   1  28
HETATM   28  O1  UNL     1       6.546  -7.195  43.414  1.00  0.00    -0.349 OA
BRANCH  28  29
HETATM   29  C2  UNL     1       6.812  -8.033  44.478  1.00  0.00     0.171 C 
HETATM   30  C1  UNL     1       5.754  -8.101  45.544  1.00  0.00     0.034 C 
ENDBRANCH  28  29
ENDBRANCH   1  28
TORSDOF 6
ENDMDL
MODEL 4
REMARK VINA RESULT: -6.892720682      6.277      9.719
REMARK  6 active torsions:
REMARK  status: ('A' for Active; 'I' for Inactive)
REMARK    1  A    between atoms: C2_2  and  O1_3 
REMARK    2  A    between atoms: O1_3  and  C3_4 
REMARK    3  A    between atoms: C8_9  and  O2_10 
REMARK    4  A    between atoms: O2_10  and  C9_11 
REMARK    5  A    between atoms: C9_11  and  C10_12 
REMARK    6  A    between atoms: C10_12  and  O3_13 
ROOT
HETATM    1  C3  UNL     1      15.128  -8.631  34.564  1.00  0.00     0.103 A 
HETATM    2  C4  UNL     1      13.848  -8.786  35.014  1.00  0.00     0.054 A 
HETATM    3  C5  UNL     1      13.432 -10.031  35.413  1.00  0.00     0.001 A 
HETATM    4  C6  UNL     1      14.246 -11.138  35.375  1.00  0.00    -0.039 A 
HETATM    5  C7  UNL     1      15.528 -10.974  34.921  1.00  0.00     0.048 A 
HETATM    6  C8  UNL     1      16.029  -9.745  34.502  1.00  0.00     0.108 A 
HETATM    7  C12 UNL     1      13.820 -12.502  35.776  1.00  0.00     0.067 C 
HETATM    8  C13 UNL     1      12.522 -12.594  36.404  1.00  0.00    -0.006 C 
HETATM    9  C14 UNL     1      11.686 -11.416  36.426  1.00  0.00     0.015 A 
HETATM   10  C15 UNL     1      12.097 -10.198  35.962  1.00  0.00     0.058 A 
HETATM   11  N1  UNL     1      11.220  -9.176  36.057  1.00  0.00    -0.321 N 
ATOM     12  H1  UNL     1      11.505  -8.257  35.718  1.00  0.00     0.169 HD
HETATM   13  C16 UNL     1       9.977  -9.315  36.583  1.00  0.00     0.256 A 
HETATM   14  O4  UNL     1       9.164  -8.359  36.664  1.00  0.00    -0.267 OA
HETATM   15  C17 UNL     1       9.557 -10.544  37.053  1.00  0.00     0.061 A 
HETATM   16  C18 UNL     1      10.411 -11.601  36.976  1.00  0.00     0.056 A 
HETATM   17  N2  UNL     1       9.964 -12.853  37.457  1.00  0.00    -0.363 N 
ATOM     18  H2  UNL     1      10.585 -13.659  37.384  1.00  0.00     0.162 HD
HETATM   19  C19 UNL     1       8.662 -13.030  38.047  1.00  0.00     0.217 A 
HETATM   20  C20 UNL     1       7.886 -14.060  37.213  1.00  0.00     0.063 C 
HETATM   21  O5  UNL     1       7.898 -11.931  38.145  1.00  0.00    -0.362 OA
HETATM   22  C21 UNL     1       8.228 -10.746  37.649  1.00  0.00     0.217 A 
ENDROOT
BRANCH   6  23
HETATM   23  O2  UNL     1      17.246  -9.586  34.074  1.00  0.00    -0.318 OA
BRANCH  23  24
HETATM   24  C9  UNL     1      18.450  -9.430  33.651  1.00  0.00     0.166 C 
BRANCH  24  25
HETATM   25  C10 UNL     1      18.913  -8.613  32.495  1.00  0.00     0.158 C 
BRANCH  25  26
HETATM   26  O3  UNL     1      18.438  -7.392  32.255  1.00  0.00    -0.366 OA
HETATM   27  C11 UNL     1      17.713  -7.067  31.172  1.00  0.00     0.209 C 
ENDBRANCH  25  26
ENDBRANCH  24  25
ENDBRANCH  23  24
ENDBRANCH   6  23
BRANCH   1  28
HETATM   28  O1  UNL     1      15.690  -7.443  34.133  1.00  0.00    -0.349 OA
BRANCH  28  29
HETATM   29  C2  UNL     1      16.005  -6.375  34.947  1.00  0.00     0.171 C 
HETATM   30  C1  UNL     1      17.423  -6.321  35.446  1.00  0.00     0.034 C 
ENDBRANCH  28  29
ENDBRANCH   1  28
TORSDOF 6
ENDMDL
MODEL 5
REMARK VINA RESULT: -6.779989825      6.102     11.400
REMARK  6 active torsions:
REMARK  status: ('A' for Active; 'I' for Inactive)
REMARK    1  A    between atoms: C2_2  and  O1_3 
REMARK    2  A    between atoms: O1_3  and  C3_4 
REMARK    3  A    between atoms: C8_9  and  O2_10 
REMARK    4  A    between atoms: O2_10  and  C9_11 
REMARK    5  A    between atoms: C9_11  and  C10_12 
REMARK    6  A    between atoms: C10_12  and  O3_13 
ROOT
HETATM    1  C3  UNL     1      10.458  -9.937  36.948  1.00  0.00     0.103 A 
HETATM    2  C4  UNL     1      11.561  -9.281  36.482  1.00  0.00     0.054 A 
HETATM    3  C5  UNL     1      12.614 -10.016  35.998  1.00  0.00     0.001 A 
HETATM    4  C6  UNL     1      12.613 -11.390  35.967  1.00  0.00    -0.039 A 
HETATM    5  C7  UNL     1      11.503 -12.040  36.437  1.00  0.00     0.048 A 
HETATM    6  C8  UNL     1      10.392 -11.369  36.939  1.00  0.00     0.108 A 
HETATM    7  C12 UNL     1      13.744 -12.215  35.472  1.00  0.00     0.067 C 
HETATM    8  C13 UNL     1      14.817 -11.488  34.833  1.00  0.00    -0.006 C 
HETATM    9  C14 UNL     1      14.794 -10.045  34.886  1.00  0.00     0.015 A 
HETATM   10  C15 UNL     1      13.764  -9.332  35.432  1.00  0.00     0.058 A 
HETATM   11  N1  UNL     1      13.864  -7.986  35.400  1.00  0.00    -0.321 N 
ATOM     12  H1  UNL     1      13.106  -7.433  35.801  1.00  0.00     0.169 HD
HETATM   13  C16 UNL     1      14.925  -7.336  34.860  1.00  0.00     0.256 A 
HETATM   14  O4  UNL     1      15.012  -6.082  34.838  1.00  0.00    -0.267 OA
HETATM   15  C17 UNL     1      15.968  -8.052  34.307  1.00  0.00     0.061 A 
HETATM   16  C18 UNL     1      15.907  -9.412  34.318  1.00  0.00     0.056 A 
HETATM   17  N2  UNL     1      16.986 -10.130  33.752  1.00  0.00    -0.363 N 
ATOM     18  H2  UNL     1      16.964 -11.149  33.774  1.00  0.00     0.162 HD
HETATM   19  C19 UNL     1      18.114  -9.472  33.144  1.00  0.00     0.217 A 
HETATM   20  C20 UNL     1      19.384  -9.883  33.904  1.00  0.00     0.063 C 
HETATM   21  O5  UNL     1      18.077  -8.130  33.116  1.00  0.00    -0.362 OA
HETATM   22  C21 UNL     1      17.133  -7.397  33.692  1.00  0.00     0.217 A 
ENDROOT
BRANCH   6  23
HETATM   23  O2  UNL     1       9.336 -11.983  37.383  1.00  0.00    -0.318 OA
BRANCH  23  24
HETATM   24  C9  UNL     1       8.292 -12.591  37.823  1.00  0.00     0.166 C 
BRANCH  24  25
HETATM   25  C10 UNL     1       8.123 -14.049  38.078  1.00  0.00     0.158 C 
BRANCH  25  26
HETATM   26  O3  UNL     1       7.114 -14.529  38.803  1.00  0.00    -0.366 OA
HETATM   27  C11 UNL     1       6.135 -15.304  38.308  1.00  0.00     0.209 C 
ENDBRANCH  25  26
ENDBRANCH  24  25
ENDBRANCH  23  24
ENDBRANCH   6  23
BRANCH   1  28
HETATM   28  O1  UNL     1       9.322  -9.336  37.459  1.00  0.00    -0.349 OA
BRANCH  28  29
HETATM   29  C2  UNL     1       8.307  -8.787  36.703  1.00  0.00     0.171 C 
HETATM   30  C1  UNL     1       6.988  -8.607  37.401  1.00  0.00     0.034 C 
ENDBRANCH  28  29
ENDBRANCH   1  28
TORSDOF 6
ENDMDL
