MODEL 1
REMARK VINA RESULT: -8.509629030      0.000      0.000
REMARK  8 active torsions:
REMARK  status: ('A' for Active; 'I' for Inactive)
REMARK    1  A    between atoms: O1_2  and  C2_3 
REMARK    2  A    between atoms: C4_5  and  N1_6 
REMARK    3  A    between atoms: N1_6  and  C5_8 
REMARK    4  A    between atoms: C5_8  and  C6_9 
REMARK    5  A    between atoms: C6_9  and  C7_10 
REMARK    6  A    between atoms: C7_10  and  N2_11 
REMARK    7  A    between atoms: C12_21  and  N6_22 
REMARK    8  A    between atoms: N6_22  and  C13_24 
ROOT
HETATM    1  N2  UNL     1       5.480  -7.034  44.622  1.00  0.00    -0.333 N 
HETATM    2  C8  UNL     1       6.020  -8.187  45.055  1.00  0.00     0.183 A 
HETATM    3  N3  UNL     1       5.938  -8.249  46.410  1.00  0.00    -0.359 N 
ATOM      4  H3  UNL     1       6.271  -9.016  46.995  1.00  0.00     0.166 HD
HETATM    5  C9  UNL     1       5.340  -7.121  46.847  1.00  0.00     0.130 A 
HETATM    6  C10 UNL     1       5.065  -6.384  45.716  1.00  0.00     0.132 A 
HETATM    7  C11 UNL     1       4.429  -5.102  45.678  1.00  0.00     0.119 C 
HETATM    8  N4  UNL     1       3.919  -4.065  45.649  1.00  0.00    -0.190 NA
ENDROOT
BRANCH   1   9
HETATM    9  C7  UNL     1       5.397  -6.642  43.225  1.00  0.00     0.132 C 
BRANCH   9  10
HETATM   10  C6  UNL     1       5.702  -7.907  42.420  1.00  0.00     0.040 C 
BRANCH  10  11
HETATM   11  C5  UNL     1       6.685  -7.542  41.302  1.00  0.00     0.123 C 
BRANCH  11  12
HETATM   12  N1  UNL     1       7.685  -8.538  41.111  1.00  0.00    -0.376 N 
ATOM     13  H1  UNL     1       8.079  -8.988  41.937  1.00  0.00     0.161 HD
BRANCH  12  14
HETATM   14  C4  UNL     1       8.117  -8.904  39.960  1.00  0.00     0.120 A 
HETATM   15  C3  UNL     1       7.514  -8.512  38.779  1.00  0.00     0.105 A 
HETATM   16  C2  UNL     1       8.013  -8.927  37.568  1.00  0.00     0.160 A 
HETATM   17  N7  UNL     1       9.095  -9.720  37.528  1.00  0.00    -0.170 N 
HETATM   18  C12 UNL     1       9.697 -10.114  38.664  1.00  0.00     0.686 A 
ATOM     19  H7  UNL     1       9.465 -10.026  36.628  1.00  0.00     0.186 HD
HETATM   20  N5  UNL     1       9.213  -9.712  39.847  1.00  0.00    -0.177 N 
ATOM     21  H5  UNL     1       9.683 -10.021  40.698  1.00  0.00     0.186 HD
BRANCH  16  22
HETATM   22  O1  UNL     1       7.401  -8.525  36.405  1.00  0.00    -0.340 OA
HETATM   23  C1  UNL     1       8.107  -8.550  35.192  1.00  0.00     0.211 C 
ENDBRANCH  16  22
BRANCH  18  24
HETATM   24  N6  UNL     1      10.733 -10.871  38.584  1.00  0.00    -0.191 N 
ATOM     25  H6  UNL     1      11.506 -10.676  39.219  1.00  0.00     0.184 HD
BRANCH  24  26
HETATM   26  C13 UNL     1      10.885 -11.944  37.695  1.00  0.00     0.061 A 
HETATM   27  C14 UNL     1       9.994 -12.981  37.658  1.00  0.00    -0.034 A 
HETATM   28  C15 UNL     1       8.845 -12.949  38.594  1.00  0.00     0.050 C 
HETATM   29  C16 UNL     1      10.148 -14.052  36.768  1.00  0.00     0.015 A 
HETATM   30  C17 UNL     1      11.209 -14.075  35.908  1.00  0.00    -0.061 A 
HETATM   31  C18 UNL     1      11.383 -15.203  34.960  1.00  0.00     0.048 C 
HETATM   32  C19 UNL     1      12.116 -13.036  35.933  1.00  0.00     0.015 A 
HETATM   33  C20 UNL     1      11.954 -11.969  36.827  1.00  0.00    -0.034 A 
HETATM   34  C21 UNL     1      12.933 -10.848  36.854  1.00  0.00     0.050 C 
ENDBRANCH  24  26
ENDBRANCH  18  24
ENDBRANCH  12  14
ENDBRANCH  11  12
ENDBRANCH  10  11
ENDBRANCH   9  10
ENDBRANCH   1   9
TORSDOF 8
ENDMDL
MODEL 2
REMARK VINA RESULT: -8.445844633      3.144      5.060
REMARK  8 active torsions:
REMARK  status: ('A' for Active; 'I' for Inactive)
REMARK    1  A    between atoms: O1_2  and  C2_3 
REMARK    2  A    between atoms: C4_5  and  N1_6 
REMARK    3  A    between atoms: N1_6  and  C5_8 
REMARK    4  A    between atoms: C5_8  and  C6_9 
REMARK    5  A    between atoms: C6_9  and  C7_10 
REMARK    6  A    between atoms: C7_10  and  N2_11 
REMARK    7  A    between atoms: C12_21  and  N6_22 
REMARK    8  A    between atoms: N6_22  and  C13_24 
ROOT
HETATM    1  N2  UNL     1       6.519  -8.301  39.025  1.00  0.00    -0.333 N 
HETATM    2  C8  UNL     1       5.538  -7.553  39.559  1.00  0.00     0.183 A 
HETATM    3  N3  UNL     1       5.842  -7.258  40.850  1.00  0.00    -0.359 N 
ATOM      4  H3  UNL     1       5.270  -6.702  41.487  1.00  0.00     0.166 HD
HETATM    5  C9  UNL     1       7.030  -7.826  41.143  1.00  0.00     0.130 A 
HETATM    6  C10 UNL     1       7.429  -8.468  39.992  1.00  0.00     0.132 A 
HETATM    7  C11 UNL     1       8.638  -9.216  39.818  1.00  0.00     0.119 C 
HETATM    8  N4  UNL     1       9.612  -9.823  39.680  1.00  0.00    -0.190 NA
ENDROOT
BRANCH   1   9
HETATM    9  C7  UNL     1       6.522  -8.795  37.657  1.00  0.00     0.132 C 
BRANCH   9  10
HETATM   10  C6  UNL     1       7.644  -8.036  36.945  1.00  0.00     0.040 C 
BRANCH  10  11
HETATM   11  C5  UNL     1       8.174  -8.915  35.807  1.00  0.00     0.123 C 
BRANCH  11  12
HETATM   12  N1  UNL     1       9.567  -8.725  35.577  1.00  0.00    -0.376 N 
ATOM     13  H1  UNL     1       9.854  -7.950  34.980  1.00  0.00     0.161 HD
BRANCH  12  14
HETATM   14  C4  UNL     1      10.481  -9.471  36.079  1.00  0.00     0.120 A 
HETATM   15  C3  UNL     1      11.827  -9.174  35.976  1.00  0.00     0.105 A 
HETATM   16  C2  UNL     1      12.771 -10.003  36.531  1.00  0.00     0.160 A 
HETATM   17  N7  UNL     1      12.385 -11.113  37.181  1.00  0.00    -0.170 N 
HETATM   18  C12 UNL     1      11.082 -11.424  37.293  1.00  0.00     0.686 A 
ATOM     19  H7  UNL     1      13.089 -11.728  37.593  1.00  0.00     0.186 HD
HETATM   20  N5  UNL     1      10.159 -10.617  36.752  1.00  0.00    -0.177 N 
ATOM     21  H5  UNL     1       9.175 -10.868  36.847  1.00  0.00     0.186 HD
BRANCH  16  22
HETATM   22  O1  UNL     1      14.104  -9.689  36.420  1.00  0.00    -0.340 OA
HETATM   23  C1  UNL     1      14.511  -8.628  35.596  1.00  0.00     0.211 C 
ENDBRANCH  16  22
BRANCH  18  24
HETATM   24  N6  UNL     1      10.754 -12.493  37.924  1.00  0.00    -0.191 N 
ATOM     25  H6  UNL     1      10.922 -12.515  38.929  1.00  0.00     0.184 HD
BRANCH  24  26
HETATM   26  C13 UNL     1      10.182 -13.633  37.342  1.00  0.00     0.061 A 
HETATM   27  C14 UNL     1       8.828 -13.767  37.200  1.00  0.00    -0.034 A 
HETATM   28  C15 UNL     1       7.962 -12.666  37.682  1.00  0.00     0.050 C 
HETATM   29  C16 UNL     1       8.259 -14.907  36.617  1.00  0.00     0.015 A 
HETATM   30  C17 UNL     1       9.064 -15.919  36.174  1.00  0.00    -0.061 A 
HETATM   31  C18 UNL     1       8.473 -17.131  35.555  1.00  0.00     0.048 C 
HETATM   32  C19 UNL     1      10.430 -15.798  36.310  1.00  0.00     0.015 A 
HETATM   33  C20 UNL     1      10.991 -14.655  36.895  1.00  0.00    -0.034 A 
HETATM   34  C21 UNL     1      12.467 -14.524  37.042  1.00  0.00     0.050 C 
ENDBRANCH  24  26
ENDBRANCH  18  24
ENDBRANCH  12  14
ENDBRANCH  11  12
ENDBRANCH  10  11
ENDBRANCH   9  10
ENDBRANCH   1   9
TORSDOF 8
ENDMDL
MODEL 3
REMARK VINA RESULT: -8.440964369      0.027      1.561
REMARK  8 active torsions:
REMARK  status: ('A' for Active; 'I' for Inactive)
REMARK    1  A    between atoms: O1_2  and  C2_3 
REMARK    2  A    between atoms: C4_5  and  N1_6 
REMARK    3  A    between atoms: N1_6  and  C5_8 
REMARK    4  A    between atoms: C5_8  and  C6_9 
REMARK    5  A    between atoms: C6_9  and  C7_10 
REMARK    6  A    between atoms: C7_10  and  N2_11 
REMARK    7  A    between atoms: C12_21  and  N6_22 
REMARK    8  A    between atoms: N6_22  and  C13_24 
ROOT
HETATM    1  N2  UNL     1       5.503  -7.046  44.635  1.00  0.00    -0.333 N 
HETATM    2  C8  UNL     1       6.033  -8.202  45.071  1.00  0.00     0.183 A 
HETATM    3  N3  UNL     1       5.928  -8.271  46.424  1.00  0.00    -0.359 N 
ATOM      4  H3  UNL     1       6.249  -9.042  47.010  1.00  0.00     0.166 HD
HETATM    5  C9  UNL     1       5.325  -7.144  46.856  1.00  0.00     0.130 A 
HETATM    6  C10 UNL     1       5.071  -6.400  45.725  1.00  0.00     0.132 A 
HETATM    7  C11 UNL     1       4.439  -5.116  45.683  1.00  0.00     0.119 C 
HETATM    8  N4  UNL     1       3.932  -4.078  45.651  1.00  0.00    -0.190 NA
ENDROOT
BRANCH   1   9
HETATM    9  C7  UNL     1       5.445  -6.645  43.238  1.00  0.00     0.132 C 
BRANCH   9  10
HETATM   10  C6  UNL     1       5.709  -7.919  42.431  1.00  0.00     0.040 C 
BRANCH  10  11
HETATM   11  C5  UNL     1       6.655  -7.569  41.276  1.00  0.00     0.123 C 
BRANCH  11  12
HETATM   12  N1  UNL     1       7.674  -8.547  41.094  1.00  0.00    -0.376 N 
ATOM     13  H1  UNL     1       8.079  -8.979  41.925  1.00  0.00     0.161 HD
BRANCH  12  14
HETATM   14  C4  UNL     1       8.112  -8.916  39.947  1.00  0.00     0.120 A 
HETATM   15  C3  UNL     1       7.518  -8.526  38.761  1.00  0.00     0.105 A 
HETATM   16  C2  UNL     1       8.024  -8.945  37.554  1.00  0.00     0.160 A 
HETATM   17  N7  UNL     1       9.104  -9.741  37.523  1.00  0.00    -0.170 N 
HETATM   18  C12 UNL     1       9.698 -10.134  38.663  1.00  0.00     0.686 A 
ATOM     19  H7  UNL     1       9.478 -10.050  36.626  1.00  0.00     0.186 HD
HETATM   20  N5  UNL     1       9.207  -9.728  39.842  1.00  0.00    -0.177 N 
ATOM     21  H5  UNL     1       9.671 -10.036  40.697  1.00  0.00     0.186 HD
BRANCH  16  22
HETATM   22  O1  UNL     1       7.420  -8.543  36.387  1.00  0.00    -0.340 OA
HETATM   23  C1  UNL     1       8.132  -8.577  35.178  1.00  0.00     0.211 C 
ENDBRANCH  16  22
BRANCH  18  24
HETATM   24  N6  UNL     1      10.731 -10.894  38.592  1.00  0.00    -0.191 N 
ATOM     25  H6  UNL     1      11.493 -10.712  39.244  1.00  0.00     0.184 HD
BRANCH  24  26
HETATM   26  C13 UNL     1      10.896 -11.955  37.690  1.00  0.00     0.061 A 
HETATM   27  C14 UNL     1      11.950 -12.003  36.820  1.00  0.00    -0.034 A 
HETATM   28  C15 UNL     1      12.931 -10.892  36.848  1.00  0.00     0.050 C 
HETATM   29  C16 UNL     1      12.113 -13.064  35.920  1.00  0.00     0.015 A 
HETATM   30  C17 UNL     1      11.204 -14.085  35.899  1.00  0.00    -0.061 A 
HETATM   31  C18 UNL     1      11.366 -15.215  34.951  1.00  0.00     0.048 C 
HETATM   32  C19 UNL     1      10.137 -14.050  36.771  1.00  0.00     0.015 A 
HETATM   33  C20 UNL     1       9.981 -12.985  37.667  1.00  0.00    -0.034 A 
HETATM   34  C21 UNL     1       8.828 -12.948  38.609  1.00  0.00     0.050 C 
ENDBRANCH  24  26
ENDBRANCH  18  24
ENDBRANCH  12  14
ENDBRANCH  11  12
ENDBRANCH  10  11
ENDBRANCH   9  10
ENDBRANCH   1   9
TORSDOF 8
ENDMDL
MODEL 4
REMARK VINA RESULT: -8.402324328      3.184      5.262
REMARK  8 active torsions:
REMARK  status: ('A' for Active; 'I' for Inactive)
REMARK    1  A    between atoms: O1_2  and  C2_3 
REMARK    2  A    between atoms: C4_5  and  N1_6 
REMARK    3  A    between atoms: N1_6  and  C5_8 
REMARK    4  A    between atoms: C5_8  and  C6_9 
REMARK    5  A    between atoms: C6_9  and  C7_10 
REMARK    6  A    between atoms: C7_10  and  N2_11 
REMARK    7  A    between atoms: C12_21  and  N6_22 
REMARK    8  A    between atoms: N6_22  and  C13_24 
ROOT
HETATM    1  N2  UNL     1       6.536  -8.325  38.969  1.00  0.00    -0.333 N 
HETATM    2  C8  UNL     1       5.523  -7.598  39.472  1.00  0.00     0.183 A 
HETATM    3  N3  UNL     1       5.775  -7.306  40.775  1.00  0.00    -0.359 N 
ATOM      4  H3  UNL     1       5.171  -6.765  41.395  1.00  0.00     0.166 HD
HETATM    5  C9  UNL     1       6.962  -7.856  41.107  1.00  0.00     0.130 A 
HETATM    6  C10 UNL     1       7.413  -8.482  39.967  1.00  0.00     0.132 A 
HETATM    7  C11 UNL     1       8.640  -9.208  39.832  1.00  0.00     0.119 C 
HETATM    8  N4  UNL     1       9.629  -9.796  39.726  1.00  0.00    -0.190 NA
ENDROOT
BRANCH   1   9
HETATM    9  C7  UNL     1       6.596  -8.809  37.599  1.00  0.00     0.132 C 
BRANCH   9  10
HETATM   10  C6  UNL     1       7.739  -8.036  36.937  1.00  0.00     0.040 C 
BRANCH  10  11
HETATM   11  C5  UNL     1       8.329  -8.909  35.823  1.00  0.00     0.123 C 
BRANCH  11  12
HETATM   12  N1  UNL     1       9.736  -8.736  35.687  1.00  0.00    -0.376 N 
ATOM     13  H1  UNL     1      10.073  -7.918  35.179  1.00  0.00     0.161 HD
BRANCH  12  14
HETATM   14  C4  UNL     1      10.605  -9.550  36.165  1.00  0.00     0.120 A 
HETATM   15  C3  UNL     1      11.966  -9.357  36.022  1.00  0.00     0.105 A 
HETATM   16  C2  UNL     1      12.860 -10.255  36.553  1.00  0.00     0.160 A 
HETATM   17  N7  UNL     1      12.409 -11.331  37.218  1.00  0.00    -0.170 N 
HETATM   18  C12 UNL     1      11.090 -11.539  37.370  1.00  0.00     0.686 A 
ATOM     19  H7  UNL     1      13.075 -11.996  37.613  1.00  0.00     0.186 HD
HETATM   20  N5  UNL     1      10.215 -10.666  36.853  1.00  0.00    -0.177 N 
ATOM     21  H5  UNL     1       9.218 -10.840  36.977  1.00  0.00     0.186 HD
BRANCH  16  22
HETATM   22  O1  UNL     1      14.209 -10.044  36.402  1.00  0.00    -0.340 OA
HETATM   23  C1  UNL     1      14.671  -8.984  35.606  1.00  0.00     0.211 C 
ENDBRANCH  16  22
BRANCH  18  24
HETATM   24  N6  UNL     1      10.699 -12.579  38.015  1.00  0.00    -0.191 N 
ATOM     25  H6  UNL     1      10.813 -12.573  39.028  1.00  0.00     0.184 HD
BRANCH  24  26
HETATM   26  C13 UNL     1      10.126 -13.722  37.439  1.00  0.00     0.061 A 
HETATM   27  C14 UNL     1      10.887 -14.786  37.041  1.00  0.00    -0.034 A 
HETATM   28  C15 UNL     1      12.355 -14.706  37.232  1.00  0.00     0.050 C 
HETATM   29  C16 UNL     1      10.313 -15.927  36.466  1.00  0.00     0.015 A 
HETATM   30  C17 UNL     1       8.959 -15.994  36.293  1.00  0.00    -0.061 A 
HETATM   31  C18 UNL     1       8.338 -17.197  35.687  1.00  0.00     0.048 C 
HETATM   32  C19 UNL     1       8.178 -14.929  36.690  1.00  0.00     0.015 A 
HETATM   33  C20 UNL     1       8.762 -13.791  37.264  1.00  0.00    -0.034 A 
HETATM   34  C21 UNL     1       7.919 -12.642  37.693  1.00  0.00     0.050 C 
ENDBRANCH  24  26
ENDBRANCH  18  24
ENDBRANCH  12  14
ENDBRANCH  11  12
ENDBRANCH  10  11
ENDBRANCH   9  10
ENDBRANCH   1   9
TORSDOF 8
ENDMDL
MODEL 5
REMARK VINA RESULT: -8.366231872      3.399      5.744
REMARK  8 active torsions:
REMARK  status: ('A' for Active; 'I' for Inactive)
REMARK    1  A    between atoms: O1_2  and  C2_3 
REMARK    2  A    between atoms: C4_5  and  N1_6 
REMARK    3  A    between atoms: N1_6  and  C5_8 
REMARK    4  A    between atoms: C5_8  and  C6_9 
REMARK    5  A    between atoms: C6_9  and  C7_10 
REMARK    6  A    between atoms: C7_10  and  N2_11 
REMARK    7  A    between atoms: C12_21  and  N6_22 
REMARK    8  A    between atoms: N6_22  and  C13_24 
ROOT
HETATM    1  N2  UNL     1       7.228  -8.779  38.927  1.00  0.00    -0.333 N 
HETATM    2  C8  UNL     1       8.397  -9.168  39.466  1.00  0.00     0.183 A 
HETATM    3  N3  UNL     1       8.416  -8.856  40.789  1.00  0.00    -0.359 N 
ATOM      4  H3  UNL     1       9.182  -9.041  41.437  1.00  0.00     0.166 HD
HETATM    5  C9  UNL     1       7.245  -8.258  41.096  1.00  0.00     0.130 A 
HETATM    6  C10 UNL     1       6.526  -8.224  39.921  1.00  0.00     0.132 A 
HETATM    7  C11 UNL     1       5.212  -7.680  39.752  1.00  0.00     0.119 C 
HETATM    8  N4  UNL     1       4.154  -7.237  39.615  1.00  0.00    -0.190 NA
ENDROOT
BRANCH   1   9
HETATM    9  C7  UNL     1       6.870  -8.961  37.530  1.00  0.00     0.132 C 
BRANCH   9  10
HETATM   10  C6  UNL     1       7.850  -8.096  36.734  1.00  0.00     0.040 C 
BRANCH  10  11
HETATM   11  C5  UNL     1       8.409  -8.937  35.581  1.00  0.00     0.123 C 
BRANCH  11  12
HETATM   12  N1  UNL     1       9.832  -8.915  35.533  1.00  0.00    -0.376 N 
ATOM     13  H1  UNL     1      10.286  -8.127  35.071  1.00  0.00     0.161 HD
BRANCH  12  14
HETATM   14  C4  UNL     1      10.577  -9.829  36.039  1.00  0.00     0.120 A 
HETATM   15  C3  UNL     1      10.062 -10.925  36.707  1.00  0.00     0.105 A 
HETATM   16  C2  UNL     1      10.899 -11.880  37.232  1.00  0.00     0.160 A 
HETATM   17  N7  UNL     1      12.228 -11.751  37.095  1.00  0.00    -0.170 N 
HETATM   18  C12 UNL     1      12.751 -10.694  36.451  1.00  0.00     0.686 A 
ATOM     19  H7  UNL     1      12.847 -12.462  37.485  1.00  0.00     0.186 HD
HETATM   20  N5  UNL     1      11.938  -9.760  35.938  1.00  0.00    -0.177 N 
ATOM     21  H5  UNL     1      12.353  -8.964  35.452  1.00  0.00     0.186 HD
BRANCH  16  22
HETATM   22  O1  UNL     1      10.367 -12.963  37.890  1.00  0.00    -0.340 OA
HETATM   23  C1  UNL     1       9.008 -12.978  38.238  1.00  0.00     0.211 C 
ENDBRANCH  16  22
BRANCH  18  24
HETATM   24  N6  UNL     1      14.028 -10.608  36.339  1.00  0.00    -0.191 N 
ATOM     25  H6  UNL     1      14.574 -10.595  37.200  1.00  0.00     0.184 HD
BRANCH  24  26
HETATM   26  C13 UNL     1      14.732 -10.530  35.130  1.00  0.00     0.061 A 
HETATM   27  C14 UNL     1      14.948 -11.633  34.351  1.00  0.00    -0.034 A 
HETATM   28  C15 UNL     1      14.417 -12.935  34.818  1.00  0.00     0.050 C 
HETATM   29  C16 UNL     1      15.652 -11.552  33.141  1.00  0.00     0.015 A 
HETATM   30  C17 UNL     1      16.139 -10.348  32.716  1.00  0.00    -0.061 A 
HETATM   31  C18 UNL     1      16.885 -10.250  31.437  1.00  0.00     0.048 C 
HETATM   32  C19 UNL     1      15.928  -9.228  33.491  1.00  0.00     0.015 A 
HETATM   33  C20 UNL     1      15.224  -9.317  34.699  1.00  0.00    -0.034 A 
HETATM   34  C21 UNL     1      14.996  -8.107  35.536  1.00  0.00     0.050 C 
ENDBRANCH  24  26
ENDBRANCH  18  24
ENDBRANCH  12  14
ENDBRANCH  11  12
ENDBRANCH  10  11
ENDBRANCH   9  10
ENDBRANCH   1   9
TORSDOF 8
ENDMDL
