MODEL 1
REMARK VINA RESULT: -8.821995712      0.000      0.000
REMARK  6 active torsions:
REMARK  status: ('A' for Active; 'I' for Inactive)
REMARK    1  A    between atoms: C2_2  and  C3_3 
REMARK    2  A    between atoms: C3_3  and  C4_4 
REMARK    3  A    between atoms: C7_7  and  N1_8 
REMARK    4  A    between atoms: C14_21  and  C15_22 
REMARK    5  A    between atoms: C15_22  and  N5_23 
REMARK       I    between atoms: N5_23  and  C16_24 
REMARK    6  A    between atoms: C19_29  and  C20_30 
ROOT
HETATM    1  N1  UNL     1       9.538 -10.195  38.387  1.00  0.00    -0.366 N 
ATOM      2  H1  UNL     1      10.119  -9.400  38.121  1.00  0.00     0.161 HD
HETATM    3  C8  UNL     1      10.014 -11.362  38.193  1.00  0.00     0.118 A 
HETATM    4  N2  UNL     1       9.396 -12.510  38.487  1.00  0.00    -0.319 N 
ATOM      5  H2  UNL     1       8.484 -12.444  38.939  1.00  0.00     0.169 HD
HETATM    6  C9  UNL     1       9.867 -13.739  38.240  1.00  0.00     0.191 A 
HETATM    7  C10 UNL     1       9.160 -14.948  38.569  1.00  0.00     0.137 C 
HETATM    8  N3  UNL     1       8.611 -15.925  38.850  1.00  0.00    -0.188 NA
HETATM    9  N4  UNL     1      11.071 -13.841  37.645  1.00  0.00    -0.319 N 
ATOM     10  H4  UNL     1      11.460 -14.762  37.444  1.00  0.00     0.169 HD
HETATM   11  C11 UNL     1      11.773 -12.719  37.310  1.00  0.00     0.123 A 
HETATM   12  C12 UNL     1      11.257 -11.468  37.580  1.00  0.00     0.054 A 
HETATM   13  C13 UNL     1      12.191 -10.559  37.104  1.00  0.00     0.051 A 
HETATM   14  C14 UNL     1      13.253 -11.240  36.556  1.00  0.00     0.065 A 
HETATM   15  N6  UNL     1      12.955 -12.539  36.704  1.00  0.00    -0.335 N 
HETATM   16  C18 UNL     1      13.783 -13.634  36.264  1.00  0.00     0.158 C 
ENDROOT
BRANCH   1  17
HETATM   17  C7  UNL     1       8.226  -9.909  38.959  1.00  0.00     0.128 C 
HETATM   18  C6  UNL     1       8.355  -9.192  40.269  1.00  0.00     0.033 C 
HETATM   19  C5  UNL     1       7.465  -7.990  40.385  1.00  0.00     0.027 C 
HETATM   20  C4  UNL     1       6.178  -8.281  39.680  1.00  0.00     0.081 C 
HETATM   21  N7  UNL     1       6.414  -8.514  38.318  1.00  0.00    -0.390 N 
HETATM   22  C19 UNL     1       7.370  -9.277  37.956  1.00  0.00     0.005 C 
ATOM     23  H7  UNL     1       5.821  -8.072  37.615  1.00  0.00     0.159 HD
BRANCH  20  24
HETATM   24  C3  UNL     1       5.091  -7.290  40.001  1.00  0.00     0.024 C 
BRANCH  24  25
HETATM   25  C2  UNL     1       5.360  -6.438  41.194  1.00  0.00    -0.002 C 
HETATM   26  C1  UNL     1       4.247  -6.372  42.199  1.00  0.00     0.005 C 
ENDBRANCH  24  25
ENDBRANCH  20  24
BRANCH  22  27
HETATM   27  C20 UNL     1       7.560  -9.533  36.505  1.00  0.00     0.050 C 
HETATM   28  C21 UNL     1       8.320  -8.416  35.821  1.00  0.00     0.011 C 
ENDBRANCH  22  27
ENDBRANCH   1  17
BRANCH  14  29
HETATM   29  C15 UNL     1      14.407 -10.621  35.899  1.00  0.00     0.216 C 
BRANCH  29  30
HETATM   30  N5  UNL     1      14.500  -9.296  35.642  1.00  0.00    -0.382 NA
HETATM   31  C16 UNL     1      14.592  -7.963  35.382  1.00  0.00     0.287 C 
HETATM   32  C17 UNL     1      15.927  -7.359  34.903  1.00  0.00     0.135 C 
HETATM   33  O1  UNL     1      13.656  -7.107  35.495  1.00  0.00    -0.258 OA
ENDBRANCH  29  30
ENDBRANCH  14  29
TORSDOF 6
ENDMDL
MODEL 2
REMARK VINA RESULT: -8.460589631      1.320      1.363
REMARK  6 active torsions:
REMARK  status: ('A' for Active; 'I' for Inactive)
REMARK    1  A    between atoms: C2_2  and  C3_3 
REMARK    2  A    between atoms: C3_3  and  C4_4 
REMARK    3  A    between atoms: C7_7  and  N1_8 
REMARK    4  A    between atoms: C14_21  and  C15_22 
REMARK    5  A    between atoms: C15_22  and  N5_23 
REMARK       I    between atoms: N5_23  and  C16_24 
REMARK    6  A    between atoms: C19_29  and  C20_30 
ROOT
HETATM    1  N1  UNL     1       9.316  -9.844  38.488  1.00  0.00    -0.366 N 
ATOM      2  H1  UNL     1       9.871  -9.019  38.259  1.00  0.00     0.161 HD
HETATM    3  C8  UNL     1       9.816 -10.984  38.211  1.00  0.00     0.118 A 
HETATM    4  N2  UNL     1       9.234 -12.163  38.445  1.00  0.00    -0.319 N 
ATOM      5  H2  UNL     1       8.332 -12.150  38.921  1.00  0.00     0.169 HD
HETATM    6  C9  UNL     1       9.729 -13.362  38.112  1.00  0.00     0.191 A 
HETATM    7  C10 UNL     1       9.061 -14.607  38.379  1.00  0.00     0.137 C 
HETATM    8  N3  UNL     1       8.543 -15.614  38.611  1.00  0.00    -0.188 NA
HETATM    9  N4  UNL     1      10.920 -13.396  37.484  1.00  0.00    -0.319 N 
ATOM     10  H4  UNL     1      11.327 -14.292  37.216  1.00  0.00     0.169 HD
HETATM   11  C11 UNL     1      11.586 -12.236  37.204  1.00  0.00     0.123 A 
HETATM   12  C12 UNL     1      11.046 -11.019  37.563  1.00  0.00     0.054 A 
HETATM   13  C13 UNL     1      11.945 -10.058  37.125  1.00  0.00     0.051 A 
HETATM   14  C14 UNL     1      13.010 -10.675  36.510  1.00  0.00     0.065 A 
HETATM   15  N6  UNL     1      12.748 -11.988  36.584  1.00  0.00    -0.335 N 
HETATM   16  C18 UNL     1      13.592 -13.032  36.057  1.00  0.00     0.158 C 
ENDROOT
BRANCH   1  17
HETATM   17  C7  UNL     1       8.012  -9.628  39.107  1.00  0.00     0.128 C 
HETATM   18  C6  UNL     1       8.152  -8.941  40.432  1.00  0.00     0.033 C 
HETATM   19  C5  UNL     1       7.217  -7.781  40.607  1.00  0.00     0.027 C 
HETATM   20  C4  UNL     1       5.921  -8.107  39.933  1.00  0.00     0.081 C 
HETATM   21  N7  UNL     1       6.125  -8.294  38.559  1.00  0.00    -0.390 N 
HETATM   22  C19 UNL     1       7.100  -9.007  38.147  1.00  0.00     0.005 C 
ATOM     23  H7  UNL     1       5.493  -7.860  37.886  1.00  0.00     0.159 HD
BRANCH  20  24
HETATM   24  C3  UNL     1       4.805  -7.172  40.314  1.00  0.00     0.024 C 
BRANCH  24  25
HETATM   25  C2  UNL     1       5.103  -6.292  41.479  1.00  0.00    -0.002 C 
HETATM   26  C1  UNL     1       4.040  -6.249  42.537  1.00  0.00     0.005 C 
ENDBRANCH  24  25
ENDBRANCH  20  24
BRANCH  22  27
HETATM   27  C20 UNL     1       7.255  -9.217  36.686  1.00  0.00     0.050 C 
HETATM   28  C21 UNL     1       8.190  -8.204  36.057  1.00  0.00     0.011 C 
ENDBRANCH  22  27
ENDBRANCH   1  17
BRANCH  14  29
HETATM   29  C15 UNL     1      14.132  -9.987  35.868  1.00  0.00     0.216 C 
BRANCH  29  30
HETATM   30  N5  UNL     1      14.498 -10.192  34.582  1.00  0.00    -0.382 NA
HETATM   31  C16 UNL     1      14.865 -10.400  33.287  1.00  0.00     0.287 C 
HETATM   32  C17 UNL     1      16.331 -10.198  32.858  1.00  0.00     0.135 C 
HETATM   33  O1  UNL     1      14.099 -10.760  32.336  1.00  0.00    -0.258 OA
ENDBRANCH  29  30
ENDBRANCH  14  29
TORSDOF 6
ENDMDL
MODEL 3
REMARK VINA RESULT: -8.419694669      1.145      1.204
REMARK  6 active torsions:
REMARK  status: ('A' for Active; 'I' for Inactive)
REMARK    1  A    between atoms: C2_2  and  C3_3 
REMARK    2  A    between atoms: C3_3  and  C4_4 
REMARK    3  A    between atoms: C7_7  and  N1_8 
REMARK    4  A    between atoms: C14_21  and  C15_22 
REMARK    5  A    between atoms: C15_22  and  N5_23 
REMARK       I    between atoms: N5_23  and  C16_24 
REMARK    6  A    between atoms: C19_29  and  C20_30 
ROOT
HETATM    1  N1  UNL     1       9.518  -9.710  38.006  1.00  0.00    -0.366 N 
ATOM      2  H1  UNL     1       9.869  -8.820  37.652  1.00  0.00     0.161 HD
HETATM    3  C8  UNL     1      10.206 -10.754  37.759  1.00  0.00     0.118 A 
HETATM    4  N2  UNL     1       9.900 -11.995  38.149  1.00  0.00    -0.319 N 
ATOM      5  H2  UNL     1       9.066 -12.109  38.725  1.00  0.00     0.169 HD
HETATM    6  C9  UNL     1      10.591 -13.103  37.851  1.00  0.00     0.191 A 
HETATM    7  C10 UNL     1      10.217 -14.421  38.289  1.00  0.00     0.137 C 
HETATM    8  N3  UNL     1       9.938 -15.481  38.655  1.00  0.00    -0.188 NA
HETATM    9  N4  UNL     1      11.695 -12.968  37.093  1.00  0.00    -0.319 N 
ATOM     10  H4  UNL     1      12.245 -13.792  36.848  1.00  0.00     0.169 HD
HETATM   11  C11 UNL     1      12.083 -11.735  36.650  1.00  0.00     0.123 A 
HETATM   12  C12 UNL     1      11.348 -10.615  36.977  1.00  0.00     0.054 A 
HETATM   13  C13 UNL     1      11.986  -9.547  36.365  1.00  0.00     0.051 A 
HETATM   14  C14 UNL     1      13.086 -10.005  35.678  1.00  0.00     0.065 A 
HETATM   15  N6  UNL     1      13.103 -11.331  35.881  1.00  0.00    -0.335 N 
HETATM   16  C18 UNL     1      14.083 -12.240  35.339  1.00  0.00     0.158 C 
ENDROOT
BRANCH   1  17
HETATM   17  C7  UNL     1       8.265  -9.689  38.756  1.00  0.00     0.128 C 
HETATM   18  C6  UNL     1       8.461  -9.089  40.115  1.00  0.00     0.033 C 
HETATM   19  C5  UNL     1       7.430  -8.058  40.470  1.00  0.00     0.027 C 
HETATM   20  C4  UNL     1       6.117  -8.479  39.890  1.00  0.00     0.081 C 
HETATM   21  N7  UNL     1       6.203  -8.541  38.492  1.00  0.00    -0.390 N 
HETATM   22  C19 UNL     1       7.203  -9.106  37.937  1.00  0.00     0.005 C 
ATOM     23  H7  UNL     1       5.465  -8.133  37.917  1.00  0.00     0.159 HD
BRANCH  20  24
HETATM   24  C3  UNL     1       4.950  -7.707  40.446  1.00  0.00     0.024 C 
BRANCH  24  25
HETATM   25  C2  UNL     1       5.327  -6.539  41.293  1.00  0.00    -0.002 C 
HETATM   26  C1  UNL     1       4.340  -6.183  42.366  1.00  0.00     0.005 C 
ENDBRANCH  24  25
ENDBRANCH  20  24
BRANCH  22  27
HETATM   27  C20 UNL     1       7.234  -9.190  36.455  1.00  0.00     0.050 C 
HETATM   28  C21 UNL     1       8.184  -8.180  35.844  1.00  0.00     0.011 C 
ENDBRANCH  22  27
ENDBRANCH   1  17
BRANCH  14  29
HETATM   29  C15 UNL     1      13.977  -9.180  34.859  1.00  0.00     0.216 C 
BRANCH  29  30
HETATM   30  N5  UNL     1      15.064  -8.541  35.347  1.00  0.00    -0.382 NA
HETATM   31  C16 UNL     1      16.158  -7.897  35.841  1.00  0.00     0.287 C 
HETATM   32  C17 UNL     1      16.629  -6.575  35.205  1.00  0.00     0.135 C 
HETATM   33  O1  UNL     1      16.880  -8.279  36.818  1.00  0.00    -0.258 OA
ENDBRANCH  29  30
ENDBRANCH  14  29
TORSDOF 6
ENDMDL
MODEL 4
REMARK VINA RESULT: -8.007279286      1.369      1.436
REMARK  6 active torsions:
REMARK  status: ('A' for Active; 'I' for Inactive)
REMARK    1  A    between atoms: C2_2  and  C3_3 
REMARK    2  A    between atoms: C3_3  and  C4_4 
REMARK    3  A    between atoms: C7_7  and  N1_8 
REMARK    4  A    between atoms: C14_21  and  C15_22 
REMARK    5  A    between atoms: C15_22  and  N5_23 
REMARK       I    between atoms: N5_23  and  C16_24 
REMARK    6  A    between atoms: C19_29  and  C20_30 
ROOT
HETATM    1  N1  UNL     1       9.301  -9.766  38.443  1.00  0.00    -0.366 N 
ATOM      2  H1  UNL     1       9.807  -8.924  38.170  1.00  0.00     0.161 HD
HETATM    3  C8  UNL     1       9.840 -10.890  38.174  1.00  0.00     0.118 A 
HETATM    4  N2  UNL     1       9.323 -12.088  38.462  1.00  0.00    -0.319 N 
ATOM      5  H2  UNL     1       8.442 -12.102  38.975  1.00  0.00     0.169 HD
HETATM    6  C9  UNL     1       9.859 -13.272  38.138  1.00  0.00     0.191 A 
HETATM    7  C10 UNL     1       9.260 -14.538  38.465  1.00  0.00     0.137 C 
HETATM    8  N3  UNL     1       8.798 -15.560  38.743  1.00  0.00    -0.188 NA
HETATM    9  N4  UNL     1      11.023 -13.269  37.462  1.00  0.00    -0.319 N 
ATOM     10  H4  UNL     1      11.460 -14.152  37.200  1.00  0.00     0.169 HD
HETATM   11  C11 UNL     1      11.623 -12.088  37.125  1.00  0.00     0.123 A 
HETATM   12  C12 UNL     1      11.043 -10.887  37.476  1.00  0.00     0.054 A 
HETATM   13  C13 UNL     1      11.878  -9.899  36.976  1.00  0.00     0.051 A 
HETATM   14  C14 UNL     1      12.944 -10.484  36.333  1.00  0.00     0.065 A 
HETATM   15  N6  UNL     1      12.746 -11.805  36.450  1.00  0.00    -0.335 N 
HETATM   16  C18 UNL     1      13.614 -12.824  35.915  1.00  0.00     0.158 C 
ENDROOT
BRANCH   1  17
HETATM   17  C7  UNL     1       8.015  -9.593  39.111  1.00  0.00     0.128 C 
HETATM   18  C6  UNL     1       8.182  -8.908  40.433  1.00  0.00     0.033 C 
HETATM   19  C5  UNL     1       7.221  -7.777  40.650  1.00  0.00     0.027 C 
HETATM   20  C4  UNL     1       5.911  -8.139  40.022  1.00  0.00     0.081 C 
HETATM   21  N7  UNL     1       6.070  -8.314  38.640  1.00  0.00    -0.390 N 
HETATM   22  C19 UNL     1       7.049  -8.995  38.189  1.00  0.00     0.005 C 
ATOM     23  H7  UNL     1       5.400  -7.896  37.993  1.00  0.00     0.159 HD
BRANCH  20  24
HETATM   24  C3  UNL     1       4.782  -7.239  40.449  1.00  0.00     0.024 C 
BRANCH  24  25
HETATM   25  C2  UNL     1       5.124  -6.296  41.551  1.00  0.00    -0.002 C 
HETATM   26  C1  UNL     1       4.090  -6.174  42.632  1.00  0.00     0.005 C 
ENDBRANCH  24  25
ENDBRANCH  20  24
BRANCH  22  27
HETATM   27  C20 UNL     1       7.156  -9.194  36.721  1.00  0.00     0.050 C 
HETATM   28  C21 UNL     1       8.099  -8.199  36.075  1.00  0.00     0.011 C 
ENDBRANCH  22  27
ENDBRANCH   1  17
BRANCH  14  29
HETATM   29  C15 UNL     1      14.006  -9.764  35.627  1.00  0.00     0.216 C 
BRANCH  29  30
HETATM   30  N5  UNL     1      15.316 -10.092  35.711  1.00  0.00    -0.382 NA
HETATM   31  C16 UNL     1      16.634 -10.423  35.797  1.00  0.00     0.287 C 
HETATM   32  C17 UNL     1      17.697  -9.554  35.097  1.00  0.00     0.135 C 
HETATM   33  O1  UNL     1      17.121 -11.421  36.421  1.00  0.00    -0.258 OA
ENDBRANCH  29  30
ENDBRANCH  14  29
TORSDOF 6
ENDMDL
MODEL 5
REMARK VINA RESULT: -7.597242837      1.557      2.014
REMARK  6 active torsions:
REMARK  status: ('A' for Active; 'I' for Inactive)
REMARK    1  A    between atoms: C2_2  and  C3_3 
REMARK    2  A    between atoms: C3_3  and  C4_4 
REMARK    3  A    between atoms: C7_7  and  N1_8 
REMARK    4  A    between atoms: C14_21  and  C15_22 
REMARK    5  A    between atoms: C15_22  and  N5_23 
REMARK       I    between atoms: N5_23  and  C16_24 
REMARK    6  A    between atoms: C19_29  and  C20_30 
ROOT
HETATM    1  N1  UNL     1      10.337  -9.597  37.395  1.00  0.00    -0.366 N 
ATOM      2  H1  UNL     1      10.629  -8.688  37.038  1.00  0.00     0.161 HD
HETATM    3  C8  UNL     1      11.130 -10.580  37.221  1.00  0.00     0.118 A 
HETATM    4  N2  UNL     1      10.911 -11.835  37.626  1.00  0.00    -0.319 N 
ATOM      5  H2  UNL     1      10.056 -12.010  38.153  1.00  0.00     0.169 HD
HETATM    6  C9  UNL     1      11.716 -12.882  37.403  1.00  0.00     0.191 A 
HETATM    7  C10 UNL     1      11.434 -14.218  37.854  1.00  0.00     0.137 C 
HETATM    8  N3  UNL     1      11.228 -15.291  38.233  1.00  0.00    -0.188 NA
HETATM    9  N4  UNL     1      12.850 -12.665  36.710  1.00  0.00    -0.319 N 
ATOM     10  H4  UNL     1      13.485 -13.440  36.523  1.00  0.00     0.169 HD
HETATM   11  C11 UNL     1      13.153 -11.413  36.256  1.00  0.00     0.123 A 
HETATM   12  C12 UNL     1      12.302 -10.356  36.506  1.00  0.00     0.054 A 
HETATM   13  C13 UNL     1      12.880  -9.249  35.903  1.00  0.00     0.051 A 
HETATM   14  C14 UNL     1      14.058  -9.621  35.299  1.00  0.00     0.065 A 
HETATM   15  N6  UNL     1      14.180 -10.935  35.540  1.00  0.00    -0.335 N 
HETATM   16  C18 UNL     1      15.269 -11.763  35.085  1.00  0.00     0.158 C 
ENDROOT
BRANCH   1  17
HETATM   17  C7  UNL     1       9.043  -9.673  38.066  1.00  0.00     0.128 C 
HETATM   18  C6  UNL     1       9.211  -9.848  39.545  1.00  0.00     0.033 C 
HETATM   19  C5  UNL     1       8.361  -8.920  40.360  1.00  0.00     0.027 C 
HETATM   20  C4  UNL     1       7.055  -8.728  39.654  1.00  0.00     0.081 C 
HETATM   21  N7  UNL     1       7.265  -8.134  38.402  1.00  0.00    -0.390 N 
HETATM   22  C19 UNL     1       8.192  -8.563  37.638  1.00  0.00     0.005 C 
ATOM     23  H7  UNL     1       6.676  -7.357  38.101  1.00  0.00     0.159 HD
BRANCH  20  24
HETATM   24  C3  UNL     1       6.004  -8.087  40.521  1.00  0.00     0.024 C 
BRANCH  24  25
HETATM   25  C2  UNL     1       4.907  -7.412  39.770  1.00  0.00    -0.002 C 
HETATM   26  C1  UNL     1       3.576  -7.392  40.462  1.00  0.00     0.005 C 
ENDBRANCH  24  25
ENDBRANCH  20  24
BRANCH  22  27
HETATM   27  C20 UNL     1       8.353  -7.936  36.301  1.00  0.00     0.050 C 
HETATM   28  C21 UNL     1       8.290  -8.954  35.180  1.00  0.00     0.011 C 
ENDBRANCH  22  27
ENDBRANCH   1  17
BRANCH  14  29
HETATM   29  C15 UNL     1      14.922  -8.738  34.512  1.00  0.00     0.216 C 
BRANCH  29  30
HETATM   30  N5  UNL     1      15.872  -7.943  35.055  1.00  0.00    -0.382 NA
HETATM   31  C16 UNL     1      16.829  -7.142  35.601  1.00  0.00     0.287 C 
HETATM   32  C17 UNL     1      17.877  -7.735  36.562  1.00  0.00     0.135 C 
HETATM   33  O1  UNL     1      16.967  -5.892  35.402  1.00  0.00    -0.258 OA
ENDBRANCH  29  30
ENDBRANCH  14  29
TORSDOF 6
ENDMDL
