MODEL 1
REMARK VINA RESULT: -5.830161790      0.000      0.000
REMARK  4 active torsions:
REMARK  status: ('A' for Active; 'I' for Inactive)
REMARK    1  A    between atoms: N1_1  and  C1_4 
REMARK    2  A    between atoms: C2_9  and  S1_10 
REMARK    3  A    between atoms: S1_10  and  N4_11 
REMARK    4  A    between atoms: N5_16  and  N6_17 
ROOT
HETATM    1  C1  UNL     1      16.453  56.141  52.737  1.00  0.00     0.713 A 
HETATM    2  N2  UNL     1      16.511  56.158  54.071  1.00  0.00    -0.128 N 
ATOM      3  H2  UNL     1      17.347  56.028  54.641  1.00  0.00     0.205 HD
HETATM    4  N3  UNL     1      15.296  56.372  54.512  1.00  0.00    -0.258 N 
ATOM      5  H3  UNL     1      15.045  56.434  55.499  1.00  0.00     0.190 HD
HETATM    6  C2  UNL     1      14.424  56.499  53.499  1.00  0.00     0.276 A 
HETATM    7  N5  UNL     1      15.174  56.350  52.398  1.00  0.00    -0.061 N 
ENDROOT
BRANCH   6   8
HETATM    8  S1  UNL     1      12.703  56.794  53.635  1.00  0.00     0.292 S 
HETATM    9  O1  UNL     1      12.333  57.120  55.064  1.00  0.00    -0.198 OA
HETATM   10  O2  UNL     1      12.274  57.931  52.732  1.00  0.00    -0.198 OA
BRANCH   8  11
HETATM   11  N4  UNL     1      11.894  55.370  53.141  1.00  0.00    -0.322 N 
ATOM     12  H42 UNL     1      11.370  55.258  52.273  1.00  0.00     0.169 HD
ATOM     13  H41 UNL     1      12.035  54.668  53.868  1.00  0.00     0.169 HD
ENDBRANCH   8  11
ENDBRANCH   6   8
BRANCH   7  14
HETATM   14  N6  UNL     1      14.679  56.409  51.094  1.00  0.00    -0.322 N 
ATOM     15  H62 UNL     1      14.787  57.210  50.473  1.00  0.00     0.178 HD
ATOM     16  H61 UNL     1      14.161  55.667  50.622  1.00  0.00     0.178 HD
ENDBRANCH   7  14
BRANCH   1  17
HETATM   17  N1  UNL     1      17.464  55.953  51.907  1.00  0.00    -0.231 N 
ATOM     18  H12 UNL     1      18.434  55.771  52.165  1.00  0.00     0.174 HD
ATOM     19  H11 UNL     1      17.424  55.964  50.887  1.00  0.00     0.174 HD
ENDBRANCH   1  17
TORSDOF 4
ENDMDL
MODEL 2
REMARK VINA RESULT: -5.765995749      0.699      1.857
REMARK  4 active torsions:
REMARK  status: ('A' for Active; 'I' for Inactive)
REMARK    1  A    between atoms: N1_1  and  C1_4 
REMARK    2  A    between atoms: C2_9  and  S1_10 
REMARK    3  A    between atoms: S1_10  and  N4_11 
REMARK    4  A    between atoms: N5_16  and  N6_17 
ROOT
HETATM    1  C1  UNL     1      16.531  56.092  52.084  1.00  0.00     0.713 A 
HETATM    2  N2  UNL     1      15.929  56.239  50.902  1.00  0.00    -0.128 N 
ATOM      3  H2  UNL     1      16.369  56.155  49.986  1.00  0.00     0.205 HD
HETATM    4  N3  UNL     1      14.668  56.510  51.136  1.00  0.00    -0.258 N 
ATOM      5  H3  UNL     1      13.970  56.672  50.410  1.00  0.00     0.190 HD
HETATM    6  C2  UNL     1      14.414  56.549  52.454  1.00  0.00     0.276 A 
HETATM    7  N5  UNL     1      15.597  56.284  53.025  1.00  0.00    -0.061 N 
ENDROOT
BRANCH   6   8
HETATM    8  S1  UNL     1      12.867  56.876  53.208  1.00  0.00     0.292 S 
HETATM    9  O1  UNL     1      13.057  57.293  54.649  1.00  0.00    -0.198 OA
HETATM   10  O2  UNL     1      12.121  57.963  52.464  1.00  0.00    -0.198 OA
BRANCH   8  11
HETATM   11  N4  UNL     1      11.945  55.436  53.141  1.00  0.00    -0.322 N 
ATOM     12  H42 UNL     1      11.159  55.266  52.513  1.00  0.00     0.169 HD
ATOM     13  H41 UNL     1      12.326  54.794  53.836  1.00  0.00     0.169 HD
ENDBRANCH   8  11
ENDBRANCH   6   8
BRANCH   7  14
HETATM   14  N6  UNL     1      15.808  56.220  54.404  1.00  0.00    -0.322 N 
ATOM     15  H62 UNL     1      16.678  56.484  54.866  1.00  0.00     0.178 HD
ATOM     16  H61 UNL     1      15.126  55.907  55.095  1.00  0.00     0.178 HD
ENDBRANCH   7  14
BRANCH   1  17
HETATM   17  N1  UNL     1      17.806  55.812  52.290  1.00  0.00    -0.231 N 
ATOM     18  H12 UNL     1      18.248  54.898  52.192  1.00  0.00     0.174 HD
ATOM     19  H11 UNL     1      18.534  56.466  52.578  1.00  0.00     0.174 HD
ENDBRANCH   1  17
TORSDOF 4
ENDMDL
MODEL 3
REMARK VINA RESULT: -5.386374465      1.131      1.402
REMARK  4 active torsions:
REMARK  status: ('A' for Active; 'I' for Inactive)
REMARK    1  A    between atoms: N1_1  and  C1_4 
REMARK    2  A    between atoms: C2_9  and  S1_10 
REMARK    3  A    between atoms: S1_10  and  N4_11 
REMARK    4  A    between atoms: N5_16  and  N6_17 
ROOT
HETATM    1  C1  UNL     1      16.429  56.170  52.770  1.00  0.00     0.713 A 
HETATM    2  N2  UNL     1      16.445  56.171  54.105  1.00  0.00    -0.128 N 
ATOM      3  H2  UNL     1      17.269  56.071  54.698  1.00  0.00     0.205 HD
HETATM    4  N3  UNL     1      15.209  56.324  54.511  1.00  0.00    -0.258 N 
ATOM      5  H3  UNL     1      14.926  56.361  55.490  1.00  0.00     0.190 HD
HETATM    6  C2  UNL     1      14.363  56.425  53.473  1.00  0.00     0.276 A 
HETATM    7  N5  UNL     1      15.152  56.325  52.394  1.00  0.00    -0.061 N 
ENDROOT
BRANCH   6   8
HETATM    8  S1  UNL     1      12.626  56.639  53.561  1.00  0.00     0.292 S 
HETATM    9  O1  UNL     1      12.163  57.639  52.526  1.00  0.00    -0.198 OA
HETATM   10  O2  UNL     1      11.907  55.324  53.346  1.00  0.00    -0.198 OA
BRANCH   8  11
HETATM   11  N4  UNL     1      12.255  57.215  55.128  1.00  0.00    -0.322 N 
ATOM     12  H42 UNL     1      12.243  58.196  55.410  1.00  0.00     0.169 HD
ATOM     13  H41 UNL     1      12.054  56.405  55.714  1.00  0.00     0.169 HD
ENDBRANCH   8  11
ENDBRANCH   6   8
BRANCH   7  14
HETATM   14  N6  UNL     1      14.693  56.379  51.076  1.00  0.00    -0.322 N 
ATOM     15  H62 UNL     1      15.250  56.705  50.286  1.00  0.00     0.178 HD
ATOM     16  H61 UNL     1      13.765  56.101  50.759  1.00  0.00     0.178 HD
ENDBRANCH   7  14
BRANCH   1  17
HETATM   17  N1  UNL     1      17.471  56.040  51.968  1.00  0.00    -0.231 N 
ATOM     18  H12 UNL     1      18.394  56.451  52.105  1.00  0.00     0.174 HD
ATOM     19  H11 UNL     1      17.507  55.510  51.096  1.00  0.00     0.174 HD
ENDBRANCH   1  17
TORSDOF 4
ENDMDL
MODEL 4
REMARK VINA RESULT: -5.348351610      1.195      2.489
REMARK  4 active torsions:
REMARK  status: ('A' for Active; 'I' for Inactive)
REMARK    1  A    between atoms: N1_1  and  C1_4 
REMARK    2  A    between atoms: C2_9  and  S1_10 
REMARK    3  A    between atoms: S1_10  and  N4_11 
REMARK    4  A    between atoms: N5_16  and  N6_17 
ROOT
HETATM    1  C1  UNL     1      15.771  56.135  51.686  1.00  0.00     0.713 A 
HETATM    2  N2  UNL     1      14.688  56.424  50.961  1.00  0.00    -0.128 N 
ATOM      3  H2  UNL     1      14.628  56.437  49.943  1.00  0.00     0.205 HD
HETATM    4  N3  UNL     1      13.715  56.688  51.799  1.00  0.00    -0.258 N 
ATOM      5  H3  UNL     1      12.768  56.942  51.520  1.00  0.00     0.190 HD
HETATM    6  C2  UNL     1      14.127  56.581  53.073  1.00  0.00     0.276 A 
HETATM    7  N5  UNL     1      15.418  56.234  52.974  1.00  0.00    -0.061 N 
ENDROOT
BRANCH   6   8
HETATM    8  S1  UNL     1      13.157  56.845  54.508  1.00  0.00     0.292 S 
HETATM    9  O1  UNL     1      11.912  57.633  54.168  1.00  0.00    -0.198 OA
HETATM   10  O2  UNL     1      12.761  55.529  55.144  1.00  0.00    -0.198 OA
BRANCH   8  11
HETATM   11  N4  UNL     1      14.111  57.725  55.621  1.00  0.00    -0.322 N 
ATOM     12  H42 UNL     1      15.069  58.037  55.462  1.00  0.00     0.169 HD
ATOM     13  H41 UNL     1      13.547  57.875  56.459  1.00  0.00     0.169 HD
ENDBRANCH   8  11
ENDBRANCH   6   8
BRANCH   7  14
HETATM   14  N6  UNL     1      16.259  56.010  54.067  1.00  0.00    -0.322 N 
ATOM     15  H62 UNL     1      15.941  55.952  55.034  1.00  0.00     0.178 HD
ATOM     16  H61 UNL     1      17.269  55.881  54.021  1.00  0.00     0.178 HD
ENDBRANCH   7  14
BRANCH   1  17
HETATM   17  N1  UNL     1      16.966  55.813  51.223  1.00  0.00    -0.231 N 
ATOM     18  H12 UNL     1      17.593  55.106  51.607  1.00  0.00     0.174 HD
ATOM     19  H11 UNL     1      17.437  56.222  50.416  1.00  0.00     0.174 HD
ENDBRANCH   1  17
TORSDOF 4
ENDMDL
MODEL 5
REMARK VINA RESULT: -5.017679446      1.542      2.463
REMARK  4 active torsions:
REMARK  status: ('A' for Active; 'I' for Inactive)
REMARK    1  A    between atoms: N1_1  and  C1_4 
REMARK    2  A    between atoms: C2_9  and  S1_10 
REMARK    3  A    between atoms: S1_10  and  N4_11 
REMARK    4  A    between atoms: N5_16  and  N6_17 
ROOT
HETATM    1  C1  UNL     1      17.215  56.248  52.616  1.00  0.00     0.713 A 
HETATM    2  N2  UNL     1      16.722  55.864  51.437  1.00  0.00    -0.128 N 
ATOM      3  H2  UNL     1      17.255  55.703  50.582  1.00  0.00     0.205 HD
HETATM    4  N3  UNL     1      15.425  55.733  51.579  1.00  0.00    -0.258 N 
ATOM      5  H3  UNL     1      14.790  55.448  50.833  1.00  0.00     0.190 HD
HETATM    6  C2  UNL     1      15.041  56.022  52.833  1.00  0.00     0.276 A 
HETATM    7  N5  UNL     1      16.181  56.341  53.462  1.00  0.00    -0.061 N 
ENDROOT
BRANCH   6   8
HETATM    8  S1  UNL     1      13.405  55.977  53.458  1.00  0.00     0.292 S 
HETATM    9  O1  UNL     1      12.584  54.944  52.720  1.00  0.00    -0.198 OA
HETATM   10  O2  UNL     1      13.400  55.659  54.939  1.00  0.00    -0.198 OA
BRANCH   8  11
HETATM   11  N4  UNL     1      12.722  57.528  53.230  1.00  0.00    -0.322 N 
ATOM     12  H42 UNL     1      12.735  58.058  52.358  1.00  0.00     0.169 HD
ATOM     13  H41 UNL     1      12.307  57.816  54.117  1.00  0.00     0.169 HD
ENDBRANCH   8  11
ENDBRANCH   6   8
BRANCH   7  14
HETATM   14  N6  UNL     1      16.260  56.715  54.805  1.00  0.00    -0.322 N 
ATOM     15  H62 UNL     1      16.490  56.076  55.567  1.00  0.00     0.178 HD
ATOM     16  H61 UNL     1      16.102  57.654  55.171  1.00  0.00     0.178 HD
ENDBRANCH   7  14
BRANCH   1  17
HETATM   17  N1  UNL     1      18.483  56.490  52.899  1.00  0.00    -0.231 N 
ATOM     18  H12 UNL     1      18.892  57.400  53.111  1.00  0.00     0.174 HD
ATOM     19  H11 UNL     1      19.239  55.805  52.946  1.00  0.00     0.174 HD
ENDBRANCH   1  17
TORSDOF 4
ENDMDL
