MODEL 1
REMARK VINA RESULT: -6.601352558      0.000      0.000
REMARK  2 active torsions:
REMARK  status: ('A' for Active; 'I' for Inactive)
REMARK    1  A    between atoms: N1_1  and  C1_4 
REMARK    2  A    between atoms: C2_7  and  N3_8 
REMARK       I    between atoms: N4_11  and  C3_12 
ROOT
HETATM    1  C1  UNL     1      16.130  56.100  52.767  1.00  0.00     0.694 A 
HETATM    2  N2  UNL     1      15.909  56.472  54.021  1.00  0.00    -0.022 N 
ATOM      3  H2  UNL     1      16.708  56.599  54.643  1.00  0.00     0.203 HD
HETATM    4  C2  UNL     1      14.634  56.695  54.519  1.00  0.00     0.705 A 
HETATM    5  N4  UNL     1      13.569  56.537  53.728  1.00  0.00    -0.045 N 
HETATM    6  C3  UNL     1      12.221  56.725  54.087  1.00  0.00     0.357 C 
HETATM    7  N5  UNL     1      11.792  57.117  55.368  1.00  0.00    -0.039 NA
HETATM    8  O1  UNL     1      11.278  56.543  53.238  1.00  0.00    -0.249 OA
HETATM    9  C4  UNL     1      13.829  56.154  52.438  1.00  0.00     0.363 A 
HETATM   10  O2  UNL     1      12.811  56.004  51.683  1.00  0.00    -0.245 OA
HETATM   11  N6  UNL     1      15.066  55.941  51.967  1.00  0.00    -0.140 N 
ATOM     12  H6  UNL     1      15.198  55.656  50.997  1.00  0.00     0.189 HD
ENDROOT
BRANCH   1  13
HETATM   13  N1  UNL     1      17.347  55.895  52.319  1.00  0.00    -0.234 N 
ATOM     14  H12 UNL     1      18.155  55.993  52.934  1.00  0.00     0.174 HD
ATOM     15  H11 UNL     1      17.519  55.633  51.348  1.00  0.00     0.174 HD
ENDBRANCH   1  13
BRANCH   4  16
HETATM   16  N3  UNL     1      14.537  57.042  55.718  1.00  0.00    -0.233 N 
ATOM     17  H32 UNL     1      15.070  57.818  56.109  1.00  0.00     0.174 HD
ATOM     18  H31 UNL     1      13.893  56.514  56.308  1.00  0.00     0.174 HD
ENDBRANCH   4  16
TORSDOF 2
ENDMDL
MODEL 2
REMARK VINA RESULT: -6.370303259      1.260      3.754
REMARK  2 active torsions:
REMARK  status: ('A' for Active; 'I' for Inactive)
REMARK    1  A    between atoms: N1_1  and  C1_4 
REMARK    2  A    between atoms: C2_7  and  N3_8 
REMARK       I    between atoms: N4_11  and  C3_12 
ROOT
HETATM    1  C1  UNL     1      11.452  56.352  54.596  1.00  0.00     0.694 A 
HETATM    2  N2  UNL     1      12.515  56.688  55.314  1.00  0.00    -0.022 N 
ATOM      3  H2  UNL     1      12.382  56.967  56.286  1.00  0.00     0.203 HD
HETATM    4  C2  UNL     1      13.801  56.674  54.795  1.00  0.00     0.705 A 
HETATM    5  N4  UNL     1      14.007  56.312  53.526  1.00  0.00    -0.045 N 
HETATM    6  C3  UNL     1      15.247  56.249  52.862  1.00  0.00     0.357 C 
HETATM    7  N5  UNL     1      16.480  56.567  53.457  1.00  0.00    -0.039 NA
HETATM    8  O1  UNL     1      15.322  55.885  51.634  1.00  0.00    -0.249 OA
HETATM    9  C4  UNL     1      12.890  55.969  52.809  1.00  0.00     0.363 A 
HETATM   10  O2  UNL     1      13.089  55.624  51.597  1.00  0.00    -0.245 OA
HETATM   11  N6  UNL     1      11.651  55.987  53.321  1.00  0.00    -0.140 N 
ATOM     12  H6  UNL     1      10.857  55.722  52.739  1.00  0.00     0.189 HD
ENDROOT
BRANCH   1  13
HETATM   13  N1  UNL     1      10.244  56.373  55.110  1.00  0.00    -0.234 N 
ATOM     14  H12 UNL     1      10.099  56.585  56.097  1.00  0.00     0.174 HD
ATOM     15  H11 UNL     1       9.421  56.180  54.540  1.00  0.00     0.174 HD
ENDBRANCH   1  13
BRANCH   4  16
HETATM   16  N3  UNL     1      14.734  57.011  55.559  1.00  0.00    -0.233 N 
ATOM     17  H32 UNL     1      15.716  56.901  55.307  1.00  0.00     0.174 HD
ATOM     18  H31 UNL     1      14.480  57.407  56.464  1.00  0.00     0.174 HD
ENDBRANCH   4  16
TORSDOF 2
ENDMDL
MODEL 3
REMARK VINA RESULT: -6.251350375      1.173      1.337
REMARK  2 active torsions:
REMARK  status: ('A' for Active; 'I' for Inactive)
REMARK    1  A    between atoms: N1_1  and  C1_4 
REMARK    2  A    between atoms: C2_7  and  N3_8 
REMARK       I    between atoms: N4_11  and  C3_12 
ROOT
HETATM    1  C1  UNL     1      17.146  56.393  53.017  1.00  0.00     0.694 A 
HETATM    2  N2  UNL     1      16.479  56.443  54.162  1.00  0.00    -0.022 N 
ATOM      3  H2  UNL     1      17.001  56.570  55.029  1.00  0.00     0.203 HD
HETATM    4  C2  UNL     1      15.098  56.328  54.227  1.00  0.00     0.705 A 
HETATM    5  N4  UNL     1      14.387  56.162  53.108  1.00  0.00    -0.045 N 
HETATM    6  C3  UNL     1      12.989  56.031  53.014  1.00  0.00     0.357 C 
HETATM    7  N5  UNL     1      12.116  56.059  54.116  1.00  0.00    -0.039 NA
HETATM    8  O1  UNL     1      12.413  55.875  51.878  1.00  0.00    -0.249 OA
HETATM    9  C4  UNL     1      15.104  56.115  51.941  1.00  0.00     0.363 A 
HETATM   10  O2  UNL     1      14.423  55.956  50.873  1.00  0.00    -0.245 OA
HETATM   11  N6  UNL     1      16.439  56.226  51.890  1.00  0.00    -0.140 N 
ATOM     12  H6  UNL     1      16.919  56.183  50.991  1.00  0.00     0.189 HD
ENDROOT
BRANCH   1  13
HETATM   13  N1  UNL     1      18.454  56.503  52.982  1.00  0.00    -0.234 N 
ATOM     14  H12 UNL     1      19.001  56.530  53.842  1.00  0.00     0.174 HD
ATOM     15  H11 UNL     1      18.959  56.565  52.098  1.00  0.00     0.174 HD
ENDBRANCH   1  13
BRANCH   4  16
HETATM   16  N3  UNL     1      14.568  56.388  55.359  1.00  0.00    -0.233 N 
ATOM     17  H32 UNL     1      14.657  57.204  55.965  1.00  0.00     0.174 HD
ATOM     18  H31 UNL     1      14.029  55.578  55.668  1.00  0.00     0.174 HD
ENDBRANCH   4  16
TORSDOF 2
ENDMDL
MODEL 4
REMARK VINA RESULT: -6.246970259      1.608      2.472
REMARK  2 active torsions:
REMARK  status: ('A' for Active; 'I' for Inactive)
REMARK    1  A    between atoms: N1_1  and  C1_4 
REMARK    2  A    between atoms: C2_7  and  N3_8 
REMARK       I    between atoms: N4_11  and  C3_12 
ROOT
HETATM    1  C1  UNL     1      16.563  56.253  53.081  1.00  0.00     0.694 A 
HETATM    2  N2  UNL     1      15.657  56.186  52.116  1.00  0.00    -0.022 N 
ATOM      3  H2  UNL     1      15.968  56.000  51.162  1.00  0.00     0.203 HD
HETATM    4  C2  UNL     1      14.301  56.359  52.352  1.00  0.00     0.705 A 
HETATM    5  N4  UNL     1      13.863  56.603  53.590  1.00  0.00    -0.045 N 
HETATM    6  C3  UNL     1      12.526  56.800  53.985  1.00  0.00     0.357 C 
HETATM    7  N5  UNL     1      11.429  56.766  53.105  1.00  0.00    -0.039 NA
HETATM    8  O1  UNL     1      12.224  57.028  55.210  1.00  0.00    -0.249 OA
HETATM    9  C4  UNL     1      14.823  56.666  54.567  1.00  0.00     0.363 A 
HETATM   10  O2  UNL     1      14.403  56.899  55.749  1.00  0.00    -0.245 OA
HETATM   11  N6  UNL     1      16.131  56.498  54.327  1.00  0.00    -0.140 N 
ATOM     12  H6  UNL     1      16.800  56.556  55.094  1.00  0.00     0.189 HD
ENDROOT
BRANCH   1  13
HETATM   13  N1  UNL     1      17.842  56.086  52.831  1.00  0.00    -0.234 N 
ATOM     14  H12 UNL     1      18.546  56.309  53.535  1.00  0.00     0.174 HD
ATOM     15  H11 UNL     1      18.165  55.731  51.932  1.00  0.00     0.174 HD
ENDBRANCH   1  13
BRANCH   4  16
HETATM   16  N3  UNL     1      13.530  56.277  51.369  1.00  0.00    -0.233 N 
ATOM     17  H32 UNL     1      13.835  55.931  50.460  1.00  0.00     0.174 HD
ATOM     18  H31 UNL     1      12.563  56.572  51.506  1.00  0.00     0.174 HD
ENDBRANCH   4  16
TORSDOF 2
ENDMDL
MODEL 5
REMARK VINA RESULT: -5.678811917      1.766      2.477
REMARK  2 active torsions:
REMARK  status: ('A' for Active; 'I' for Inactive)
REMARK    1  A    between atoms: N1_1  and  C1_4 
REMARK    2  A    between atoms: C2_7  and  N3_8 
REMARK       I    between atoms: N4_11  and  C3_12 
ROOT
HETATM    1  C1  UNL     1      15.742  55.982  52.353  1.00  0.00     0.694 A 
HETATM    2  N2  UNL     1      14.530  55.756  51.865  1.00  0.00    -0.022 N 
ATOM      3  H2  UNL     1      14.444  55.380  50.921  1.00  0.00     0.203 HD
HETATM    4  C2  UNL     1      13.375  56.013  52.589  1.00  0.00     0.705 A 
HETATM    5  N4  UNL     1      13.457  56.506  53.828  1.00  0.00    -0.045 N 
HETATM    6  C3  UNL     1      12.380  56.815  54.681  1.00  0.00     0.357 C 
HETATM    7  N5  UNL     1      11.027  56.645  54.339  1.00  0.00    -0.039 NA
HETATM    8  O1  UNL     1      12.582  57.286  55.857  1.00  0.00    -0.249 OA
HETATM    9  C4  UNL     1      14.722  56.727  54.305  1.00  0.00     0.363 A 
HETATM   10  O2  UNL     1      14.799  57.198  55.489  1.00  0.00    -0.245 OA
HETATM   11  N6  UNL     1      15.832  56.476  53.596  1.00  0.00    -0.140 N 
ATOM     12  H6  UNL     1      16.748  56.662  54.004  1.00  0.00     0.189 HD
ENDROOT
BRANCH   1  13
HETATM   13  N1  UNL     1      16.821  55.731  51.648  1.00  0.00    -0.234 N 
ATOM     14  H12 UNL     1      17.456  54.977  51.911  1.00  0.00     0.174 HD
ATOM     15  H11 UNL     1      17.055  56.281  50.821  1.00  0.00     0.174 HD
ENDBRANCH   1  13
BRANCH   4  16
HETATM   16  N3  UNL     1      12.281  55.765  52.034  1.00  0.00    -0.233 N 
ATOM     17  H32 UNL     1      12.104  55.976  51.051  1.00  0.00     0.174 HD
ATOM     18  H31 UNL     1      11.552  55.336  52.604  1.00  0.00     0.174 HD
ENDBRANCH   4  16
TORSDOF 2
ENDMDL
