MODEL 1
REMARK VINA RESULT: -6.812852639      0.000      0.000
REMARK  5 active torsions:
REMARK  status: ('A' for Active; 'I' for Inactive)
REMARK    1  A    between atoms: N1_1  and  N2_4 
REMARK    2  A    between atoms: N2_4  and  C1_6 
REMARK    3  A    between atoms: C2_11  and  C3_12 
REMARK       I    between atoms: C3_12  and  N5_14 
REMARK    4  A    between atoms: N5_14  and  O2_16 
REMARK    5  A    between atoms: O2_16  and  N6_17 
ROOT
HETATM    1  C1  UNL     1      15.789  56.152  52.378  1.00  0.00     0.712 A 
HETATM    2  N3  UNL     1      15.181  56.424  51.180  1.00  0.00    -0.129 N 
ATOM      3  H3  UNL     1      15.622  56.424  50.260  1.00  0.00     0.205 HD
HETATM    4  N4  UNL     1      13.935  56.681  51.443  1.00  0.00    -0.266 N 
ATOM      5  H4  UNL     1      13.237  56.918  50.738  1.00  0.00     0.189 HD
HETATM    6  C2  UNL     1      13.680  56.594  52.759  1.00  0.00     0.206 A 
HETATM    7  N7  UNL     1      14.870  56.258  53.328  1.00  0.00    -0.167 N 
ATOM      8  H7  UNL     1      15.029  56.111  54.324  1.00  0.00     0.186 HD
ENDROOT
BRANCH   6   9
HETATM    9  C3  UNL     1      12.415  56.805  53.462  1.00  0.00     0.312 C 
HETATM   10  O1  UNL     1      11.378  57.065  52.819  1.00  0.00    -0.262 OA
HETATM   11  N5  UNL     1      12.353  56.721  54.876  1.00  0.00    -0.203 N 
ATOM     12  H5  UNL     1      13.189  56.501  55.417  1.00  0.00     0.200 HD
BRANCH  11  13
HETATM   13  O2  UNL     1      11.192  56.931  55.487  1.00  0.00    -0.161 OA
BRANCH  13  14
HETATM   14  N6  UNL     1      10.276  55.985  55.384  1.00  0.00    -0.286 N 
ATOM     15  H62 UNL     1       9.300  56.184  55.601  1.00  0.00     0.186 HD
ATOM     16  H61 UNL     1      10.590  55.064  55.080  1.00  0.00     0.186 HD
ENDBRANCH  13  14
ENDBRANCH  11  13
ENDBRANCH   6   9
BRANCH   1  17
HETATM   17  N2  UNL     1      17.024  55.888  52.406  1.00  0.00    -0.137 N 
ATOM     18  H2  UNL     1      17.361  55.085  51.876  1.00  0.00     0.205 HD
BRANCH  17  19
HETATM   19  N1  UNL     1      17.933  56.630  53.116  1.00  0.00    -0.331 N 
ATOM     20  H12 UNL     1      17.745  57.627  53.222  1.00  0.00     0.177 HD
ATOM     21  H11 UNL     1      18.773  56.231  53.534  1.00  0.00     0.177 HD
ENDBRANCH  17  19
ENDBRANCH   1  17
TORSDOF 5
ENDMDL
MODEL 2
REMARK VINA RESULT: -6.561207211      1.099      1.288
REMARK  5 active torsions:
REMARK  status: ('A' for Active; 'I' for Inactive)
REMARK    1  A    between atoms: N1_1  and  N2_4 
REMARK    2  A    between atoms: N2_4  and  C1_6 
REMARK    3  A    between atoms: C2_11  and  C3_12 
REMARK       I    between atoms: C3_12  and  N5_14 
REMARK    4  A    between atoms: N5_14  and  O2_16 
REMARK    5  A    between atoms: O2_16  and  N6_17 
ROOT
HETATM    1  C1  UNL     1      15.580  56.049  51.946  1.00  0.00     0.712 A 
HETATM    2  N3  UNL     1      14.538  56.494  51.175  1.00  0.00    -0.129 N 
ATOM      3  H3  UNL     1      14.530  56.590  50.160  1.00  0.00     0.205 HD
HETATM    4  N4  UNL     1      13.562  56.769  51.988  1.00  0.00    -0.266 N 
ATOM      5  H4  UNL     1      12.652  57.122  51.693  1.00  0.00     0.189 HD
HETATM    6  C2  UNL     1      13.902  56.529  53.265  1.00  0.00     0.206 A 
HETATM    7  N7  UNL     1      15.184  56.074  53.211  1.00  0.00    -0.167 N 
ATOM      8  H7  UNL     1      15.748  55.797  54.014  1.00  0.00     0.186 HD
ENDROOT
BRANCH   6   9
HETATM    9  C3  UNL     1      13.098  56.704  54.474  1.00  0.00     0.312 C 
HETATM   10  O1  UNL     1      13.654  56.932  55.568  1.00  0.00    -0.262 OA
HETATM   11  N5  UNL     1      11.685  56.614  54.421  1.00  0.00    -0.203 N 
ATOM     12  H5  UNL     1      11.212  56.435  53.534  1.00  0.00     0.200 HD
BRANCH  11  13
HETATM   13  O2  UNL     1      10.982  56.764  55.538  1.00  0.00    -0.161 OA
BRANCH  13  14
HETATM   14  N6  UNL     1       9.881  56.045  55.659  1.00  0.00    -0.286 N 
ATOM     15  H62 UNL     1       9.141  56.335  56.298  1.00  0.00     0.186 HD
ATOM     16  H61 UNL     1       9.811  55.200  55.092  1.00  0.00     0.186 HD
ENDBRANCH  13  14
ENDBRANCH  11  13
ENDBRANCH   6   9
BRANCH   1  17
HETATM   17  N2  UNL     1      16.672  55.732  51.397  1.00  0.00    -0.137 N 
ATOM     18  H2  UNL     1      16.665  55.488  50.407  1.00  0.00     0.205 HD
BRANCH  17  19
HETATM   19  N1  UNL     1      17.868  55.700  52.068  1.00  0.00    -0.331 N 
ATOM     20  H12 UNL     1      18.169  56.557  52.532  1.00  0.00     0.177 HD
ATOM     21  H11 UNL     1      18.456  54.868  52.121  1.00  0.00     0.177 HD
ENDBRANCH  17  19
ENDBRANCH   1  17
TORSDOF 5
ENDMDL
MODEL 3
REMARK VINA RESULT: -6.297821688      0.891      1.412
REMARK  5 active torsions:
REMARK  status: ('A' for Active; 'I' for Inactive)
REMARK    1  A    between atoms: N1_1  and  N2_4 
REMARK    2  A    between atoms: N2_4  and  C1_6 
REMARK    3  A    between atoms: C2_11  and  C3_12 
REMARK       I    between atoms: C3_12  and  N5_14 
REMARK    4  A    between atoms: N5_14  and  O2_16 
REMARK    5  A    between atoms: O2_16  and  N6_17 
ROOT
HETATM    1  C1  UNL     1      15.625  56.034  52.503  1.00  0.00     0.712 A 
HETATM    2  N3  UNL     1      15.931  56.085  53.837  1.00  0.00    -0.129 N 
ATOM      3  H3  UNL     1      16.851  55.945  54.256  1.00  0.00     0.205 HD
HETATM    4  N4  UNL     1      14.824  56.347  54.465  1.00  0.00    -0.266 N 
ATOM      5  H4  UNL     1      14.748  56.444  55.477  1.00  0.00     0.189 HD
HETATM    6  C2  UNL     1      13.793  56.474  53.614  1.00  0.00     0.206 A 
HETATM    7  N7  UNL     1      14.327  56.271  52.378  1.00  0.00    -0.167 N 
ATOM      8  H7  UNL     1      13.811  56.298  51.499  1.00  0.00     0.186 HD
ENDROOT
BRANCH   6   9
HETATM    9  C3  UNL     1      12.391  56.766  53.912  1.00  0.00     0.312 C 
HETATM   10  O1  UNL     1      11.582  56.964  52.983  1.00  0.00    -0.262 OA
HETATM   11  N5  UNL     1      11.937  56.830  55.253  1.00  0.00    -0.203 N 
ATOM     12  H5  UNL     1      12.582  56.662  56.025  1.00  0.00     0.200 HD
BRANCH  11  13
HETATM   13  O2  UNL     1      10.661  57.110  55.493  1.00  0.00    -0.161 OA
BRANCH  13  14
HETATM   14  N6  UNL     1       9.816  56.095  55.526  1.00  0.00    -0.286 N 
ATOM     15  H62 UNL     1       9.529  55.690  56.417  1.00  0.00     0.186 HD
ATOM     16  H61 UNL     1       9.473  55.746  54.632  1.00  0.00     0.186 HD
ENDBRANCH  13  14
ENDBRANCH  11  13
ENDBRANCH   6   9
BRANCH   1  17
HETATM   17  N2  UNL     1      16.532  55.771  51.663  1.00  0.00    -0.137 N 
ATOM     18  H2  UNL     1      16.263  55.615  50.692  1.00  0.00     0.205 HD
BRANCH  17  19
HETATM   19  N1  UNL     1      17.860  55.686  51.995  1.00  0.00    -0.331 N 
ATOM     20  H12 UNL     1      18.105  55.783  52.981  1.00  0.00     0.177 HD
ATOM     21  H11 UNL     1      18.598  55.532  51.308  1.00  0.00     0.177 HD
ENDBRANCH  17  19
ENDBRANCH   1  17
TORSDOF 5
ENDMDL
MODEL 4
REMARK VINA RESULT: -6.081442753      2.327      5.146
REMARK  5 active torsions:
REMARK  status: ('A' for Active; 'I' for Inactive)
REMARK    1  A    between atoms: N1_1  and  N2_4 
REMARK    2  A    between atoms: N2_4  and  C1_6 
REMARK    3  A    between atoms: C2_11  and  C3_12 
REMARK       I    between atoms: C3_12  and  N5_14 
REMARK    4  A    between atoms: N5_14  and  O2_16 
REMARK    5  A    between atoms: O2_16  and  N6_17 
ROOT
HETATM    1  C1  UNL     1      11.949  56.535  54.497  1.00  0.00     0.712 A 
HETATM    2  N3  UNL     1      11.543  55.684  53.504  1.00  0.00    -0.129 N 
ATOM      3  H3  UNL     1      10.640  55.214  53.436  1.00  0.00     0.205 HD
HETATM    4  N4  UNL     1      12.529  55.593  52.662  1.00  0.00    -0.266 N 
ATOM      5  H4  UNL     1      12.511  55.024  51.816  1.00  0.00     0.189 HD
HETATM    6  C2  UNL     1      13.576  56.343  53.047  1.00  0.00     0.206 A 
HETATM    7  N7  UNL     1      13.182  56.929  54.211  1.00  0.00    -0.167 N 
ATOM      8  H7  UNL     1      13.745  57.567  54.772  1.00  0.00     0.186 HD
ENDROOT
BRANCH   6   9
HETATM    9  C3  UNL     1      14.868  56.518  52.386  1.00  0.00     0.312 C 
HETATM   10  O1  UNL     1      14.940  57.144  51.309  1.00  0.00    -0.262 OA
HETATM   11  N5  UNL     1      16.049  55.978  52.955  1.00  0.00    -0.203 N 
ATOM     12  H5  UNL     1      16.010  55.470  53.839  1.00  0.00     0.200 HD
BRANCH  11  13
HETATM   13  O2  UNL     1      17.206  56.141  52.325  1.00  0.00    -0.161 OA
BRANCH  13  14
HETATM   14  N6  UNL     1      18.219  56.606  53.034  1.00  0.00    -0.286 N 
ATOM     15  H62 UNL     1      18.539  56.111  53.866  1.00  0.00     0.186 HD
ATOM     16  H61 UNL     1      18.657  57.469  52.711  1.00  0.00     0.186 HD
ENDBRANCH  13  14
ENDBRANCH  11  13
ENDBRANCH   6   9
BRANCH   1  17
HETATM   17  N2  UNL     1      11.174  56.781  55.464  1.00  0.00    -0.137 N 
ATOM     18  H2  UNL     1      11.455  57.488  56.144  1.00  0.00     0.205 HD
BRANCH  17  19
HETATM   19  N1  UNL     1       9.973  56.145  55.644  1.00  0.00    -0.331 N 
ATOM     20  H12 UNL     1       9.566  55.672  54.836  1.00  0.00     0.177 HD
ATOM     21  H11 UNL     1       9.479  56.126  56.536  1.00  0.00     0.177 HD
ENDBRANCH  17  19
ENDBRANCH   1  17
TORSDOF 5
ENDMDL
MODEL 5
REMARK VINA RESULT: -5.876592096      2.781      5.194
REMARK  5 active torsions:
REMARK  status: ('A' for Active; 'I' for Inactive)
REMARK    1  A    between atoms: N1_1  and  N2_4 
REMARK    2  A    between atoms: N2_4  and  C1_6 
REMARK    3  A    between atoms: C2_11  and  C3_12 
REMARK       I    between atoms: C3_12  and  N5_14 
REMARK    4  A    between atoms: N5_14  and  O2_16 
REMARK    5  A    between atoms: O2_16  and  N6_17 
ROOT
HETATM    1  C1  UNL     1      12.623  56.088  53.030  1.00  0.00     0.712 A 
HETATM    2  N3  UNL     1      12.863  56.125  51.682  1.00  0.00    -0.129 N 
ATOM      3  H3  UNL     1      12.164  56.133  50.939  1.00  0.00     0.205 HD
HETATM    4  N4  UNL     1      14.154  56.149  51.531  1.00  0.00    -0.266 N 
ATOM      5  H4  UNL     1      14.626  56.179  50.628  1.00  0.00     0.189 HD
HETATM    6  C2  UNL     1      14.788  56.129  52.716  1.00  0.00     0.206 A 
HETATM    7  N7  UNL     1      13.796  56.091  53.647  1.00  0.00    -0.167 N 
ATOM      8  H7  UNL     1      13.934  56.068  54.658  1.00  0.00     0.186 HD
ENDROOT
BRANCH   6   9
HETATM    9  C3  UNL     1      16.225  56.146  52.984  1.00  0.00     0.312 C 
HETATM   10  O1  UNL     1      16.649  56.509  54.101  1.00  0.00    -0.262 OA
HETATM   11  N5  UNL     1      17.151  55.757  51.985  1.00  0.00    -0.203 N 
ATOM     12  H5  UNL     1      16.823  55.450  51.069  1.00  0.00     0.200 HD
BRANCH  11  13
HETATM   13  O2  UNL     1      18.451  55.795  52.254  1.00  0.00    -0.161 OA
BRANCH  13  14
HETATM   14  N6  UNL     1      18.890  56.818  52.966  1.00  0.00    -0.286 N 
ATOM     15  H62 UNL     1      18.562  56.962  53.921  1.00  0.00     0.186 HD
ATOM     16  H61 UNL     1      19.560  57.443  52.519  1.00  0.00     0.186 HD
ENDBRANCH  13  14
ENDBRANCH  11  13
ENDBRANCH   6   9
BRANCH   1  17
HETATM   17  N2  UNL     1      11.433  56.037  53.451  1.00  0.00    -0.137 N 
ATOM     18  H2  UNL     1      10.676  56.035  52.769  1.00  0.00     0.205 HD
BRANCH  17  19
HETATM   19  N1  UNL     1      11.112  55.985  54.784  1.00  0.00    -0.331 N 
ATOM     20  H12 UNL     1      10.519  55.214  55.094  1.00  0.00     0.177 HD
ATOM     21  H11 UNL     1      11.435  56.673  55.463  1.00  0.00     0.177 HD
ENDBRANCH  17  19
ENDBRANCH   1  17
TORSDOF 5
ENDMDL
