REMARK  13 active torsions:
REMARK  status: ('A' for Active; 'I' for Inactive)
REMARK    1  A    between atoms: C2_2  and  C3_3 
REMARK    2  A    between atoms: C3_3  and  C4_4 
REMARK    3  A    between atoms: C4_4  and  C5_5 
REMARK    4  A    between atoms: C5_5  and  C6_6 
REMARK    5  A    between atoms: C6_6  and  N1_7 
REMARK       I    between atoms: N1_7  and  C7_8 
REMARK    6  A    between atoms: C7_8  and  C8_10 
REMARK    7  A    between atoms: C13_15  and  C14_16 
REMARK       I    between atoms: C14_16  and  N2_18 
REMARK    8  A    between atoms: C17_21  and  N3_22 
REMARK       I    between atoms: N3_22  and  C18_24 
REMARK    9  A    between atoms: C18_24  and  C19_26 
REMARK   10  A    between atoms: C19_26  and  C21_28 
REMARK   11  A    between atoms: C21_28  and  C22_29 
REMARK   12  A    between atoms: C22_29  and  C23_30 
REMARK   13  A    between atoms: C23_30  and  N4_31 
ROOT
HETATM    1  C14 UNL     1      -1.110  -0.097  -0.399  1.00  0.00     0.240 C 
HETATM    2  O2  UNL     1      -1.265   1.159  -0.489  1.00  0.00    -0.272 OA
HETATM    3  N2  UNL     1       0.100  -0.612   0.116  1.00  0.00    -0.263 N 
HETATM    4  C15 UNL     1       0.467  -2.026   0.325  1.00  0.00     0.151 C 
HETATM    5  C16 UNL     1       1.932  -1.925  -0.138  1.00  0.00     0.066 C 
HETATM    6  C17 UNL     1       2.304  -0.693   0.738  1.00  0.00     0.200 C 
HETATM    7  N7  UNL     1       1.206   0.172   0.510  1.00  0.00    -0.111 NA
ENDROOT
BRANCH   1   8
HETATM    8  C13 UNL     1      -2.147  -1.062  -0.814  1.00  0.00     0.093 C 
HETATM    9  C8  UNL     1      -3.504  -0.485  -1.049  1.00  0.00     0.106 C 
HETATM   10  C9  UNL     1      -4.485  -1.620  -1.223  1.00  0.00     0.016 C 
HETATM   11  C10 UNL     1      -3.791  -2.960  -1.399  1.00  0.00     0.001 C 
HETATM   12  C11 UNL     1      -2.596  -2.923  -2.291  1.00  0.00     0.001 C 
HETATM   13  C12 UNL     1      -1.752  -1.698  -2.157  1.00  0.00     0.015 C 
BRANCH   9  14
HETATM   14  C7  UNL     1      -3.975   0.421   0.060  1.00  0.00     0.295 C 
HETATM   15  N1  UNL     1      -4.914   1.384  -0.163  1.00  0.00    -0.387 NA
HETATM   16  O1  UNL     1      -3.392   0.144   1.155  1.00  0.00    -0.257 OA
BRANCH  15  17
HETATM   17  C6  UNL     1      -5.857   2.351  -0.387  1.00  0.00     0.159 C 
BRANCH  17  18
HETATM   18  C5  UNL     1      -7.154   2.297   0.381  1.00  0.00     0.059 C 
BRANCH  18  19
HETATM   19  C4  UNL     1      -7.950   1.062   0.145  1.00  0.00     0.006 C 
BRANCH  19  20
HETATM   20  C3  UNL     1      -9.237   1.064   0.922  1.00  0.00     0.000 C 
BRANCH  20  21
HETATM   21  C2  UNL     1     -10.135   2.224   0.552  1.00  0.00    -0.005 C 
HETATM   22  C1  UNL     1     -11.423   2.162   1.358  1.00  0.00     0.005 C 
ENDBRANCH  20  21
ENDBRANCH  19  20
ENDBRANCH  18  19
ENDBRANCH  17  18
ENDBRANCH  15  17
ENDBRANCH   9  14
ENDBRANCH   1   8
BRANCH   6  23
HETATM   23  N3  UNL     1       3.600  -0.208   0.355  1.00  0.00    -0.341 N 
HETATM   24  C18 UNL     1       4.795  -0.612   0.930  1.00  0.00     0.222 C 
HETATM   25  O3  UNL     1       4.778  -1.480   1.869  1.00  0.00    -0.273 OA
ATOM     26  H3  UNL     1       3.645   0.483  -0.394  1.00  0.00     0.164 HD
BRANCH  24  27
HETATM   27  C19 UNL     1       6.173  -0.112   0.558  1.00  0.00     0.074 C 
HETATM   28  C20 UNL     1       6.521   1.067   1.403  1.00  0.00     0.020 C 
BRANCH  27  29
HETATM   29  C21 UNL     1       7.140  -1.244   0.576  1.00  0.00     0.015 C 
BRANCH  29  30
HETATM   30  C22 UNL     1       8.550  -1.029   0.210  1.00  0.00     0.020 C 
BRANCH  30  31
HETATM   31  C23 UNL     1       9.391  -0.104   1.019  1.00  0.00     0.122 C 
BRANCH  31  32
HETATM   32  N4  UNL     1      10.770  -0.106   0.479  1.00  0.00    -0.367 N 
HETATM   33  C24 UNL     1      11.304   0.885  -0.095  1.00  0.00     0.196 C 
HETATM   34  N5  UNL     1      12.640   0.810  -0.592  1.00  0.00    -0.067 NA
HETATM   35  N6  UNL     1      10.608   2.109  -0.274  1.00  0.00    -0.067 NA
ATOM     36  H4  UNL     1      11.322  -0.958   0.576  1.00  0.00     0.161 HD
ENDBRANCH  31  32
ENDBRANCH  30  31
ENDBRANCH  29  30
ENDBRANCH  27  29
ENDBRANCH  24  27
ENDBRANCH   6  23
TORSDOF 13
