REMARK  13 active torsions:
REMARK  status: ('A' for Active; 'I' for Inactive)
REMARK    1  A    between atoms: C2_2  and  C3_3 
REMARK       I    between atoms: C3_3  and  N1_5 
REMARK    2  A    between atoms: N1_5  and  C4_7 
REMARK    3  A    between atoms: C4_7  and  C5_8 
REMARK    4  A    between atoms: C5_8  and  N2_9 
REMARK    5  A    between atoms: N2_9  and  C6_12 
REMARK    6  A    between atoms: C6_12  and  C7_13 
REMARK    7  A    between atoms: C7_13  and  C8_14 
REMARK    8  A    between atoms: C8_14  and  C9_15 
REMARK    9  A    between atoms: C9_15  and  C10_16 
REMARK   10  A    between atoms: C10_16  and  C11_17 
REMARK   11  A    between atoms: C10_16  and  N4_29 
REMARK   12  A    between atoms: C11_17  and  N3_18 
REMARK   13  A    between atoms: N4_29  and  C22_31 
ROOT
HETATM    1  C10 UNL     1      -0.940   0.501  -2.142  1.00  0.00     0.034 C 
ENDROOT
BRANCH   1   2
HETATM    2  C9  UNL     1       0.329  -0.235  -1.997  1.00  0.00     0.058 C 
BRANCH   2   3
HETATM    3  C8  UNL     1       1.428   0.646  -1.363  1.00  0.00     0.008 C 
BRANCH   3   4
HETATM    4  C7  UNL     1       2.713  -0.128  -1.189  1.00  0.00     0.028 C 
BRANCH   4   5
HETATM    5  C6  UNL     1       3.777   0.774  -0.581  1.00  0.00     0.232 C 
BRANCH   5   6
HETATM    6  N2  UNL     1       5.007   0.073  -0.375  1.00  0.00    -0.074 N 
ATOM      7  H22 UNL     1       5.310  -0.400  -1.226  1.00  0.00     0.277 HD
ATOM      8  H21 UNL     1       4.872  -0.742   0.223  1.00  0.00     0.277 HD
BRANCH   6   9
HETATM    9  C5  UNL     1       6.051   0.941   0.145  1.00  0.00     0.251 C 
BRANCH   9  10
HETATM   10  C4  UNL     1       5.738   1.392   1.535  1.00  0.00     0.150 C 
BRANCH  10  11
HETATM   11  N1  UNL     1       5.582   0.367   2.510  1.00  0.00    -0.356 N 
HETATM   12  C3  UNL     1       6.629  -0.526   2.822  1.00  0.00     0.240 C 
HETATM   13  O1  UNL     1       7.745  -0.453   2.250  1.00  0.00    -0.269 OA
ATOM     14  H1  UNL     1       4.690   0.276   2.996  1.00  0.00     0.162 HD
BRANCH  12  15
HETATM   15  C2  UNL     1       6.413  -1.554   3.828  1.00  0.00     0.064 C 
HETATM   16  C1  UNL     1       7.380  -2.395   4.129  1.00  0.00     0.017 C 
ENDBRANCH  12  15
ENDBRANCH  10  11
ENDBRANCH   9  10
ENDBRANCH   6   9
ENDBRANCH   5   6
ENDBRANCH   4   5
ENDBRANCH   3   4
ENDBRANCH   2   3
ENDBRANCH   1   2
BRANCH   1  17
HETATM   17  C11 UNL     1      -1.552   1.064  -0.905  1.00  0.00     0.227 C 
BRANCH  17  18
HETATM   18  N3  UNL     1      -1.958   0.275   0.187  1.00  0.00    -0.049 N 
HETATM   19  C12 UNL     1      -1.444  -1.021   0.359  1.00  0.00     0.278 C 
HETATM   20  C13 UNL     1      -3.422   0.173   0.088  1.00  0.00     0.243 C 
HETATM   21  C14 UNL     1      -4.103  -0.836   0.876  1.00  0.00     0.033 C 
HETATM   22  C15 UNL     1      -4.229  -0.726   2.327  1.00  0.00    -0.009 C 
HETATM   23  C16 UNL     1      -5.694  -0.451   2.733  1.00  0.00     0.011 C 
HETATM   24  C17 UNL     1      -3.415   0.218   3.086  1.00  0.00    -0.043 C 
HETATM   25  C18 UNL     1      -3.302  -0.332   4.527  1.00  0.00     0.015 C 
HETATM   26  C19 UNL     1      -4.092   1.577   3.310  1.00  0.00     0.015 C 
HETATM   27  C20 UNL     1      -2.011   0.456   2.669  1.00  0.00     0.037 C 
HETATM   28  C21 UNL     1      -1.796   1.119   1.373  1.00  0.00     0.243 C 
ENDBRANCH  17  18
ENDBRANCH   1  17
BRANCH   1  29
HETATM   29  N4  UNL     1      -1.873  -0.096  -3.030  1.00  0.00    -0.348 N 
ATOM     30  H4  UNL     1      -2.770  -0.426  -2.674  1.00  0.00     0.167 HD
BRANCH  29  31
HETATM   31  C22 UNL     1      -1.571  -0.236  -4.398  1.00  0.00     0.094 C 
HETATM   32  C23 UNL     1      -1.287   1.096  -5.086  1.00  0.00     0.179 C 
HETATM   33  C24 UNL     1      -1.276   0.848  -6.544  1.00  0.00     0.232 C 
HETATM   34  O2  UNL     1      -1.832   1.628  -7.324  1.00  0.00    -0.273 OA
HETATM   35  N5  UNL     1      -0.606  -0.323  -7.057  1.00  0.00    -0.279 N 
HETATM   36  C25 UNL     1      -0.340  -1.406  -6.173  1.00  0.00     0.328 C 
ATOM     37  H5  UNL     1      -0.328  -0.373  -8.037  1.00  0.00     0.173 HD
HETATM   38  O3  UNL     1       0.245  -2.427  -6.623  1.00  0.00    -0.247 OA
HETATM   39  N6  UNL     1      -0.740  -1.307  -4.815  1.00  0.00    -0.297 N 
ATOM     40  H6  UNL     1      -0.430  -2.006  -4.139  1.00  0.00     0.172 HD
ENDBRANCH  29  31
ENDBRANCH   1  29
TORSDOF 13
