REMARK  14 active torsions:
REMARK  status: ('A' for Active; 'I' for Inactive)
REMARK    1  A    between atoms: C2_2  and  N1_3 
REMARK    2  A    between atoms: N1_3  and  C3_4 
REMARK       I    between atoms: N1_3  and  C5_6 
REMARK    3  A    between atoms: C5_6  and  C6_8 
REMARK    4  A    between atoms: C6_8  and  C7_9 
REMARK    5  A    between atoms: C6_8  and  N5_20 
REMARK    6  A    between atoms: C7_9  and  C8_10 
REMARK    7  A    between atoms: C8_10  and  C9_11 
REMARK    8  A    between atoms: C9_11  and  C10_12 
REMARK    9  A    between atoms: C10_12  and  N2_13 
REMARK       I    between atoms: N2_13  and  C11_15 
REMARK       I    between atoms: N5_20  and  C12_22 
REMARK   10  A    between atoms: C12_22  and  C13_24 
REMARK   11  A    between atoms: C19_30  and  C20_31 
REMARK   12  A    between atoms: C20_31  and  N6_32 
REMARK   13  A    between atoms: N6_32  and  O3_33 
REMARK   14  A    between atoms: N6_32  and  C21_35 
ROOT
HETATM    1  N5  UNL     1       0.717  -0.813   1.050  1.00  0.00    -0.347 N 
ATOM      2  H5  UNL     1       0.360  -0.946   0.104  1.00  0.00     0.163 HD
HETATM    3  C12 UNL     1      -0.191  -0.811   2.120  1.00  0.00     0.222 C 
HETATM    4  O2  UNL     1       0.230  -0.647   3.322  1.00  0.00    -0.273 OA
ENDROOT
BRANCH   1   5
HETATM    5  C6  UNL     1       2.157  -0.632   1.239  1.00  0.00     0.176 C 
BRANCH   5   6
HETATM    6  C5  UNL     1       2.787  -1.858   0.702  1.00  0.00     0.242 C 
HETATM    7  N1  UNL     1       3.881  -2.513   1.281  1.00  0.00    -0.351 N 
HETATM    8  O1  UNL     1       2.280  -2.329  -0.357  1.00  0.00    -0.271 OA
BRANCH   7   9
HETATM    9  C2  UNL     1       4.436  -3.696   0.602  1.00  0.00     0.121 C 
HETATM   10  C1  UNL     1       5.526  -3.260  -0.373  1.00  0.00     0.026 C 
ENDBRANCH   7   9
BRANCH   7  11
HETATM   11  C3  UNL     1       4.437  -2.084   2.517  1.00  0.00     0.121 C 
HETATM   12  C4  UNL     1       3.811  -2.760   3.719  1.00  0.00     0.026 C 
ENDBRANCH   7  11
ENDBRANCH   5   6
BRANCH   5  13
HETATM   13  C7  UNL     1       2.510   0.535   0.317  1.00  0.00     0.035 C 
BRANCH  13  14
HETATM   14  C8  UNL     1       3.966   0.792   0.192  1.00  0.00     0.004 C 
BRANCH  14  15
HETATM   15  C9  UNL     1       4.238   1.957  -0.719  1.00  0.00     0.020 C 
BRANCH  15  16
HETATM   16  C10 UNL     1       3.716   1.720  -2.105  1.00  0.00     0.122 C 
BRANCH  16  17
HETATM   17  N2  UNL     1       4.010   2.842  -2.956  1.00  0.00    -0.365 N 
HETATM   18  C11 UNL     1       3.390   4.098  -2.766  1.00  0.00     0.181 C 
HETATM   19  N3  UNL     1       3.853   5.158  -3.375  1.00  0.00    -0.374 N 
HETATM   20  N4  UNL     1       2.257   4.303  -1.932  1.00  0.00    -0.064 NA
ATOM     21  H32 UNL     1       4.666   5.011  -3.973  1.00  0.00     0.158 HD
ATOM     22  H31 UNL     1       3.406   6.064  -3.238  1.00  0.00     0.158 HD
ATOM     23  H2  UNL     1       4.682   2.728  -3.715  1.00  0.00     0.162 HD
ENDBRANCH  16  17
ENDBRANCH  15  16
ENDBRANCH  14  15
ENDBRANCH  13  14
ENDBRANCH   5  13
ENDBRANCH   1   5
BRANCH   3  24
HETATM   24  C13 UNL     1      -1.647  -0.990   1.948  1.00  0.00     0.080 C 
HETATM   25  C14 UNL     1      -2.002  -2.306   1.286  1.00  0.00     0.017 C 
HETATM   26  C15 UNL     1      -3.158  -2.039   0.351  1.00  0.00     0.042 C 
HETATM   27  C16 UNL     1      -3.479  -0.560   0.440  1.00  0.00     0.161 C 
HETATM   28  C17 UNL     1      -4.667  -0.403   1.339  1.00  0.00     0.044 C 
HETATM   29  N7  UNL     1      -3.764  -0.072  -0.861  1.00  0.00     0.100 N 
HETATM   30  C23 UNL     1      -2.245   0.081   1.054  1.00  0.00     0.055 C 
HETATM   31  C18 UNL     1      -5.484   0.655   0.550  1.00  0.00     0.040 C 
HETATM   32  C19 UNL     1      -5.152   0.262  -0.875  1.00  0.00     0.243 C 
HETATM   33  C22 UNL     1      -2.892   0.954  -1.340  1.00  0.00     0.311 C 
BRANCH  32  34
HETATM   34  C20 UNL     1      -5.587   1.228  -1.914  1.00  0.00     0.194 C 
BRANCH  34  35
HETATM   35  N6  UNL     1      -7.017   1.385  -1.876  1.00  0.00    -0.234 N 
BRANCH  35  36
HETATM   36  O3  UNL     1      -7.745   0.532  -2.631  1.00  0.00    -0.285 OA
ATOM     37  H3  UNL     1      -8.689   0.636  -2.606  1.00  0.00     0.245 HD
ENDBRANCH  35  36
BRANCH  35  38
HETATM   38  C21 UNL     1      -7.632   2.373  -1.093  1.00  0.00     0.376 C 
HETATM   39  O4  UNL     1      -7.034   3.217  -0.373  1.00  0.00    -0.281 OA
ENDBRANCH  35  38
ENDBRANCH  34  35
ENDBRANCH  32  34
ENDBRANCH   3  24
TORSDOF 14
