REMARK  2 active torsions:
REMARK  status: ('A' for Active; 'I' for Inactive)
REMARK    1  A    between atoms: C1_1  and  C8_8 
REMARK    2  A    between atoms: C2_2  and  C3_3 
ROOT
HETATM    1  C3  UNL     1      -0.816  -0.036   0.062  1.00  0.00     0.016 C 
HETATM    2  C4  UNL     1      -1.921  -1.012   0.186  1.00  0.00    -0.006 C 
HETATM    3  C5  UNL     1      -2.609  -0.279  -0.918  1.00  0.00     0.010 C 
HETATM    4  C6  UNL     1      -2.034   0.813  -0.101  1.00  0.00    -0.006 C 
HETATM    5  C7  UNL     1      -2.572   0.010   1.082  1.00  0.00     0.010 C 
ENDROOT
BRANCH   1   6
HETATM    6  C2  UNL     1       0.079  -0.235  -1.078  1.00  0.00    -0.025 C 
HETATM    7  C1  UNL     1       1.353   0.083  -1.164  1.00  0.00    -0.025 C 
BRANCH   7   8
HETATM    8  C8  UNL     1       2.214   0.711  -0.162  1.00  0.00     0.008 A 
HETATM    9  C9  UNL     1       2.426   0.250   1.204  1.00  0.00     0.009 A 
HETATM   10  C10 UNL     1       3.452  -0.140   0.206  1.00  0.00     0.009 A 
ENDBRANCH   7   8
ENDBRANCH   1   6
TORSDOF 2
