REMARK  2 active torsions:
REMARK  status: ('A' for Active; 'I' for Inactive)
REMARK    1  A    between atoms: C2_2  and  N1_4 
REMARK    2  A    between atoms: N1_4  and  C3_6 
ROOT
HETATM    1  N1  UNL     1       0.267   1.003   0.134  1.00  0.00    -0.381 N 
ATOM      2  H1  UNL     1       0.047   1.911   0.543  1.00  0.00     0.160 HD
ENDROOT
BRANCH   1   3
HETATM    3  C2  UNL     1       1.643   0.666  -0.114  1.00  0.00     0.069 C 
HETATM    4  C1  UNL     1       2.042  -0.621  -0.703  1.00  0.00     0.081 C 
HETATM    5  S1  UNL     1       2.810   1.759   0.279  1.00  0.00    -0.066 SA
ENDBRANCH   1   3
BRANCH   1   6
HETATM    6  C3  UNL     1      -0.808   0.100  -0.177  1.00  0.00     0.074 C 
HETATM    7  C4  UNL     1      -2.102   0.782   0.163  1.00  0.00     0.031 C 
HETATM    8  C5  UNL     1      -0.610  -1.194   0.561  1.00  0.00     0.031 C 
ENDBRANCH   1   6
TORSDOF 2
