REMARK  1 active torsions:
REMARK  status: ('A' for Active; 'I' for Inactive)
REMARK    1  A    between atoms: C7_7  and  O1_9 
ROOT
HETATM    1  C1  UNL     1      -0.311   2.025  -0.455  1.00  0.00     0.018 C 
HETATM    2  C2  UNL     1      -0.306   0.587  -0.325  1.00  0.00    -0.013 C 
HETATM    3  C3  UNL     1      -1.461  -0.139   0.292  1.00  0.00     0.012 C 
HETATM    4  C4  UNL     1      -0.937  -1.583   0.168  1.00  0.00     0.008 C 
HETATM    5  C5  UNL     1       0.333  -1.313  -0.568  1.00  0.00     0.021 C 
HETATM    6  C6  UNL     1      -0.103  -0.256  -1.594  1.00  0.00     0.019 C 
HETATM    7  C7  UNL     1       0.914  -0.131   0.184  1.00  0.00     0.065 C 
HETATM    8  C8  UNL     1       1.023  -0.297   1.658  1.00  0.00     0.047 C 
ENDROOT
BRANCH   7   9
HETATM    9  O1  UNL     1       2.112   0.247  -0.401  1.00  0.00    -0.389 OA
ATOM     10  H1  UNL     1       2.882  -0.206  -0.080  1.00  0.00     0.210 HD
ENDBRANCH   7   9
TORSDOF 1
