REMARK  1 active torsions:
REMARK  status: ('A' for Active; 'I' for Inactive)
REMARK    1  A    between atoms: C7_7  and  N1_9 
ROOT
HETATM    1  C1  UNL     1      -2.465   0.601  -0.522  1.00  0.00     0.010 C 
HETATM    2  C2  UNL     1      -1.175  -0.140  -0.449  1.00  0.00    -0.012 C 
HETATM    3  C3  UNL     1      -0.895  -0.672   0.971  1.00  0.00     0.011 C 
HETATM    4  C4  UNL     1       0.437  -0.038   1.210  1.00  0.00     0.022 C 
HETATM    5  C5  UNL     1       0.136   1.398   0.750  1.00  0.00     0.014 C 
HETATM    6  C6  UNL     1       0.044   0.713  -0.622  1.00  0.00     0.025 C 
HETATM    7  C7  UNL     1       1.156  -0.159  -0.114  1.00  0.00     0.127 C 
HETATM    8  C8  UNL     1       1.242  -1.531  -0.680  1.00  0.00     0.047 C 
ENDROOT
BRANCH   7   9
HETATM    9  N1  UNL     1       2.417   0.537  -0.197  1.00  0.00    -0.070 N 
ATOM     10  H13 UNL     1       2.291   1.520   0.045  1.00  0.00     0.275 HD
ATOM     11  H12 UNL     1       3.030   0.242   0.563  1.00  0.00     0.275 HD
ATOM     12  H11 UNL     1       2.902   0.455  -1.090  1.00  0.00     0.275 HD
ENDBRANCH   7   9
TORSDOF 1
