REMARK  3 active torsions:
REMARK  status: ('A' for Active; 'I' for Inactive)
REMARK    1  A    between atoms: C2_2  and  C3_3 
REMARK    2  A    between atoms: C4_4  and  C5_5 
REMARK    3  A    between atoms: C5_5  and  C6_6 
ROOT
HETATM    1  C5  UNL     1      -0.682  -0.014  -0.046  1.00  0.00    -0.006 C 
HETATM    2  C8  UNL     1      -0.543  -1.365  -0.714  1.00  0.00     0.017 C 
HETATM    3  C9  UNL     1      -1.629  -1.846   0.260  1.00  0.00     0.003 C 
HETATM    4  C10 UNL     1      -2.134  -0.419   0.247  1.00  0.00     0.017 C 
ENDROOT
BRANCH   1   5
HETATM    5  C4  UNL     1       0.119   0.152   1.163  1.00  0.00    -0.013 C 
HETATM    6  C3  UNL     1       1.410   0.207   1.153  1.00  0.00    -0.004 C 
BRANCH   6   7
HETATM    7  C2  UNL     1       2.200   0.111  -0.055  1.00  0.00    -0.011 C 
HETATM    8  C1  UNL     1       3.545   0.174  -0.012  1.00  0.00     0.011 C 
ENDBRANCH   6   7
ENDBRANCH   1   5
BRANCH   1   9
HETATM    9  C6  UNL     1      -0.611   1.166  -0.955  1.00  0.00    -0.023 C 
HETATM   10  C7  UNL     1      -1.050   2.355  -0.575  1.00  0.00     0.008 C 
ENDBRANCH   1   9
TORSDOF 3
