REMARK  3 active torsions:
REMARK  status: ('A' for Active; 'I' for Inactive)
REMARK    1  A    between atoms: C2_2  and  C3_3 
REMARK    2  A    between atoms: C3_3  and  C5_5 
REMARK    3  A    between atoms: C5_5  and  C7_7 
ROOT
HETATM    1  C5  UNL     1      -0.130  -0.682   0.136  1.00  0.00     0.017 C 
HETATM    2  C6  UNL     1       0.024  -1.541  -1.109  1.00  0.00     0.015 C 
ENDROOT
BRANCH   1   3
HETATM    3  C3  UNL     1       1.181  -0.165   0.616  1.00  0.00     0.011 C 
HETATM    4  C4  UNL     1       2.019  -1.333   1.149  1.00  0.00     0.015 C 
BRANCH   3   5
HETATM    5  C2  UNL     1       1.972   0.624  -0.309  1.00  0.00    -0.032 C 
HETATM    6  C1  UNL     1       3.193   0.243  -0.669  1.00  0.00     0.007 C 
ENDBRANCH   3   5
ENDBRANCH   1   3
BRANCH   1   7
HETATM    7  C7  UNL     1      -1.263   0.224   0.072  1.00  0.00    -0.084 C 
HETATM    8  C8  UNL     1      -2.641  -0.359  -0.159  1.00  0.00     0.043 C 
HETATM    9  C9  UNL     1      -1.178   1.509   0.200  1.00  0.00    -0.028 C 
HETATM   10  C10 UNL     1      -2.380   2.384   0.121  1.00  0.00     0.036 C 
ENDBRANCH   1   7
TORSDOF 3
