REMARK  0 active torsions:
REMARK  status: ('A' for Active; 'I' for Inactive)
ROOT
HETATM    1  C1  UNL     1      -1.688  -0.947   0.093  1.00  0.00     0.001 C 
HETATM    2  C2  UNL     1      -1.548   0.544   0.050  1.00  0.00     0.005 C 
HETATM    3  C3  UNL     1      -0.244   0.786  -0.665  1.00  0.00    -0.005 C 
HETATM    4  C4  UNL     1       0.704   1.685   0.123  1.00  0.00     0.011 C 
HETATM    5  C5  UNL     1       1.350   0.435   0.660  1.00  0.00    -0.005 A 
HETATM    6  C6  UNL     1       2.052  -0.408  -0.352  1.00  0.00     0.015 A 
HETATM    7  C7  UNL     1       0.594  -0.380  -0.326  1.00  0.00    -0.033 A 
HETATM    8  C8  UNL     1      -0.270  -1.518   0.079  1.00  0.00     0.010 C 
ENDROOT
TORSDOF 0
