REMARK  0 active torsions:
REMARK  status: ('A' for Active; 'I' for Inactive)
ROOT
HETATM    1  C1  UNL     1      -1.221   1.132   0.340  1.00  0.00     0.001 C 
HETATM    2  C2  UNL     1      -1.585  -0.326   0.423  1.00  0.00     0.005 C 
HETATM    3  C3  UNL     1      -0.349  -1.133   0.317  1.00  0.00    -0.009 C 
HETATM    4  C4  UNL     1       0.302  -1.095  -1.073  1.00  0.00     0.015 C 
HETATM    5  C5  UNL     1       0.923   0.084  -0.464  1.00  0.00    -0.036 A 
HETATM    6  C6  UNL     1      -0.060   1.229  -0.595  1.00  0.00     0.010 C 
HETATM    7  C7  UNL     1       1.994   0.277   0.360  1.00  0.00     0.015 A 
HETATM    8  C8  UNL     1       0.897  -0.545   0.849  1.00  0.00    -0.001 A 
ENDROOT
TORSDOF 0
