REMARK  0 active torsions:
REMARK  status: ('A' for Active; 'I' for Inactive)
ROOT
HETATM    1  C1  UNL     1       1.959  -0.814  -0.069  1.00  0.00     0.001 C 
HETATM    2  C2  UNL     1       1.608   0.663  -0.284  1.00  0.00     0.005 C 
HETATM    3  C3  UNL     1       0.340   0.850   0.524  1.00  0.00    -0.010 C 
HETATM    4  C4  UNL     1      -0.759   1.496  -0.277  1.00  0.00     0.005 C 
HETATM    5  C5  UNL     1      -1.756   0.412  -0.616  1.00  0.00     0.001 C 
HETATM    6  C6  UNL     1      -1.634  -0.559   0.522  1.00  0.00     0.005 C 
HETATM    7  C7  UNL     1      -0.166  -0.531   0.862  1.00  0.00    -0.010 C 
HETATM    8  C8  UNL     1       0.542  -1.399  -0.174  1.00  0.00     0.005 C 
ENDROOT
TORSDOF 0
