REMARK  0 active torsions:
REMARK  status: ('A' for Active; 'I' for Inactive)
ROOT
HETATM    1  C1  UNL     1      -1.570  -0.583  -0.197  1.00  0.00     0.005 C 
HETATM    2  C2  UNL     1      -0.457  -1.501   0.159  1.00  0.00     0.032 C 
HETATM    3  C3  UNL     1       0.774  -0.842   0.671  1.00  0.00     0.122 C 
HETATM    4  C4  UNL     1       1.642  -0.224  -0.367  1.00  0.00     0.034 C 
HETATM    5  C5  UNL     1       1.071   1.156  -0.525  1.00  0.00     0.034 C 
HETATM    6  C6  UNL     1       0.032   1.182   0.599  1.00  0.00     0.122 C 
HETATM    7  C7  UNL     1      -1.290   0.862  -0.047  1.00  0.00     0.032 C 
HETATM    8  O1  UNL     1       0.418   0.205   1.503  1.00  0.00    -0.381 OA
ENDROOT
TORSDOF 0
