REMARK  0 active torsions:
REMARK  status: ('A' for Active; 'I' for Inactive)
ROOT
HETATM    1  C1  UNL     1       1.848   0.216  -0.340  1.00  0.00     0.000 C 
HETATM    2  C2  UNL     1       1.247   1.454   0.302  1.00  0.00     0.000 C 
HETATM    3  C3  UNL     1      -0.196   1.487  -0.226  1.00  0.00     0.005 C 
HETATM    4  C4  UNL     1      -0.899   0.403   0.532  1.00  0.00    -0.010 C 
HETATM    5  C5  UNL     1      -2.085  -0.205  -0.189  1.00  0.00     0.005 C 
HETATM    6  C6  UNL     1      -1.262  -1.440  -0.421  1.00  0.00     0.005 C 
HETATM    7  C7  UNL     1      -0.224  -0.897   0.569  1.00  0.00    -0.010 C 
HETATM    8  C8  UNL     1       1.147  -1.012   0.087  1.00  0.00     0.005 C 
ENDROOT
TORSDOF 0
