REMARK  11 active torsions:
REMARK  status: ('A' for Active; 'I' for Inactive)
REMARK    1  A    between atoms: C2_2  and  N1_4 
REMARK    2  A    between atoms: C2_2  and  C15_22 
REMARK    3  A    between atoms: N1_4  and  C4_6 
REMARK    4  A    between atoms: C4_6  and  C5_7 
REMARK    5  A    between atoms: C5_7  and  C6_8 
REMARK    6  A    between atoms: C6_8  and  N2_9 
REMARK    7  A    between atoms: N2_9  and  C7_11 
REMARK    8  A    between atoms: C7_11  and  C8_12 
REMARK    9  A    between atoms: C8_12  and  O1_13 
REMARK   10  A    between atoms: C8_12  and  C9_15 
REMARK   11  A    between atoms: C9_15  and  N3_16 
ROOT
HETATM    1  C5  UNL     1      -0.222   0.395   0.300  1.00  0.00     0.088 C 
ENDROOT
BRANCH   1   2
HETATM    2  C4  UNL     1      -1.287  -0.661   0.181  1.00  0.00     0.061 C 
BRANCH   2   3
HETATM    3  N1  UNL     1      -2.521  -0.424  -0.359  1.00  0.00    -0.393 N 
ATOM      4  H1  UNL     1      -2.748  -0.809  -1.276  1.00  0.00     0.159 HD
BRANCH   3   5
HETATM    5  C2  UNL     1      -3.514   0.365   0.348  1.00  0.00     0.026 C 
HETATM    6  C1  UNL     1      -2.996   1.786   0.414  1.00  0.00     0.038 C 
HETATM    7  C3  UNL     1      -3.528  -0.164   1.774  1.00  0.00     0.038 C 
BRANCH   5   8
HETATM    8  C15 UNL     1      -4.781   0.255  -0.388  1.00  0.00     0.017 C 
HETATM    9  C16 UNL     1      -5.379  -1.117  -0.493  1.00  0.00     0.012 C 
HETATM   10  C17 UNL     1      -6.871  -0.853  -0.564  1.00  0.00    -0.014 C 
HETATM   11  C18 UNL     1      -7.336  -0.581   0.834  1.00  0.00     0.005 C 
HETATM   12  C21 UNL     1      -6.882   0.571  -1.156  1.00  0.00     0.010 C 
HETATM   13  C19 UNL     1      -6.788   0.803   1.095  1.00  0.00     0.005 C 
HETATM   14  C20 UNL     1      -5.914   1.139  -0.059  1.00  0.00    -0.008 C 
ENDBRANCH   5   8
ENDBRANCH   3   5
ENDBRANCH   2   3
ENDBRANCH   1   2
BRANCH   1  15
HETATM   15  C6  UNL     1       0.983  -0.295   1.027  1.00  0.00     0.065 C 
BRANCH  15  16
HETATM   16  N2  UNL     1       1.494  -1.387   0.423  1.00  0.00    -0.380 N 
ATOM     17  H2  UNL     1       1.245  -2.246   0.913  1.00  0.00     0.164 HD
BRANCH  16  18
HETATM   18  C7  UNL     1       2.256  -1.631  -0.672  1.00  0.00     0.093 C 
BRANCH  18  19
HETATM   19  C8  UNL     1       3.768  -1.353  -0.611  1.00  0.00     0.173 C 
BRANCH  19  20
HETATM   20  O1  UNL     1       4.247  -1.776  -1.875  1.00  0.00    -0.389 OA
ATOM     21  H1  UNL     1       5.181  -1.604  -1.837  1.00  0.00     0.210 HD
ENDBRANCH  19  20
BRANCH  19  22
HETATM   22  C9  UNL     1       4.115   0.084  -0.426  1.00  0.00     0.153 C 
BRANCH  22  23
HETATM   23  N3  UNL     1       5.543   0.231  -0.515  1.00  0.00    -0.410 N 
HETATM   24  C10 UNL     1       6.005   1.580  -0.414  1.00  0.00     0.117 C 
HETATM   25  C11 UNL     1       7.417   1.730   0.086  1.00  0.00     0.019 C 
HETATM   26  C12 UNL     1       8.281   0.698  -0.576  1.00  0.00     0.003 C 
HETATM   27  C13 UNL     1       7.804  -0.669  -0.226  1.00  0.00     0.019 C 
HETATM   28  C14 UNL     1       6.333  -0.734   0.151  1.00  0.00     0.117 C 
ENDBRANCH  22  23
ENDBRANCH  19  22
ENDBRANCH  18  19
ENDBRANCH  16  18
ENDBRANCH  15  16
ENDBRANCH   1  15
TORSDOF 11
