REMARK  13 active torsions:
REMARK  status: ('A' for Active; 'I' for Inactive)
REMARK    1  A    between atoms: N1_1  and  C1_5 
REMARK    2  A    between atoms: C1_5  and  C2_6 
REMARK    3  A    between atoms: C2_6  and  N3_11 
REMARK    4  A    between atoms: N2_7  and  O1_9 
REMARK    5  A    between atoms: N3_11  and  C3_13 
REMARK    6  A    between atoms: C3_13  and  C4_14 
REMARK    7  A    between atoms: C4_14  and  C5_15 
REMARK    8  A    between atoms: C5_15  and  C6_16 
REMARK    9  A    between atoms: C6_16  and  C7_17 
REMARK   10  A    between atoms: C7_17  and  C8_18 
REMARK   11  A    between atoms: C8_18  and  C9_19 
REMARK   12  A    between atoms: C9_19  and  C10_20 
REMARK   13  A    between atoms: C10_20  and  N4_21 
ROOT
HETATM    1  C2  UNL     1      -3.497  -0.384   0.453  1.00  0.00     0.133 C 
HETATM    2  N2  UNL     1      -3.329  -1.507   1.023  1.00  0.00    -0.255 N 
ATOM      3  H2  UNL     1      -2.533  -1.558   1.659  1.00  0.00     0.195 HD
ENDROOT
BRANCH   1   4
HETATM    4  C1  UNL     1      -4.580  -0.073  -0.504  1.00  0.00     0.182 C 
HETATM    5  C15 UNL     1      -5.166   1.315  -0.222  1.00  0.00     0.047 C 
HETATM    6  C16 UNL     1      -6.401   1.168   0.601  1.00  0.00     0.003 C 
HETATM    7  C17 UNL     1      -7.508   0.631  -0.299  1.00  0.00     0.000 C 
HETATM    8  C18 UNL     1      -6.953  -0.494  -1.160  1.00  0.00     0.003 C 
HETATM    9  C19 UNL     1      -5.687  -1.062  -0.512  1.00  0.00     0.047 C 
BRANCH   4  10
HETATM   10  N1  UNL     1      -3.930   0.066  -1.805  1.00  0.00    -0.063 N 
ATOM     11  H13 UNL     1      -3.170   0.747  -1.812  1.00  0.00     0.275 HD
ATOM     12  H12 UNL     1      -3.370  -0.744  -2.071  1.00  0.00     0.275 HD
ATOM     13  H11 UNL     1      -4.677   0.281  -2.465  1.00  0.00     0.275 HD
ENDBRANCH   4  10
ENDBRANCH   1   4
BRANCH   1  14
HETATM   14  N3  UNL     1      -2.536   0.655   0.757  1.00  0.00    -0.376 N 
ATOM     15  H3  UNL     1      -2.755   1.343   1.478  1.00  0.00     0.160 HD
BRANCH  14  16
HETATM   16  C3  UNL     1      -1.277   0.737   0.062  1.00  0.00     0.121 C 
BRANCH  16  17
HETATM   17  C4  UNL     1      -0.352  -0.386   0.376  1.00  0.00     0.020 C 
BRANCH  17  18
HETATM   18  C5  UNL     1       0.933  -0.253  -0.385  1.00  0.00     0.002 C 
BRANCH  18  19
HETATM   19  C6  UNL     1       1.693   1.018  -0.085  1.00  0.00     0.004 C 
BRANCH  19  20
HETATM   20  C7  UNL     1       2.024   1.085   1.349  1.00  0.00     0.027 C 
BRANCH  20  21
HETATM   21  C8  UNL     1       2.821   0.023   1.962  1.00  0.00    -0.029 C 
BRANCH  21  22
HETATM   22  C9  UNL     1       4.224  -0.253   1.596  1.00  0.00    -0.001 C 
BRANCH  22  23
HETATM   23  C10 UNL     1       4.611  -0.666   0.248  1.00  0.00     0.299 C 
BRANCH  23  24
HETATM   24  N4  UNL     1       6.049  -0.967   0.175  1.00  0.00     0.091 N 
HETATM   25  C11 UNL     1       6.358  -1.427  -1.173  1.00  0.00     0.273 C 
HETATM   26  C12 UNL     1       7.176  -0.345  -1.839  1.00  0.00     0.032 C 
HETATM   27  C13 UNL     1       6.906   0.843  -0.940  1.00  0.00     0.032 C 
HETATM   28  C14 UNL     1       6.900   0.145   0.428  1.00  0.00     0.273 C 
ENDBRANCH  23  24
ENDBRANCH  22  23
ENDBRANCH  21  22
ENDBRANCH  20  21
ENDBRANCH  19  20
ENDBRANCH  18  19
ENDBRANCH  17  18
ENDBRANCH  16  17
ENDBRANCH  14  16
ENDBRANCH   1  14
BRANCH   2  29
HETATM   29  O1  UNL     1      -4.051  -2.643   0.909  1.00  0.00    -0.288 OA
ATOM     30  H1  UNL     1      -3.925  -3.483   1.335  1.00  0.00     0.244 HD
ENDBRANCH   2  29
TORSDOF 13
