REMARK  0 active torsions:
REMARK  status: ('A' for Active; 'I' for Inactive)
ROOT
HETATM    1  C1  UNL     1      -4.491  -1.324  -0.518  1.00  0.00     0.001 A 
HETATM    2  C2  UNL     1      -4.184  -0.054  -0.958  1.00  0.00     0.002 A 
HETATM    3  C3  UNL     1      -2.893   0.471  -0.786  1.00  0.00     0.032 A 
HETATM    4  C4  UNL     1      -1.974  -0.321  -0.167  1.00  0.00     0.069 A 
HETATM    5  C5  UNL     1      -2.273  -1.597   0.266  1.00  0.00    -0.007 A 
HETATM    6  C6  UNL     1      -3.537  -2.104   0.095  1.00  0.00     0.014 A 
HETATM    7  C7  UNL     1      -1.375  -2.578   0.705  1.00  0.00     0.016 C 
HETATM    8  C8  UNL     1      -0.031  -2.637   0.268  1.00  0.00     0.035 C 
HETATM    9  C9  UNL     1       0.788  -1.521   0.090  1.00  0.00     0.088 A 
HETATM   10  C10 UNL     1       2.146  -1.500   0.122  1.00  0.00     0.023 A 
HETATM   11  C11 UNL     1       3.063  -2.499   0.188  1.00  0.00     0.016 A 
HETATM   12  C12 UNL     1       4.393  -2.134   0.206  1.00  0.00     0.001 A 
HETATM   13  C13 UNL     1       4.758  -0.782   0.156  1.00  0.00     0.002 A 
HETATM   14  C14 UNL     1       3.796   0.214   0.089  1.00  0.00     0.032 A 
HETATM   15  C15 UNL     1       2.483  -0.140   0.072  1.00  0.00     0.071 A 
HETATM   16  N1  UNL     1       1.339   0.598   0.010  1.00  0.00    -0.232 N 
HETATM   17  C16 UNL     1       0.748   1.806  -0.000  1.00  0.00     0.087 A 
HETATM   18  C17 UNL     1       1.304   3.053   0.053  1.00  0.00     0.034 A 
HETATM   19  C18 UNL     1       0.493   4.144   0.114  1.00  0.00     0.002 A 
HETATM   20  C19 UNL     1      -0.882   3.970   0.122  1.00  0.00     0.002 A 
HETATM   21  C20 UNL     1      -1.467   2.728   0.069  1.00  0.00     0.034 A 
HETATM   22  C21 UNL     1      -0.659   1.633   0.003  1.00  0.00     0.087 A 
HETATM   23  N2  UNL     1      -0.809   0.321  -0.002  1.00  0.00    -0.232 N 
HETATM   24  N3  UNL     1       0.388  -0.274   0.018  1.00  0.00    -0.181 N 
ENDROOT
TORSDOF 0
