REMARK  3 active torsions:
REMARK  status: ('A' for Active; 'I' for Inactive)
REMARK    1  A    between atoms: C3_4  and  C4_5 
REMARK    2  A    between atoms: C13_15  and  C14_16 
REMARK    3  A    between atoms: C15_17  and  C16_18 
ROOT
HETATM    1  O1  UNL     1       1.161  -2.223  -1.672  1.00  0.00    -0.287 OA
HETATM    2  C1  UNL     1       1.600  -1.327  -0.935  1.00  0.00     0.187 A 
HETATM    3  C2  UNL     1       2.981  -1.179  -0.722  1.00  0.00     0.093 A 
HETATM    4  C3  UNL     1       3.459  -0.187   0.093  1.00  0.00     0.090 A 
HETATM    5  O2  UNL     1       2.608   0.631   0.679  1.00  0.00    -0.309 OA
HETATM    6  C10 UNL     1       1.320   0.526   0.507  1.00  0.00     0.090 A 
HETATM    7  C11 UNL     1       0.464   1.423   1.155  1.00  0.00     0.040 A 
HETATM    8  C12 UNL     1      -0.891   1.311   0.973  1.00  0.00     0.023 A 
HETATM    9  C13 UNL     1      -1.468   0.350   0.174  1.00  0.00     0.019 A 
HETATM   10  C22 UNL     1      -0.619  -0.529  -0.460  1.00  0.00     0.039 A 
HETATM   11  C23 UNL     1       0.768  -0.447  -0.299  1.00  0.00     0.049 A 
ENDROOT
BRANCH   9  12
HETATM   12  C14 UNL     1      -2.878   0.206  -0.037  1.00  0.00    -0.061 C 
HETATM   13  C15 UNL     1      -4.069   0.098  -0.199  1.00  0.00    -0.061 C 
BRANCH  13  14
HETATM   14  C16 UNL     1      -5.486  -0.055  -0.387  1.00  0.00     0.018 A 
HETATM   15  C17 UNL     1      -5.953  -0.947  -1.344  1.00  0.00     0.020 A 
HETATM   16  C18 UNL     1      -7.304  -1.106  -1.539  1.00  0.00     0.001 A 
HETATM   17  C19 UNL     1      -8.221  -0.399  -0.803  1.00  0.00     0.000 A 
HETATM   18  C20 UNL     1      -7.775   0.485   0.145  1.00  0.00     0.001 A 
HETATM   19  C21 UNL     1      -6.424   0.647   0.343  1.00  0.00     0.020 A 
ENDBRANCH  13  14
ENDBRANCH   9  12
BRANCH   4  20
HETATM   20  C4  UNL     1       4.910  -0.011   0.333  1.00  0.00    -0.002 A 
HETATM   21  C5  UNL     1       5.342   1.013   1.170  1.00  0.00     0.014 A 
HETATM   22  C6  UNL     1       6.683   1.193   1.406  1.00  0.00     0.001 A 
HETATM   23  C7  UNL     1       7.602   0.358   0.811  1.00  0.00     0.000 A 
HETATM   24  C8  UNL     1       7.191  -0.658  -0.019  1.00  0.00     0.001 A 
HETATM   25  C9  UNL     1       5.835  -0.819  -0.241  1.00  0.00     0.014 A 
ENDBRANCH   4  20
TORSDOF 3
