REMARK  3 active torsions:
REMARK  status: ('A' for Active; 'I' for Inactive)
REMARK    1  A    between atoms: C5_5  and  N1_6 
REMARK    2  A    between atoms: C10_13  and  C11_14 
REMARK    3  A    between atoms: C12_15  and  C13_16 
ROOT
HETATM    1  N1  UNL     1      -2.553   1.861  -0.154  1.00  0.00    -0.306 N 
HETATM    2  C6  UNL     1      -3.200   3.029  -0.304  1.00  0.00     0.189 A 
HETATM    3  N2  UNL     1      -2.267   3.959  -0.551  1.00  0.00    -0.350 N 
ATOM      4  H2  UNL     1      -2.457   4.948  -0.710  1.00  0.00     0.166 HD
HETATM    5  C7  UNL     1      -1.042   3.398  -0.559  1.00  0.00     0.060 A 
HETATM    6  C8  UNL     1       0.242   3.855  -0.753  1.00  0.00     0.033 A 
HETATM    7  C9  UNL     1       1.293   2.967  -0.688  1.00  0.00     0.023 A 
HETATM    8  C10 UNL     1       1.112   1.614  -0.432  1.00  0.00     0.020 A 
HETATM    9  C19 UNL     1      -0.180   1.175  -0.241  1.00  0.00     0.053 A 
HETATM   10  C20 UNL     1      -1.231   2.055  -0.305  1.00  0.00     0.068 A 
ENDROOT
BRANCH   8  11
HETATM   11  C11 UNL     1       2.209   0.688  -0.364  1.00  0.00    -0.061 C 
HETATM   12  C12 UNL     1       3.153  -0.083  -0.305  1.00  0.00    -0.061 C 
BRANCH  12  13
HETATM   13  C13 UNL     1       4.281  -0.973  -0.232  1.00  0.00     0.018 A 
HETATM   14  C14 UNL     1       4.401  -1.889   0.814  1.00  0.00     0.020 A 
HETATM   15  C15 UNL     1       5.483  -2.737   0.877  1.00  0.00     0.001 A 
HETATM   16  C16 UNL     1       6.467  -2.700  -0.088  1.00  0.00     0.000 A 
HETATM   17  C17 UNL     1       6.377  -1.807  -1.132  1.00  0.00     0.001 A 
HETATM   18  C18 UNL     1       5.287  -0.966  -1.179  1.00  0.00     0.020 A 
ENDBRANCH  12  13
ENDBRANCH   8  11
BRANCH   1  19
HETATM   19  C5  UNL     1      -3.134   0.587   0.122  1.00  0.00     0.040 A 
HETATM   20  C4  UNL     1      -4.018  -0.019  -0.752  1.00  0.00     0.030 A 
HETATM   21  C3  UNL     1      -4.577  -1.254  -0.478  1.00  0.00     0.009 A 
HETATM   22  C2  UNL     1      -4.268  -1.926   0.686  1.00  0.00    -0.062 A 
HETATM   23  C1  UNL     1      -4.837  -3.255   1.034  1.00  0.00     0.048 C 
HETATM   24  C22 UNL     1      -3.386  -1.341   1.578  1.00  0.00     0.009 A 
HETATM   25  C21 UNL     1      -2.831  -0.093   1.284  1.00  0.00     0.030 A 
ENDBRANCH   1  19
TORSDOF 3
