REMARK  5 active torsions:
REMARK  status: ('A' for Active; 'I' for Inactive)
REMARK    1  A    between atoms: C5_8  and  N2_9 
REMARK    2  A    between atoms: C10_16  and  C11_17 
REMARK    3  A    between atoms: C13_21  and  C14_22 
REMARK    4  A    between atoms: C14_22  and  C15_23 
REMARK    5  A    between atoms: C15_23  and  N5_24 
ROOT
HETATM    1  N2  UNL     1      -4.753  -0.227  -1.078  1.00  0.00    -0.362 N 
HETATM    2  C6  UNL     1      -5.100  -1.375  -1.894  1.00  0.00     0.131 C 
HETATM    3  C7  UNL     1      -4.604  -2.619  -1.187  1.00  0.00     0.077 C 
HETATM    4  C8  UNL     1      -3.137  -2.481  -1.011  1.00  0.00     0.019 A 
HETATM    5  N3  UNL     1      -2.103  -3.351  -1.093  1.00  0.00    -0.368 N 
ATOM      6  H3  UNL     1      -2.183  -4.343  -1.317  1.00  0.00     0.165 HD
HETATM    7  C9  UNL     1      -0.955  -2.703  -0.833  1.00  0.00     0.104 A 
HETATM    8  C10 UNL     1      -1.223  -1.377  -0.573  1.00  0.00     0.033 A 
HETATM    9  C21 UNL     1      -2.604  -1.256  -0.691  1.00  0.00    -0.002 A 
HETATM   10  C22 UNL     1      -3.437  -0.046  -0.515  1.00  0.00     0.166 C 
ENDROOT
BRANCH   8  11
HETATM   11  C11 UNL     1      -0.282  -0.315  -0.240  1.00  0.00     0.117 A 
HETATM   12  N4  UNL     1      -0.582   0.975  -0.015  1.00  0.00    -0.350 N 
HETATM   13  C12 UNL     1       0.543   1.668   0.264  1.00  0.00     0.114 A 
ATOM     14  H4  UNL     1      -1.521   1.372  -0.050  1.00  0.00     0.166 HD
HETATM   15  C13 UNL     1       1.600   0.785   0.216  1.00  0.00     0.028 A 
HETATM   16  N7  UNL     1       1.055  -0.399  -0.092  1.00  0.00    -0.344 N 
ATOM     17  H7  UNL     1       1.588  -1.262  -0.202  1.00  0.00     0.167 HD
BRANCH  15  18
HETATM   18  C14 UNL     1       3.047   1.102   0.460  1.00  0.00     0.088 C 
BRANCH  18  19
HETATM   19  C15 UNL     1       3.809  -0.211   0.318  1.00  0.00     0.278 C 
BRANCH  19  20
HETATM   20  N5  UNL     1       5.212  -0.061   0.530  1.00  0.00     0.092 N 
HETATM   21  C16 UNL     1       5.897   0.695  -0.493  1.00  0.00     0.302 C 
HETATM   22  C17 UNL     1       7.116   1.403   0.030  1.00  0.00     0.302 C 
HETATM   23  N6  UNL     1       7.798   0.728   1.083  1.00  0.00     0.087 N 
HETATM   24  C18 UNL     1       8.782  -0.237   0.632  1.00  0.00     0.310 C 
HETATM   25  C19 UNL     1       6.991   0.132   2.093  1.00  0.00     0.302 C 
HETATM   26  C20 UNL     1       5.533   0.422   1.861  1.00  0.00     0.302 C 
ENDBRANCH  19  20
ENDBRANCH  18  19
ENDBRANCH  15  18
ENDBRANCH   8  11
BRANCH   1  27
HETATM   27  C5  UNL     1      -5.748   0.744  -0.825  1.00  0.00     0.110 A 
HETATM   28  C4  UNL     1      -5.948   1.793  -1.681  1.00  0.00     0.122 A 
HETATM   29  C3  UNL     1      -6.940   2.728  -1.388  1.00  0.00     0.250 A 
HETATM   30  N1  UNL     1      -7.656   2.546  -0.265  1.00  0.00    -0.313 N 
HETATM   31  O1  UNL     1      -7.118   3.691  -2.181  1.00  0.00    -0.268 OA
HETATM   32  C2  UNL     1      -7.482   1.527   0.592  1.00  0.00     0.081 A 
ATOM     33  H1  UNL     1      -8.382   3.229  -0.049  1.00  0.00     0.170 HD
HETATM   34  C1  UNL     1      -8.319   1.401   1.816  1.00  0.00     0.089 C 
HETATM   35  N8  UNL     1      -6.517   0.635   0.288  1.00  0.00    -0.332 N 
ATOM     36  H8  UNL     1      -6.359  -0.151   0.918  1.00  0.00     0.168 HD
ENDBRANCH   1  27
TORSDOF 5
