REMARK  8 active torsions:
REMARK  status: ('A' for Active; 'I' for Inactive)
REMARK    1  A    between atoms: S1_2  and  C2_5 
REMARK    2  A    between atoms: C5_8  and  N1_9 
REMARK    3  A    between atoms: N1_9  and  C6_11 
REMARK    4  A    between atoms: C7_14  and  N3_15 
REMARK    5  A    between atoms: N3_15  and  C8_17 
REMARK    6  A    between atoms: C8_17  and  C9_18 
REMARK    7  A    between atoms: C9_18  and  N4_19 
REMARK    8  A    between atoms: N4_19  and  C10_21 
ROOT
HETATM    1  C6  UNL     1       1.855   2.905   0.202  1.00  0.00     0.262 A 
HETATM    2  N2  UNL     1       1.061   1.814   0.284  1.00  0.00    -0.152 N 
ATOM      3  H2  UNL     1       1.394   0.850   0.283  1.00  0.00     0.188 HD
HETATM    4  C7  UNL     1      -0.220   2.177   0.367  1.00  0.00     0.701 A 
HETATM    5  N6  UNL     1      -0.190   3.539   0.334  1.00  0.00    -0.088 N 
ATOM      6  H6  UNL     1      -1.005   4.151   0.379  1.00  0.00     0.214 HD
HETATM    7  O3  UNL     1       1.039   3.931   0.237  1.00  0.00    -0.185 OA
ENDROOT
BRANCH   4   8
HETATM    8  N3  UNL     1      -1.276   1.451   0.460  1.00  0.00    -0.223 N 
ATOM      9  H3  UNL     1      -2.199   1.882   0.516  1.00  0.00     0.177 HD
BRANCH   8  10
HETATM   10  C8  UNL     1      -1.133   0.020   0.484  1.00  0.00     0.157 C 
BRANCH  10  11
HETATM   11  C9  UNL     1      -2.198  -0.628   1.355  1.00  0.00     0.140 C 
BRANCH  11  12
HETATM   12  N4  UNL     1      -3.526  -0.343   0.889  1.00  0.00    -0.388 N 
ATOM     13  H4  UNL     1      -4.023   0.458   1.278  1.00  0.00     0.159 HD
BRANCH  12  14
HETATM   14  C10 UNL     1      -4.109  -1.062  -0.000  1.00  0.00     0.042 A 
HETATM   15  C11 UNL     1      -3.494  -2.157  -0.565  1.00  0.00     0.047 A 
HETATM   16  C12 UNL     1      -4.123  -2.929  -1.520  1.00  0.00     0.090 A 
HETATM   17  N5  UNL     1      -5.365  -2.582  -1.891  1.00  0.00    -0.365 N 
HETATM   18  C13 UNL     1      -5.999  -1.521  -1.363  1.00  0.00     0.044 A 
ATOM     19  H5  UNL     1      -5.844  -3.142  -2.597  1.00  0.00     0.165 HD
HETATM   20  C14 UNL     1      -7.295  -1.181  -1.766  1.00  0.00     0.030 A 
HETATM   21  C18 UNL     1      -5.389  -0.738  -0.408  1.00  0.00     0.017 A 
HETATM   22  C15 UNL     1      -7.966  -0.099  -1.242  1.00  0.00     0.002 A 
HETATM   23  C16 UNL     1      -7.349   0.681  -0.286  1.00  0.00     0.001 A 
HETATM   24  C17 UNL     1      -6.063   0.348   0.118  1.00  0.00     0.016 A 
ENDBRANCH  12  14
ENDBRANCH  11  12
ENDBRANCH  10  11
ENDBRANCH   8  10
ENDBRANCH   4   8
BRANCH   1  25
HETATM   25  N1  UNL     1       3.112   2.993   0.110  1.00  0.00    -0.320 N 
ATOM     26  H1  UNL     1       3.495   3.937   0.061  1.00  0.00     0.169 HD
BRANCH  25  27
HETATM   27  C5  UNL     1       4.039   1.948   0.068  1.00  0.00     0.035 A 
HETATM   28  C4  UNL     1       5.000   1.892  -0.922  1.00  0.00     0.031 A 
HETATM   29  C3  UNL     1       5.929   0.867  -0.985  1.00  0.00     0.025 A 
HETATM   30  C2  UNL     1       5.935  -0.149  -0.054  1.00  0.00     0.059 A 
HETATM   31  C20 UNL     1       4.979  -0.103   0.939  1.00  0.00     0.025 A 
HETATM   32  C19 UNL     1       4.053   0.925   0.995  1.00  0.00     0.031 A 
BRANCH  30  33
HETATM   33  S1  UNL     1       7.103  -1.458  -0.114  1.00  0.00     0.171 S 
HETATM   34  C1  UNL     1       8.517  -0.963   0.843  1.00  0.00     0.167 C 
HETATM   35  O1  UNL     1       7.484  -1.790  -1.528  1.00  0.00    -0.223 OA
HETATM   36  O2  UNL     1       6.500  -2.657   0.575  1.00  0.00    -0.223 OA
ENDBRANCH  30  33
ENDBRANCH  25  27
ENDBRANCH   1  25
TORSDOF 8
