REMARK  14 active torsions:
REMARK  status: ('A' for Active; 'I' for Inactive)
REMARK    1  A    between atoms: C2_5  and  C3_6 
REMARK    2  A    between atoms: C3_6  and  C4_7 
REMARK    3  A    between atoms: C4_7  and  O1_8 
REMARK    4  A    between atoms: C4_7  and  N3_10 
REMARK    5  A    between atoms: N3_10  and  C5_12 
REMARK    6  A    between atoms: C7_19  and  C8_20 
REMARK    7  A    between atoms: N7_23  and  C9_24 
REMARK    8  A    between atoms: C9_24  and  O2_25 
REMARK    9  A    between atoms: C9_24  and  C10_27 
REMARK   10  A    between atoms: C10_27  and  O3_28 
REMARK   11  A    between atoms: C12_33  and  O5_34 
REMARK   12  A    between atoms: C13_36  and  O6_37 
REMARK   13  A    between atoms: C14_39  and  N8_40 
REMARK   14  A    between atoms: N8_40  and  N9_42 
ROOT
HETATM    1  C5  UNL     1      -0.310  -1.657  -0.370  1.00  0.00     0.145 A 
HETATM    2  N4  UNL     1      -0.119  -0.356  -0.117  1.00  0.00    -0.326 N 
ATOM      3  H4  UNL     1      -0.891   0.286  -0.298  1.00  0.00     0.169 HD
HETATM    4  C6  UNL     1       1.024   0.152   0.359  1.00  0.00     0.116 A 
HETATM    5  N5  UNL     1       1.134   1.431   0.582  1.00  0.00    -0.385 N 
ATOM      6  H51 UNL     1       2.005   1.818   0.945  1.00  0.00     0.157 HD
ATOM      7  H52 UNL     1       0.329   2.024   0.381  1.00  0.00     0.157 HD
HETATM    8  C7  UNL     1       2.107  -0.646   0.629  1.00  0.00     0.076 A 
HETATM    9  C12 UNL     1       1.960  -1.965   0.391  1.00  0.00     0.119 A 
HETATM   10  C13 UNL     1       0.784  -2.504  -0.102  1.00  0.00     0.144 A 
ENDROOT
BRANCH   1  11
HETATM   11  N3  UNL     1      -1.536  -2.222  -0.833  1.00  0.00    -0.324 N 
ATOM     12  H3  UNL     1      -1.530  -3.241  -0.867  1.00  0.00     0.169 HD
BRANCH  11  13
HETATM   13  C4  UNL     1      -2.729  -1.662  -1.244  1.00  0.00     0.122 C 
BRANCH  13  14
HETATM   14  C3  UNL     1      -3.137  -0.293  -1.470  1.00  0.00     0.146 C 
BRANCH  14  15
HETATM   15  C2  UNL     1      -4.057   0.289  -0.470  1.00  0.00     0.081 A 
HETATM   16  N2  UNL     1      -3.708   1.100   0.570  1.00  0.00    -0.284 N 
HETATM   17  N1  UNL     1      -4.751   1.424   1.280  1.00  0.00    -0.237 N 
ATOM     18  H2  UNL     1      -2.757   1.411   0.766  1.00  0.00     0.188 HD
HETATM   19  C1  UNL     1      -4.747   2.282   2.467  1.00  0.00     0.200 C 
HETATM   20  N10 UNL     1      -5.787   0.845   0.731  1.00  0.00    -0.266 N 
HETATM   21  C14 UNL     1      -5.417   0.119  -0.370  1.00  0.00     0.160 A 
ATOM     22  H10 UNL     1      -6.743   0.924   1.077  1.00  0.00     0.190 HD
BRANCH  21  23
HETATM   23  N8  UNL     1      -6.300  -0.607  -1.205  1.00  0.00    -0.289 N 
ATOM     24  H8  UNL     1      -5.955  -1.072  -2.044  1.00  0.00     0.188 HD
BRANCH  23  25
HETATM   25  N9  UNL     1      -7.651  -0.676  -0.861  1.00  0.00    -0.344 N 
ATOM     26  H92 UNL     1      -7.981  -0.205  -0.018  1.00  0.00     0.176 HD
ATOM     27  H91 UNL     1      -8.287  -1.199  -1.463  1.00  0.00     0.176 HD
ENDBRANCH  23  25
ENDBRANCH  21  23
ENDBRANCH  14  15
ENDBRANCH  13  14
BRANCH  13  28
HETATM   28  O1  UNL     1      -3.675  -2.542  -1.476  1.00  0.00    -0.349 OA
ATOM     29  H1  UNL     1      -3.407  -3.441  -1.328  1.00  0.00     0.219 HD
ENDBRANCH  13  28
ENDBRANCH  11  13
ENDBRANCH   1  11
BRANCH  10  30
HETATM   30  O6  UNL     1       0.687  -3.850  -0.330  1.00  0.00    -0.355 OA
ATOM     31  H6  UNL     1       1.424  -4.421  -0.149  1.00  0.00     0.218 HD
ENDBRANCH  10  30
BRANCH   9  32
HETATM   32  O5  UNL     1       3.017  -2.840   0.642  1.00  0.00    -0.357 OA
ATOM     33  H5  UNL     1       2.913  -3.769   0.474  1.00  0.00     0.218 HD
ENDBRANCH   9  32
BRANCH   8  34
HETATM   34  C8  UNL     1       3.363  -0.041   1.153  1.00  0.00     0.124 A 
HETATM   35  N6  UNL     1       4.286   0.407   0.358  1.00  0.00    -0.284 N 
HETATM   36  N7  UNL     1       5.372   0.932   0.847  1.00  0.00    -0.225 N 
ATOM     37  H6  UNL     1       4.160   0.347  -0.652  1.00  0.00     0.188 HD
HETATM   38  S1  UNL     1       5.125   0.811   2.510  1.00  0.00     0.052 SA
HETATM   39  C11 UNL     1       3.582   0.063   2.500  1.00  0.00     0.259 A 
HETATM   40  O4  UNL     1       2.839  -0.299   3.479  1.00  0.00    -0.276 OA
BRANCH  36  41
HETATM   41  C9  UNL     1       6.518   1.493   0.098  1.00  0.00     0.272 C 
BRANCH  41  42
HETATM   42  O2  UNL     1       7.454   0.465   0.018  1.00  0.00    -0.372 OA
ATOM     43  H2  UNL     1       8.190   0.825  -0.463  1.00  0.00     0.212 HD
ENDBRANCH  41  42
BRANCH  41  44
HETATM   44  C10 UNL     1       6.015   1.755  -1.304  1.00  0.00     0.219 C 
BRANCH  44  45
HETATM   45  O3  UNL     1       7.018   2.136  -2.181  1.00  0.00    -0.396 OA
ATOM     46  H3  UNL     1       6.702   2.301  -3.062  1.00  0.00     0.209 HD
ENDBRANCH  44  45
ENDBRANCH  41  44
ENDBRANCH  36  41
ENDBRANCH   8  34
TORSDOF 14
