REMARK  10 active torsions:
REMARK  status: ('A' for Active; 'I' for Inactive)
REMARK    1  A    between atoms: C1_2  and  O2_4 
REMARK    2  A    between atoms: O2_4  and  C2_5 
REMARK    3  A    between atoms: C2_5  and  C3_6 
REMARK    4  A    between atoms: C4_7  and  O3_8 
REMARK    5  A    between atoms: C7_12  and  O4_13 
REMARK    6  A    between atoms: C8_15  and  N2_16 
REMARK    7  A    between atoms: N2_16  and  N3_18 
REMARK    8  A    between atoms: N3_18  and  N4_19 
REMARK       I    between atoms: N4_19  and  C9_21 
REMARK       I    between atoms: C9_21  and  N5_23 
REMARK    9  A    between atoms: C10_25  and  C11_26 
REMARK   10  A    between atoms: C13_34  and  N10_35 
ROOT
HETATM    1  C3  UNL     1      -1.777  -1.280  -0.015  1.00  0.00     0.052 A 
HETATM    2  C4  UNL     1      -3.128  -0.992  -0.183  1.00  0.00     0.107 A 
HETATM    3  C5  UNL     1      -3.453   0.323  -0.599  1.00  0.00     0.083 A 
HETATM    4  C6  UNL     1      -2.523   1.291  -0.836  1.00  0.00     0.067 A 
HETATM    5  C7  UNL     1      -1.189   0.966  -0.660  1.00  0.00     0.110 A 
HETATM    6  C8  UNL     1      -0.809  -0.292  -0.258  1.00  0.00     0.095 A 
HETATM    7  C12 UNL     1      -3.203   2.362  -1.204  1.00  0.00     0.145 A 
HETATM    8  O6  UNL     1      -3.075   3.611  -1.576  1.00  0.00    -0.233 OA
HETATM    9  N9  UNL     1      -4.248   4.147  -1.812  1.00  0.00    -0.237 N 
ATOM     10  H9  UNL     1      -4.396   5.110  -2.114  1.00  0.00     0.197 HD
HETATM   11  C13 UNL     1      -5.227   3.254  -1.601  1.00  0.00     0.223 A 
HETATM   12  C14 UNL     1      -4.565   2.097  -1.207  1.00  0.00     0.122 A 
HETATM   13  N11 UNL     1      -4.756   0.861  -0.843  1.00  0.00    -0.348 N 
ATOM     14  H11 UNL     1      -5.649   0.377  -0.751  1.00  0.00     0.166 HD
ENDROOT
BRANCH   6  15
HETATM   15  N2  UNL     1       0.575  -0.620  -0.094  1.00  0.00    -0.280 N 
ATOM     16  H2  UNL     1       1.096  -0.953  -0.905  1.00  0.00     0.184 HD
BRANCH  15  17
HETATM   17  N3  UNL     1       1.238  -0.505   1.119  1.00  0.00    -0.018 NA
BRANCH  17  18
HETATM   18  N4  UNL     1       2.109   0.561   1.078  1.00  0.00    -0.235 N 
HETATM   19  C9  UNL     1       3.193   0.543   0.164  1.00  0.00     0.337 C 
HETATM   20  O5  UNL     1       3.403  -0.422  -0.631  1.00  0.00    -0.246 OA
HETATM   21  N5  UNL     1       4.095   1.642   0.122  1.00  0.00    -0.319 N 
HETATM   22  C10 UNL     1       5.374   1.494   0.173  1.00  0.00     0.106 C 
ATOM     23  H5  UNL     1       3.714   2.585   0.049  1.00  0.00     0.169 HD
ATOM     24  H4  UNL     1       1.975   1.358   1.701  1.00  0.00     0.189 HD
BRANCH  22  25
HETATM   25  C11 UNL     1       5.936   0.137   0.281  1.00  0.00     0.245 C 
HETATM   26  N6  UNL     1       7.343   0.111   0.667  1.00  0.00    -0.102 NA
HETATM   27  N7  UNL     1       7.670   0.210  -0.684  1.00  0.00    -0.036 NA
HETATM   28  N8  UNL     1       6.408  -0.336  -1.003  1.00  0.00    -0.102 NA
ENDBRANCH  22  25
ENDBRANCH  17  18
ENDBRANCH  15  17
ENDBRANCH   6  15
BRANCH   1  29
HETATM   29  C2  UNL     1      -1.315  -2.417   0.428  1.00  0.00     0.163 C 
BRANCH  29  30
HETATM   30  O2  UNL     1      -1.980  -3.557   0.830  1.00  0.00    -0.275 OA
BRANCH  30  31
HETATM   31  C1  UNL     1      -2.202  -3.782   2.217  1.00  0.00     0.377 C 
HETATM   32  N1  UNL     1      -2.870  -4.923   2.680  1.00  0.00    -0.032 NA
HETATM   33  O1  UNL     1      -1.768  -2.905   2.992  1.00  0.00    -0.242 OA
ENDBRANCH  30  31
ENDBRANCH  29  30
ENDBRANCH   1  29
BRANCH   5  34
HETATM   34  O4  UNL     1      -0.223   1.941  -0.899  1.00  0.00    -0.357 OA
ATOM     35  H4  UNL     1       0.693   1.718  -0.778  1.00  0.00     0.217 HD
ENDBRANCH   5  34
BRANCH   2  36
HETATM   36  O3  UNL     1      -4.127  -1.880   0.015  1.00  0.00    -0.357 OA
ATOM     37  H3  UNL     1      -5.049  -1.683  -0.100  1.00  0.00     0.217 HD
ENDBRANCH   2  36
BRANCH  11  38
HETATM   38  N10 UNL     1      -6.636   3.395  -1.731  1.00  0.00    -0.094 N 
HETATM   39  O7  UNL     1      -7.123   4.533  -1.575  1.00  0.00    -0.530 OA
HETATM   40  O8  UNL     1      -7.494   2.365  -2.013  1.00  0.00    -0.530 OA
ENDBRANCH  11  38
TORSDOF 10
