REMARK  11 active torsions:
REMARK  status: ('A' for Active; 'I' for Inactive)
REMARK    1  A    between atoms: N1_1  and  C1_4 
REMARK    2  A    between atoms: C2_7  and  C3_8 
REMARK       I    between atoms: C3_8  and  N3_10 
REMARK    3  A    between atoms: N3_10  and  C4_12 
REMARK    4  A    between atoms: C5_15  and  N5_16 
REMARK    5  A    between atoms: C6_21  and  N7_22 
REMARK    6  A    between atoms: C7_25  and  N8_26 
REMARK    7  A    between atoms: C8_30  and  C9_31 
REMARK    8  A    between atoms: C11_35  and  C12_36 
REMARK    9  A    between atoms: C12_36  and  O2_37 
REMARK   10  A    between atoms: C13_44  and  N14_45 
REMARK   11  A    between atoms: N14_45  and  O4_47 
ROOT
HETATM    1  C4  UNL     1      -0.895  -1.259  -0.359  1.00  0.00     0.158 A 
HETATM    2  N4  UNL     1      -1.875  -1.984  -0.958  1.00  0.00    -0.174 N 
ATOM      3  H4  UNL     1      -2.842  -1.677  -0.858  1.00  0.00     0.186 HD
HETATM    4  C5  UNL     1      -1.622  -3.084  -1.673  1.00  0.00     0.679 A 
HETATM    5  N6  UNL     1      -0.356  -3.522  -1.829  1.00  0.00    -0.175 N 
ATOM      6  H6  UNL     1      -0.151  -4.360  -2.373  1.00  0.00     0.186 HD
HETATM    7  C6  UNL     1       0.623  -2.818  -1.244  1.00  0.00     0.148 A 
HETATM    8  C7  UNL     1       0.403  -1.683  -0.501  1.00  0.00     0.161 A 
ENDROOT
BRANCH   1   9
HETATM    9  N3  UNL     1      -1.222  -0.090   0.396  1.00  0.00    -0.304 N 
HETATM   10  C3  UNL     1      -2.353  -0.177   1.247  1.00  0.00     0.292 C 
HETATM   11  O1  UNL     1      -2.272  -0.847   2.288  1.00  0.00    -0.264 OA
ATOM     12  H3  UNL     1      -0.669   0.764   0.326  1.00  0.00     0.171 HD
BRANCH  10  13
HETATM   13  C2  UNL     1      -3.602   0.499   0.926  1.00  0.00     0.204 A 
HETATM   14  N2  UNL     1      -3.686   1.225  -0.203  1.00  0.00    -0.170 N 
HETATM   15  C1  UNL     1      -4.808   1.864  -0.542  1.00  0.00     0.692 A 
ATOM     16  H2  UNL     1      -2.873   1.289  -0.815  1.00  0.00     0.186 HD
HETATM   17  N15 UNL     1      -5.885   1.795   0.245  1.00  0.00    -0.021 N 
HETATM   18  C13 UNL     1      -5.805   1.070   1.376  1.00  0.00     0.718 A 
ATOM     19  H15 UNL     1      -6.747   2.280  -0.005  1.00  0.00     0.203 HD
HETATM   20  N13 UNL     1      -4.658   0.419   1.718  1.00  0.00    -0.168 N 
ATOM     21  H13 UNL     1      -4.614  -0.126   2.579  1.00  0.00     0.186 HD
BRANCH  15  22
HETATM   22  N1  UNL     1      -4.856   2.550  -1.630  1.00  0.00    -0.234 N 
ATOM     23  H12 UNL     1      -4.034   2.603  -2.231  1.00  0.00     0.174 HD
ATOM     24  H11 UNL     1      -5.713   3.038  -1.889  1.00  0.00     0.174 HD
ENDBRANCH  15  22
BRANCH  18  25
HETATM   25  N14 UNL     1      -6.851   1.013   2.122  1.00  0.00    -0.098 N 
ATOM     26  H14 UNL     1      -6.813   0.468   2.984  1.00  0.00     0.213 HD
BRANCH  25  27
HETATM   27  O4  UNL     1      -8.014   1.660   1.797  1.00  0.00    -0.276 OA
ATOM     28  H4  UNL     1      -8.787   1.618   2.348  1.00  0.00     0.245 HD
ENDBRANCH  25  27
ENDBRANCH  18  25
ENDBRANCH  10  13
ENDBRANCH   1   9
BRANCH   8  29
HETATM   29  N8  UNL     1       1.480  -0.955   0.111  1.00  0.00    -0.171 N 
HETATM   30  N9  UNL     1       1.573  -0.598   1.381  1.00  0.00     0.003 NA
HETATM   31  N10 UNL     1       2.716   0.068   1.593  1.00  0.00    -0.263 N 
HETATM   32  C8  UNL     1       3.365   0.135   0.421  1.00  0.00     0.187 A 
ATOM     33  H10 UNL     1       3.034   0.453   2.482  1.00  0.00     0.186 HD
HETATM   34  N12 UNL     1       2.581  -0.501  -0.465  1.00  0.00    -0.261 N 
ATOM     35  H12 UNL     1       2.805  -0.619  -1.453  1.00  0.00     0.190 HD
BRANCH  32  36
HETATM   36  C9  UNL     1       4.660   0.777   0.194  1.00  0.00     0.195 A 
HETATM   37  N11 UNL     1       5.343   0.866  -0.961  1.00  0.00    -0.341 N 
HETATM   38  C10 UNL     1       6.492   1.532  -0.761  1.00  0.00     0.125 A 
ATOM     39  H11 UNL     1       5.035   0.485  -1.855  1.00  0.00     0.167 HD
HETATM   40  C11 UNL     1       6.506   1.863   0.576  1.00  0.00     0.094 A 
HETATM   41  O3  UNL     1       5.398   1.389   1.084  1.00  0.00    -0.291 OA
BRANCH  40  42
HETATM   42  C12 UNL     1       7.591   2.621   1.297  1.00  0.00     0.230 C 
BRANCH  42  43
HETATM   43  O2  UNL     1       8.538   1.707   1.795  1.00  0.00    -0.394 OA
ATOM     44  H2  UNL     1       9.222   2.185   2.249  1.00  0.00     0.209 HD
ENDBRANCH  42  43
ENDBRANCH  40  42
ENDBRANCH  32  36
ENDBRANCH   8  29
BRANCH   4  45
HETATM   45  N5  UNL     1      -2.569  -3.766  -2.240  1.00  0.00    -0.234 N 
ATOM     46  H52 UNL     1      -3.526  -3.435  -2.122  1.00  0.00     0.174 HD
ATOM     47  H51 UNL     1      -2.376  -4.606  -2.786  1.00  0.00     0.174 HD
ENDBRANCH   4  45
BRANCH   7  48
HETATM   48  N7  UNL     1       1.832  -3.232  -1.389  1.00  0.00    -0.383 N 
ATOM     49  H72 UNL     1       1.995  -4.074  -1.940  1.00  0.00     0.157 HD
ATOM     50  H71 UNL     1       2.577  -2.696  -0.944  1.00  0.00     0.157 HD
ENDBRANCH   7  48
TORSDOF 11
