REMARK  17 active torsions:
REMARK  status: ('A' for Active; 'I' for Inactive)
REMARK    1  A    between atoms: C2_2  and  C3_3 
REMARK    2  A    between atoms: C3_3  and  N1_4 
REMARK    3  A    between atoms: C3_3  and  C11_15 
REMARK       I    between atoms: N1_4  and  C4_6 
REMARK    4  A    between atoms: C4_6  and  C5_8 
REMARK       I    between atoms: C11_15  and  N2_17 
REMARK    5  A    between atoms: N2_17  and  C12_19 
REMARK    6  A    between atoms: C12_19  and  C13_20 
REMARK    7  A    between atoms: C12_19  and  C29_46 
REMARK       I    between atoms: C13_20  and  N3_22 
REMARK    8  A    between atoms: N3_22  and  C14_24 
REMARK    9  A    between atoms: C14_24  and  C15_25 
REMARK   10  A    between atoms: C14_24  and  C19_29 
REMARK   11  A    between atoms: C15_25  and  C16_26 
REMARK   12  A    between atoms: C19_29  and  O5_30 
REMARK   13  A    between atoms: C19_29  and  N4_32 
REMARK   14  A    between atoms: N4_32  and  C20_34 
REMARK   15  A    between atoms: C20_34  and  C21_35 
REMARK   16  A    between atoms: C20_34  and  C26_41 
REMARK   17  A    between atoms: C21_35  and  C22_37 
REMARK       I    between atoms: C26_41  and  N5_43 
ROOT
HETATM    1  C13 UNL     1       0.092  -0.944  -0.391  1.00  0.00     0.241 C 
HETATM    2  O4  UNL     1       0.061  -0.904   0.887  1.00  0.00    -0.271 OA
HETATM    3  N3  UNL     1      -1.015  -1.481  -1.011  1.00  0.00    -0.347 N 
ATOM      4  H3  UNL     1      -1.049  -1.525  -2.029  1.00  0.00     0.163 HD
ENDROOT
BRANCH   1   5
HETATM    5  C12 UNL     1       1.301  -0.411  -1.021  1.00  0.00     0.184 C 
BRANCH   5   6
HETATM    6  N2  UNL     1       2.187   0.114   0.002  1.00  0.00    -0.345 N 
HETATM    7  C11 UNL     1       3.513  -0.341   0.178  1.00  0.00     0.241 C 
HETATM    8  O3  UNL     1       3.945  -1.247  -0.577  1.00  0.00    -0.271 OA
ATOM      9  H2  UNL     1       1.836   0.844   0.622  1.00  0.00     0.163 HD
BRANCH   7  10
HETATM   10  C3  UNL     1       4.400   0.218   1.210  1.00  0.00     0.176 C 
BRANCH  10  11
HETATM   11  C2  UNL     1       4.288  -0.579   2.483  1.00  0.00     0.030 C 
HETATM   12  C1  UNL     1       2.916  -0.470   3.059  1.00  0.00     0.007 C 
ENDBRANCH  10  11
BRANCH  10  13
HETATM   13  N1  UNL     1       5.777   0.090   0.687  1.00  0.00    -0.347 N 
HETATM   14  C4  UNL     1       6.542   1.267   0.503  1.00  0.00     0.225 C 
HETATM   15  O1  UNL     1       6.024   2.405   0.795  1.00  0.00    -0.273 OA
ATOM     16  H1  UNL     1       6.167  -0.826   0.464  1.00  0.00     0.163 HD
BRANCH  14  17
HETATM   17  C5  UNL     1       7.920   1.272  -0.012  1.00  0.00     0.109 C 
HETATM   18  C6  UNL     1       8.430   2.695  -0.076  1.00  0.00     0.048 C 
HETATM   19  C7  UNL     1       9.645   2.617   0.821  1.00  0.00     0.122 C 
HETATM   20  C8  UNL     1      10.712   1.771   0.210  1.00  0.00     0.034 C 
HETATM   21  O2  UNL     1       9.138   1.755   1.826  1.00  0.00    -0.380 OA
HETATM   22  C9  UNL     1      10.166   0.360   0.395  1.00  0.00     0.035 C 
HETATM   23  C10 UNL     1       8.821   0.649   1.027  1.00  0.00     0.135 C 
ENDBRANCH  14  17
ENDBRANCH  10  13
ENDBRANCH   7  10
ENDBRANCH   5   6
BRANCH   5  24
HETATM   24  C29 UNL     1       1.129   0.681  -2.019  1.00  0.00    -0.022 C 
HETATM   25  C30 UNL     1       0.271   0.414  -3.195  1.00  0.00     0.017 C 
HETATM   26  C31 UNL     1       2.500   1.086  -2.520  1.00  0.00     0.017 C 
HETATM   27  C32 UNL     1       0.547   1.921  -1.318  1.00  0.00     0.017 C 
ENDBRANCH   5  24
ENDBRANCH   1   5
BRANCH   3  28
HETATM   28  C14 UNL     1      -2.158  -1.996  -0.217  1.00  0.00     0.159 C 
BRANCH  28  29
HETATM   29  C15 UNL     1      -2.377  -3.383  -0.613  1.00  0.00     0.037 C 
BRANCH  29  30
HETATM   30  C16 UNL     1      -3.413  -4.207   0.023  1.00  0.00    -0.020 C 
HETATM   31  C17 UNL     1      -3.320  -5.607  -0.644  1.00  0.00     0.009 C 
HETATM   32  C18 UNL     1      -3.196  -4.379   1.526  1.00  0.00     0.009 C 
ENDBRANCH  29  30
ENDBRANCH  28  29
BRANCH  28  33
HETATM   33  C19 UNL     1      -3.218  -1.013  -0.172  1.00  0.00     0.135 C 
BRANCH  33  34
HETATM   34  O5  UNL     1      -2.766   0.198   0.028  1.00  0.00    -0.348 OA
ATOM     35  H5  UNL     1      -3.462   0.844   0.058  1.00  0.00     0.219 HD
ENDBRANCH  33  34
BRANCH  33  36
HETATM   36  N4  UNL     1      -4.604  -1.082  -0.296  1.00  0.00    -0.353 N 
ATOM     37  H4  UNL     1      -5.069  -1.972  -0.475  1.00  0.00     0.162 HD
BRANCH  36  38
HETATM   38  C20 UNL     1      -5.399   0.193  -0.158  1.00  0.00     0.246 C 
BRANCH  38  39
HETATM   39  C21 UNL     1      -6.506  -0.151   0.759  1.00  0.00     0.162 C 
HETATM   40  O6  UNL     1      -6.671  -1.285   1.150  1.00  0.00    -0.295 OA
BRANCH  39  41
HETATM   41  C22 UNL     1      -7.451   0.879   1.236  1.00  0.00     0.058 C 
HETATM   42  C23 UNL     1      -8.618   0.312   2.046  1.00  0.00     0.012 C 
HETATM   43  C24 UNL     1      -7.722   0.522   3.275  1.00  0.00     0.002 C 
HETATM   44  C25 UNL     1      -6.952   1.595   2.501  1.00  0.00     0.012 C 
ENDBRANCH  39  41
ENDBRANCH  38  39
BRANCH  38  45
HETATM   45  C26 UNL     1      -5.882   0.591  -1.483  1.00  0.00     0.249 C 
HETATM   46  O7  UNL     1      -6.211  -0.351  -2.284  1.00  0.00    -0.271 OA
HETATM   47  N5  UNL     1      -6.007   1.909  -1.925  1.00  0.00    -0.359 N 
HETATM   48  C27 UNL     1      -6.549   2.236  -3.246  1.00  0.00     0.152 C 
HETATM   49  C28 UNL     1      -5.592   3.020  -1.112  1.00  0.00     0.152 C 
ENDBRANCH  38  45
ENDBRANCH  36  38
ENDBRANCH  33  36
ENDBRANCH  28  33
ENDBRANCH   3  28
TORSDOF 17
