REMARK  15 active torsions:
REMARK  status: ('A' for Active; 'I' for Inactive)
REMARK    1  A    between atoms: C2_2  and  C3_3 
REMARK    2  A    between atoms: C3_3  and  C5_5 
REMARK    3  A    between atoms: C5_5  and  N1_6 
REMARK    4  A    between atoms: C5_5  and  C21_28 
REMARK       I    between atoms: N1_6  and  C6_8 
REMARK    5  A    between atoms: C6_8  and  C7_10 
REMARK    6  A    between atoms: C7_10  and  N2_11 
REMARK    7  A    between atoms: C7_10  and  C16_22 
REMARK       I    between atoms: N2_11  and  C8_13 
REMARK    8  A    between atoms: C8_13  and  C9_15 
REMARK    9  A    between atoms: C16_22  and  O3_23 
REMARK   10  A    between atoms: C16_22  and  C18_25 
REMARK   11  A    between atoms: C21_28  and  O4_29 
REMARK   12  A    between atoms: C21_28  and  N3_31 
REMARK   13  A    between atoms: C22_32  and  C23_33 
REMARK       I    between atoms: C23_33  and  N4_35 
REMARK   14  A    between atoms: N4_35  and  C24_37 
REMARK   15  A    between atoms: C24_37  and  C25_38 
ROOT
HETATM    1  C5  UNL     1       0.967  -1.492   0.333  1.00  0.00     0.163 C 
ENDROOT
BRANCH   1   2
HETATM    2  C3  UNL     1       0.719  -3.002   0.027  1.00  0.00     0.012 C 
HETATM    3  C4  UNL     1      -0.661  -3.095  -0.589  1.00  0.00     0.012 C 
BRANCH   2   4
HETATM    4  C2  UNL     1       1.700  -3.580  -0.938  1.00  0.00     0.002 C 
HETATM    5  C1  UNL     1       1.415  -5.042  -1.236  1.00  0.00     0.005 C 
ENDBRANCH   2   4
ENDBRANCH   1   2
BRANCH   1   6
HETATM    6  N1  UNL     1      -0.123  -1.188   1.325  1.00  0.00    -0.347 N 
HETATM    7  C6  UNL     1      -1.220  -0.345   0.934  1.00  0.00     0.243 C 
HETATM    8  O1  UNL     1      -1.139   0.085  -0.276  1.00  0.00    -0.271 OA
ATOM      9  H1  UNL     1      -0.084  -1.577   2.267  1.00  0.00     0.163 HD
BRANCH   7  10
HETATM   10  C7  UNL     1      -2.328  -0.014   1.792  1.00  0.00     0.205 C 
BRANCH  10  11
HETATM   11  N2  UNL     1      -3.528  -0.245   1.016  1.00  0.00    -0.345 N 
HETATM   12  C8  UNL     1      -4.028   0.454  -0.073  1.00  0.00     0.223 C 
HETATM   13  O2  UNL     1      -3.480   1.447  -0.585  1.00  0.00    -0.273 OA
ATOM     14  H2  UNL     1      -4.091  -1.042   1.315  1.00  0.00     0.163 HD
BRANCH  12  15
HETATM   15  C9  UNL     1      -5.323  -0.001  -0.696  1.00  0.00     0.082 C 
HETATM   16  C10 UNL     1      -6.522   0.060   0.210  1.00  0.00     0.019 C 
HETATM   17  C11 UNL     1      -6.867   1.420  -0.421  1.00  0.00    -0.009 C 
HETATM   18  C12 UNL     1      -8.275   1.429  -0.981  1.00  0.00     0.005 C 
HETATM   19  C15 UNL     1      -5.939   1.077  -1.542  1.00  0.00     0.003 C 
HETATM   20  C13 UNL     1      -8.119   1.295  -2.478  1.00  0.00     0.001 C 
HETATM   21  C14 UNL     1      -6.842   0.503  -2.608  1.00  0.00     0.006 C 
ENDBRANCH  12  15
ENDBRANCH  10  11
BRANCH  10  22
HETATM   22  C16 UNL     1      -2.357   1.730   1.799  1.00  0.00     0.156 C 
BRANCH  22  23
HETATM   23  O3  UNL     1      -3.516   1.770   2.269  1.00  0.00    -0.388 OA
HETATM   24  C17 UNL     1      -4.384   2.785   2.437  1.00  0.00     0.202 C 
ENDBRANCH  22  23
BRANCH  22  25
HETATM   25  C18 UNL     1      -1.634   1.912   3.344  1.00  0.00     0.009 C 
HETATM   26  C19 UNL     1      -0.308   1.321   3.336  1.00  0.00     0.012 C 
HETATM   27  C20 UNL     1      -1.537   3.400   3.404  1.00  0.00     0.012 C 
ENDBRANCH  22  25
ENDBRANCH  10  22
ENDBRANCH   7  10
ENDBRANCH   1   6
BRANCH   1  28
HETATM   28  C21 UNL     1       2.219  -1.325   1.042  1.00  0.00     0.142 C 
BRANCH  28  29
HETATM   29  O4  UNL     1       2.207  -1.957   2.197  1.00  0.00    -0.348 OA
ATOM     30  H4  UNL     1       3.028  -1.847   2.662  1.00  0.00     0.219 HD
ENDBRANCH  28  29
BRANCH  28  31
HETATM   31  N3  UNL     1       3.406  -0.644   0.751  1.00  0.00    -0.318 N 
HETATM   32  C22 UNL     1       3.871   0.297  -0.222  1.00  0.00     0.087 C 
HETATM   33  C28 UNL     1       5.195   0.726   0.300  1.00  0.00     0.048 A 
HETATM   34  C29 UNL     1       6.520   0.276   0.196  1.00  0.00     0.019 A 
HETATM   35  C30 UNL     1       5.637  -0.750   0.572  1.00  0.00     0.024 A 
HETATM   36  C31 UNL     1       4.611  -0.914   1.623  1.00  0.00     0.036 C 
HETATM   37  C32 UNL     1       4.642  -0.005   2.784  1.00  0.00     0.039 C 
HETATM   38  C33 UNL     1       4.658  -2.324   2.112  1.00  0.00     0.039 C 
BRANCH  32  39
HETATM   39  C23 UNL     1       3.761   0.127  -1.634  1.00  0.00     0.265 C 
HETATM   40  O5  UNL     1       2.910  -0.568  -2.205  1.00  0.00    -0.266 OA
HETATM   41  N4  UNL     1       4.656   0.767  -2.563  1.00  0.00    -0.338 N 
ATOM     42  H4  UNL     1       5.400   1.344  -2.170  1.00  0.00     0.164 HD
BRANCH  41  43
HETATM   43  C24 UNL     1       4.594   0.666  -3.978  1.00  0.00     0.112 A 
HETATM   44  C26 UNL     1       3.951  -0.382  -4.764  1.00  0.00     0.043 A 
HETATM   45  C27 UNL     1       3.260   0.964  -4.611  1.00  0.00     0.043 A 
BRANCH  43  46
HETATM   46  C25 UNL     1       5.728   1.397  -4.674  1.00  0.00     0.259 C 
HETATM   47  N5  UNL     1       6.713   2.019  -3.897  1.00  0.00    -0.060 NA
HETATM   48  O6  UNL     1       5.800   1.456  -5.912  1.00  0.00    -0.274 OA
ENDBRANCH  43  46
ENDBRANCH  41  43
ENDBRANCH  32  39
ENDBRANCH  28  31
ENDBRANCH   1  28
TORSDOF 15
