REMARK  14 active torsions:
REMARK  status: ('A' for Active; 'I' for Inactive)
REMARK    1  A    between atoms: C2_2  and  C3_4 
REMARK    2  A    between atoms: C3_4  and  N1_6 
REMARK       I    between atoms: N1_6  and  C5_8 
REMARK    3  A    between atoms: C5_8  and  C6_10 
REMARK       I    between atoms: N2_13  and  C9_14 
REMARK    4  A    between atoms: C9_14  and  C10_16 
REMARK    5  A    between atoms: C10_16  and  N3_19 
REMARK       I    between atoms: N3_19  and  C13_21 
REMARK    6  A    between atoms: C13_21  and  C14_23 
REMARK    7  A    between atoms: C14_23  and  C15_24 
REMARK    8  A    between atoms: C14_23  and  N4_32 
REMARK    9  A    between atoms: C15_24  and  S1_25 
REMARK   10  A    between atoms: S1_25  and  C16_28 
REMARK       I    between atoms: N4_32  and  C20_34 
REMARK       I    between atoms: C20_34  and  N5_36 
REMARK   11  A    between atoms: N5_36  and  C21_38 
REMARK   12  A    between atoms: C21_38  and  C22_39 
REMARK   13  A    between atoms: C21_38  and  C26_44 
REMARK   14  A    between atoms: C22_39  and  C23_41 
ROOT
HETATM    1  C14 UNL     1      -1.353   1.541   0.306  1.00  0.00     0.095 C 
ENDROOT
BRANCH   1   2
HETATM    2  C13 UNL     1       0.059   1.135   0.481  1.00  0.00     0.266 C 
HETATM    3  N3  UNL     1       0.675   0.416  -0.538  1.00  0.00    -0.339 N 
ATOM      4  H3  UNL     1       0.045   0.291  -1.330  1.00  0.00     0.164 HD
HETATM    5  O4  UNL     1       0.641   1.448   1.586  1.00  0.00    -0.266 OA
BRANCH   3   6
HETATM    6  C10 UNL     1       1.930  -0.191  -0.786  1.00  0.00     0.107 C 
HETATM    7  C11 UNL     1       2.431   0.394  -2.124  1.00  0.00     0.048 C 
HETATM    8  C12 UNL     1       1.538  -1.678  -1.133  1.00  0.00     0.048 C 
BRANCH   6   9
HETATM    9  C9  UNL     1       2.976  -0.252   0.176  1.00  0.00     0.248 C 
HETATM   10  N2  UNL     1       3.936  -1.302   0.334  1.00  0.00    -0.336 N 
HETATM   11  C6  UNL     1       5.121  -1.434   1.233  1.00  0.00     0.180 C 
HETATM   12  C8  UNL     1       4.197  -2.596  -0.160  1.00  0.00     0.129 C 
HETATM   13  C7  UNL     1       4.856  -2.941   1.189  1.00  0.00     0.055 C 
HETATM   14  O3  UNL     1       3.139   0.697   1.024  1.00  0.00    -0.271 OA
BRANCH  11  15
HETATM   15  C5  UNL     1       6.448  -1.203   0.713  1.00  0.00     0.241 C 
HETATM   16  N1  UNL     1       7.394  -0.211   1.119  1.00  0.00    -0.348 N 
ATOM     17  H1  UNL     1       7.140   0.469   1.836  1.00  0.00     0.163 HD
HETATM   18  O2  UNL     1       6.903  -1.957  -0.236  1.00  0.00    -0.271 OA
BRANCH  16  19
HETATM   19  C3  UNL     1       8.732  -0.165   0.508  1.00  0.00     0.149 C 
HETATM   20  C4  UNL     1       8.627   0.083  -0.967  1.00  0.00     0.040 C 
BRANCH  19  21
HETATM   21  C2  UNL     1       9.445  -1.416   0.783  1.00  0.00     0.145 C 
HETATM   22  C1  UNL     1      10.597  -1.927   0.020  1.00  0.00     0.093 C 
HETATM   23  O1  UNL     1       9.027  -2.085   1.731  1.00  0.00    -0.296 OA
ENDBRANCH  19  21
ENDBRANCH  16  19
ENDBRANCH  11  15
ENDBRANCH   6   9
ENDBRANCH   3   6
ENDBRANCH   1   2
BRANCH   1  24
HETATM   24  C15 UNL     1      -1.727   2.770  -0.366  1.00  0.00     0.204 C 
BRANCH  24  25
HETATM   25  S1  UNL     1      -1.107   4.174   0.513  1.00  0.00     0.157 S 
HETATM   26  O5  UNL     1      -1.478   4.038   1.960  1.00  0.00    -0.227 OA
HETATM   27  O6  UNL     1       0.382   4.215   0.444  1.00  0.00    -0.227 OA
BRANCH  25  28
HETATM   28  C16 UNL     1      -1.718   5.714  -0.095  1.00  0.00     0.053 C 
HETATM   29  C17 UNL     1      -1.075   6.839   0.685  1.00  0.00     0.031 C 
HETATM   30  C18 UNL     1      -1.492   5.893  -1.546  1.00  0.00     0.031 C 
HETATM   31  C19 UNL     1      -3.227   5.835   0.194  1.00  0.00     0.031 C 
ENDBRANCH  25  28
ENDBRANCH  24  25
ENDBRANCH   1  24
BRANCH   1  32
HETATM   32  N4  UNL     1      -2.178   0.386   0.181  1.00  0.00    -0.307 N 
HETATM   33  C20 UNL     1      -3.412   0.056   0.736  1.00  0.00     0.321 C 
HETATM   34  O7  UNL     1      -3.967   0.845   1.524  1.00  0.00    -0.247 OA
HETATM   35  N5  UNL     1      -3.979  -1.175   0.339  1.00  0.00    -0.331 N 
ATOM     36  H5  UNL     1      -3.433  -1.790  -0.264  1.00  0.00     0.165 HD
ATOM     37  H4  UNL     1      -1.792  -0.334  -0.430  1.00  0.00     0.170 HD
BRANCH  35  38
HETATM   38  C21 UNL     1      -5.330  -1.615   0.758  1.00  0.00     0.159 C 
BRANCH  38  39
HETATM   39  C22 UNL     1      -5.432  -3.058   0.631  1.00  0.00     0.153 C 
HETATM   40  O8  UNL     1      -4.872  -3.506  -0.410  1.00  0.00    -0.295 OA
BRANCH  39  41
HETATM   41  C23 UNL     1      -6.053  -4.061   1.482  1.00  0.00     0.049 C 
HETATM   42  C24 UNL     1      -5.893  -5.426   0.817  1.00  0.00     0.017 C 
HETATM   43  C25 UNL     1      -7.471  -3.850   1.891  1.00  0.00     0.017 C 
ENDBRANCH  39  41
ENDBRANCH  38  39
BRANCH  38  44
HETATM   44  C26 UNL     1      -6.212  -0.894  -0.298  1.00  0.00     0.007 C 
HETATM   45  C27 UNL     1      -7.659  -1.155  -0.147  1.00  0.00     0.012 C 
HETATM   46  C28 UNL     1      -5.697  -1.167  -1.681  1.00  0.00     0.012 C 
ENDBRANCH  38  44
ENDBRANCH  35  38
ENDBRANCH   1  32
TORSDOF 14
