REMARK  7 active torsions:
REMARK  status: ('A' for Active; 'I' for Inactive)
REMARK    1  A    between atoms: C3_3  and  O1_5 
REMARK    2  A    between atoms: C3_3  and  C5_7 
REMARK    3  A    between atoms: C5_7  and  N1_8 
REMARK    4  A    between atoms: N1_8  and  N2_10 
REMARK    5  A    between atoms: C7_16  and  N4_17 
REMARK    6  A    between atoms: N4_17  and  N5_19 
REMARK    7  A    between atoms: N5_19  and  O2_20 
ROOT
HETATM    1  C1  UNL     1      -2.775   2.521   1.167  1.00  0.00     0.015 C 
HETATM    2  C2  UNL     1      -2.829   1.423   0.664  1.00  0.00    -0.075 C 
HETATM    3  C3  UNL     1      -2.892   0.105   0.033  1.00  0.00     0.163 C 
HETATM    4  C4  UNL     1      -3.407   0.173  -1.377  1.00  0.00     0.065 C 
ENDROOT
BRANCH   3   5
HETATM    5  O1  UNL     1      -3.723  -0.694   0.819  1.00  0.00    -0.373 OA
ATOM      6  H1  UNL     1      -3.764  -1.550   0.409  1.00  0.00     0.212 HD
ENDBRANCH   3   5
BRANCH   3   7
HETATM    7  C5  UNL     1      -1.492  -0.530  -0.018  1.00  0.00     0.178 C 
HETATM    8  C6  UNL     1      -0.638   0.414  -0.782  1.00  0.00     0.181 C 
HETATM    9  N3  UNL     1       0.768   0.337  -0.548  1.00  0.00    -0.366 N 
HETATM   10  C7  UNL     1       1.312  -0.172   0.493  1.00  0.00     0.187 C 
ATOM     11  H3  UNL     1       1.386   0.716  -1.265  1.00  0.00     0.161 HD
HETATM   12  C10 UNL     1       0.437  -0.716   1.513  1.00  0.00     0.288 C 
HETATM   13  O3  UNL     1       0.891  -1.234   2.565  1.00  0.00    -0.264 OA
HETATM   14  N6  UNL     1      -1.001  -0.673   1.335  1.00  0.00    -0.322 N 
ATOM     15  H6  UNL     1      -1.638  -0.741   2.129  1.00  0.00     0.165 HD
BRANCH   7  16
HETATM   16  N1  UNL     1      -1.621  -1.839  -0.594  1.00  0.00    -0.309 N 
ATOM     17  H1  UNL     1      -2.524  -2.209  -0.893  1.00  0.00     0.182 HD
BRANCH  16  18
HETATM   18  N2  UNL     1      -0.468  -2.563  -0.720  1.00  0.00    -0.347 N 
ATOM     19  H22 UNL     1       0.427  -2.180  -0.416  1.00  0.00     0.176 HD
ATOM     20  H21 UNL     1      -0.560  -3.493  -1.129  1.00  0.00     0.176 HD
ENDBRANCH  16  18
ENDBRANCH   7  16
BRANCH  10  21
HETATM   21  N4  UNL     1       2.710  -0.196   0.622  1.00  0.00    -0.255 N 
ATOM     22  H4  UNL     1       3.197  -1.075   0.446  1.00  0.00     0.191 HD
BRANCH  21  23
HETATM   23  N5  UNL     1       3.468   0.920   0.979  1.00  0.00    -0.178 N 
HETATM   24  C8  UNL     1       4.449   1.366   0.279  1.00  0.00     0.112 C 
HETATM   25  C9  UNL     1       4.870   0.722  -0.996  1.00  0.00     0.059 C 
BRANCH  23  26
HETATM   26  O2  UNL     1       3.149   1.574   2.138  1.00  0.00    -0.268 OA
ATOM     27  H2  UNL     1       3.665   2.334   2.381  1.00  0.00     0.247 HD
ENDBRANCH  23  26
ENDBRANCH  21  23
ENDBRANCH  10  21
ENDBRANCH   3   7
TORSDOF 7
