REMARK  3 active torsions:
REMARK  status: ('A' for Active; 'I' for Inactive)
REMARK    1  A    between atoms: N1_2  and  N2_3 
REMARK    2  A    between atoms: N2_3  and  C2_5 
REMARK    3  A    between atoms: C3_6  and  C4_7 
ROOT
HETATM    1  C2  UNL     1       0.761  -0.178  -0.592  1.00  0.00     0.104 C 
HETATM    2  C3  UNL     1       1.683  -0.387   0.333  1.00  0.00     0.034 C 
ENDROOT
BRANCH   1   3
HETATM    3  N2  UNL     1      -0.611  -0.438  -0.376  1.00  0.00    -0.316 N 
ATOM      4  H2  UNL     1      -1.178  -0.994  -1.016  1.00  0.00     0.181 HD
BRANCH   3   5
HETATM    5  N1  UNL     1      -1.116   0.125   0.775  1.00  0.00    -0.146 NA
HETATM    6  C1  UNL     1      -2.520   0.485   0.663  1.00  0.00     0.159 C 
ENDBRANCH   3   5
ENDBRANCH   1   3
BRANCH   2   7
HETATM    7  C4  UNL     1       3.092  -0.126   0.125  1.00  0.00     0.082 C 
HETATM    8  N3  UNL     1       3.538   0.335  -0.994  1.00  0.00    -0.408 N 
ATOM      9  H32 UNL     1       2.868   0.515  -1.741  1.00  0.00     0.155 HD
ATOM     10  H31 UNL     1       4.531   0.519  -1.141  1.00  0.00     0.155 HD
ENDBRANCH   2   7
TORSDOF 3
