REMARK  20 active torsions:
REMARK  status: ('A' for Active; 'I' for Inactive)
REMARK    1  A    between atoms: N1_2  and  C3_4 
REMARK    2  A    between atoms: N1_2  and  C16_26 
REMARK    3  A    between atoms: C3_4  and  C4_5 
REMARK    4  A    between atoms: C4_5  and  C5_6 
REMARK    5  A    between atoms: C5_6  and  N2_7 
REMARK       I    between atoms: N2_7  and  C6_9 
REMARK    6  A    between atoms: C6_9  and  C7_11 
REMARK    7  A    between atoms: C7_11  and  C8_12 
REMARK    8  A    between atoms: C8_12  and  O2_13 
REMARK    9  A    between atoms: O2_13  and  C9_14 
REMARK   10  A    between atoms: C9_14  and  C10_15 
REMARK   11  A    between atoms: C10_15  and  N3_16 
REMARK   12  A    between atoms: C16_26  and  C17_27 
REMARK   13  A    between atoms: C17_27  and  N6_28 
REMARK       I    between atoms: N6_28  and  C18_30 
REMARK   14  A    between atoms: C18_30  and  C19_32 
REMARK   15  A    between atoms: C24_37  and  C25_38 
REMARK   16  A    between atoms: C25_38  and  C26_39 
REMARK   17  A    between atoms: C26_39  and  N8_43 
REMARK   18  A    between atoms: N8_43  and  C27_45 
REMARK   19  A    between atoms: C27_45  and  C28_46 
REMARK   20  A    between atoms: C28_46  and  N9_47 
ROOT
HETATM    1  C16 UNL     1       1.150  -1.298  -0.252  1.00  0.00     0.256 C 
ENDROOT
BRANCH   1   2
HETATM    2  N1  UNL     1      -0.219  -0.767  -0.423  1.00  0.00    -0.073 N 
HETATM    3  C1  UNL     1      -0.781  -1.447  -1.573  1.00  0.00     0.272 C 
HETATM    4  C2  UNL     1      -0.948  -1.179   0.758  1.00  0.00     0.272 C 
BRANCH   2   5
HETATM    5  C3  UNL     1      -0.109   0.634  -0.520  1.00  0.00     0.238 C 
BRANCH   5   6
HETATM    6  C4  UNL     1      -1.295   1.484  -0.212  1.00  0.00     0.047 C 
BRANCH   6   7
HETATM    7  C5  UNL     1      -2.430   1.165  -1.130  1.00  0.00     0.124 C 
BRANCH   7   8
HETATM    8  N2  UNL     1      -3.552   2.034  -0.837  1.00  0.00    -0.361 N 
HETATM    9  C6  UNL     1      -4.182   2.026   0.405  1.00  0.00     0.219 C 
HETATM   10  O1  UNL     1      -3.906   1.322   1.402  1.00  0.00    -0.274 OA
ATOM     11  H2  UNL     1      -3.890   2.669  -1.560  1.00  0.00     0.162 HD
BRANCH   9  12
HETATM   12  C7  UNL     1      -5.343   2.975   0.592  1.00  0.00     0.129 C 
BRANCH  12  13
HETATM   13  C8  UNL     1      -5.918   2.853   1.967  1.00  0.00     0.176 C 
BRANCH  13  14
HETATM   14  O2  UNL     1      -6.366   1.687   2.353  1.00  0.00    -0.389 OA
BRANCH  14  15
HETATM   15  C9  UNL     1      -7.351   0.931   1.925  1.00  0.00     0.197 C 
BRANCH  15  16
HETATM   16  C10 UNL     1      -7.298   0.407   0.535  1.00  0.00     0.287 C 
BRANCH  16  17
HETATM   17  N3  UNL     1      -8.493  -0.446   0.269  1.00  0.00     0.021 N 
HETATM   18  C11 UNL     1      -9.639   0.378   0.156  1.00  0.00     0.288 C 
HETATM   19  C12 UNL     1     -10.798  -0.251  -0.575  1.00  0.00     0.262 C 
HETATM   20  N4  UNL     1     -10.433  -1.135  -1.626  1.00  0.00    -0.071 N 
HETATM   21  C13 UNL     1      -9.063  -1.008  -2.036  1.00  0.00     0.268 C 
ATOM     22  H42 UNL     1     -10.646  -2.100  -1.375  1.00  0.00     0.277 HD
ATOM     23  H41 UNL     1     -11.059  -1.024  -2.423  1.00  0.00     0.277 HD
HETATM   24  C14 UNL     1      -8.205  -1.322  -0.813  1.00  0.00     0.253 C 
HETATM   25  C15 UNL     1      -8.769  -2.448   0.033  1.00  0.00     0.179 C 
HETATM   26  N5  UNL     1      -8.574  -1.522   1.147  1.00  0.00    -0.044 NA
ENDBRANCH  16  17
ENDBRANCH  15  16
ENDBRANCH  14  15
ENDBRANCH  13  14
ENDBRANCH  12  13
ENDBRANCH   9  12
ENDBRANCH   7   8
ENDBRANCH   6   7
ENDBRANCH   5   6
ENDBRANCH   2   5
ENDBRANCH   1   2
BRANCH   1  27
HETATM   27  C17 UNL     1       2.126  -0.656  -1.173  1.00  0.00     0.151 C 
BRANCH  27  28
HETATM   28  N6  UNL     1       3.457  -1.251  -0.979  1.00  0.00    -0.355 N 
HETATM   29  C18 UNL     1       4.138  -1.212   0.247  1.00  0.00     0.252 C 
HETATM   30  O3  UNL     1       3.656  -0.667   1.258  1.00  0.00    -0.268 OA
ATOM     31  H6  UNL     1       3.905  -1.712  -1.771  1.00  0.00     0.162 HD
BRANCH  29  32
HETATM   32  C19 UNL     1       5.461  -1.841   0.363  1.00  0.00     0.038 A 
HETATM   33  C20 UNL     1       5.557  -2.911   1.265  1.00  0.00     0.017 A 
HETATM   34  C21 UNL     1       6.716  -3.602   1.382  1.00  0.00     0.001 A 
HETATM   35  C22 UNL     1       7.797  -3.254   0.618  1.00  0.00     0.001 A 
HETATM   36  C23 UNL     1       7.712  -2.212  -0.262  1.00  0.00     0.008 A 
HETATM   37  C24 UNL     1       6.530  -1.476  -0.407  1.00  0.00    -0.035 A 
BRANCH  37  38
HETATM   38  C25 UNL     1       6.487  -0.326  -1.354  1.00  0.00     0.115 C 
BRANCH  38  39
HETATM   39  C26 UNL     1       6.482   1.000  -0.715  1.00  0.00     0.074 C 
HETATM   40  N7  UNL     1       5.477   1.805  -1.014  1.00  0.00    -0.389 N 
ATOM     41  H72 UNL     1       4.790   1.420  -1.662  1.00  0.00     0.157 HD
ATOM     42  H71 UNL     1       5.474   2.724  -0.571  1.00  0.00     0.157 HD
BRANCH  39  43
HETATM   43  N8  UNL     1       7.419   1.525   0.168  1.00  0.00    -0.378 N 
ATOM     44  H8  UNL     1       7.081   1.995   1.008  1.00  0.00     0.160 HD
BRANCH  43  45
HETATM   45  C27 UNL     1       8.828   1.441  -0.040  1.00  0.00     0.140 C 
BRANCH  45  46
HETATM   46  C28 UNL     1       9.601   2.213   1.035  1.00  0.00     0.141 C 
BRANCH  46  47
HETATM   47  N9  UNL     1      11.006   2.008   0.733  1.00  0.00    -0.365 N 
HETATM   48  C29 UNL     1      11.738   1.209   1.442  1.00  0.00     0.197 C 
HETATM   49  N10 UNL     1      13.104   0.962   1.208  1.00  0.00    -0.067 NA
HETATM   50  N11 UNL     1      11.105   0.540   2.542  1.00  0.00    -0.067 NA
ATOM     51  H9  UNL     1      11.425   2.503  -0.054  1.00  0.00     0.161 HD
ENDBRANCH  46  47
ENDBRANCH  45  46
ENDBRANCH  43  45
ENDBRANCH  39  43
ENDBRANCH  38  39
ENDBRANCH  37  38
ENDBRANCH  29  32
ENDBRANCH  27  28
ENDBRANCH   1  27
TORSDOF 20
