REMARK  21 active torsions:
REMARK  status: ('A' for Active; 'I' for Inactive)
REMARK    1  A    between atoms: N1_2  and  C4_5 
REMARK    2  A    between atoms: C4_5  and  C5_6 
REMARK    3  A    between atoms: C5_6  and  N2_7 
REMARK       I    between atoms: N2_7  and  C6_9 
REMARK    4  A    between atoms: C6_9  and  C7_11 
REMARK    5  A    between atoms: C7_11  and  N3_12 
REMARK       I    between atoms: N3_12  and  C8_14 
REMARK    6  A    between atoms: C8_14  and  C9_16 
REMARK    7  A    between atoms: C9_16  and  N4_17 
REMARK    8  A    between atoms: C9_16  and  C10_21 
REMARK    9  A    between atoms: C9_16  and  C24_48 
REMARK   10  A    between atoms: C10_21  and  C11_22 
REMARK   11  A    between atoms: C11_22  and  C12_23 
REMARK   12  A    between atoms: C12_23  and  N5_24 
REMARK   13  A    between atoms: N5_24  and  C13_26 
REMARK   14  A    between atoms: C13_26  and  C14_27 
REMARK   15  A    between atoms: C14_27  and  C15_28 
REMARK   16  A    between atoms: C15_28  and  C16_29 
REMARK   17  A    between atoms: C16_29  and  N6_30 
REMARK       I    between atoms: N6_30  and  C17_32 
REMARK   18  A    between atoms: C17_32  and  C18_34 
REMARK   19  A    between atoms: C18_34  and  C19_35 
REMARK   20  A    between atoms: N8_41  and  N9_43 
REMARK   21  A    between atoms: C24_48  and  C25_49 
ROOT
HETATM    1  C9  UNL     1       1.452  -1.260   0.231  1.00  0.00     0.226 C 
ENDROOT
BRANCH   1   2
HETATM    2  C8  UNL     1       2.514  -1.145  -0.830  1.00  0.00     0.258 C 
HETATM    3  N3  UNL     1       3.796  -0.554  -0.598  1.00  0.00    -0.350 N 
ATOM      4  H3  UNL     1       4.040  -0.179   0.318  1.00  0.00     0.163 HD
HETATM    5  O2  UNL     1       2.253  -1.589  -1.962  1.00  0.00    -0.270 OA
BRANCH   3   6
HETATM    6  C7  UNL     1       4.733  -0.502  -1.689  1.00  0.00     0.225 C 
BRANCH   6   7
HETATM    7  C6  UNL     1       6.002   0.104  -1.323  1.00  0.00     0.235 C 
HETATM    8  N2  UNL     1       6.319   0.611  -0.062  1.00  0.00    -0.358 N 
ATOM      9  H2  UNL     1       5.633   0.558   0.691  1.00  0.00     0.162 HD
HETATM   10  O1  UNL     1       6.873   0.164  -2.254  1.00  0.00    -0.272 OA
BRANCH   8  11
HETATM   11  C5  UNL     1       7.613   1.211   0.188  1.00  0.00     0.150 C 
BRANCH  11  12
HETATM   12  C4  UNL     1       7.797   2.430  -0.651  1.00  0.00     0.255 C 
BRANCH  12  13
HETATM   13  N1  UNL     1       9.098   3.057  -0.419  1.00  0.00    -0.077 N 
HETATM   14  C1  UNL     1       9.483   3.729  -1.636  1.00  0.00     0.271 C 
HETATM   15  C2  UNL     1      10.075   2.026  -0.098  1.00  0.00     0.271 C 
HETATM   16  C3  UNL     1       8.953   4.036   0.625  1.00  0.00     0.271 C 
ENDBRANCH  12  13
ENDBRANCH  11  12
ENDBRANCH   8  11
ENDBRANCH   6   7
ENDBRANCH   3   6
ENDBRANCH   1   2
BRANCH   1  17
HETATM   17  N4  UNL     1       1.843  -0.400   1.318  1.00  0.00    -0.058 N 
ATOM     18  H43 UNL     1       2.780  -0.598   1.667  1.00  0.00     0.276 HD
ATOM     19  H42 UNL     1       2.013   0.562   1.025  1.00  0.00     0.276 HD
ATOM     20  H41 UNL     1       1.124  -0.478   2.037  1.00  0.00     0.276 HD
ENDBRANCH   1  17
BRANCH   1  21
HETATM   21  C10 UNL     1       0.195  -0.831  -0.367  1.00  0.00     0.019 C 
BRANCH  21  22
HETATM   22  C11 UNL     1      -1.057  -0.686   0.375  1.00  0.00    -0.008 C 
BRANCH  22  23
HETATM   23  C12 UNL     1      -1.666  -1.784   1.133  1.00  0.00     0.148 C 
BRANCH  23  24
HETATM   24  N5  UNL     1      -2.957  -1.427   1.722  1.00  0.00    -0.375 N 
ATOM     25  H5  UNL     1      -3.022  -1.340   2.736  1.00  0.00     0.161 HD
BRANCH  24  26
HETATM   26  C13 UNL     1      -4.132  -1.195   0.939  1.00  0.00     0.092 C 
HETATM   27  N8  UNL     1      -4.554  -1.965   0.048  1.00  0.00    -0.287 N 
ATOM     28  H8  UNL     1      -5.406  -1.625  -0.399  1.00  0.00     0.188 HD
BRANCH  26  29
HETATM   29  C14 UNL     1      -4.905   0.070   1.249  1.00  0.00     0.079 C 
BRANCH  29  30
HETATM   30  C15 UNL     1      -5.407   0.043   2.643  1.00  0.00     0.027 C 
BRANCH  30  31
HETATM   31  C16 UNL     1      -6.165   1.188   3.168  1.00  0.00     0.123 C 
BRANCH  31  32
HETATM   32  N6  UNL     1      -7.344   1.556   2.477  1.00  0.00    -0.361 N 
HETATM   33  C17 UNL     1      -7.499   2.165   1.215  1.00  0.00     0.221 C 
HETATM   34  O3  UNL     1      -6.553   2.516   0.494  1.00  0.00    -0.273 OA
ATOM     35  H6  UNL     1      -8.214   1.349   2.967  1.00  0.00     0.162 HD
BRANCH  33  36
HETATM   36  C18 UNL     1      -8.873   2.415   0.687  1.00  0.00     0.142 C 
BRANCH  36  37
HETATM   37  C19 UNL     1      -8.830   3.093  -0.638  1.00  0.00    -0.033 A 
HETATM   38  C20 UNL     1      -8.946   4.479  -0.817  1.00  0.00     0.026 A 
HETATM   39  C21 UNL     1      -8.850   4.729  -2.169  1.00  0.00     0.088 A 
HETATM   40  N7  UNL     1      -8.684   3.576  -2.813  1.00  0.00    -0.375 N 
HETATM   41  C22 UNL     1      -8.669   2.575  -1.901  1.00  0.00     0.095 A 
ATOM     42  H7  UNL     1      -8.585   3.465  -3.822  1.00  0.00     0.164 HD
ENDBRANCH  36  37
ENDBRANCH  33  36
ENDBRANCH  31  32
ENDBRANCH  30  31
ENDBRANCH  29  30
ENDBRANCH  26  29
BRANCH  27  43
HETATM   43  N9  UNL     1      -4.130  -3.154  -0.457  1.00  0.00    -0.275 N 
HETATM   44  C23 UNL     1      -4.451  -4.309   0.010  1.00  0.00     0.215 C 
HETATM   45  N10 UNL     1      -3.951  -5.477  -0.597  1.00  0.00    -0.065 NA
HETATM   46  N11 UNL     1      -5.297  -4.413   1.136  1.00  0.00    -0.065 NA
ATOM     47  H9  UNL     1      -3.511  -3.128  -1.267  1.00  0.00     0.189 HD
ENDBRANCH  27  43
ENDBRANCH  24  26
ENDBRANCH  23  24
ENDBRANCH  22  23
ENDBRANCH  21  22
ENDBRANCH   1  21
BRANCH   1  48
HETATM   48  C24 UNL     1       1.593  -2.676   0.739  1.00  0.00     0.111 C 
BRANCH  48  49
HETATM   49  C25 UNL     1       1.475  -3.736  -0.271  1.00  0.00     0.028 A 
HETATM   50  C26 UNL     1       0.399  -4.400  -0.770  1.00  0.00     0.114 A 
HETATM   51  N12 UNL     1       0.836  -5.310  -1.684  1.00  0.00    -0.360 N 
HETATM   52  C27 UNL     1       2.172  -5.230  -1.769  1.00  0.00     0.180 A 
ATOM     53  H12 UNL     1       0.244  -5.948  -2.217  1.00  0.00     0.166 HD
HETATM   54  N13 UNL     1       2.544  -4.288  -0.922  1.00  0.00    -0.354 N 
ATOM     55  H13 UNL     1       3.512  -4.006  -0.771  1.00  0.00     0.166 HD
ENDBRANCH  48  49
ENDBRANCH   1  48
TORSDOF 21
