REMARK  22 active torsions:
REMARK  status: ('A' for Active; 'I' for Inactive)
REMARK    1  A    between atoms: N1_2  and  C3_4 
REMARK    2  A    between atoms: C3_4  and  N2_6 
REMARK    3  A    between atoms: N2_6  and  C4_8 
REMARK    4  A    between atoms: C4_8  and  C5_9 
REMARK    5  A    between atoms: C5_9  and  C6_10 
REMARK    6  A    between atoms: C6_10  and  N3_11 
REMARK    7  A    between atoms: N3_11  and  C8_13 
REMARK    8  A    between atoms: C10_15  and  C11_16 
REMARK    9  A    between atoms: C11_16  and  N5_20 
REMARK   10  A    between atoms: N5_20  and  C12_22 
REMARK   11  A    between atoms: C12_22  and  C13_23 
REMARK   12  A    between atoms: C13_23  and  O1_24 
REMARK   13  A    between atoms: O1_24  and  C14_25 
REMARK   14  A    between atoms: C14_25  and  C15_26 
REMARK   15  A    between atoms: C15_26  and  N6_27 
REMARK   16  A    between atoms: N9_34  and  C19_35 
REMARK   17  A    between atoms: C19_35  and  C20_36 
REMARK   18  A    between atoms: C20_36  and  C21_37 
REMARK       I    between atoms: C21_37  and  N10_39 
REMARK   19  A    between atoms: N10_39  and  C22_41 
REMARK   20  A    between atoms: C22_41  and  C23_42 
REMARK   21  A    between atoms: C23_42  and  C24_43 
REMARK   22  A    between atoms: C24_43  and  N11_44 
REMARK       I    between atoms: N11_44  and  C25_46 
ROOT
HETATM    1  C8  UNL     1       0.204   0.007  -1.156  1.00  0.00     0.105 A 
HETATM    2  C9  UNL     1      -1.040  -0.443  -0.658  1.00  0.00     0.064 A 
HETATM    3  C10 UNL     1      -1.491  -1.670  -0.995  1.00  0.00     0.012 A 
HETATM    4  C17 UNL     1      -0.758  -2.505  -1.824  1.00  0.00     0.032 A 
HETATM    5  C18 UNL     1       0.428  -2.024  -2.275  1.00  0.00     0.093 A 
HETATM    6  N9  UNL     1       0.907  -0.782  -1.946  1.00  0.00    -0.343 N 
ENDROOT
BRANCH   3   7
HETATM    7  C11 UNL     1      -2.784  -2.200  -0.519  1.00  0.00     0.105 C 
HETATM    8  N4  UNL     1      -3.190  -3.358  -0.841  1.00  0.00    -0.385 N 
ATOM      9  H42 UNL     1      -2.635  -3.971  -1.439  1.00  0.00     0.157 HD
ATOM     10  H41 UNL     1      -4.083  -3.724  -0.512  1.00  0.00     0.157 HD
BRANCH   7  11
HETATM   11  N5  UNL     1      -3.551  -1.353   0.307  1.00  0.00    -0.374 N 
ATOM     12  H5  UNL     1      -4.188  -0.679  -0.117  1.00  0.00     0.161 HD
BRANCH  11  13
HETATM   13  C12 UNL     1      -3.448  -1.426   1.724  1.00  0.00     0.147 C 
BRANCH  13  14
HETATM   14  C13 UNL     1      -4.033  -2.659   2.341  1.00  0.00     0.187 C 
BRANCH  14  15
HETATM   15  O1  UNL     1      -5.255  -2.983   2.261  1.00  0.00    -0.388 OA
BRANCH  15  16
HETATM   16  C14 UNL     1      -6.291  -3.301   1.610  1.00  0.00     0.187 C 
BRANCH  16  17
HETATM   17  C15 UNL     1      -6.861  -2.312   0.588  1.00  0.00     0.148 C 
BRANCH  17  18
HETATM   18  N6  UNL     1      -7.185  -1.094   1.293  1.00  0.00    -0.365 N 
HETATM   19  C16 UNL     1      -8.317  -0.844   1.837  1.00  0.00     0.197 C 
HETATM   20  N7  UNL     1      -9.397  -1.738   1.815  1.00  0.00    -0.067 NA
HETATM   21  N8  UNL     1      -8.461   0.410   2.492  1.00  0.00    -0.067 NA
ATOM     22  H6  UNL     1      -6.459  -0.381   1.363  1.00  0.00     0.161 HD
ENDBRANCH  17  18
ENDBRANCH  16  17
ENDBRANCH  15  16
ENDBRANCH  14  15
ENDBRANCH  13  14
ENDBRANCH  11  13
ENDBRANCH   7  11
ENDBRANCH   3   7
BRANCH   1  23
HETATM   23  N3  UNL     1       0.525   1.303  -0.693  1.00  0.00    -0.371 N 
HETATM   24  C7  UNL     1       1.160   1.443   0.598  1.00  0.00     0.151 C 
BRANCH  23  25
HETATM   25  C6  UNL     1       0.147   2.476  -1.410  1.00  0.00     0.125 C 
BRANCH  25  26
HETATM   26  C5  UNL     1       1.298   3.345  -1.840  1.00  0.00     0.039 C 
BRANCH  26  27
HETATM   27  C4  UNL     1       0.716   4.551  -2.582  1.00  0.00     0.123 C 
BRANCH  27  28
HETATM   28  N2  UNL     1      -0.154   5.323  -1.753  1.00  0.00    -0.367 N 
ATOM     29  H2  UNL     1      -0.313   5.051  -0.783  1.00  0.00     0.161 HD
BRANCH  28  30
HETATM   30  C3  UNL     1      -0.795   6.469  -2.286  1.00  0.00     0.169 C 
HETATM   31  S1  UNL     1      -0.545   6.914  -3.841  1.00  0.00    -0.041 SA
BRANCH  30  32
HETATM   32  N1  UNL     1      -1.655   7.228  -1.460  1.00  0.00    -0.367 N 
HETATM   33  C1  UNL     1      -1.879   6.843  -0.090  1.00  0.00     0.151 C 
HETATM   34  C2  UNL     1      -2.312   8.398  -1.994  1.00  0.00     0.151 C 
ENDBRANCH  30  32
ENDBRANCH  28  30
ENDBRANCH  27  28
ENDBRANCH  26  27
ENDBRANCH  25  26
ENDBRANCH  23  25
ENDBRANCH   1  23
BRANCH   6  35
HETATM   35  C19 UNL     1       2.127  -0.392  -2.540  1.00  0.00     0.139 C 
BRANCH  35  36
HETATM   36  C20 UNL     1       3.394  -0.496  -1.803  1.00  0.00     0.123 C 
BRANCH  36  37
HETATM   37  C21 UNL     1       3.830  -1.794  -1.296  1.00  0.00     0.219 C 
HETATM   38  O2  UNL     1       3.240  -2.882  -1.389  1.00  0.00    -0.274 OA
HETATM   39  N10 UNL     1       5.102  -1.804  -0.603  1.00  0.00    -0.361 N 
ATOM     40  H10 UNL     1       5.649  -0.951  -0.485  1.00  0.00     0.162 HD
BRANCH  39  41
HETATM   41  C22 UNL     1       5.563  -3.071  -0.087  1.00  0.00     0.124 C 
BRANCH  41  42
HETATM   42  C23 UNL     1       6.900  -2.890   0.594  1.00  0.00     0.039 C 
BRANCH  42  43
HETATM   43  C24 UNL     1       7.363  -4.227   1.130  1.00  0.00     0.123 C 
BRANCH  43  44
HETATM   44  N11 UNL     1       8.640  -4.115   1.793  1.00  0.00    -0.365 N 
HETATM   45  C25 UNL     1       8.765  -3.412   3.007  1.00  0.00     0.181 C 
HETATM   46  N12 UNL     1       7.777  -3.097   3.765  1.00  0.00    -0.374 N 
HETATM   47  N13 UNL     1      10.077  -3.011   3.442  1.00  0.00    -0.064 NA
ATOM     48 2H12 UNL     1       6.847  -3.381   3.457  1.00  0.00     0.158 HD
ATOM     49 1H12 UNL     1       7.868  -2.588   4.644  1.00  0.00     0.158 HD
ATOM     50  H11 UNL     1       9.463  -4.551   1.377  1.00  0.00     0.162 HD
ENDBRANCH  43  44
ENDBRANCH  42  43
ENDBRANCH  41  42
ENDBRANCH  39  41
ENDBRANCH  36  37
ENDBRANCH  35  36
ENDBRANCH   6  35
TORSDOF 22
