REMARK  20 active torsions:
REMARK  status: ('A' for Active; 'I' for Inactive)
REMARK    1  A    between atoms: S1_2  and  N1_3 
REMARK    2  A    between atoms: S1_2  and  C2_6 
REMARK    3  A    between atoms: C2_6  and  C3_7 
REMARK    4  A    between atoms: C3_7  and  C4_8 
REMARK    5  A    between atoms: C4_8  and  C5_9 
REMARK       I    between atoms: C5_9  and  N2_11 
REMARK    6  A    between atoms: N2_11  and  C6_13 
REMARK    7  A    between atoms: C6_13  and  C7_14 
REMARK    8  A    between atoms: C7_14  and  C8_15 
REMARK       I    between atoms: C8_15  and  N3_17 
REMARK    9  A    between atoms: N3_17  and  C9_19 
REMARK   10  A    between atoms: N4_21  and  C11_22 
REMARK   11  A    between atoms: C11_22  and  C12_23 
REMARK   12  A    between atoms: C12_23  and  C13_24 
REMARK   13  A    between atoms: C13_24  and  N5_25 
REMARK   14  A    between atoms: N5_25  and  C14_28 
REMARK   15  A    between atoms: C14_28  and  C15_29 
REMARK   16  A    between atoms: C15_29  and  C16_30 
REMARK   17  A    between atoms: C16_30  and  N6_31 
REMARK       I    between atoms: N6_31  and  C17_33 
REMARK   18  A    between atoms: C19_40  and  N9_41 
REMARK       I    between atoms: N9_41  and  C20_43 
REMARK   19  A    between atoms: C20_43  and  C21_45 
REMARK   20  A    between atoms: C21_45  and  C22_46 
ROOT
HETATM    1  C9  UNL     1       0.367   0.180  -0.957  1.00  0.00     0.134 C 
HETATM    2  C10 UNL     1      -0.751  -0.746  -1.525  1.00  0.00     0.153 C 
HETATM    3  N4  UNL     1      -1.803  -0.564  -0.529  1.00  0.00    -0.348 N 
HETATM    4  C18 UNL     1      -1.593   0.639   0.197  1.00  0.00     0.244 C 
HETATM    5  O3  UNL     1      -2.213   1.032   1.217  1.00  0.00    -0.271 OA
HETATM    6  C19 UNL     1      -0.457   1.335  -0.533  1.00  0.00     0.201 C 
ENDROOT
BRANCH   1   7
HETATM    7  N3  UNL     1       1.003  -0.496   0.158  1.00  0.00    -0.352 N 
HETATM    8  C8  UNL     1       2.216  -1.197   0.022  1.00  0.00     0.219 C 
HETATM    9  O2  UNL     1       2.783  -1.257  -1.095  1.00  0.00    -0.274 OA
ATOM     10  H3  UNL     1       0.555  -0.462   1.074  1.00  0.00     0.163 HD
BRANCH   8  11
HETATM   11  C7  UNL     1       2.819  -1.864   1.187  1.00  0.00     0.122 C 
BRANCH  11  12
HETATM   12  C6  UNL     1       3.939  -2.796   0.879  1.00  0.00     0.132 C 
BRANCH  12  13
HETATM   13  N2  UNL     1       5.077  -2.277   0.221  1.00  0.00    -0.361 N 
HETATM   14  C5  UNL     1       5.950  -1.267   0.645  1.00  0.00     0.217 C 
HETATM   15  O1  UNL     1       5.766  -0.689   1.738  1.00  0.00    -0.274 OA
ATOM     16  H2  UNL     1       5.292  -2.694  -0.685  1.00  0.00     0.162 HD
BRANCH  14  17
HETATM   17  C4  UNL     1       7.130  -0.845  -0.184  1.00  0.00     0.103 C 
BRANCH  17  18
HETATM   18  C3  UNL     1       7.942   0.189   0.501  1.00  0.00     0.020 C 
BRANCH  18  19
HETATM   19  C2  UNL     1       9.130   0.719  -0.216  1.00  0.00     0.084 C 
BRANCH  19  20
HETATM   20  S1  UNL     1      10.333  -0.504  -0.612  1.00  0.00    -0.139 SA
HETATM   21  C1  UNL     1      11.739   0.285  -1.446  1.00  0.00     0.101 C 
BRANCH  20  22
HETATM   22  N1  UNL     1       9.680  -1.655  -1.754  1.00  0.00    -0.383 NA
ATOM     23  H12 UNL     1      10.377  -2.364  -1.983  1.00  0.00     0.163 HD
ATOM     24  H11 UNL     1       8.890  -2.098  -1.285  1.00  0.00     0.163 HD
ENDBRANCH  20  22
ENDBRANCH  19  20
ENDBRANCH  18  19
ENDBRANCH  17  18
ENDBRANCH  14  17
ENDBRANCH  12  13
ENDBRANCH  11  12
ENDBRANCH   8  11
ENDBRANCH   1   7
BRANCH   6  25
HETATM   25  N9  UNL     1       0.163   2.302   0.311  1.00  0.00    -0.345 N 
HETATM   26  C20 UNL     1       0.050   3.681  -0.005  1.00  0.00     0.222 C 
HETATM   27  O4  UNL     1      -0.584   4.062  -1.021  1.00  0.00    -0.273 OA
ATOM     28  H9  UNL     1       0.684   2.005   1.136  1.00  0.00     0.163 HD
BRANCH  26  29
HETATM   29  C21 UNL     1       0.665   4.741   0.839  1.00  0.00     0.141 C 
BRANCH  29  30
HETATM   30  C22 UNL     1       0.417   6.099   0.315  1.00  0.00    -0.050 A 
HETATM   31  C23 UNL     1      -0.664   6.885   0.639  1.00  0.00     0.007 A 
HETATM   32  C24 UNL     1      -0.839   8.156   0.118  1.00  0.00     0.001 A 
HETATM   33  C25 UNL     1       0.084   8.667  -0.752  1.00  0.00     0.000 A 
HETATM   34  C26 UNL     1       1.194   7.900  -1.104  1.00  0.00     0.001 A 
HETATM   35  C27 UNL     1       1.334   6.645  -0.568  1.00  0.00     0.007 A 
ENDBRANCH  29  30
ENDBRANCH  26  29
ENDBRANCH   6  25
BRANCH   3  36
HETATM   36  C11 UNL     1      -2.906  -1.485  -0.312  1.00  0.00     0.127 C 
BRANCH  36  37
HETATM   37  C12 UNL     1      -4.068  -1.112  -1.193  1.00  0.00     0.047 C 
BRANCH  37  38
HETATM   38  C13 UNL     1      -5.247  -2.043  -0.997  1.00  0.00     0.234 C 
BRANCH  38  39
HETATM   39  N5  UNL     1      -5.736  -2.036   0.345  1.00  0.00    -0.075 N 
ATOM     40  H52 UNL     1      -5.002  -2.233   1.025  1.00  0.00     0.277 HD
ATOM     41  H51 UNL     1      -5.980  -1.098   0.663  1.00  0.00     0.277 HD
BRANCH  39  42
HETATM   42  C14 UNL     1      -6.846  -2.958   0.454  1.00  0.00     0.234 C 
BRANCH  42  43
HETATM   43  C15 UNL     1      -8.048  -2.489  -0.307  1.00  0.00     0.047 C 
BRANCH  43  44
HETATM   44  C16 UNL     1      -9.162  -3.526  -0.120  1.00  0.00     0.124 C 
BRANCH  44  45
HETATM   45  N6  UNL     1      -9.456  -3.590   1.282  1.00  0.00    -0.365 N 
HETATM   46  C17 UNL     1     -10.437  -4.510   1.743  1.00  0.00     0.181 C 
HETATM   47  N7  UNL     1     -10.565  -4.762   2.998  1.00  0.00    -0.374 N 
HETATM   48  N8  UNL     1     -11.327  -5.208   0.875  1.00  0.00    -0.064 NA
ATOM     49  H72 UNL     1      -9.928  -4.263   3.619  1.00  0.00     0.158 HD
ATOM     50  H71 UNL     1     -11.269  -5.422   3.329  1.00  0.00     0.158 HD
ATOM     51  H6  UNL     1      -8.967  -2.983   1.940  1.00  0.00     0.162 HD
ENDBRANCH  44  45
ENDBRANCH  43  44
ENDBRANCH  42  43
ENDBRANCH  39  42
ENDBRANCH  38  39
ENDBRANCH  37  38
ENDBRANCH  36  37
ENDBRANCH   3  36
TORSDOF 20
