REMARK  20 active torsions:
REMARK  status: ('A' for Active; 'I' for Inactive)
REMARK    1  A    between atoms: N2_4  and  N3_6 
REMARK       I    between atoms: N3_6  and  C1_8 
REMARK       I    between atoms: C1_8  and  N4_10 
REMARK    2  A    between atoms: N4_10  and  C2_12 
REMARK    3  A    between atoms: C2_12  and  C3_13 
REMARK    4  A    between atoms: C3_13  and  C4_14 
REMARK    5  A    between atoms: C4_14  and  C5_15 
REMARK    6  A    between atoms: C5_15  and  C6_16 
REMARK    7  A    between atoms: C9_19  and  C10_20 
REMARK    8  A    between atoms: C10_20  and  C11_21 
REMARK    9  A    between atoms: C11_21  and  C12_22 
REMARK   10  A    between atoms: C12_22  and  C13_23 
REMARK   11  A    between atoms: C13_23  and  C14_24 
REMARK   12  A    between atoms: C14_24  and  N5_25 
REMARK   13  A    between atoms: N5_25  and  C15_27 
REMARK   14  A    between atoms: C15_27  and  C16_33 
REMARK   15  A    between atoms: N6_28  and  N7_30 
REMARK   16  A    between atoms: N8_36  and  C18_37 
REMARK   17  A    between atoms: C18_37  and  C19_38 
REMARK   18  A    between atoms: C19_38  and  C20_39 
REMARK   19  A    between atoms: C20_39  and  N9_40 
REMARK   20  A    between atoms: C23_49  and  N13_50 
ROOT
HETATM    1  N5  UNL     1      -1.492   0.425  -1.615  1.00  0.00    -0.378 N 
ATOM      2  H5  UNL     1      -1.335   1.398  -1.876  1.00  0.00     0.160 HD
ENDROOT
BRANCH   1   3
HETATM    3  C14 UNL     1      -0.370  -0.451  -1.484  1.00  0.00     0.121 C 
BRANCH   3   4
HETATM    4  C13 UNL     1      -0.085  -0.877  -0.052  1.00  0.00     0.020 C 
BRANCH   4   5
HETATM    5  C12 UNL     1       0.225   0.366   0.718  1.00  0.00     0.002 C 
BRANCH   5   6
HETATM    6  C11 UNL     1       0.548   0.184   2.154  1.00  0.00     0.005 C 
BRANCH   6   7
HETATM    7  C10 UNL     1       1.752  -0.593   2.505  1.00  0.00     0.038 C 
BRANCH   7   8
HETATM    8  C9  UNL     1       3.029  -0.022   2.022  1.00  0.00    -0.058 A 
HETATM    9  C8  UNL     1       3.536  -0.456   0.826  1.00  0.00     0.007 A 
HETATM   10  C7  UNL     1       4.732   0.059   0.308  1.00  0.00     0.007 A 
HETATM   11  C6  UNL     1       5.400   1.019   1.022  1.00  0.00    -0.058 A 
HETATM   12  C25 UNL     1       4.867   1.445   2.234  1.00  0.00     0.007 A 
HETATM   13  C24 UNL     1       3.717   0.947   2.729  1.00  0.00     0.007 A 
BRANCH  11  14
HETATM   14  C5  UNL     1       6.672   1.594   0.529  1.00  0.00     0.042 C 
BRANCH  14  15
HETATM   15  C4  UNL     1       7.806   0.768   1.143  1.00  0.00     0.033 C 
BRANCH  15  16
HETATM   16  C3  UNL     1       9.137   1.259   0.739  1.00  0.00    -0.009 C 
BRANCH  16  17
HETATM   17  C2  UNL     1       9.592   1.262  -0.656  1.00  0.00     0.089 C 
BRANCH  17  18
HETATM   18  N4  UNL     1       9.807   0.066  -1.354  1.00  0.00    -0.318 N 
HETATM   19  C1  UNL     1       8.947  -0.958  -1.772  1.00  0.00     0.339 C 
HETATM   20  N3  UNL     1       9.457  -2.118  -2.479  1.00  0.00    -0.237 N 
HETATM   21  O1  UNL     1       7.732  -0.958  -1.580  1.00  0.00    -0.245 OA
ATOM     22  H3  UNL     1      10.455  -2.190  -2.675  1.00  0.00     0.193 HD
ATOM     23  H4  UNL     1      10.783  -0.090  -1.608  1.00  0.00     0.170 HD
BRANCH  20  24
HETATM   24  N2  UNL     1       8.607  -3.125  -2.889  1.00  0.00    -0.245 N 
HETATM   25  N1  UNL     1       7.965  -3.792  -2.003  1.00  0.00    -0.331 N 
ATOM     26  H12 UNL     1       8.091  -3.570  -1.016  1.00  0.00     0.178 HD
ATOM     27  H11 UNL     1       7.337  -4.536  -2.306  1.00  0.00     0.178 HD
ATOM     28  H2  UNL     1       8.492  -3.335  -3.881  1.00  0.00     0.208 HD
ENDBRANCH  20  24
ENDBRANCH  17  18
ENDBRANCH  16  17
ENDBRANCH  15  16
ENDBRANCH  14  15
ENDBRANCH  11  14
ENDBRANCH   7   8
ENDBRANCH   6   7
ENDBRANCH   5   6
ENDBRANCH   4   5
ENDBRANCH   3   4
ENDBRANCH   1   3
BRANCH   1  29
HETATM   29  C15 UNL     1      -2.851  -0.038  -1.385  1.00  0.00     0.107 C 
HETATM   30  N6  UNL     1      -3.233  -1.020  -2.087  1.00  0.00    -0.295 N 
ATOM     31  H6  UNL     1      -2.553  -1.397  -2.748  1.00  0.00     0.187 HD
BRANCH  30  32
HETATM   32  N7  UNL     1      -4.464  -1.636  -2.058  1.00  0.00    -0.344 N 
ATOM     33  H72 UNL     1      -5.130  -1.246  -1.392  1.00  0.00     0.176 HD
ATOM     34  H71 UNL     1      -4.772  -2.427  -2.624  1.00  0.00     0.176 HD
ENDBRANCH  30  32
BRANCH  29  35
HETATM   35  C16 UNL     1      -3.616   0.697  -0.399  1.00  0.00     0.183 C 
HETATM   36  C17 UNL     1      -4.677   0.017   0.332  1.00  0.00     0.239 C 
HETATM   37  O2  UNL     1      -4.824  -1.168   0.752  1.00  0.00    -0.272 OA
HETATM   38  N8  UNL     1      -5.731   0.977   0.587  1.00  0.00    -0.305 N 
HETATM   39  C22 UNL     1      -5.361   2.201  -0.077  1.00  0.00     0.110 C 
HETATM   40  N12 UNL     1      -5.774   3.390   0.207  1.00  0.00    -0.387 N 
HETATM   41  C23 UNL     1      -4.413   1.779  -1.138  1.00  0.00     0.243 C 
ATOM     42 2H12 UNL     1      -6.426   3.680   0.936  1.00  0.00     0.157 HD
ATOM     43 1H12 UNL     1      -5.512   4.257  -0.263  1.00  0.00     0.157 HD
BRANCH  38  44
HETATM   44  C18 UNL     1      -6.945   0.816   1.348  1.00  0.00     0.135 C 
BRANCH  44  45
HETATM   45  C19 UNL     1      -8.116   0.381   0.546  1.00  0.00     0.040 C 
BRANCH  45  46
HETATM   46  C20 UNL     1      -7.932  -0.927  -0.143  1.00  0.00     0.123 C 
BRANCH  46  47
HETATM   47  N9  UNL     1      -9.136  -1.263  -0.888  1.00  0.00    -0.367 N 
HETATM   48  C21 UNL     1      -9.995  -2.135  -0.547  1.00  0.00     0.196 C 
HETATM   49  N10 UNL     1      -9.818  -2.874   0.650  1.00  0.00    -0.067 NA
HETATM   50  N11 UNL     1     -11.115  -2.326  -1.406  1.00  0.00    -0.067 NA
ATOM     51  H9  UNL     1      -9.305  -0.756  -1.757  1.00  0.00     0.161 HD
ENDBRANCH  46  47
ENDBRANCH  45  46
ENDBRANCH  44  45
ENDBRANCH  38  44
BRANCH  41  52
HETATM   52  N13 UNL     1      -3.580   2.869  -1.582  1.00  0.00    -0.142 N 
HETATM   53  O3  UNL     1      -3.492   3.175  -2.798  1.00  0.00    -0.536 OA
HETATM   54  O4  UNL     1      -2.887   3.570  -0.645  1.00  0.00    -0.536 OA
ENDBRANCH  41  52
ENDBRANCH  29  35
ENDBRANCH   1  29
TORSDOF 20
