REMARK  21 active torsions:
REMARK  status: ('A' for Active; 'I' for Inactive)
REMARK    1  A    between atoms: C2_2  and  C3_3 
REMARK    2  A    between atoms: C3_3  and  N1_4 
REMARK       I    between atoms: C4_6  and  N2_7 
REMARK       I    between atoms: C4_6  and  N6_29 
REMARK    3  A    between atoms: N2_7  and  C5_9 
REMARK    4  A    between atoms: C5_9  and  C6_10 
REMARK    5  A    between atoms: C6_10  and  C7_11 
REMARK    6  A    between atoms: C7_11  and  N3_12 
REMARK       I    between atoms: N3_12  and  C8_14 
REMARK    7  A    between atoms: C8_14  and  C9_16 
REMARK    8  A    between atoms: C9_16  and  C10_17 
REMARK    9  A    between atoms: C10_17  and  C11_18 
REMARK   10  A    between atoms: C11_18  and  C12_19 
REMARK   11  A    between atoms: C12_19  and  C13_20 
REMARK   12  A    between atoms: C13_20  and  N4_21 
REMARK   13  A    between atoms: N4_21  and  S1_23 
REMARK   14  A    between atoms: S1_23  and  N5_24 
REMARK   15  A    between atoms: N6_29  and  N7_31 
REMARK   16  A    between atoms: C14_33  and  C15_35 
REMARK   17  A    between atoms: C17_39  and  C18_40 
REMARK   18  A    between atoms: C18_40  and  C19_41 
REMARK       I    between atoms: C19_41  and  N10_43 
REMARK   19  A    between atoms: N10_43  and  C20_44 
REMARK   20  A    between atoms: C20_44  and  C21_45 
REMARK   21  A    between atoms: C21_45  and  N11_46 
ROOT
HETATM    1  N1  UNL     1       1.229  -1.614   0.103  1.00  0.00    -0.222 N 
ATOM      2  H1  UNL     1       1.637  -1.884   0.998  1.00  0.00     0.178 HD
HETATM    3  C4  UNL     1       1.017  -0.386  -0.140  1.00  0.00     0.688 C 
HETATM    4  N2  UNL     1       1.341   0.567   0.837  1.00  0.00    -0.225 N 
ATOM      5  H2  UNL     1       1.032   1.525   0.673  1.00  0.00     0.177 HD
HETATM    6  N6  UNL     1       0.528   0.033  -1.413  1.00  0.00    -0.131 N 
ATOM      7  H6  UNL     1       1.164  -0.033  -2.208  1.00  0.00     0.205 HD
ENDROOT
BRANCH   1   8
HETATM    8  C3  UNL     1       0.897  -2.655  -0.884  1.00  0.00     0.164 C 
BRANCH   8   9
HETATM    9  C2  UNL     1       1.381  -3.931  -0.325  1.00  0.00    -0.017 C 
HETATM   10  C1  UNL     1       1.994  -4.127   0.811  1.00  0.00     0.008 C 
ENDBRANCH   8   9
ENDBRANCH   1   8
BRANCH   4  11
HETATM   11  C5  UNL     1       2.072   0.310   2.052  1.00  0.00     0.139 C 
BRANCH  11  12
HETATM   12  C6  UNL     1       3.502  -0.098   1.713  1.00  0.00     0.040 C 
BRANCH  12  13
HETATM   13  C7  UNL     1       4.096   0.989   0.837  1.00  0.00     0.124 C 
BRANCH  13  14
HETATM   14  N3  UNL     1       5.464   0.562   0.524  1.00  0.00    -0.361 N 
HETATM   15  C8  UNL     1       6.406   0.381   1.495  1.00  0.00     0.217 C 
HETATM   16  O1  UNL     1       6.176   0.590   2.712  1.00  0.00    -0.274 OA
ATOM     17  H3  UNL     1       5.719   0.395  -0.449  1.00  0.00     0.162 HD
BRANCH  15  18
HETATM   18  C9  UNL     1       7.788  -0.097   1.193  1.00  0.00     0.103 C 
BRANCH  18  19
HETATM   19  C10 UNL     1       8.385  -0.798   2.354  1.00  0.00     0.009 C 
BRANCH  19  20
HETATM   20  C11 UNL     1       9.810  -1.180   2.294  1.00  0.00     0.002 C 
BRANCH  20  21
HETATM   21  C12 UNL     1      10.362  -1.986   1.206  1.00  0.00     0.020 C 
BRANCH  21  22
HETATM   22  C13 UNL     1      10.440  -1.428  -0.164  1.00  0.00     0.133 C 
BRANCH  22  23
HETATM   23  N4  UNL     1      11.219  -0.196  -0.212  1.00  0.00    -0.303 N 
ATOM     24  H4  UNL     1      11.665   0.255   0.587  1.00  0.00     0.173 HD
BRANCH  23  25
HETATM   25  S1  UNL     1      11.263   0.371  -1.834  1.00  0.00     0.312 S 
HETATM   26  O2  UNL     1      12.625   0.948  -2.175  1.00  0.00    -0.183 OA
HETATM   27  O3  UNL     1      11.010  -0.712  -2.846  1.00  0.00    -0.183 OA
BRANCH  25  28
HETATM   28  N5  UNL     1      10.039   1.577  -2.118  1.00  0.00    -0.312 N 
ATOM     29  H52 UNL     1       9.386   1.896  -1.402  1.00  0.00     0.170 HD
ATOM     30  H51 UNL     1      10.065   1.913  -3.081  1.00  0.00     0.170 HD
ENDBRANCH  25  28
ENDBRANCH  23  25
ENDBRANCH  22  23
ENDBRANCH  21  22
ENDBRANCH  20  21
ENDBRANCH  19  20
ENDBRANCH  18  19
ENDBRANCH  15  18
ENDBRANCH  13  14
ENDBRANCH  12  13
ENDBRANCH  11  12
ENDBRANCH   4  11
BRANCH   6  31
HETATM   31  N7  UNL     1      -0.696   0.503  -1.641  1.00  0.00    -0.273 N 
HETATM   32  C14 UNL     1      -1.329   1.401  -2.131  1.00  0.00     0.142 C 
HETATM   33  N8  UNL     1      -0.695   2.506  -2.790  1.00  0.00    -0.080 NA
ATOM     34  H7  UNL     1      -1.360  -0.161  -1.243  1.00  0.00     0.188 HD
BRANCH  32  35
HETATM   35  C15 UNL     1      -2.812   1.374  -2.073  1.00  0.00     0.024 A 
HETATM   36  C16 UNL     1      -3.652   2.266  -2.609  1.00  0.00     0.103 A 
HETATM   37  N9  UNL     1      -4.955   1.885  -2.362  1.00  0.00    -0.368 N 
HETATM   38  C17 UNL     1      -4.838   0.701  -1.636  1.00  0.00     0.019 A 
ATOM     39  H9  UNL     1      -5.811   2.362  -2.646  1.00  0.00     0.165 HD
HETATM   40  C25 UNL     1      -3.565   0.397  -1.464  1.00  0.00     0.041 A 
BRANCH  38  41
HETATM   41  C18 UNL     1      -6.039  -0.085  -1.198  1.00  0.00     0.176 C 
BRANCH  41  42
HETATM   42  C19 UNL     1      -6.547   0.407   0.132  1.00  0.00     0.296 C 
HETATM   43  O4  UNL     1      -5.751   0.502   1.060  1.00  0.00    -0.257 OA
HETATM   44  N10 UNL     1      -7.942   0.713   0.146  1.00  0.00    -0.382 NA
BRANCH  44  45
HETATM   45  C20 UNL     1      -9.232   0.997   0.166  1.00  0.00     0.211 C 
BRANCH  45  46
HETATM   46  C21 UNL     1     -10.071   0.245   1.207  1.00  0.00     0.232 C 
BRANCH  46  47
HETATM   47  N11 UNL     1     -11.445   0.554   1.208  1.00  0.00    -0.056 N 
HETATM   48  C22 UNL     1     -12.229  -0.668   0.946  1.00  0.00     0.277 C 
HETATM   49  C23 UNL     1     -11.869   1.507   0.201  1.00  0.00     0.277 C 
HETATM   50  C24 UNL     1     -11.885   1.016   2.518  1.00  0.00     0.277 C 
ENDBRANCH  46  47
ENDBRANCH  45  46
ENDBRANCH  44  45
ENDBRANCH  41  42
ENDBRANCH  38  41
ENDBRANCH  32  35
ENDBRANCH   6  31
TORSDOF 21
