REMARK  2 active torsions:
REMARK  status: ('A' for Active; 'I' for Inactive)
REMARK    1  A    between atoms: N1_1  and  C1_5 
REMARK    2  A    between atoms: C5_10  and  O1_11 
ROOT
HETATM    1  C1  UNL     1       0.145  -0.665  -0.316  1.00  0.00     0.213 C 
HETATM    2  C2  UNL     1       1.312  -0.175   0.552  1.00  0.00     0.045 C 
HETATM    3  C3  UNL     1       1.773   1.124  -0.078  1.00  0.00     0.076 C 
HETATM    4  S1  UNL     1       0.351   2.206  -0.240  1.00  0.00    -0.166 SA
HETATM    5  C4  UNL     1      -1.216   1.347  -0.268  1.00  0.00     0.107 C 
HETATM    6  C5  UNL     1      -1.103  -0.086   0.274  1.00  0.00     0.157 C 
ENDROOT
BRANCH   1   7
HETATM    7  N1  UNL     1       0.205  -2.062  -0.391  1.00  0.00    -0.073 N 
ATOM      8  H13 UNL     1       1.109  -2.398  -0.723  1.00  0.00     0.274 HD
ATOM      9  H12 UNL     1       0.222  -2.503   0.528  1.00  0.00     0.274 HD
ATOM     10  H11 UNL     1      -0.571  -2.388  -0.968  1.00  0.00     0.274 HD
ENDBRANCH   1   7
BRANCH   6  11
HETATM   11  O1  UNL     1      -2.241  -0.801  -0.002  1.00  0.00    -0.393 OA
ATOM     12  H1  UNL     1      -3.033  -0.434   0.372  1.00  0.00     0.210 HD
ENDBRANCH   6  11
TORSDOF 2
