REMARK  2 active torsions:
REMARK  status: ('A' for Active; 'I' for Inactive)
REMARK    1  A    between atoms: C4_4  and  O1_5 
REMARK    2  A    between atoms: N1_8  and  O2_9 
ROOT
HETATM    1  C1  UNL     1       2.387   0.166  -0.175  1.00  0.00     0.016 C 
HETATM    2  C2  UNL     1       0.945   0.013  -0.616  1.00  0.00     0.025 C 
HETATM    3  C3  UNL     1       0.363  -1.135   0.165  1.00  0.00     0.047 C 
HETATM    4  C4  UNL     1      -1.133  -1.214   0.060  1.00  0.00     0.159 C 
HETATM    5  C5  UNL     1      -1.837   0.078   0.065  1.00  0.00     0.126 C 
HETATM    6  N1  UNL     1      -1.129   1.257  -0.118  1.00  0.00    -0.252 N 
HETATM    7  C6  UNL     1       0.214   1.290  -0.443  1.00  0.00     0.099 C 
ENDROOT
BRANCH   4   8
HETATM    8  O1  UNL     1      -1.561  -2.042   1.101  1.00  0.00    -0.390 OA
ATOM      9  H1  UNL     1      -2.507  -2.092   1.035  1.00  0.00     0.210 HD
ENDBRANCH   4   8
BRANCH   6  10
HETATM   10  O2  UNL     1      -1.478   2.238   0.757  1.00  0.00    -0.284 OA
ATOM     11  H2  UNL     1      -0.993   3.045   0.632  1.00  0.00     0.245 HD
ENDBRANCH   6  10
TORSDOF 2
