REMARK  17 active torsions:
REMARK  status: ('A' for Active; 'I' for Inactive)
REMARK    1  A    between atoms: N1_2  and  C2_3 
REMARK       I    between atoms: N1_2  and  C9_14 
REMARK    2  A    between atoms: C2_3  and  C3_4 
REMARK    3  A    between atoms: C3_4  and  C4_5 
REMARK    4  A    between atoms: C4_5  and  C5_6 
REMARK    5  A    between atoms: C5_6  and  C6_7 
REMARK    6  A    between atoms: C6_7  and  C7_8 
REMARK    7  A    between atoms: C7_8  and  C8_9 
REMARK    8  A    between atoms: C8_9  and  N2_10 
REMARK    9  A    between atoms: C9_14  and  C10_16 
REMARK   10  A    between atoms: C10_16  and  C11_17 
REMARK   11  A    between atoms: C10_16  and  N6_26 
REMARK   12  A    between atoms: C11_17  and  C12_18 
REMARK   13  A    between atoms: C12_18  and  C13_19 
REMARK   14  A    between atoms: C13_19  and  C14_20 
REMARK   15  A    between atoms: C14_20  and  N3_21 
REMARK   16  A    between atoms: N6_26  and  S1_28 
REMARK   17  A    between atoms: S1_28  and  C16_31 
ROOT
HETATM    1  C10 UNL     1      -0.448   0.950   0.232  1.00  0.00     0.185 C 
ENDROOT
BRANCH   1   2
HETATM    2  C9  UNL     1       0.074   1.094  -1.144  1.00  0.00     0.242 C 
HETATM    3  N1  UNL     1       1.418   1.007  -1.539  1.00  0.00    -0.355 N 
HETATM    4  C1  UNL     1       1.736   1.220  -2.960  1.00  0.00     0.152 C 
HETATM    5  O1  UNL     1      -0.800   1.318  -2.058  1.00  0.00    -0.271 OA
BRANCH   3   6
HETATM    6  C2  UNL     1       2.535   0.694  -0.681  1.00  0.00     0.125 C 
BRANCH   6   7
HETATM    7  C3  UNL     1       2.773  -0.803  -0.663  1.00  0.00     0.020 C 
BRANCH   7   8
HETATM    8  C4  UNL     1       3.975  -1.123   0.262  1.00  0.00     0.002 C 
BRANCH   8   9
HETATM    9  C5  UNL     1       4.129  -2.604   0.214  1.00  0.00     0.000 C 
BRANCH   9  10
HETATM   10  C6  UNL     1       5.137  -3.270   1.032  1.00  0.00     0.002 C 
BRANCH  10  11
HETATM   11  C7  UNL     1       6.581  -3.022   0.900  1.00  0.00     0.027 C 
BRANCH  11  12
HETATM   12  C8  UNL     1       7.073  -1.662   1.194  1.00  0.00     0.229 C 
BRANCH  12  13
HETATM   13  N2  UNL     1       6.697  -1.294   2.546  1.00  0.00    -0.079 N 
ATOM     14  H23 UNL     1       5.694  -1.384   2.705  1.00  0.00     0.274 HD
ATOM     15  H22 UNL     1       7.015  -1.976   3.234  1.00  0.00     0.274 HD
ATOM     16  H21 UNL     1       7.037  -0.354   2.749  1.00  0.00     0.274 HD
ENDBRANCH  12  13
ENDBRANCH  11  12
ENDBRANCH  10  11
ENDBRANCH   9  10
ENDBRANCH   8   9
ENDBRANCH   7   8
ENDBRANCH   6   7
ENDBRANCH   3   6
ENDBRANCH   1   2
BRANCH   1  17
HETATM   17  C11 UNL     1      -0.811   2.336   0.781  1.00  0.00     0.035 C 
BRANCH  17  18
HETATM   18  C12 UNL     1       0.329   3.282   0.834  1.00  0.00     0.004 C 
BRANCH  18  19
HETATM   19  C13 UNL     1      -0.135   4.601   1.389  1.00  0.00     0.020 C 
BRANCH  19  20
HETATM   20  C14 UNL     1      -1.220   5.248   0.560  1.00  0.00     0.122 C 
BRANCH  20  21
HETATM   21  N3  UNL     1      -0.693   5.468  -0.770  1.00  0.00    -0.367 N 
HETATM   22  C15 UNL     1      -0.124   6.568  -1.088  1.00  0.00     0.196 C 
HETATM   23  N4  UNL     1       0.018   7.634  -0.151  1.00  0.00    -0.067 NA
HETATM   24  N5  UNL     1       0.388   6.773  -2.391  1.00  0.00    -0.067 NA
ATOM     25  H3  UNL     1      -0.777   4.730  -1.469  1.00  0.00     0.161 HD
ENDBRANCH  20  21
ENDBRANCH  19  20
ENDBRANCH  18  19
ENDBRANCH  17  18
ENDBRANCH   1  17
BRANCH   1  26
HETATM   26  N6  UNL     1      -1.768   0.269   0.200  1.00  0.00    -0.302 N 
ATOM     27  H6  UNL     1      -2.553   0.563  -0.381  1.00  0.00     0.173 HD
BRANCH  26  28
HETATM   28  S1  UNL     1      -1.803  -1.075   1.264  1.00  0.00     0.260 S 
HETATM   29  O2  UNL     1      -0.464  -1.083   2.006  1.00  0.00    -0.200 OA
HETATM   30  O3  UNL     1      -2.816  -0.891   2.367  1.00  0.00    -0.200 OA
BRANCH  28  31
HETATM   31  C16 UNL     1      -2.015  -2.535   0.383  1.00  0.00     0.091 A 
HETATM   32  C17 UNL     1      -0.900  -3.381   0.292  1.00  0.00     0.026 A 
HETATM   33  C18 UNL     1      -0.937  -4.553  -0.411  1.00  0.00     0.004 A 
HETATM   34  C19 UNL     1      -2.107  -4.888  -1.035  1.00  0.00     0.037 A 
HETATM   35  C20 UNL     1      -3.194  -4.062  -0.945  1.00  0.00     0.079 A 
HETATM   36  C21 UNL     1      -3.188  -2.850  -0.229  1.00  0.00     0.029 A 
HETATM   37  O5  UNL     1      -4.452  -4.258  -1.518  1.00  0.00    -0.348 OA
HETATM   38  C22 UNL     1      -4.515  -2.309  -0.332  1.00  0.00     0.089 C 
HETATM   39  C23 UNL     1      -5.389  -2.838   0.794  1.00  0.00     0.058 C 
HETATM   40  N8  UNL     1      -4.715  -0.932  -0.591  1.00  0.00    -0.327 N 
HETATM   41  C26 UNL     1      -5.074  -3.016  -1.599  1.00  0.00     0.212 C 
HETATM   42  C24 UNL     1      -6.769  -2.279   0.782  1.00  0.00     0.127 C 
HETATM   43  N7  UNL     1      -6.738  -0.831   0.825  1.00  0.00    -0.343 N 
HETATM   44  C25 UNL     1      -5.620  -0.183   0.210  1.00  0.00     0.317 C 
ATOM     45  H7  UNL     1      -7.481  -0.296   1.274  1.00  0.00     0.164 HD
HETATM   46  O4  UNL     1      -5.489   1.048   0.412  1.00  0.00    -0.247 OA
ATOM     47  H8  UNL     1      -4.210  -0.477  -1.352  1.00  0.00     0.165 HD
ENDBRANCH  28  31
ENDBRANCH  26  28
ENDBRANCH   1  26
TORSDOF 17
