REMARK  20 active torsions:
REMARK  status: ('A' for Active; 'I' for Inactive)
REMARK    1  A    between atoms: C2_2  and  C3_3 
REMARK    2  A    between atoms: C3_3  and  C4_4 
REMARK    3  A    between atoms: C4_4  and  N1_5 
REMARK    4  A    between atoms: N1_5  and  C6_7 
REMARK    5  A    between atoms: C6_7  and  O1_8 
REMARK    6  A    between atoms: C6_7  and  C7_10 
REMARK    7  A    between atoms: C10_13  and  N2_14 
REMARK    8  A    between atoms: C12_17  and  C13_18 
REMARK    9  A    between atoms: C13_18  and  C14_19 
REMARK   10  A    between atoms: C14_19  and  C15_20 
REMARK   11  A    between atoms: C15_20  and  C16_21 
REMARK   12  A    between atoms: C16_21  and  N3_22 
REMARK   13  A    between atoms: C18_27  and  C19_28 
REMARK   14  A    between atoms: N6_29  and  N7_31 
REMARK       I    between atoms: N8_34  and  C20_35 
REMARK   15  A    between atoms: C20_35  and  C21_37 
REMARK   16  A    between atoms: C21_37  and  N9_38 
REMARK   17  A    between atoms: C21_37  and  C22_42 
REMARK   18  A    between atoms: C22_42  and  C23_43 
REMARK   19  A    between atoms: C23_43  and  C24_44 
REMARK   20  A    between atoms: C24_44  and  N10_45 
ROOT
HETATM    1  N2  UNL     1      -0.020   0.248  -1.415  1.00  0.00    -0.218 N 
HETATM    2  C11 UNL     1      -0.631   0.081  -2.690  1.00  0.00     0.250 C 
HETATM    3  O2  UNL     1      -0.256   0.372  -3.822  1.00  0.00    -0.271 OA
HETATM    4  C12 UNL     1      -1.980  -0.597  -2.368  1.00  0.00     0.110 C 
HETATM    5  C18 UNL     1      -2.362   0.270  -1.181  1.00  0.00     0.165 C 
HETATM    6  N8  UNL     1      -1.063   0.561  -0.534  1.00  0.00    -0.239 N 
HETATM    7  C20 UNL     1      -0.880   1.054   0.806  1.00  0.00     0.270 C 
HETATM    8  O3  UNL     1       0.316   1.195   1.236  1.00  0.00    -0.269 OA
ENDROOT
BRANCH   1   9
HETATM    9  C10 UNL     1       1.387   0.104  -1.153  1.00  0.00     0.060 A 
HETATM   10  C9  UNL     1       1.946  -0.835  -0.345  1.00  0.00     0.032 A 
HETATM   11  C8  UNL     1       3.334  -0.943  -0.140  1.00  0.00     0.018 A 
HETATM   12  C7  UNL     1       4.184  -0.083  -0.764  1.00  0.00     0.015 A 
HETATM   13  C27 UNL     1       3.616   0.898  -1.606  1.00  0.00     0.018 A 
HETATM   14  C26 UNL     1       2.254   0.969  -1.778  1.00  0.00     0.032 A 
BRANCH  12  15
HETATM   15  C6  UNL     1       5.622  -0.134  -0.603  1.00  0.00     0.148 C 
BRANCH  15  16
HETATM   16  N1  UNL     1       6.439  -0.972   0.134  1.00  0.00    -0.366 N 
HETATM   17  C5  UNL     1       6.156  -2.079   0.984  1.00  0.00     0.151 C 
BRANCH  16  18
HETATM   18  C4  UNL     1       7.906  -0.667   0.021  1.00  0.00     0.124 C 
BRANCH  18  19
HETATM   19  C3  UNL     1       8.375  -1.492  -1.137  1.00  0.00     0.019 C 
BRANCH  19  20
HETATM   20  C2  UNL     1       9.854  -1.261  -1.356  1.00  0.00    -0.003 C 
HETATM   21  C1  UNL     1      10.608  -1.663  -0.107  1.00  0.00     0.005 C 
ENDBRANCH  19  20
ENDBRANCH  18  19
ENDBRANCH  16  18
ENDBRANCH  15  16
BRANCH  15  22
HETATM   22  O1  UNL     1       6.279   0.786  -1.282  1.00  0.00    -0.346 OA
ATOM     23  H1  UNL     1       5.718   1.362  -1.788  1.00  0.00     0.219 HD
ENDBRANCH  15  22
ENDBRANCH  12  15
ENDBRANCH   1   9
BRANCH   4  24
HETATM   24  C13 UNL     1      -1.589  -1.971  -1.960  1.00  0.00     0.017 C 
BRANCH  24  25
HETATM   25  C14 UNL     1      -2.603  -2.996  -1.679  1.00  0.00     0.002 C 
BRANCH  25  26
HETATM   26  C15 UNL     1      -3.571  -2.695  -0.597  1.00  0.00     0.020 C 
BRANCH  26  27
HETATM   27  C16 UNL     1      -4.457  -3.951  -0.471  1.00  0.00     0.122 C 
BRANCH  27  28
HETATM   28  N3  UNL     1      -5.395  -3.713   0.576  1.00  0.00    -0.367 N 
HETATM   29  C17 UNL     1      -6.437  -4.490   0.761  1.00  0.00     0.196 C 
HETATM   30  N4  UNL     1      -7.364  -4.249   1.804  1.00  0.00    -0.067 NA
HETATM   31  N5  UNL     1      -6.583  -5.569  -0.137  1.00  0.00    -0.067 NA
ATOM     32  H3  UNL     1      -5.253  -2.917   1.198  1.00  0.00     0.161 HD
ENDBRANCH  27  28
ENDBRANCH  26  27
ENDBRANCH  25  26
ENDBRANCH  24  25
ENDBRANCH   4  24
BRANCH   5  33
HETATM   33  C19 UNL     1      -3.026   1.514  -1.659  1.00  0.00     0.107 C 
HETATM   34  N6  UNL     1      -4.223   1.824  -1.378  1.00  0.00    -0.320 N 
ATOM     35  H6  UNL     1      -4.581   2.700  -1.758  1.00  0.00     0.185 HD
BRANCH  34  36
HETATM   36  N7  UNL     1      -5.084   1.070  -0.597  1.00  0.00    -0.346 N 
ATOM     37  H72 UNL     1      -4.708   0.197  -0.226  1.00  0.00     0.176 HD
ATOM     38  H71 UNL     1      -6.047   1.319  -0.371  1.00  0.00     0.176 HD
ENDBRANCH  34  36
ENDBRANCH   5  33
BRANCH   7  39
HETATM   39  C21 UNL     1      -1.941   1.411   1.743  1.00  0.00     0.276 C 
BRANCH  39  40
HETATM   40  N9  UNL     1      -1.456   1.124   3.126  1.00  0.00    -0.066 N 
ATOM     41  H93 UNL     1      -1.138   0.162   3.240  1.00  0.00     0.275 HD
ATOM     42  H92 UNL     1      -0.572   1.587   3.337  1.00  0.00     0.275 HD
ATOM     43  H91 UNL     1      -2.197   1.373   3.781  1.00  0.00     0.275 HD
ENDBRANCH  39  40
BRANCH  39  44
HETATM   44  C22 UNL     1      -2.224   2.930   1.774  1.00  0.00     0.044 C 
BRANCH  44  45
HETATM   45  C23 UNL     1      -3.335   3.133   2.768  1.00  0.00     0.022 C 
BRANCH  45  46
HETATM   46  C24 UNL     1      -3.712   4.596   2.897  1.00  0.00     0.122 C 
BRANCH  46  47
HETATM   47  N10 UNL     1      -4.153   5.142   1.638  1.00  0.00    -0.367 N 
HETATM   48  C25 UNL     1      -3.695   6.194   1.088  1.00  0.00     0.196 C 
HETATM   49  N11 UNL     1      -2.655   6.951   1.715  1.00  0.00    -0.067 NA
HETATM   50  N12 UNL     1      -4.237   6.597  -0.162  1.00  0.00    -0.067 NA
ATOM     51  H10 UNL     1      -4.895   4.643   1.147  1.00  0.00     0.161 HD
ENDBRANCH  46  47
ENDBRANCH  45  46
ENDBRANCH  44  45
ENDBRANCH  39  44
ENDBRANCH   7  39
TORSDOF 20
