REMARK  20 active torsions:
REMARK  status: ('A' for Active; 'I' for Inactive)
REMARK    1  A    between atoms: C2_2  and  N1_3 
REMARK    2  A    between atoms: N1_3  and  C3_4 
REMARK       I    between atoms: N1_3  and  C10_11 
REMARK    3  A    between atoms: C3_4  and  C4_5 
REMARK    4  A    between atoms: C10_11  and  C11_13 
REMARK    5  A    between atoms: C11_13  and  C12_14 
REMARK    6  A    between atoms: C12_14  and  N6_39 
REMARK    7  A    between atoms: N2_15  and  C13_17 
REMARK    8  A    between atoms: C13_17  and  C14_18 
REMARK    9  A    between atoms: C14_18  and  C15_19 
REMARK   10  A    between atoms: C15_19  and  C16_20 
REMARK   11  A    between atoms: N4_28  and  C20_29 
REMARK   12  A    between atoms: C20_29  and  O4_30 
REMARK   13  A    between atoms: C20_29  and  C21_32 
REMARK   14  A    between atoms: C21_32  and  N5_33 
REMARK   15  A    between atoms: C21_32  and  C22_37 
REMARK   16  A    between atoms: N6_39  and  C23_41 
REMARK   17  A    between atoms: C23_41  and  C24_42 
REMARK   18  A    between atoms: C24_42  and  C25_43 
REMARK   19  A    between atoms: C25_43  and  C26_44 
REMARK   20  A    between atoms: C26_44  and  N7_45 
REMARK       I    between atoms: N7_45  and  C27_47 
ROOT
HETATM    1  C12 UNL     1      -0.573   1.401   0.905  1.00  0.00     0.081 C 
HETATM    2  N2  UNL     1       0.671   1.382   0.904  1.00  0.00    -0.380 N 
ATOM      3  H2  UNL     1       1.115   2.293   0.792  1.00  0.00     0.160 HD
ENDROOT
BRANCH   1   4
HETATM    4  C11 UNL     1      -1.384   0.152   1.060  1.00  0.00     0.179 C 
BRANCH   4   5
HETATM    5  C10 UNL     1      -2.235  -0.054  -0.116  1.00  0.00     0.230 C 
HETATM    6  N1  UNL     1      -3.206  -1.059  -0.267  1.00  0.00    -0.332 N 
HETATM    7  O1  UNL     1      -2.079   0.774  -1.096  1.00  0.00    -0.273 OA
BRANCH   6   8
HETATM    8  C2  UNL     1      -3.998  -1.009  -1.506  1.00  0.00     0.126 C 
HETATM    9  C1  UNL     1      -5.240  -0.165  -1.302  1.00  0.00     0.027 C 
ENDBRANCH   6   8
BRANCH   6  10
HETATM   10  C3  UNL     1      -3.430  -2.085   0.667  1.00  0.00     0.071 C 
BRANCH  10  11
HETATM   11  C4  UNL     1      -2.794  -3.409   0.497  1.00  0.00     0.024 C 
HETATM   12  C5  UNL     1      -3.211  -4.114  -0.792  1.00  0.00     0.010 C 
HETATM   13  C6  UNL     1      -2.959  -5.590  -0.594  1.00  0.00     0.001 C 
HETATM   14  C7  UNL     1      -1.830  -5.918   0.320  1.00  0.00     0.000 C 
HETATM   15  C8  UNL     1      -0.760  -4.847   0.279  1.00  0.00     0.001 C 
HETATM   16  C9  UNL     1      -1.317  -3.492   0.629  1.00  0.00     0.010 C 
ENDBRANCH  10  11
ENDBRANCH   6  10
ENDBRANCH   4   5
ENDBRANCH   1   4
BRANCH   1  17
HETATM   17  N6  UNL     1      -1.344   2.602   0.760  1.00  0.00    -0.380 N 
ATOM     18  H6  UNL     1      -2.205   2.715   1.295  1.00  0.00     0.160 HD
BRANCH  17  19
HETATM   19  C23 UNL     1      -0.915   3.662  -0.140  1.00  0.00     0.121 C 
BRANCH  19  20
HETATM   20  C24 UNL     1      -1.869   4.810  -0.102  1.00  0.00     0.021 C 
BRANCH  20  21
HETATM   21  C25 UNL     1      -3.278   4.420  -0.510  1.00  0.00     0.021 C 
BRANCH  21  22
HETATM   22  C26 UNL     1      -4.191   5.613  -0.452  1.00  0.00     0.122 C 
BRANCH  22  23
HETATM   23  N7  UNL     1      -3.795   6.685  -1.318  1.00  0.00    -0.365 N 
HETATM   24  C27 UNL     1      -4.624   7.854  -1.319  1.00  0.00     0.181 C 
HETATM   25  N8  UNL     1      -4.866   8.498  -0.218  1.00  0.00    -0.374 N 
HETATM   26  N9  UNL     1      -5.214   8.361  -2.496  1.00  0.00    -0.064 NA
ATOM     27  H82 UNL     1      -4.439   8.131   0.633  1.00  0.00     0.158 HD
ATOM     28  H81 UNL     1      -5.456   9.330  -0.219  1.00  0.00     0.158 HD
ATOM     29  H7  UNL     1      -2.963   6.619  -1.905  1.00  0.00     0.162 HD
ENDBRANCH  22  23
ENDBRANCH  21  22
ENDBRANCH  20  21
ENDBRANCH  19  20
ENDBRANCH  17  19
ENDBRANCH   1  17
BRANCH   2  30
HETATM   30  C13 UNL     1       1.567   0.291   1.034  1.00  0.00     0.121 C 
BRANCH  30  31
HETATM   31  C14 UNL     1       2.823   0.819   1.706  1.00  0.00     0.022 C 
BRANCH  31  32
HETATM   32  C15 UNL     1       3.884  -0.204   1.906  1.00  0.00     0.039 C 
BRANCH  32  33
HETATM   33  C16 UNL     1       4.389  -0.806   0.600  1.00  0.00     0.208 C 
HETATM   34  C17 UNL     1       4.971   0.280  -0.263  1.00  0.00     0.243 C 
HETATM   35  O2  UNL     1       4.240   0.897  -1.064  1.00  0.00    -0.271 OA
HETATM   36  N3  UNL     1       6.329   0.713  -0.274  1.00  0.00    -0.357 N 
HETATM   37  C18 UNL     1       7.438  -0.045   0.262  1.00  0.00     0.151 C 
ATOM     38  H3  UNL     1       6.533   1.622  -0.689  1.00  0.00     0.162 HD
HETATM   39  C19 UNL     1       7.290  -0.478   1.675  1.00  0.00     0.221 C 
HETATM   40  O3  UNL     1       6.345  -1.420   1.959  1.00  0.00    -0.274 OA
HETATM   41  N4  UNL     1       5.486  -1.681   0.912  1.00  0.00    -0.224 N 
BRANCH  41  42
HETATM   42  C20 UNL     1       5.806  -2.820   0.188  1.00  0.00     0.176 C 
BRANCH  42  43
HETATM   43  O4  UNL     1       6.799  -3.513   0.675  1.00  0.00    -0.346 OA
ATOM     44  H4  UNL     1       7.018  -4.293   0.179  1.00  0.00     0.219 HD
ENDBRANCH  42  43
BRANCH  42  45
HETATM   45  C21 UNL     1       5.244  -3.401  -1.029  1.00  0.00     0.319 C 
BRANCH  45  46
HETATM   46  N5  UNL     1       4.342  -2.570  -1.779  1.00  0.00    -0.061 N 
ATOM     47  H53 UNL     1       3.588  -2.248  -1.173  1.00  0.00     0.275 HD
ATOM     48  H52 UNL     1       4.795  -1.683  -2.000  1.00  0.00     0.275 HD
ATOM     49  H51 UNL     1       3.950  -2.976  -2.629  1.00  0.00     0.275 HD
ENDBRANCH  45  46
BRANCH  45  50
HETATM   50  C22 UNL     1       4.556  -4.701  -0.771  1.00  0.00     0.272 C 
HETATM   51  O5  UNL     1       5.110  -5.582  -0.156  1.00  0.00    -0.304 OA
ENDBRANCH  45  50
ENDBRANCH  42  45
ENDBRANCH  41  42
ENDBRANCH  32  33
ENDBRANCH  31  32
ENDBRANCH  30  31
ENDBRANCH   2  30
TORSDOF 20
