REMARK  3 active torsions:
REMARK  status: ('A' for Active; 'I' for Inactive)
REMARK    1  A    between atoms: N1_1  and  C1_4 
REMARK    2  A    between atoms: C2_7  and  N3_8 
REMARK    3  A    between atoms: N6_22  and  O3_23 
ROOT
HETATM    1  C1  UNL     1       2.052   1.602   0.456  1.00  0.00     0.145 A 
HETATM    2  N2  UNL     1       0.708   1.620   0.462  1.00  0.00    -0.175 N 
ATOM      3  H2  UNL     1       0.211   2.476   0.707  1.00  0.00     0.186 HD
HETATM    4  C2  UNL     1       0.025   0.521   0.149  1.00  0.00     0.683 A 
HETATM    5  N4  UNL     1       0.703  -0.610  -0.176  1.00  0.00    -0.172 N 
ATOM      6  H4  UNL     1       0.177  -1.450  -0.418  1.00  0.00     0.186 HD
HETATM    7  C7  UNL     1       2.041  -0.657  -0.189  1.00  0.00     0.184 A 
HETATM    8  C8  UNL     1       2.769   0.452   0.127  1.00  0.00     0.128 A 
HETATM    9  N5  UNL     1       4.080   0.148   0.040  1.00  0.00    -0.300 N 
ATOM     10  H5  UNL     1       4.866   0.773   0.218  1.00  0.00     0.171 HD
HETATM   11  C9  UNL     1       4.145  -1.139  -0.327  1.00  0.00     0.353 A 
HETATM   12  O2  UNL     1       5.219  -1.781  -0.508  1.00  0.00    -0.244 OA
HETATM   13  N6  UNL     1       2.923  -1.655  -0.474  1.00  0.00    -0.152 N 
ENDROOT
BRANCH   4  14
HETATM   14  N3  UNL     1      -1.389   0.418   0.143  1.00  0.00    -0.213 N 
HETATM   15  C3  UNL     1      -2.267   1.059  -0.804  1.00  0.00     0.167 C 
HETATM   16  C4  UNL     1      -3.350   0.085  -1.250  1.00  0.00     0.188 C 
HETATM   17  O1  UNL     1      -3.899  -0.609  -0.197  1.00  0.00    -0.388 OA
HETATM   18  C5  UNL     1      -3.501  -0.157   1.061  1.00  0.00     0.188 C 
HETATM   19  C6  UNL     1      -2.008  -0.408   1.151  1.00  0.00     0.167 C 
ENDBRANCH   4  14
BRANCH   1  20
HETATM   20  N1  UNL     1       2.739   2.667   0.752  1.00  0.00    -0.383 N 
ATOM     21  H12 UNL     1       2.215   3.508   0.993  1.00  0.00     0.157 HD
ATOM     22  H11 UNL     1       3.759   2.653   0.747  1.00  0.00     0.157 HD
ENDBRANCH   1  20
BRANCH  13  23
HETATM   23  O3  UNL     1       2.556  -2.927  -0.839  1.00  0.00    -0.277 OA
ATOM     24  H3  UNL     1       3.171  -3.623  -1.038  1.00  0.00     0.245 HD
ENDBRANCH  13  23
TORSDOF 3
