REMARK  4 active torsions:
REMARK  status: ('A' for Active; 'I' for Inactive)
REMARK    1  A    between atoms: C3_8  and  C4_9 
REMARK    2  A    between atoms: C4_9  and  N3_10 
REMARK    3  A    between atoms: C4_9  and  C7_20 
REMARK       I    between atoms: C7_20  and  N6_22 
REMARK    4  A    between atoms: N6_22  and  N7_24 
ROOT
HETATM    1  C4  UNL     1      -0.497  -0.140  -0.821  1.00  0.00     0.233 C 
ENDROOT
BRANCH   1   2
HETATM    2  C3  UNL     1      -1.647   0.747  -1.087  1.00  0.00     0.090 A 
HETATM    3  C2  UNL     1      -1.825   2.010  -0.588  1.00  0.00     0.057 A 
HETATM    4  C1  UNL     1      -0.965   2.807   0.308  1.00  0.00     0.072 C 
HETATM    5  N1  UNL     1      -3.020   2.434  -1.101  1.00  0.00    -0.244 N 
HETATM    6  O1  UNL     1      -3.502   1.497  -1.838  1.00  0.00    -0.157 OA
ATOM      7  H1  UNL     1      -3.455   3.340  -0.928  1.00  0.00     0.196 HD
HETATM    8  N2  UNL     1      -2.701   0.453  -1.858  1.00  0.00    -0.241 N 
ATOM      9  H2  UNL     1      -2.855  -0.418  -2.366  1.00  0.00     0.196 HD
ENDBRANCH   1   2
BRANCH   1  10
HETATM   10  N3  UNL     1       0.230   0.357   0.298  1.00  0.00    -0.336 N 
HETATM   11  C5  UNL     1       1.508   0.165   0.462  1.00  0.00     0.242 A 
HETATM   12  N4  UNL     1       2.377  -0.495  -0.322  1.00  0.00    -0.262 N 
HETATM   13  O2  UNL     1       2.202   0.607   1.475  1.00  0.00    -0.249 OA
HETATM   14  N5  UNL     1       3.588  -0.448   0.220  1.00  0.00    -0.267 N 
ATOM     15  H4  UNL     1       2.142  -0.961  -1.199  1.00  0.00     0.190 HD
HETATM   16  C6  UNL     1       3.463   0.260   1.370  1.00  0.00     0.236 A 
ATOM     17  H5  UNL     1       4.442  -0.862  -0.154  1.00  0.00     0.190 HD
HETATM   18  S1  UNL     1       4.643   0.631   2.449  1.00  0.00    -0.031 SA
ATOM     19  H3  UNL     1      -0.275   0.890   1.006  1.00  0.00     0.164 HD
ENDBRANCH   1  10
BRANCH   1  20
HETATM   20  C7  UNL     1      -1.015  -1.520  -0.524  1.00  0.00     0.264 C 
HETATM   21  O3  UNL     1      -1.680  -2.096  -1.435  1.00  0.00    -0.269 OA
HETATM   22  N6  UNL     1      -0.768  -2.132   0.710  1.00  0.00    -0.275 N 
ATOM     23  H6  UNL     1      -0.230  -1.650   1.430  1.00  0.00     0.189 HD
BRANCH  22  24
HETATM   24  N7  UNL     1      -1.271  -3.415   0.939  1.00  0.00    -0.343 N 
ATOM     25  H72 UNL     1      -1.807  -3.884   0.209  1.00  0.00     0.176 HD
ATOM     26  H71 UNL     1      -1.091  -3.861   1.838  1.00  0.00     0.176 HD
ENDBRANCH  22  24
ENDBRANCH   1  20
TORSDOF 4
