REMARK  15 active torsions:
REMARK  status: ('A' for Active; 'I' for Inactive)
REMARK    1  A    between atoms: N1_1  and  C1_5 
REMARK    2  A    between atoms: C1_5  and  C2_6 
REMARK    3  A    between atoms: C2_6  and  C3_7 
REMARK    4  A    between atoms: C3_7  and  C4_8 
REMARK    5  A    between atoms: C4_8  and  C5_9 
REMARK    6  A    between atoms: C5_9  and  C6_10 
REMARK    7  A    between atoms: C6_10  and  C7_11 
REMARK    8  A    between atoms: C7_11  and  C8_12 
REMARK    9  A    between atoms: C8_12  and  C9_13 
REMARK   10  A    between atoms: C9_13  and  C10_14 
REMARK   11  A    between atoms: C10_14  and  C11_15 
REMARK   12  A    between atoms: C12_17  and  C13_18 
REMARK   13  A    between atoms: C13_18  and  C14_19 
REMARK   14  A    between atoms: C14_19  and  C15_20 
REMARK   15  A    between atoms: C15_20  and  C16_21 
ROOT
HETATM    1  C9  UNL     1       0.040  -0.925  -1.138  1.00  0.00    -0.028 C 
ENDROOT
BRANCH   1   2
HETATM    2  C8  UNL     1      -1.182  -0.140  -1.189  1.00  0.00    -0.031 C 
BRANCH   2   3
HETATM    3  C7  UNL     1      -2.173  -0.033  -0.101  1.00  0.00     0.027 C 
BRANCH   3   4
HETATM    4  C6  UNL     1      -2.795  -1.318   0.277  1.00  0.00     0.004 C 
BRANCH   4   5
HETATM    5  C5  UNL     1      -3.862  -1.349   1.295  1.00  0.00     0.000 C 
BRANCH   5   6
HETATM    6  C4  UNL     1      -5.184  -0.760   1.099  1.00  0.00     0.000 C 
BRANCH   6   7
HETATM    7  C3  UNL     1      -5.242   0.680   0.812  1.00  0.00     0.002 C 
BRANCH   7   8
HETATM    8  C2  UNL     1      -6.726   1.166   0.763  1.00  0.00     0.027 C 
BRANCH   8   9
HETATM    9  C1  UNL     1      -6.637   2.644   0.458  1.00  0.00     0.229 C 
BRANCH   9  10
HETATM   10  N1  UNL     1      -7.920   3.271   0.373  1.00  0.00    -0.079 N 
ATOM     11  H13 UNL     1      -8.516   2.794  -0.304  1.00  0.00     0.274 HD
ATOM     12  H12 UNL     1      -8.465   3.105   1.219  1.00  0.00     0.274 HD
ATOM     13  H11 UNL     1      -7.860   4.268   0.167  1.00  0.00     0.274 HD
ENDBRANCH   9  10
ENDBRANCH   8   9
ENDBRANCH   7   8
ENDBRANCH   6   7
ENDBRANCH   5   6
ENDBRANCH   4   5
ENDBRANCH   3   4
ENDBRANCH   2   3
ENDBRANCH   1   2
BRANCH   1  14
HETATM   14  C10 UNL     1       0.062  -2.385  -1.032  1.00  0.00     0.061 C 
BRANCH  14  15
HETATM   15  C11 UNL     1       1.536  -2.843  -1.103  1.00  0.00     0.154 A 
HETATM   16  O1  UNL     1       2.066  -2.397  -2.416  1.00  0.00    -0.375 OA
HETATM   17  C12 UNL     1       2.588  -1.965  -1.064  1.00  0.00     0.151 A 
BRANCH  17  18
HETATM   18  C13 UNL     1       4.016  -2.419  -0.963  1.00  0.00     0.035 C 
BRANCH  18  19
HETATM   19  C14 UNL     1       4.941  -1.238  -0.930  1.00  0.00     0.007 C 
BRANCH  19  20
HETATM   20  C15 UNL     1       4.684  -0.391   0.269  1.00  0.00     0.038 C 
BRANCH  20  21
HETATM   21  C16 UNL     1       5.608   0.792   0.323  1.00  0.00    -0.058 A 
HETATM   22  C17 UNL     1       5.272   1.987  -0.266  1.00  0.00     0.007 A 
HETATM   23  C18 UNL     1       6.137   3.086  -0.212  1.00  0.00     0.001 A 
HETATM   24  C19 UNL     1       7.354   2.983   0.440  1.00  0.00     0.000 A 
HETATM   25  C20 UNL     1       7.689   1.784   1.029  1.00  0.00     0.001 A 
HETATM   26  C21 UNL     1       6.816   0.691   0.970  1.00  0.00     0.007 A 
ENDBRANCH  20  21
ENDBRANCH  19  20
ENDBRANCH  18  19
ENDBRANCH  17  18
ENDBRANCH  14  15
ENDBRANCH   1  14
TORSDOF 15
