REMARK  13 active torsions:
REMARK  status: ('A' for Active; 'I' for Inactive)
REMARK    1  A    between atoms: C4_4  and  C5_5 
REMARK    2  A    between atoms: C5_5  and  N1_6 
REMARK    3  A    between atoms: N1_6  and  C6_9 
REMARK    4  A    between atoms: C6_9  and  C7_10 
REMARK    5  A    between atoms: C7_10  and  C8_11 
REMARK    6  A    between atoms: C8_11  and  C9_12 
REMARK    7  A    between atoms: C9_12  and  C10_13 
REMARK    8  A    between atoms: C10_13  and  C11_14 
REMARK    9  A    between atoms: C11_14  and  C12_15 
REMARK   10  A    between atoms: C12_15  and  C13_16 
REMARK   11  A    between atoms: C13_16  and  C14_17 
REMARK   12  A    between atoms: C15_18  and  C16_19 
REMARK   13  A    between atoms: C16_19  and  C17_20 
ROOT
HETATM    1  C7  UNL     1      -2.575  -0.039  -0.481  1.00  0.00     0.027 C 
ENDROOT
BRANCH   1   2
HETATM    2  C6  UNL     1      -3.536   1.071  -0.839  1.00  0.00     0.232 C 
BRANCH   2   3
HETATM    3  N1  UNL     1      -4.869   0.528  -0.904  1.00  0.00    -0.071 N 
ATOM      4  H12 UNL     1      -4.913  -0.243  -1.570  1.00  0.00     0.277 HD
ATOM      5  H11 UNL     1      -5.504   1.183  -1.360  1.00  0.00     0.277 HD
BRANCH   3   6
HETATM    6  C5  UNL     1      -5.380   0.129   0.365  1.00  0.00     0.270 C 
BRANCH   6   7
HETATM    7  C4  UNL     1      -6.759  -0.413   0.296  1.00  0.00    -0.033 A 
HETATM    8  C3  UNL     1      -7.446  -0.463  -0.883  1.00  0.00     0.009 A 
HETATM    9  C2  UNL     1      -8.737  -0.965  -0.951  1.00  0.00     0.001 A 
HETATM   10  C1  UNL     1      -9.323  -1.422   0.213  1.00  0.00     0.000 A 
HETATM   11  C21 UNL     1      -8.640  -1.376   1.409  1.00  0.00     0.001 A 
HETATM   12  C20 UNL     1      -7.350  -0.870   1.456  1.00  0.00     0.009 A 
ENDBRANCH   6   7
ENDBRANCH   3   6
ENDBRANCH   2   3
ENDBRANCH   1   2
BRANCH   1  13
HETATM   13  C8  UNL     1      -1.145   0.489  -0.407  1.00  0.00     0.002 C 
BRANCH  13  14
HETATM   14  C9  UNL     1      -0.271  -0.662  -0.053  1.00  0.00     0.000 C 
BRANCH  14  15
HETATM   15  C10 UNL     1       1.201  -0.298   0.068  1.00  0.00     0.000 C 
BRANCH  15  16
HETATM   16  C11 UNL     1       1.655   0.233  -1.236  1.00  0.00     0.000 C 
BRANCH  16  17
HETATM   17  C12 UNL     1       3.146   0.590  -1.178  1.00  0.00     0.004 C 
BRANCH  17  18
HETATM   18  C13 UNL     1       3.355   1.625  -0.147  1.00  0.00     0.027 C 
BRANCH  18  19
HETATM   19  C14 UNL     1       4.742   2.109  -0.018  1.00  0.00    -0.031 C 
HETATM   20  C15 UNL     1       5.809   1.262   0.472  1.00  0.00    -0.030 C 
BRANCH  20  21
HETATM   21  C16 UNL     1       6.190   0.005  -0.190  1.00  0.00     0.031 C 
BRANCH  21  22
HETATM   22  C17 UNL     1       7.453  -0.537   0.562  1.00  0.00    -0.011 A 
HETATM   23  C18 UNL     1       7.289  -0.828   1.987  1.00  0.00     0.005 A 
HETATM   24  C19 UNL     1       7.419  -1.962   1.000  1.00  0.00     0.005 A 
ENDBRANCH  21  22
ENDBRANCH  20  21
ENDBRANCH  18  19
ENDBRANCH  17  18
ENDBRANCH  16  17
ENDBRANCH  15  16
ENDBRANCH  14  15
ENDBRANCH  13  14
ENDBRANCH   1  13
TORSDOF 13
