REMARK  14 active torsions:
REMARK  status: ('A' for Active; 'I' for Inactive)
REMARK    1  A    between atoms: C3_3  and  C4_4 
REMARK    2  A    between atoms: C4_4  and  C5_5 
REMARK    3  A    between atoms: C5_5  and  C6_6 
REMARK    4  A    between atoms: C6_6  and  C7_7 
REMARK    5  A    between atoms: C7_7  and  C8_8 
REMARK    6  A    between atoms: C8_8  and  C9_9 
REMARK    7  A    between atoms: C9_9  and  C10_10 
REMARK    8  A    between atoms: C10_10  and  C11_11 
REMARK    9  A    between atoms: C11_11  and  C12_12 
REMARK   10  A    between atoms: C12_12  and  C13_13 
REMARK   11  A    between atoms: C13_13  and  C14_14 
REMARK   12  A    between atoms: C14_14  and  C15_15 
REMARK   13  A    between atoms: C15_15  and  O1_16 
REMARK   14  A    between atoms: O1_16  and  C16_17 
ROOT
HETATM    1  C1  UNL     1      -8.070   3.248   0.339  1.00  0.00     0.012 C 
HETATM    2  C2  UNL     1      -8.071   2.077   0.037  1.00  0.00    -0.117 C 
HETATM    3  C3  UNL     1      -8.079   0.652  -0.337  1.00  0.00     0.093 C 
ENDROOT
BRANCH   3   4
HETATM    4  C4  UNL     1      -6.747   0.038  -0.065  1.00  0.00     0.012 C 
BRANCH   4   5
HETATM    5  C5  UNL     1      -5.630   0.708  -0.842  1.00  0.00     0.001 C 
BRANCH   5   6
HETATM    6  C6  UNL     1      -4.293   0.056  -0.539  1.00  0.00     0.000 C 
BRANCH   6   7
HETATM    7  C7  UNL     1      -3.227   0.769  -1.342  1.00  0.00     0.000 C 
BRANCH   7   8
HETATM    8  C8  UNL     1      -1.866   0.178  -1.096  1.00  0.00     0.000 C 
BRANCH   8   9
HETATM    9  C9  UNL     1      -1.450   0.261   0.343  1.00  0.00     0.000 C 
BRANCH   9  10
HETATM   10  C10 UNL     1      -0.030  -0.385   0.446  1.00  0.00     0.000 C 
BRANCH  10  11
HETATM   11  C11 UNL     1       0.339  -0.285   1.856  1.00  0.00     0.004 C 
BRANCH  11  12
HETATM   12  C12 UNL     1       1.621  -0.775   2.382  1.00  0.00     0.027 C 
BRANCH  12  13
HETATM   13  C13 UNL     1       2.002  -2.178   2.283  1.00  0.00    -0.025 C 
BRANCH  13  14
HETATM   14  C14 UNL     1       2.201  -2.882   1.019  1.00  0.00     0.020 C 
BRANCH  14  15
HETATM   15  C15 UNL     1       3.262  -2.662   0.057  1.00  0.00     0.135 C 
BRANCH  15  16
HETATM   16  O1  UNL     1       3.641  -1.613  -0.617  1.00  0.00    -0.358 OA
BRANCH  16  17
HETATM   17  C16 UNL     1       4.238  -0.503  -0.186  1.00  0.00     0.127 C 
HETATM   18  C17 UNL     1       3.577   0.781  -0.567  1.00  0.00     0.032 C 
HETATM   19  C18 UNL     1       4.470   1.705  -1.354  1.00  0.00     0.002 C 
HETATM   20  C19 UNL     1       5.791   1.975  -0.718  1.00  0.00     0.000 C 
HETATM   21  C20 UNL     1       6.303   0.765   0.019  1.00  0.00     0.002 C 
HETATM   22  C21 UNL     1       5.727  -0.457  -0.663  1.00  0.00     0.032 C 
ENDBRANCH  16  17
ENDBRANCH  15  16
ENDBRANCH  14  15
ENDBRANCH  13  14
ENDBRANCH  12  13
ENDBRANCH  11  12
ENDBRANCH  10  11
ENDBRANCH   9  10
ENDBRANCH   8   9
ENDBRANCH   7   8
ENDBRANCH   6   7
ENDBRANCH   5   6
ENDBRANCH   4   5
ENDBRANCH   3   4
TORSDOF 14
