REMARK  4 active torsions:
REMARK  status: ('A' for Active; 'I' for Inactive)
REMARK    1  A    between atoms: N1_2  and  N2_3 
REMARK    2  A    between atoms: N1_2  and  C3_6 
REMARK    3  A    between atoms: N2_3  and  C2_4 
REMARK    4  A    between atoms: C5_12  and  N5_13 
ROOT
HETATM    1  C3  UNL     1      -0.345   0.220   0.326  1.00  0.00     0.724 A 
HETATM    2  N3  UNL     1      -0.652   0.534   1.625  1.00  0.00    -0.184 N 
ATOM      3  H3  UNL     1       0.074   0.898   2.243  1.00  0.00     0.185 HD
HETATM    4  C4  UNL     1      -1.888   0.368   2.086  1.00  0.00     0.215 A 
HETATM    5  N4  UNL     1      -2.828  -0.112   1.252  1.00  0.00    -0.187 N 
ATOM      6  H4  UNL     1      -3.782  -0.244   1.587  1.00  0.00     0.185 HD
HETATM    7  C5  UNL     1      -2.516  -0.421  -0.031  1.00  0.00     0.691 A 
HETATM    8  N6  UNL     1      -1.266  -0.257  -0.501  1.00  0.00    -0.020 N 
ATOM      9  H6  UNL     1      -1.033  -0.493  -1.466  1.00  0.00     0.203 HD
ENDROOT
BRANCH   1  10
HETATM   10  N1  UNL     1       1.004   0.450  -0.185  1.00  0.00    -0.058 N 
HETATM   11  C1  UNL     1       1.273   1.650  -0.943  1.00  0.00     0.213 C 
BRANCH  10  12
HETATM   12  N2  UNL     1       1.918  -0.452   0.090  1.00  0.00    -0.281 NA
BRANCH  12  13
HETATM   13  C2  UNL     1       2.837  -1.365   0.359  1.00  0.00     0.467 C 
HETATM   14  O1  UNL     1       3.343  -2.348  -0.095  1.00  0.00    -0.266 OA
ENDBRANCH  12  13
ENDBRANCH  10  12
ENDBRANCH   1  10
BRANCH   7  15
HETATM   15  N5  UNL     1      -3.461  -0.860  -0.778  1.00  0.00    -0.234 N 
ATOM     16  H52 UNL     1      -4.409  -0.984  -0.422  1.00  0.00     0.174 HD
ATOM     17  H51 UNL     1      -3.226  -1.092  -1.743  1.00  0.00     0.174 HD
ENDBRANCH   7  15
TORSDOF 4
