REMARK  6 active torsions:
REMARK  status: ('A' for Active; 'I' for Inactive)
REMARK    1  A    between atoms: C2_3  and  N2_4 
REMARK    2  A    between atoms: C2_3  and  C3_8 
REMARK    3  A    between atoms: C3_8  and  N3_9 
REMARK    4  A    between atoms: C3_8  and  C4_13 
REMARK    5  A    between atoms: C4_13  and  N4_14 
REMARK    6  A    between atoms: C6_18  and  N6_19 
ROOT
HETATM    1  N1  UNL     1      -3.425  -0.331   2.353  1.00  0.00    -0.195 NA
HETATM    2  C1  UNL     1      -2.655  -0.034   1.557  1.00  0.00     0.094 C 
HETATM    3  C2  UNL     1      -1.666   0.330   0.527  1.00  0.00     0.321 C 
ENDROOT
BRANCH   3   4
HETATM    4  N2  UNL     1      -2.269   1.155  -0.498  1.00  0.00    -0.060 N 
ATOM      5  H23 UNL     1      -3.091   0.709  -0.905  1.00  0.00     0.276 HD
ATOM      6  H22 UNL     1      -2.721   1.979  -0.101  1.00  0.00     0.276 HD
ATOM      7  H21 UNL     1      -1.584   1.407  -1.211  1.00  0.00     0.276 HD
ENDBRANCH   3   4
BRANCH   3   8
HETATM    8  C3  UNL     1      -1.136  -0.903  -0.151  1.00  0.00     0.247 C 
BRANCH   8   9
HETATM    9  N3  UNL     1      -0.491  -1.806   0.782  1.00  0.00    -0.070 N 
ATOM     10  H33 UNL     1       0.242  -1.331   1.309  1.00  0.00     0.274 HD
ATOM     11  H32 UNL     1      -1.114  -2.047   1.553  1.00  0.00     0.274 HD
ATOM     12  H31 UNL     1      -0.131  -2.642   0.322  1.00  0.00     0.274 HD
ENDBRANCH   8   9
BRANCH   8  13
HETATM   13  C4  UNL     1      -0.123  -0.516  -1.186  1.00  0.00     0.186 C 
BRANCH  13  14
HETATM   14  N4  UNL     1       1.015   0.184  -0.648  1.00  0.00    -0.271 N 
HETATM   15  C5  UNL     1       1.186   1.505  -0.494  1.00  0.00     0.218 A 
HETATM   16  N5  UNL     1       2.400   1.715   0.050  1.00  0.00    -0.185 N 
HETATM   17  C6  UNL     1       2.999   0.528   0.242  1.00  0.00     0.691 A 
ATOM     18  H5  UNL     1       2.799   2.625   0.279  1.00  0.00     0.185 HD
HETATM   19  N7  UNL     1       2.124  -0.392  -0.196  1.00  0.00    -0.129 N 
ATOM     20  H7  UNL     1       2.289  -1.399  -0.183  1.00  0.00     0.206 HD
BRANCH  17  21
HETATM   21  N6  UNL     1       4.188   0.301   0.750  1.00  0.00    -0.233 N 
ATOM     22  H62 UNL     1       4.853   1.000   1.083  1.00  0.00     0.174 HD
ATOM     23  H61 UNL     1       4.643  -0.600   0.896  1.00  0.00     0.174 HD
ENDBRANCH  17  21
ENDBRANCH  13  14
ENDBRANCH   8  13
ENDBRANCH   3   8
TORSDOF 6
