REMARK  6 active torsions:
REMARK  status: ('A' for Active; 'I' for Inactive)
REMARK    1  A    between atoms: N1_1  and  C1_4 
REMARK    2  A    between atoms: C2_9  and  O1_10 
REMARK    3  A    between atoms: O1_10  and  N4_11 
REMARK    4  A    between atoms: N5_13  and  O2_14 
REMARK    5  A    between atoms: N5_13  and  N6_16 
REMARK    6  A    between atoms: N6_16  and  N7_18 
ROOT
HETATM    1  C1  UNL     1      -2.840   0.076   0.576  1.00  0.00     0.693 A 
HETATM    2  N2  UNL     1      -2.994   1.186  -0.166  1.00  0.00    -0.129 N 
ATOM      3  H2  UNL     1      -3.729   1.884  -0.056  1.00  0.00     0.205 HD
HETATM    4  N3  UNL     1      -2.010   1.213  -1.077  1.00  0.00    -0.249 N 
ATOM      5  H3  UNL     1      -1.876   1.943  -1.777  1.00  0.00     0.191 HD
HETATM    6  C2  UNL     1      -1.221   0.121  -0.924  1.00  0.00     0.278 A 
HETATM    7  N8  UNL     1      -1.752  -0.555   0.094  1.00  0.00    -0.151 N 
ATOM      8  H8  UNL     1      -1.384  -1.433   0.460  1.00  0.00     0.188 HD
ENDROOT
BRANCH   6   9
HETATM    9  O1  UNL     1      -0.089  -0.213  -1.683  1.00  0.00    -0.180 OA
BRANCH   9  10
HETATM   10  N4  UNL     1       1.112   0.181  -1.150  1.00  0.00    -0.155 N 
HETATM   11  N5  UNL     1       2.100  -0.557  -0.929  1.00  0.00    -0.060 N 
ATOM     12  H4  UNL     1       1.210   1.168  -0.911  1.00  0.00     0.221 HD
BRANCH  11  13
HETATM   13  O2  UNL     1       2.040  -1.884  -1.224  1.00  0.00    -0.251 OA
ATOM     14  H2  UNL     1       2.789  -2.444  -1.056  1.00  0.00     0.248 HD
ENDBRANCH  11  13
BRANCH  11  15
HETATM   15  N6  UNL     1       3.254  -0.022  -0.386  1.00  0.00    -0.205 N 
ATOM     16  H6  UNL     1       4.020   0.307  -0.974  1.00  0.00     0.212 HD
BRANCH  15  17
HETATM   17  N7  UNL     1       3.320   0.047   1.021  1.00  0.00    -0.328 N 
ATOM     18  H72 UNL     1       2.546  -0.286   1.596  1.00  0.00     0.178 HD
ATOM     19  H71 UNL     1       4.171   0.442   1.421  1.00  0.00     0.178 HD
ENDBRANCH  15  17
ENDBRANCH  11  15
ENDBRANCH   9  10
ENDBRANCH   6   9
BRANCH   1  20
HETATM   20  N1  UNL     1      -3.606  -0.278   1.546  1.00  0.00    -0.233 N 
ATOM     21  H12 UNL     1      -4.430   0.200   1.911  1.00  0.00     0.174 HD
ATOM     22  H11 UNL     1      -3.489  -1.120   2.109  1.00  0.00     0.174 HD
ENDBRANCH   1  20
TORSDOF 6
