REMARK  5 active torsions:
REMARK  status: ('A' for Active; 'I' for Inactive)
REMARK    1  A    between atoms: O1_2  and  C2_3 
REMARK    2  A    between atoms: C4_5  and  O2_6 
REMARK    3  A    between atoms: O2_6  and  N1_7 
REMARK    4  A    between atoms: N1_7  and  N2_8 
REMARK    5  A    between atoms: C5_13  and  N4_14 
ROOT
HETATM    1  C2  UNL     1      -1.469   0.420   0.047  1.00  0.00     0.161 A 
HETATM    2  C3  UNL     1      -0.282  -0.259   0.043  1.00  0.00     0.115 A 
HETATM    3  C4  UNL     1       0.843   0.399  -0.411  1.00  0.00     0.186 A 
HETATM    4  N3  UNL     1       0.684   1.671  -0.820  1.00  0.00    -0.169 N 
ATOM      5  H3  UNL     1       1.505   2.173  -1.160  1.00  0.00     0.186 HD
HETATM    6  C5  UNL     1      -0.495   2.320  -0.807  1.00  0.00     0.679 A 
HETATM    7  N5  UNL     1      -1.607   1.699  -0.369  1.00  0.00    -0.171 N 
ATOM      8  H5  UNL     1      -2.511   2.171  -0.352  1.00  0.00     0.186 HD
ENDROOT
BRANCH   3   9
HETATM    9  O2  UNL     1       2.099  -0.198  -0.457  1.00  0.00    -0.205 OA
BRANCH   9  10
HETATM   10  N1  UNL     1       2.363  -1.458  -0.074  1.00  0.00     0.021 NA
BRANCH  10  11
HETATM   11  N2  UNL     1       3.667  -1.551   0.478  1.00  0.00    -0.322 N 
ATOM     12  H22 UNL     1       4.305  -0.760   0.565  1.00  0.00     0.174 HD
ATOM     13  H21 UNL     1       3.867  -2.508   0.769  1.00  0.00     0.174 HD
ENDBRANCH  10  11
ENDBRANCH   9  10
ENDBRANCH   3   9
BRANCH   1  14
HETATM   14  O1  UNL     1      -2.620  -0.205   0.495  1.00  0.00    -0.340 OA
HETATM   15  C1  UNL     1      -2.593  -1.528   0.948  1.00  0.00     0.211 C 
ENDBRANCH   1  14
BRANCH   6  16
HETATM   16  N4  UNL     1      -0.634   3.543  -1.204  1.00  0.00    -0.234 N 
ATOM     17  H42 UNL     1       0.208   4.013  -1.536  1.00  0.00     0.174 HD
ATOM     18  H41 UNL     1      -1.528   4.035  -1.194  1.00  0.00     0.174 HD
ENDBRANCH   6  16
TORSDOF 5
