REMARK  15 active torsions:
REMARK  status: ('A' for Active; 'I' for Inactive)
REMARK    1  A    between atoms: C4_6  and  O1_7 
REMARK    2  A    between atoms: C5_9  and  C6_10 
REMARK    3  A    between atoms: N4_15  and  C7_16 
REMARK    4  A    between atoms: C7_16  and  C8_17 
REMARK    5  A    between atoms: C8_17  and  N5_18 
REMARK    6  A    between atoms: C8_17  and  C9_22 
REMARK    7  A    between atoms: C9_22  and  N6_23 
REMARK    8  A    between atoms: C11_28  and  C12_29 
REMARK    9  A    between atoms: C12_29  and  N9_30 
REMARK   10  A    between atoms: C12_29  and  O2_34 
REMARK   11  A    between atoms: C13_36  and  C14_37 
REMARK   12  A    between atoms: C14_37  and  O3_38 
REMARK   13  A    between atoms: C16_44  and  C17_45 
REMARK   14  A    between atoms: C17_45  and  O4_49 
REMARK   15  A    between atoms: C18_52  and  O5_53 
ROOT
HETATM    1  C6  UNL     1      -1.951  -0.393  -0.712  1.00  0.00     0.152 A 
HETATM    2  N2  UNL     1      -1.347  -0.097  -1.884  1.00  0.00    -0.268 N 
ATOM      3  H2  UNL     1      -1.797   0.302  -2.708  1.00  0.00     0.190 HD
HETATM    4  N3  UNL     1      -0.111  -0.406  -1.776  1.00  0.00    -0.224 N 
ATOM      5  H3  UNL     1       0.584  -0.281  -2.512  1.00  0.00     0.210 HD
HETATM    6  N4  UNL     1       0.141  -0.906  -0.587  1.00  0.00    -0.216 N 
HETATM    7  N10 UNL     1      -0.973  -0.896   0.093  1.00  0.00    -0.266 N 
ATOM      8  H10 UNL     1      -1.091  -1.209   1.057  1.00  0.00     0.190 HD
ENDROOT
BRANCH   6   9
HETATM    9  C7  UNL     1       1.470  -1.408  -0.288  1.00  0.00     0.209 C 
BRANCH   9  10
HETATM   10  C8  UNL     1       2.372  -0.267   0.304  1.00  0.00     0.243 C 
BRANCH  10  11
HETATM   11  N5  UNL     1       2.232   0.726  -0.839  1.00  0.00    -0.069 N 
ATOM     12  H53 UNL     1       2.473   0.389  -1.771  1.00  0.00     0.275 HD
ATOM     13  H52 UNL     1       1.282   0.985  -1.107  1.00  0.00     0.275 HD
ATOM     14  H51 UNL     1       2.818   1.467  -0.454  1.00  0.00     0.275 HD
ENDBRANCH  10  11
BRANCH  10  15
HETATM   15  C9  UNL     1       3.753  -0.755   0.152  1.00  0.00     0.107 C 
BRANCH  15  16
HETATM   16  N6  UNL     1       4.929  -0.114   0.622  1.00  0.00    -0.298 N 
HETATM   17  C10 UNL     1       5.509  -0.582   1.836  1.00  0.00     0.199 A 
HETATM   18  N7  UNL     1       5.004  -1.470   2.766  1.00  0.00    -0.063 NA
HETATM   19  N8  UNL     1       6.698   0.043   1.964  1.00  0.00    -0.328 N 
HETATM   20  C11 UNL     1       6.925   0.871   0.954  1.00  0.00     0.093 A 
ATOM     21  H8  UNL     1       7.342  -0.103   2.741  1.00  0.00     0.168 HD
HETATM   22  C13 UNL     1       5.786   0.757   0.131  1.00  0.00     0.069 A 
BRANCH  20  23
HETATM   23  C12 UNL     1       8.058   1.796   0.663  1.00  0.00     0.369 C 
BRANCH  23  24
HETATM   24  N9  UNL     1       9.277   0.977   0.815  1.00  0.00    -0.047 N 
ATOM     25  H93 UNL     1       9.349   0.510   1.719  1.00  0.00     0.277 HD
ATOM     26  H92 UNL     1       9.279   0.132   0.244  1.00  0.00     0.277 HD
ATOM     27  H91 UNL     1      10.052   1.610   0.616  1.00  0.00     0.277 HD
ENDBRANCH  23  24
BRANCH  23  28
HETATM   28  O2  UNL     1       8.125   2.801   1.633  1.00  0.00    -0.365 OA
ATOM     29  H2  UNL     1       8.847   3.390   1.448  1.00  0.00     0.212 HD
ENDBRANCH  23  28
ENDBRANCH  20  23
BRANCH  22  30
HETATM   30  C14 UNL     1       5.695   1.524  -1.134  1.00  0.00     0.224 C 
BRANCH  30  31
HETATM   31  O3  UNL     1       4.691   2.499  -1.070  1.00  0.00    -0.395 OA
ATOM     32  H3  UNL     1       4.633   2.991  -1.881  1.00  0.00     0.209 HD
ENDBRANCH  30  31
ENDBRANCH  22  30
ENDBRANCH  15  16
ENDBRANCH  10  15
ENDBRANCH   9  10
ENDBRANCH   6   9
BRANCH   1  33
HETATM   33  C5  UNL     1      -3.384  -0.237  -0.434  1.00  0.00     0.074 A 
HETATM   34  C4  UNL     1      -3.922   0.987  -0.053  1.00  0.00     0.126 A 
HETATM   35  C3  UNL     1      -5.262   1.093   0.177  1.00  0.00     0.149 A 
HETATM   36  N1  UNL     1      -6.122   2.055   0.502  1.00  0.00    -0.340 N 
HETATM   37  N13 UNL     1      -6.109   0.005   0.035  1.00  0.00    -0.268 N 
HETATM   38  C2  UNL     1      -7.331   1.771   0.578  1.00  0.00     0.059 A 
ATOM     39  H1  UNL     1      -5.797   3.004   0.685  1.00  0.00     0.167 HD
HETATM   40  C1  UNL     1      -8.566   2.584   0.902  1.00  0.00     0.072 C 
HETATM   41  C18 UNL     1      -7.402   0.384   0.271  1.00  0.00     0.171 A 
HETATM   42  C16 UNL     1      -5.606  -1.213  -0.333  1.00  0.00     0.118 A 
HETATM   43  C15 UNL     1      -4.217  -1.290  -0.566  1.00  0.00     0.095 A 
HETATM   44  N11 UNL     1      -3.651  -2.518  -1.085  1.00  0.00    -0.099 NA
BRANCH  34  45
HETATM   45  O1  UNL     1      -3.112   2.068   0.094  1.00  0.00    -0.356 OA
ATOM     46  H1  UNL     1      -2.179   1.994  -0.066  1.00  0.00     0.218 HD
ENDBRANCH  34  45
BRANCH  41  47
HETATM   47  O5  UNL     1      -8.552  -0.365   0.216  1.00  0.00    -0.344 OA
ATOM     48  H5  UNL     1      -8.599  -1.291   0.011  1.00  0.00     0.219 HD
ENDBRANCH  41  47
BRANCH  42  49
HETATM   49  C17 UNL     1      -6.467  -2.304  -0.265  1.00  0.00     0.163 C 
HETATM   50  N12 UNL     1      -7.526  -3.136  -0.167  1.00  0.00    -0.378 N 
ATOM     51 2H12 UNL     1      -8.199  -2.374  -0.084  1.00  0.00     0.158 HD
ATOM     52 1H12 UNL     1      -8.157  -3.936  -0.117  1.00  0.00     0.158 HD
BRANCH  49  53
HETATM   53  O4  UNL     1      -5.448  -3.458  -0.391  1.00  0.00    -0.345 OA
ATOM     54  H4  UNL     1      -6.036  -4.203  -0.345  1.00  0.00     0.219 HD
ENDBRANCH  49  53
ENDBRANCH  42  49
ENDBRANCH   1  33
TORSDOF 15
