REMARK  14 active torsions:
REMARK  status: ('A' for Active; 'I' for Inactive)
REMARK    1  A    between atoms: N1_1  and  C1_4 
REMARK    2  A    between atoms: C2_7  and  N3_8 
REMARK       I    between atoms: N4_11  and  C3_12 
REMARK    3  A    between atoms: C3_12  and  C4_14 
REMARK    4  A    between atoms: C4_14  and  N5_15 
REMARK    5  A    between atoms: C5_20  and  C6_21 
REMARK    6  A    between atoms: C9_24  and  C10_25 
REMARK    7  A    between atoms: C10_25  and  O2_26 
REMARK    8  A    between atoms: C11_28  and  C12_29 
REMARK    9  A    between atoms: C12_29  and  O3_30 
REMARK   10  A    between atoms: C12_29  and  O4_32 
REMARK   11  A    between atoms: C15_38  and  N9_39 
REMARK   12  A    between atoms: N9_39  and  O5_41 
REMARK   13  A    between atoms: N10_43  and  N11_44 
REMARK   14  A    between atoms: N12_49  and  O7_50 
ROOT
HETATM    1  N5  UNL     1       1.572  -0.644  -1.066  1.00  0.00    -0.264 N 
HETATM    2  N6  UNL     1       1.434  -1.980  -0.935  1.00  0.00    -0.239 N 
ATOM      3  H6  UNL     1       2.146  -2.664  -1.189  1.00  0.00     0.208 HD
HETATM    4  N7  UNL     1       0.264  -2.276  -0.438  1.00  0.00    -0.282 N 
ATOM      5  H7  UNL     1      -0.065  -3.222  -0.248  1.00  0.00     0.188 HD
HETATM    6  C5  UNL     1      -0.436  -1.172  -0.215  1.00  0.00     0.107 A 
HETATM    7  C13 UNL     1       0.425  -0.130  -0.629  1.00  0.00     0.116 A 
HETATM    8  C14 UNL     1       0.004   1.243  -0.626  1.00  0.00     0.146 A 
HETATM    9  C15 UNL     1       0.191   2.193   0.327  1.00  0.00     0.183 A 
HETATM   10  N10 UNL     1      -0.448   3.317  -0.151  1.00  0.00    -0.189 N 
HETATM   11  C16 UNL     1      -0.992   3.031  -1.345  1.00  0.00     0.374 A 
HETATM   12  O6  UNL     1      -1.660   3.869  -2.055  1.00  0.00    -0.242 OA
HETATM   13  N12 UNL     1      -0.732   1.762  -1.668  1.00  0.00    -0.165 N 
ENDROOT
BRANCH   1  14
HETATM   14  C4  UNL     1       2.822  -0.079  -1.536  1.00  0.00     0.256 C 
BRANCH  14  15
HETATM   15  C3  UNL     1       3.880  -0.084  -0.472  1.00  0.00     0.279 C 
HETATM   16  N4  UNL     1       4.936  -1.001  -0.459  1.00  0.00    -0.036 N 
HETATM   17  C2  UNL     1       5.342  -1.973  -1.263  1.00  0.00     0.715 A 
HETATM   18  N13 UNL     1       5.850  -0.988   0.538  1.00  0.00    -0.108 N 
HETATM   19  N2  UNL     1       6.483  -2.556  -0.789  1.00  0.00    -0.020 N 
HETATM   20  C1  UNL     1       6.777  -1.922   0.337  1.00  0.00     0.706 A 
ATOM     21  H2  UNL     1       7.003  -3.323  -1.215  1.00  0.00     0.203 HD
ATOM     22  H13 UNL     1       5.832  -0.350   1.334  1.00  0.00     0.207 HD
HETATM   23  O1  UNL     1       3.748   0.795   0.407  1.00  0.00    -0.269 OA
BRANCH  17  24
HETATM   24  N3  UNL     1       4.773  -2.361  -2.368  1.00  0.00    -0.232 N 
ATOM     25  H32 UNL     1       5.086  -3.109  -2.987  1.00  0.00     0.174 HD
ATOM     26  H31 UNL     1       3.921  -1.926  -2.722  1.00  0.00     0.174 HD
ENDBRANCH  17  24
BRANCH  20  27
HETATM   27  N1  UNL     1       7.767  -2.118   1.156  1.00  0.00    -0.233 N 
ATOM     28  H12 UNL     1       8.477  -2.834   1.002  1.00  0.00     0.174 HD
ATOM     29  H11 UNL     1       7.993  -1.630   2.023  1.00  0.00     0.174 HD
ENDBRANCH  20  27
ENDBRANCH  14  15
ENDBRANCH   1  14
BRANCH   6  30
HETATM   30  C6  UNL     1      -1.799  -1.004   0.320  1.00  0.00     0.063 A 
HETATM   31  C7  UNL     1      -1.919  -0.364   1.521  1.00  0.00     0.032 A 
HETATM   32  C8  UNL     1      -3.178  -0.151   2.051  1.00  0.00     0.014 A 
HETATM   33  C9  UNL     1      -4.321  -0.589   1.363  1.00  0.00    -0.007 A 
HETATM   34  C11 UNL     1      -4.167  -1.232   0.159  1.00  0.00     0.073 A 
HETATM   35  N8  UNL     1      -2.903  -1.397  -0.287  1.00  0.00    -0.353 N 
ATOM     36  H8  UNL     1      -2.790  -1.873  -1.182  1.00  0.00     0.166 HD
BRANCH  33  37
HETATM   37  C10 UNL     1      -5.668  -0.365   1.924  1.00  0.00     0.205 C 
BRANCH  37  38
HETATM   38  O2  UNL     1      -5.484   0.298   3.154  1.00  0.00    -0.396 OA
ATOM     39  H2  UNL     1      -6.351   0.442   3.515  1.00  0.00     0.209 HD
ENDBRANCH  37  38
ENDBRANCH  33  37
BRANCH  34  40
HETATM   40  C12 UNL     1      -5.283  -1.742  -0.677  1.00  0.00     0.305 C 
BRANCH  40  41
HETATM   41  O3  UNL     1      -6.280  -0.827  -0.830  1.00  0.00    -0.366 OA
ATOM     42  H3  UNL     1      -6.994  -1.153  -1.365  1.00  0.00     0.213 HD
ENDBRANCH  40  41
BRANCH  40  43
HETATM   43  O4  UNL     1      -4.789  -2.089  -1.936  1.00  0.00    -0.366 OA
ATOM     44  H4  UNL     1      -5.503  -2.415  -2.471  1.00  0.00     0.213 HD
ENDBRANCH  40  43
ENDBRANCH  34  40
ENDBRANCH   6  30
BRANCH   9  45
HETATM   45  N9  UNL     1       0.850   2.231   1.587  1.00  0.00    -0.249 N 
ATOM     46  H9  UNL     1       0.599   1.613   2.359  1.00  0.00     0.196 HD
BRANCH  45  47
HETATM   47  O5  UNL     1       1.838   3.153   1.680  1.00  0.00    -0.288 OA
ATOM     48  H5  UNL     1       2.278   3.178   2.522  1.00  0.00     0.244 HD
ENDBRANCH  45  47
ENDBRANCH   9  45
BRANCH  13  49
HETATM   49  O7  UNL     1      -1.151   1.179  -2.818  1.00  0.00    -0.278 OA
ATOM     50  H7  UNL     1      -1.659   1.537  -3.537  1.00  0.00     0.245 HD
ENDBRANCH  13  49
BRANCH  10  51
HETATM   51  N11 UNL     1      -0.527   4.541   0.504  1.00  0.00    -0.333 N 
ATOM     52 2H11 UNL     1      -0.114   4.758   1.411  1.00  0.00     0.177 HD
ATOM     53 1H11 UNL     1      -1.000   5.373   0.150  1.00  0.00     0.177 HD
ENDBRANCH  10  51
TORSDOF 14
