REMARK  14 active torsions:
REMARK  status: ('A' for Active; 'I' for Inactive)
REMARK    1  A    between atoms: N1_1  and  C1_4 
REMARK    2  A    between atoms: C3_9  and  N4_10 
REMARK    3  A    between atoms: C5_12  and  C6_13 
REMARK       I    between atoms: C6_13  and  N5_15 
REMARK    4  A    between atoms: N5_15  and  C7_17 
REMARK    5  A    between atoms: C7_17  and  O2_18 
REMARK    6  A    between atoms: C7_17  and  C8_20 
REMARK    7  A    between atoms: C8_20  and  N6_21 
REMARK    8  A    between atoms: C10_23  and  C11_24 
REMARK    9  A    between atoms: C11_24  and  O3_25 
REMARK   10  A    between atoms: C11_24  and  C12_27 
REMARK   11  A    between atoms: C13_30  and  N8_31 
REMARK   12  A    between atoms: N8_31  and  C14_33 
REMARK   13  A    between atoms: C14_33  and  O4_34 
REMARK   14  A    between atoms: N9_36  and  O5_38 
ROOT
HETATM    1  C7  UNL     1       0.604  -2.135  -0.500  1.00  0.00     0.240 C 
ENDROOT
BRANCH   1   2
HETATM    2  N5  UNL     1      -0.585  -1.353  -0.355  1.00  0.00    -0.328 N 
HETATM    3  C6  UNL     1      -1.881  -1.818  -0.721  1.00  0.00     0.273 C 
HETATM    4  O1  UNL     1      -1.990  -2.965  -1.194  1.00  0.00    -0.266 OA
ATOM      5  H5  UNL     1      -0.500  -0.413   0.031  1.00  0.00     0.165 HD
BRANCH   3   6
HETATM    6  C5  UNL     1      -3.067  -0.989  -0.555  1.00  0.00     0.134 A 
HETATM    7  C4  UNL     1      -4.360  -1.338  -0.883  1.00  0.00     0.155 A 
HETATM    8  N4  UNL     1      -5.189  -0.295  -0.577  1.00  0.00    -0.244 N 
HETATM    9  N14 UNL     1      -4.412   0.646  -0.081  1.00  0.00    -0.235 N 
HETATM   10  N13 UNL     1      -3.146   0.258  -0.058  1.00  0.00    -0.279 N 
ATOM     11  H14 UNL     1      -4.742   1.555   0.243  1.00  0.00     0.209 HD
ATOM     12  H13 UNL     1      -2.360   0.813   0.281  1.00  0.00     0.189 HD
BRANCH   8  13
HETATM   13  C3  UNL     1      -6.595  -0.242  -0.752  1.00  0.00     0.142 A 
HETATM   14  C2  UNL     1      -7.361  -1.250  -0.174  1.00  0.00     0.164 A 
HETATM   15  N2  UNL     1      -8.693  -1.275  -0.292  1.00  0.00    -0.177 N 
HETATM   16  N3  UNL     1      -6.711  -2.283   0.561  1.00  0.00    -0.080 NA
HETATM   17  C1  UNL     1      -9.350  -0.306  -0.987  1.00  0.00     0.678 A 
ATOM     18  H2  UNL     1      -9.223  -2.029   0.144  1.00  0.00     0.185 HD
HETATM   19  N16 UNL     1      -8.626   0.676  -1.553  1.00  0.00    -0.175 N 
HETATM   20  C15 UNL     1      -7.264   0.719  -1.443  1.00  0.00     0.147 A 
ATOM     21  H16 UNL     1      -9.105   1.407  -2.078  1.00  0.00     0.186 HD
HETATM   22  N15 UNL     1      -6.624   1.676  -2.004  1.00  0.00    -0.383 N 
ATOM     23 2H15 UNL     1      -5.608   1.708  -1.922  1.00  0.00     0.157 HD
ATOM     24 1H15 UNL     1      -7.126   2.397  -2.522  1.00  0.00     0.157 HD
BRANCH  17  25
HETATM   25  N1  UNL     1     -10.644  -0.348  -1.090  1.00  0.00    -0.234 N 
ATOM     26  H12 UNL     1     -11.193  -1.093  -0.661  1.00  0.00     0.174 HD
ATOM     27  H11 UNL     1     -11.136   0.378  -1.611  1.00  0.00     0.174 HD
ENDBRANCH  17  25
ENDBRANCH   8  13
ENDBRANCH   3   6
ENDBRANCH   1   2
BRANCH   1  28
HETATM   28  O2  UNL     1       1.257  -2.204   0.728  1.00  0.00    -0.375 OA
ATOM     29  H2  UNL     1       2.047  -2.723   0.632  1.00  0.00     0.212 HD
ENDBRANCH   1  28
BRANCH   1  30
HETATM   30  C8  UNL     1       1.564  -1.403  -1.449  1.00  0.00     0.203 C 
BRANCH  30  31
HETATM   31  N6  UNL     1       1.917  -0.092  -0.921  1.00  0.00    -0.283 N 
HETATM   32  C9  UNL     1       2.955   0.179  -0.116  1.00  0.00     0.141 A 
HETATM   33  C10 UNL     1       2.956   1.510   0.164  1.00  0.00     0.081 A 
HETATM   34  N11 UNL     1       1.881   2.027  -0.501  1.00  0.00    -0.286 N 
HETATM   35  N12 UNL     1       1.299   1.050  -1.126  1.00  0.00    -0.240 N 
ATOM     36  H11 UNL     1       1.589   3.004  -0.506  1.00  0.00     0.188 HD
ATOM     37  H12 UNL     1       0.466   1.155  -1.704  1.00  0.00     0.208 HD
BRANCH  33  38
HETATM   38  C11 UNL     1       3.882   2.319   0.990  1.00  0.00     0.248 C 
BRANCH  38  39
HETATM   39  O3  UNL     1       4.027   3.559   0.301  1.00  0.00    -0.381 OA
ATOM     40  H3  UNL     1       4.621   4.078   0.831  1.00  0.00     0.211 HD
ENDBRANCH  38  39
BRANCH  38  41
HETATM   41  C12 UNL     1       5.220   1.689   1.106  1.00  0.00     0.197 A 
HETATM   42  N7  UNL     1       6.372   2.346   1.475  1.00  0.00    -0.167 N 
HETATM   43  C13 UNL     1       7.406   1.504   1.485  1.00  0.00     0.707 A 
ATOM     44  H7  UNL     1       6.427   3.338   1.708  1.00  0.00     0.186 HD
HETATM   45  N10 UNL     1       6.883   0.307   1.115  1.00  0.00    -0.089 N 
HETATM   46  O6  UNL     1       5.610   0.467   0.906  1.00  0.00    -0.206 OA
ATOM     47  H10 UNL     1       7.400  -0.567   1.018  1.00  0.00     0.213 HD
BRANCH  43  48
HETATM   48  N8  UNL     1       8.771   1.746   1.803  1.00  0.00    -0.151 N 
ATOM     49  H8  UNL     1       9.060   2.687   2.071  1.00  0.00     0.188 HD
BRANCH  48  50
HETATM   50  C14 UNL     1       9.739   0.713   1.757  1.00  0.00     0.255 C 
HETATM   51  N9  UNL     1      10.957   0.955   2.037  1.00  0.00    -0.232 N 
ATOM     52  H9  UNL     1      11.640   0.198   1.997  1.00  0.00     0.198 HD
BRANCH  50  53
HETATM   53  O4  UNL     1       9.364  -0.591   1.400  1.00  0.00    -0.331 OA
ATOM     54  H4  UNL     1      10.013  -1.284   1.369  1.00  0.00     0.221 HD
ENDBRANCH  50  53
BRANCH  51  55
HETATM   55  O5  UNL     1      11.366   2.207   2.389  1.00  0.00    -0.287 OA
ATOM     56  H5  UNL     1      12.275   2.388   2.598  1.00  0.00     0.244 HD
ENDBRANCH  51  55
ENDBRANCH  48  50
ENDBRANCH  43  48
ENDBRANCH  38  41
ENDBRANCH  33  38
ENDBRANCH  30  31
ENDBRANCH   1  30
TORSDOF 14
