REMARK  11 active torsions:
REMARK  status: ('A' for Active; 'I' for Inactive)
REMARK    1  A    between atoms: C2_6  and  C3_7 
REMARK    2  A    between atoms: C3_7  and  O1_8 
REMARK    3  A    between atoms: C3_7  and  N4_10 
REMARK    4  A    between atoms: C4_11  and  C5_12 
REMARK    5  A    between atoms: C6_17  and  N7_18 
REMARK    6  A    between atoms: N7_18  and  C7_19 
REMARK    7  A    between atoms: N7_18  and  C9_23 
REMARK    8  A    between atoms: C7_19  and  C8_20 
REMARK    9  A    between atoms: C8_20  and  O2_21 
REMARK   10  A    between atoms: C9_23  and  N8_24 
REMARK   11  A    between atoms: C14_42  and  N17_43 
ROOT
HETATM    1  N4  UNL     1      -2.333  -0.575  -0.084  1.00  0.00    -0.281 N 
HETATM    2  C4  UNL     1      -1.236  -1.276   0.158  1.00  0.00     0.144 A 
HETATM    3  N14 UNL     1      -1.666  -2.522   0.512  1.00  0.00    -0.334 N 
ATOM      4  H14 UNL     1      -1.048  -3.294   0.760  1.00  0.00     0.168 HD
HETATM    5  C12 UNL     1      -2.986  -2.601   0.492  1.00  0.00     0.121 A 
HETATM    6  C13 UNL     1      -3.899  -3.614   0.758  1.00  0.00     0.162 A 
HETATM    7  N15 UNL     1      -3.408  -4.882   1.150  1.00  0.00    -0.080 NA
HETATM    8  N16 UNL     1      -5.217  -3.390   0.645  1.00  0.00    -0.177 N 
ATOM      9  H16 UNL     1      -5.890  -4.131   0.840  1.00  0.00     0.185 HD
HETATM   10  C14 UNL     1      -5.631  -2.171   0.270  1.00  0.00     0.678 A 
HETATM   11  N18 UNL     1      -4.761  -1.184   0.012  1.00  0.00    -0.174 N 
ATOM     12  H18 UNL     1      -5.123  -0.273  -0.268  1.00  0.00     0.186 HD
HETATM   13  C15 UNL     1      -3.432  -1.348   0.108  1.00  0.00     0.157 A 
ENDROOT
BRANCH   2  14
HETATM   14  C5  UNL     1       0.182  -0.919   0.093  1.00  0.00     0.135 A 
HETATM   15  N5  UNL     1       0.611   0.301  -0.256  1.00  0.00    -0.280 N 
HETATM   16  N6  UNL     1       1.872   0.620  -0.316  1.00  0.00    -0.131 N 
ATOM     17  H5  UNL     1      -0.082   1.013  -0.485  1.00  0.00     0.188 HD
HETATM   18  C6  UNL     1       2.824  -0.279  -0.024  1.00  0.00     0.701 A 
ATOM     19  H6  UNL     1       2.139   1.566  -0.589  1.00  0.00     0.205 HD
HETATM   20  N12 UNL     1       2.449  -1.500   0.327  1.00  0.00    -0.175 N 
HETATM   21  C11 UNL     1       1.141  -1.864   0.400  1.00  0.00     0.163 A 
ATOM     22  H12 UNL     1       3.166  -2.191   0.550  1.00  0.00     0.185 HD
HETATM   23  N13 UNL     1       0.780  -3.183   0.782  1.00  0.00    -0.080 NA
BRANCH  18  24
HETATM   24  N7  UNL     1       4.212   0.160  -0.114  1.00  0.00    -0.172 N 
BRANCH  24  25
HETATM   25  C7  UNL     1       4.821  -0.011  -1.389  1.00  0.00     0.174 C 
BRANCH  25  26
HETATM   26  C8  UNL     1       4.923   1.229  -2.212  1.00  0.00     0.185 C 
BRANCH  26  27
HETATM   27  O2  UNL     1       5.545   0.874  -3.416  1.00  0.00    -0.399 OA
ATOM     28  H2  UNL     1       5.610   1.664  -3.940  1.00  0.00     0.209 HD
ENDBRANCH  26  27
ENDBRANCH  25  26
ENDBRANCH  24  25
BRANCH  24  29
HETATM   29  C9  UNL     1       4.759   0.753   1.047  1.00  0.00     0.247 C 
BRANCH  29  30
HETATM   30  N8  UNL     1       6.156   1.020   0.992  1.00  0.00    -0.187 N 
HETATM   31  N9  UNL     1       7.280   0.330   1.263  1.00  0.00    -0.250 N 
HETATM   32  C10 UNL     1       8.062   1.373   0.974  1.00  0.00     0.225 A 
ATOM     33  H9  UNL     1       7.464  -0.625   1.571  1.00  0.00     0.192 HD
HETATM   34  N10 UNL     1       9.475   1.669   0.947  1.00  0.00    -0.060 NA
HETATM   35  N11 UNL     1       6.937   2.041   0.709  1.00  0.00    -0.250 N 
ATOM     36  H11 UNL     1       6.751   2.995   0.400  1.00  0.00     0.192 HD
ENDBRANCH  29  30
ENDBRANCH  24  29
ENDBRANCH  18  24
ENDBRANCH   2  14
BRANCH   1  37
HETATM   37  C3  UNL     1      -2.445   0.805  -0.484  1.00  0.00     0.283 C 
BRANCH  37  38
HETATM   38  C2  UNL     1      -3.649   1.443   0.152  1.00  0.00     0.115 A 
HETATM   39  N3  UNL     1      -3.952   1.450   1.445  1.00  0.00    -0.280 N 
HETATM   40  N2  UNL     1      -5.100   2.120   1.642  1.00  0.00    -0.019 NA
ATOM     41  H3  UNL     1      -3.396   1.012   2.179  1.00  0.00     0.184 HD
HETATM   42  N1  UNL     1      -5.524   2.542   0.444  1.00  0.00    -0.265 N 
HETATM   43  C1  UNL     1      -6.726   3.309   0.159  1.00  0.00     0.176 C 
HETATM   44  C16 UNL     1      -4.633   2.131  -0.502  1.00  0.00     0.159 A 
HETATM   45  N19 UNL     1      -4.684   2.359  -1.903  1.00  0.00    -0.079 NA
ENDBRANCH  37  38
BRANCH  37  46
HETATM   46  O1  UNL     1      -2.489   0.938  -1.864  1.00  0.00    -0.370 OA
ATOM     47  H1  UNL     1      -1.728   0.535  -2.266  1.00  0.00     0.212 HD
ENDBRANCH  37  46
ENDBRANCH   1  37
BRANCH  10  48
HETATM   48  N17 UNL     1      -6.880  -1.938   0.156  1.00  0.00    -0.234 N 
ATOM     49 2H17 UNL     1      -7.542  -2.689   0.352  1.00  0.00     0.174 HD
ATOM     50 1H17 UNL     1      -7.195  -1.011  -0.129  1.00  0.00     0.174 HD
ENDBRANCH  10  48
TORSDOF 11
