REMARK  16 active torsions:
REMARK  status: ('A' for Active; 'I' for Inactive)
REMARK    1  A    between atoms: N1_1  and  C1_4 
REMARK    2  A    between atoms: C2_7  and  N3_8 
REMARK    3  A    between atoms: C4_14  and  C5_15 
REMARK    4  A    between atoms: C6_18  and  N7_19 
REMARK    5  A    between atoms: C8_23  and  N9_24 
REMARK    6  A    between atoms: N9_24  and  C9_26 
REMARK    7  A    between atoms: C9_26  and  O1_27 
REMARK    8  A    between atoms: C9_26  and  C10_29 
REMARK    9  A    between atoms: C10_29  and  O2_30 
REMARK   10  A    between atoms: C11_32  and  O3_33 
REMARK   11  A    between atoms: N10_35  and  N11_36 
REMARK   12  A    between atoms: C12_39  and  C13_40 
REMARK   13  A    between atoms: C13_40  and  O4_41 
REMARK   14  A    between atoms: N13_45  and  N14_46 
REMARK   15  A    between atoms: N15_48  and  N16_50 
REMARK       I    between atoms: N16_50  and  C14_52 
REMARK   16  A    between atoms: N18_54  and  O5_56 
ROOT
HETATM    1  N3  UNL     1       1.999   0.073   3.412  1.00  0.00    -0.122 N 
HETATM    2  C3  UNL     1       2.863   0.271   4.409  1.00  0.00     0.225 A 
HETATM    3  N4  UNL     1       2.203   0.559   5.549  1.00  0.00    -0.293 N 
ATOM      4  H4  UNL     1       2.607   0.755   6.465  1.00  0.00     0.187 HD
HETATM    5  N5  UNL     1       0.922   0.533   5.228  1.00  0.00    -0.282 N 
ATOM      6  H5  UNL     1       0.155   0.711   5.877  1.00  0.00     0.188 HD
HETATM    7  C4  UNL     1       0.772   0.238   3.925  1.00  0.00     0.174 A 
ENDROOT
BRANCH   7   8
HETATM    8  C5  UNL     1      -0.483   0.116   3.190  1.00  0.00     0.123 A 
HETATM    9  N6  UNL     1      -0.687  -0.177   1.891  1.00  0.00    -0.183 N 
HETATM   10  C6  UNL     1      -2.003  -0.191   1.615  1.00  0.00     0.713 A 
ATOM     11  H6  UNL     1       0.052  -0.362   1.213  1.00  0.00     0.184 HD
HETATM   12  N10 UNL     1      -2.673   0.095   2.744  1.00  0.00    -0.092 N 
HETATM   13  C12 UNL     1      -1.748   0.285   3.714  1.00  0.00     0.106 A 
BRANCH  10  14
HETATM   14  N7  UNL     1      -2.570  -0.468   0.323  1.00  0.00    -0.117 N 
HETATM   15  C7  UNL     1      -3.513  -1.380   0.029  1.00  0.00     0.210 A 
HETATM   16  N8  UNL     1      -3.726  -1.282  -1.286  1.00  0.00    -0.334 N 
HETATM   17  C8  UNL     1      -2.970  -0.350  -1.874  1.00  0.00     0.161 A 
ATOM     18  H8  UNL     1      -4.398  -1.860  -1.791  1.00  0.00     0.168 HD
HETATM   19  C11 UNL     1      -2.220   0.169  -0.793  1.00  0.00     0.208 A 
BRANCH  17  20
HETATM   20  N9  UNL     1      -2.826   0.119  -3.187  1.00  0.00    -0.318 N 
ATOM     21  H9  UNL     1      -2.143   0.863  -3.328  1.00  0.00     0.169 HD
BRANCH  20  22
HETATM   22  C9  UNL     1      -3.504  -0.312  -4.314  1.00  0.00     0.163 C 
BRANCH  22  23
HETATM   23  O1  UNL     1      -3.130   0.346  -5.420  1.00  0.00    -0.345 OA
ATOM     24  H1  UNL     1      -3.595   0.050  -6.194  1.00  0.00     0.219 HD
ENDBRANCH  22  23
BRANCH  22  25
HETATM   25  C10 UNL     1      -4.512  -1.295  -4.600  1.00  0.00     0.187 C 
BRANCH  25  26
HETATM   26  O2  UNL     1      -4.955  -2.012  -3.549  1.00  0.00    -0.368 OA
ATOM     27  H2  UNL     1      -5.622  -2.662  -3.738  1.00  0.00     0.216 HD
ENDBRANCH  25  26
ENDBRANCH  22  25
ENDBRANCH  20  22
ENDBRANCH  17  20
BRANCH  19  28
HETATM   28  O3  UNL     1      -1.279   1.172  -0.880  1.00  0.00    -0.343 OA
ATOM     29  H3  UNL     1      -1.029   1.626  -1.676  1.00  0.00     0.219 HD
ENDBRANCH  19  28
ENDBRANCH  10  14
BRANCH  12  30
HETATM   30  N11 UNL     1      -4.052   0.195   2.947  1.00  0.00    -0.324 N 
ATOM     31 2H11 UNL     1      -4.749   0.052   2.216  1.00  0.00     0.178 HD
ATOM     32 1H11 UNL     1      -4.561   0.412   3.804  1.00  0.00     0.178 HD
ENDBRANCH  12  30
BRANCH  13  33
HETATM   33  C13 UNL     1      -2.040   0.623   5.131  1.00  0.00     0.226 C 
BRANCH  33  34
HETATM   34  O4  UNL     1      -3.415   0.721   5.327  1.00  0.00    -0.395 OA
ATOM     35  H4  UNL     1      -3.602   0.937   6.233  1.00  0.00     0.209 HD
ENDBRANCH  33  34
ENDBRANCH  13  33
ENDBRANCH   7   8
BRANCH   1  36
HETATM   36  C2  UNL     1       2.273  -0.250   2.058  1.00  0.00     0.722 A 
HETATM   37  N2  UNL     1       2.632  -1.482   1.654  1.00  0.00    -0.017 N 
HETATM   38  C1  UNL     1       2.821  -1.473   0.330  1.00  0.00     0.728 A 
ATOM     39  H2  UNL     1       2.743  -2.294   2.261  1.00  0.00     0.203 HD
HETATM   40  N13 UNL     1       2.578  -0.225  -0.093  1.00  0.00     0.010 N 
HETATM   41  N12 UNL     1       2.251   0.489   0.964  1.00  0.00    -0.093 N 
ATOM     42  H12 UNL     1       2.013   1.480   0.941  1.00  0.00     0.208 HD
BRANCH  38  43
HETATM   43  N1  UNL     1       3.178  -2.502  -0.403  1.00  0.00    -0.231 N 
ATOM     44  H12 UNL     1       3.363  -3.452  -0.081  1.00  0.00     0.174 HD
ATOM     45  H11 UNL     1       3.322  -2.495  -1.413  1.00  0.00     0.174 HD
ENDBRANCH  38  43
BRANCH  40  46
HETATM   46  N14 UNL     1       2.671   0.193  -1.438  1.00  0.00    -0.191 N 
HETATM   47  N15 UNL     1       3.815   0.143  -2.004  1.00  0.00    -0.224 N 
ATOM     48  H15 UNL     1       4.628  -0.192  -1.486  1.00  0.00     0.210 HD
ATOM     49  H14 UNL     1       1.849   0.525  -1.943  1.00  0.00     0.212 HD
BRANCH  47  50
HETATM   50  N16 UNL     1       3.950   0.548  -3.334  1.00  0.00    -0.256 N 
HETATM   51  C14 UNL     1       5.174   1.051  -3.848  1.00  0.00     0.228 C 
HETATM   52  N17 UNL     1       5.992   0.183  -4.622  1.00  0.00    -0.060 NA
HETATM   53  N18 UNL     1       5.499   2.253  -3.601  1.00  0.00    -0.240 N 
ATOM     54  H18 UNL     1       4.860   2.813  -3.037  1.00  0.00     0.197 HD
ATOM     55  H16 UNL     1       3.144   0.480  -3.955  1.00  0.00     0.191 HD
BRANCH  53  56
HETATM   56  O5  UNL     1       6.655   2.848  -4.043  1.00  0.00    -0.287 OA
ATOM     57  H5  UNL     1       6.898   3.748  -3.858  1.00  0.00     0.244 HD
ENDBRANCH  53  56
ENDBRANCH  47  50
ENDBRANCH  40  46
ENDBRANCH   1  36
TORSDOF 16
