REMARK  18 active torsions:
REMARK  status: ('A' for Active; 'I' for Inactive)
REMARK    1  A    between atoms: C3_4  and  C4_5 
REMARK    2  A    between atoms: C4_5  and  N1_6 
REMARK    3  A    between atoms: C4_5  and  C5_10 
REMARK    4  A    between atoms: C5_10  and  O3_12 
REMARK    5  A    between atoms: O3_12  and  N2_13 
REMARK    6  A    between atoms: N2_13  and  C6_14 
REMARK    7  A    between atoms: C6_14  and  C7_15 
REMARK    8  A    between atoms: C6_14  and  C13_39 
REMARK    9  A    between atoms: C7_15  and  C8_17 
REMARK   10  A    between atoms: C8_17  and  O5_18 
REMARK   11  A    between atoms: C8_17  and  N3_20 
REMARK   12  A    between atoms: C9_22  and  O6_23 
REMARK   13  A    between atoms: C9_22  and  N4_25 
REMARK   14  A    between atoms: C10_28  and  C11_29 
REMARK   15  A    between atoms: C11_29  and  O7_30 
REMARK   16  A    between atoms: C11_29  and  O8_32 
REMARK   17  A    between atoms: C13_39  and  N7_41 
REMARK   18  A    between atoms: C17_48  and  O10_49 
ROOT
HETATM    1  C6  UNL     1       0.093  -0.802   0.111  1.00  0.00     0.211 C 
ENDROOT
BRANCH   1   2
HETATM    2  N2  UNL     1      -0.981  -1.346  -0.794  1.00  0.00    -0.076 NA
BRANCH   2   3
HETATM    3  O3  UNL     1      -1.959  -0.387  -0.762  1.00  0.00    -0.204 OA
BRANCH   3   4
HETATM    4  C5  UNL     1      -3.222  -0.599  -1.325  1.00  0.00     0.314 C 
HETATM    5  O2  UNL     1      -3.378  -1.731  -1.856  1.00  0.00    -0.261 OA
BRANCH   4   6
HETATM    6  C4  UNL     1      -4.283   0.400  -1.307  1.00  0.00     0.340 C 
BRANCH   6   7
HETATM    7  C3  UNL     1      -5.428   0.011  -0.450  1.00  0.00     0.097 A 
HETATM    8  O1  UNL     1      -6.388   0.905  -0.215  1.00  0.00    -0.314 OA
HETATM    9  C2  UNL     1      -7.434   0.660   0.526  1.00  0.00     0.086 A 
HETATM   10  C1  UNL     1      -8.469   1.706   0.745  1.00  0.00     0.079 C 
HETATM   11  C17 UNL     1      -7.640  -0.564   1.139  1.00  0.00     0.145 A 
HETATM   12  C16 UNL     1      -6.689  -1.534   0.940  1.00  0.00     0.209 A 
HETATM   13  C15 UNL     1      -5.596  -1.214   0.141  1.00  0.00     0.093 A 
HETATM   14  O9  UNL     1      -6.821  -2.660   1.469  1.00  0.00    -0.285 OA
BRANCH  11  15
HETATM   15  O10 UNL     1      -8.775  -0.813   1.935  1.00  0.00    -0.355 OA
ATOM     16  H10 UNL     1      -8.916  -1.653   2.356  1.00  0.00     0.218 HD
ENDBRANCH  11  15
ENDBRANCH   6   7
BRANCH   6  17
HETATM   17  N1  UNL     1      -3.825   1.692  -0.811  1.00  0.00    -0.060 N 
ATOM     18  H13 UNL     1      -4.562   2.397  -0.773  1.00  0.00     0.275 HD
ATOM     19  H12 UNL     1      -3.604   1.689   0.185  1.00  0.00     0.275 HD
ATOM     20  H11 UNL     1      -3.037   1.960  -1.401  1.00  0.00     0.275 HD
ENDBRANCH   6  17
ENDBRANCH   4   6
ENDBRANCH   3   4
ENDBRANCH   2   3
ENDBRANCH   1   2
BRANCH   1  21
HETATM   21  C7  UNL     1       1.179  -1.762   0.147  1.00  0.00     0.198 C 
HETATM   22  O4  UNL     1       1.003  -2.812  -0.509  1.00  0.00    -0.291 OA
BRANCH  21  23
HETATM   23  C8  UNL     1       2.448  -1.668   0.852  1.00  0.00     0.293 C 
BRANCH  23  24
HETATM   24  O5  UNL     1       2.954  -3.008   0.987  1.00  0.00    -0.369 OA
ATOM     25  H5  UNL     1       3.783  -2.947   1.447  1.00  0.00     0.212 HD
ENDBRANCH  23  24
BRANCH  23  26
HETATM   26  N3  UNL     1       3.487  -0.934   0.088  1.00  0.00    -0.322 N 
HETATM   27  C9  UNL     1       4.730  -1.105   0.371  1.00  0.00     0.243 C 
ATOM     28  H3  UNL     1       3.216  -0.295  -0.660  1.00  0.00     0.166 HD
BRANCH  27  29
HETATM   29  O6  UNL     1       5.057  -1.973   1.385  1.00  0.00    -0.331 OA
ATOM     30  H6  UNL     1       5.975  -2.099   1.594  1.00  0.00     0.221 HD
ENDBRANCH  27  29
BRANCH  27  31
HETATM   31  N4  UNL     1       5.752  -0.384  -0.380  1.00  0.00    -0.196 N 
HETATM   32  N5  UNL     1       6.684   0.253   0.205  1.00  0.00    -0.281 N 
HETATM   33  C10 UNL     1       7.598   0.899  -0.500  1.00  0.00     0.125 A 
ATOM     34  H5  UNL     1       6.727   0.266   1.224  1.00  0.00     0.188 HD
HETATM   35  S1  UNL     1       7.088   0.571  -2.096  1.00  0.00    -0.033 SA
HETATM   36  C12 UNL     1       5.722  -0.383  -1.718  1.00  0.00     0.169 A 
HETATM   37  N6  UNL     1       4.850  -0.976  -2.503  1.00  0.00    -0.378 N 
ATOM     38  H62 UNL     1       4.034  -1.546  -2.277  1.00  0.00     0.158 HD
ATOM     39  H61 UNL     1       4.827  -0.975  -3.523  1.00  0.00     0.158 HD
BRANCH  33  40
HETATM   40  C11 UNL     1       8.773   1.706  -0.011  1.00  0.00     0.314 C 
BRANCH  40  41
HETATM   41  O7  UNL     1       9.447   1.056   0.994  1.00  0.00    -0.365 OA
ATOM     42  H7  UNL     1      10.188   1.565   1.302  1.00  0.00     0.213 HD
ENDBRANCH  40  41
BRANCH  40  43
HETATM   43  O8  UNL     1       8.211   2.911   0.460  1.00  0.00    -0.365 OA
ATOM     44  H8  UNL     1       8.952   3.420   0.768  1.00  0.00     0.213 HD
ENDBRANCH  40  43
ENDBRANCH  33  40
ENDBRANCH  27  31
ENDBRANCH  23  26
ENDBRANCH  21  23
ENDBRANCH   1  21
BRANCH   1  45
HETATM   45  C13 UNL     1       0.307   0.580  -0.335  1.00  0.00     0.208 C 
HETATM   46  C14 UNL     1       1.293   1.360   0.455  1.00  0.00     0.042 C 
BRANCH  45  47
HETATM   47  N7  UNL     1       0.698   0.673  -1.739  1.00  0.00    -0.073 N 
ATOM     48  H73 UNL     1       1.520   0.099  -1.927  1.00  0.00     0.274 HD
ATOM     49  H72 UNL     1       0.022   0.198  -2.337  1.00  0.00     0.274 HD
ATOM     50  H71 UNL     1       0.847   1.633  -2.049  1.00  0.00     0.274 HD
ENDBRANCH  45  47
ENDBRANCH   1  45
TORSDOF 18
