REMARK  12 active torsions:
REMARK  status: ('A' for Active; 'I' for Inactive)
REMARK    1  A    between atoms: N1_2  and  N2_3 
REMARK    2  A    between atoms: N1_2  and  S1_45 
REMARK    3  A    between atoms: C2_8  and  C3_9 
REMARK    4  A    between atoms: C3_9  and  O1_10 
REMARK    5  A    between atoms: C3_9  and  N5_12 
REMARK    6  A    between atoms: N5_12  and  C4_14 
REMARK    7  A    between atoms: C9_21  and  O4_22 
REMARK    8  A    between atoms: O4_22  and  C10_23 
REMARK    9  A    between atoms: C11_26  and  N7_27 
REMARK   10  A    between atoms: N8_30  and  O5_31 
REMARK   11  A    between atoms: C13_41  and  C14_42 
REMARK   12  A    between atoms: C14_42  and  O6_43 
ROOT
HETATM    1  C4  UNL     1       0.267   0.087   2.346  1.00  0.00     0.070 A 
HETATM    2  C5  UNL     1      -0.704  -0.626   3.056  1.00  0.00     0.176 A 
HETATM    3  O2  UNL     1      -0.433  -1.756   3.649  1.00  0.00    -0.284 OA
HETATM    4  C6  UNL     1       0.760  -2.292   3.618  1.00  0.00     0.315 A 
HETATM    5  O3  UNL     1       1.045  -3.379   4.180  1.00  0.00    -0.257 OA
HETATM    6  C7  UNL     1       1.773  -1.631   2.927  1.00  0.00     0.118 A 
HETATM    7  C8  UNL     1       1.523  -0.430   2.286  1.00  0.00     0.059 A 
HETATM    8  C9  UNL     1       2.672   0.173   1.593  1.00  0.00     0.370 C 
HETATM    9  N10 UNL     1       3.827   0.091   2.479  1.00  0.00    -0.028 N 
ATOM     10 1H10 UNL     1       3.671   0.626   3.334  1.00  0.00     0.282 HD
ATOM     11 2H10 UNL     1       4.617   0.613   2.100  1.00  0.00     0.282 HD
HETATM   12  C12 UNL     1       4.199  -1.259   2.778  1.00  0.00     0.358 C 
HETATM   13  N11 UNL     1       3.080  -2.162   2.845  1.00  0.00    -0.361 N 
ATOM     14  H11 UNL     1       3.228  -3.171   2.833  1.00  0.00     0.161 HD
ENDROOT
BRANCH   1  15
HETATM   15  N5  UNL     1      -0.029   1.313   1.709  1.00  0.00    -0.333 N 
ATOM     16  H5  UNL     1       0.742   1.781   1.234  1.00  0.00     0.168 HD
BRANCH  15  17
HETATM   17  C3  UNL     1      -1.283   1.953   1.665  1.00  0.00     0.171 C 
BRANCH  17  18
HETATM   18  C2  UNL     1      -2.332   1.567   0.767  1.00  0.00     0.129 A 
HETATM   19  N4  UNL     1      -3.576   2.161   0.882  1.00  0.00    -0.279 N 
HETATM   20  N3  UNL     1      -4.354   1.676  -0.020  1.00  0.00    -0.220 N 
ATOM     21  H4  UNL     1      -3.834   2.868   1.570  1.00  0.00     0.189 HD
HETATM   22  N2  UNL     1      -3.696   0.765  -0.760  1.00  0.00    -0.169 N 
ATOM     23  H3  UNL     1      -5.329   1.943  -0.155  1.00  0.00     0.210 HD
HETATM   24  C13 UNL     1      -2.441   0.691  -0.277  1.00  0.00     0.110 A 
BRANCH  22  25
HETATM   25  N1  UNL     1      -4.269   0.048  -1.823  1.00  0.00    -0.181 N 
HETATM   26  C1  UNL     1      -4.724  -1.319  -1.697  1.00  0.00     0.196 C 
BRANCH  25  27
HETATM   27  S1  UNL     1      -4.472   0.865  -3.323  1.00  0.00     0.227 S 
HETATM   28  O7  UNL     1      -5.763   0.373  -3.968  1.00  0.00    -0.577 OA
HETATM   29  O8  UNL     1      -4.730   2.325  -3.007  1.00  0.00    -0.577 OA
HETATM   30  O9  UNL     1      -3.195   0.715  -4.363  1.00  0.00    -0.577 OA
ENDBRANCH  25  27
ENDBRANCH  22  25
BRANCH  24  31
HETATM   31  C14 UNL     1      -1.366  -0.178  -0.759  1.00  0.00     0.227 C 
BRANCH  31  32
HETATM   32  O6  UNL     1      -1.727  -0.949  -1.889  1.00  0.00    -0.395 OA
ATOM     33  H6  UNL     1      -1.029  -1.513  -2.202  1.00  0.00     0.209 HD
ENDBRANCH  31  32
ENDBRANCH  24  31
ENDBRANCH  17  18
BRANCH  17  34
HETATM   34  O1  UNL     1      -1.198   3.379   1.740  1.00  0.00    -0.344 OA
ATOM     35  H1  UNL     1      -0.503   3.635   2.335  1.00  0.00     0.219 HD
ENDBRANCH  17  34
ENDBRANCH  15  17
ENDBRANCH   1  15
BRANCH   8  36
HETATM   36  O4  UNL     1       2.988  -0.706   0.499  1.00  0.00    -0.281 OA
BRANCH  36  37
HETATM   37  C10 UNL     1       3.098  -0.216  -0.798  1.00  0.00     0.257 A 
HETATM   38  N6  UNL     1       2.921   1.073  -1.147  1.00  0.00    -0.150 N 
HETATM   39  C11 UNL     1       3.107   1.162  -2.469  1.00  0.00     0.721 A 
ATOM     40  H6  UNL     1       2.688   1.841  -0.518  1.00  0.00     0.188 HD
HETATM   41  N8  UNL     1       3.399  -0.052  -2.958  1.00  0.00     0.019 N 
HETATM   42  N9  UNL     1       3.389  -0.874  -1.926  1.00  0.00    -0.223 N 
ATOM     43  H9  UNL     1       3.577  -1.875  -1.981  1.00  0.00     0.193 HD
BRANCH  39  44
HETATM   44  N7  UNL     1       3.030   2.231  -3.218  1.00  0.00    -0.231 N 
ATOM     45  H72 UNL     1       2.808   3.154  -2.846  1.00  0.00     0.174 HD
ATOM     46  H71 UNL     1       3.172   2.299  -4.226  1.00  0.00     0.174 HD
ENDBRANCH  39  44
BRANCH  41  47
HETATM   47  O5  UNL     1       3.656  -0.339  -4.284  1.00  0.00    -0.254 OA
ATOM     48  H5  UNL     1       3.863  -1.199  -4.630  1.00  0.00     0.247 HD
ENDBRANCH  41  47
ENDBRANCH  36  37
ENDBRANCH   8  36
TORSDOF 12
