REMARK  13 active torsions:
REMARK  status: ('A' for Active; 'I' for Inactive)
REMARK    1  A    between atoms: N4_9  and  N5_11 
REMARK    2  A    between atoms: C7_17  and  C8_18 
REMARK    3  A    between atoms: C8_18  and  O1_19 
REMARK    4  A    between atoms: C8_18  and  N7_21 
REMARK    5  A    between atoms: N7_21  and  C9_23 
REMARK    6  A    between atoms: C13_27  and  N8_28 
REMARK    7  A    between atoms: N10_34  and  N11_35 
REMARK    8  A    between atoms: N11_35  and  C16_37 
REMARK    9  A    between atoms: C16_37  and  C17_38 
REMARK   10  A    between atoms: C17_38  and  O4_39 
REMARK   11  A    between atoms: C17_38  and  O5_41 
REMARK   12  A    between atoms: N12_43  and  N13_44 
REMARK   13  A    between atoms: N14_47  and  N15_48 
ROOT
HETATM    1  N1  UNL     1       5.235  -7.177   0.152  1.00  0.00    -0.188 NA
HETATM    2  C1  UNL     1       4.803  -6.114   0.187  1.00  0.00     0.141 C 
HETATM    3  C2  UNL     1       4.264  -4.779   0.223  1.00  0.00     0.241 A 
HETATM    4  N2  UNL     1       3.959  -3.994  -0.826  1.00  0.00    -0.260 N 
ATOM      5  H2  UNL     1       4.074  -4.251  -1.806  1.00  0.00     0.190 HD
HETATM    6  N3  UNL     1       3.488  -2.839  -0.390  1.00  0.00    -0.127 N 
ATOM      7  H3  UNL     1       3.182  -2.065  -0.979  1.00  0.00     0.206 HD
HETATM    8  C3  UNL     1       3.477  -2.847   0.955  1.00  0.00     0.736 A 
HETATM    9  N4  UNL     1       3.079  -1.885   1.752  1.00  0.00    -0.105 N 
ATOM     10  H4  UNL     1       3.119  -2.014   2.763  1.00  0.00     0.208 HD
HETATM   11  N14 UNL     1       3.954  -4.041   1.320  1.00  0.00    -0.062 N 
ENDROOT
BRANCH  11  12
HETATM   12  N15 UNL     1       4.113  -4.470   2.628  1.00  0.00    -0.322 N 
ATOM     13 2H15 UNL     1       4.477  -5.381   2.907  1.00  0.00     0.178 HD
ATOM     14 1H15 UNL     1       3.880  -3.916   3.452  1.00  0.00     0.178 HD
ENDBRANCH  11  12
BRANCH   9  15
HETATM   15  N5  UNL     1       2.598  -0.679   1.219  1.00  0.00    -0.156 N 
HETATM   16  C4  UNL     1       3.446   0.316   0.661  1.00  0.00     0.231 A 
HETATM   17  N6  UNL     1       2.971   1.414   0.179  1.00  0.00    -0.332 N 
HETATM   18  C5  UNL     1       1.571   1.688   0.179  1.00  0.00     0.159 A 
ATOM     19  H6  UNL     1       3.613   2.104  -0.212  1.00  0.00     0.168 HD
HETATM   20  C6  UNL     1       0.718   0.747   0.711  1.00  0.00     0.134 A 
HETATM   21  N10 UNL     1       0.848   2.748  -0.265  1.00  0.00    -0.252 N 
HETATM   22  C7  UNL     1      -0.536   1.248   0.587  1.00  0.00     0.042 A 
HETATM   23  N12 UNL     1       1.203  -0.483   1.256  1.00  0.00    -0.176 N 
HETATM   24  C15 UNL     1      -0.439   2.489  -0.020  1.00  0.00     0.132 A 
BRANCH  22  25
HETATM   25  C8  UNL     1      -1.819   0.656   0.999  1.00  0.00     0.256 C 
BRANCH  25  26
HETATM   26  O1  UNL     1      -2.547   1.702   1.625  1.00  0.00    -0.372 OA
ATOM     27  H1  UNL     1      -3.375   1.320   1.891  1.00  0.00     0.212 HD
ENDBRANCH  25  26
BRANCH  25  28
HETATM   28  N7  UNL     1      -2.592   0.263  -0.160  1.00  0.00    -0.358 N 
ATOM     29  H7  UNL     1      -2.193   0.431  -1.084  1.00  0.00     0.162 HD
BRANCH  28  30
HETATM   30  C9  UNL     1      -3.872  -0.342  -0.084  1.00  0.00     0.057 A 
HETATM   31  C10 UNL     1      -4.412  -0.573   1.143  1.00  0.00     0.031 A 
HETATM   32  C11 UNL     1      -5.669  -1.168   1.223  1.00  0.00     0.005 A 
HETATM   33  C12 UNL     1      -6.373  -1.524   0.096  1.00  0.00     0.038 A 
HETATM   34  C13 UNL     1      -5.832  -1.293  -1.146  1.00  0.00     0.129 A 
HETATM   35  C14 UNL     1      -4.571  -0.696  -1.211  1.00  0.00     0.105 A 
HETATM   36  N9  UNL     1      -3.987  -0.445  -2.470  1.00  0.00    -0.097 NA
BRANCH  34  37
HETATM   37  N8  UNL     1      -6.533  -1.649  -2.325  1.00  0.00    -0.114 N 
HETATM   38  O2  UNL     1      -6.448  -1.034  -3.401  1.00  0.00    -0.532 OA
HETATM   39  O3  UNL     1      -7.360  -2.748  -2.269  1.00  0.00    -0.532 OA
ENDBRANCH  34  37
ENDBRANCH  28  30
ENDBRANCH  25  28
ENDBRANCH  22  25
BRANCH  23  40
HETATM   40  N13 UNL     1       0.356  -1.449   1.796  1.00  0.00    -0.322 N 
ATOM     41 2H13 UNL     1       0.702  -2.326   2.185  1.00  0.00     0.179 HD
ATOM     42 1H13 UNL     1      -0.654  -1.307   1.823  1.00  0.00     0.179 HD
ENDBRANCH  23  40
BRANCH  21  43
HETATM   43  N11 UNL     1       1.415   3.881  -0.863  1.00  0.00    -0.324 N 
ATOM     44  H11 UNL     1       0.802   4.636  -1.171  1.00  0.00     0.180 HD
BRANCH  43  45
HETATM   45  C16 UNL     1       2.825   4.013  -1.056  1.00  0.00     0.200 C 
BRANCH  45  46
HETATM   46  C17 UNL     1       3.150   5.327  -1.725  1.00  0.00     0.273 C 
BRANCH  46  47
HETATM   47  O4  UNL     1       2.699   6.386  -0.919  1.00  0.00    -0.370 OA
ATOM     48  H4  UNL     1       2.903   7.213  -1.340  1.00  0.00     0.212 HD
ENDBRANCH  46  47
BRANCH  46  49
HETATM   49  O5  UNL     1       2.571   5.427  -2.987  1.00  0.00    -0.370 OA
ATOM     50  H5  UNL     1       2.775   6.254  -3.408  1.00  0.00     0.212 HD
ENDBRANCH  46  49
ENDBRANCH  45  46
ENDBRANCH  43  45
ENDBRANCH  21  43
ENDBRANCH   9  15
TORSDOF 13
