REMARK  11 active torsions:
REMARK  status: ('A' for Active; 'I' for Inactive)
REMARK    1  A    between atoms: O1_2  and  C2_3 
REMARK    2  A    between atoms: C2_3  and  C3_5 
REMARK    3  A    between atoms: C3_5  and  O3_6 
REMARK    4  A    between atoms: O3_6  and  C4_7 
REMARK    5  A    between atoms: C4_7  and  N1_8 
REMARK    6  A    between atoms: N1_8  and  C5_9 
REMARK    7  A    between atoms: N1_8  and  C15_41 
REMARK    8  A    between atoms: C5_9  and  C6_10 
REMARK    9  A    between atoms: C12_23  and  N5_24 
REMARK   10  A    between atoms: C13_30  and  N10_31 
REMARK   11  A    between atoms: C17_47  and  N16_48 
ROOT
HETATM    1  C6  UNL     1       1.236   0.731   0.555  1.00  0.00     0.044 A 
HETATM    2  C7  UNL     1       0.827   0.096   1.708  1.00  0.00     0.116 A 
HETATM    3  N2  UNL     1      -0.253  -0.705   1.755  1.00  0.00    -0.347 N 
ATOM      4  H2  UNL     1      -0.527  -1.161   2.625  1.00  0.00     0.167 HD
HETATM    5  C8  UNL     1      -0.965  -0.891   0.623  1.00  0.00     0.149 A 
HETATM    6  C9  UNL     1      -0.564  -0.252  -0.556  1.00  0.00     0.105 A 
HETATM    7  N3  UNL     1       0.502   0.533  -0.590  1.00  0.00    -0.352 N 
ATOM      8  H3  UNL     1       0.777   0.988  -1.461  1.00  0.00     0.166 HD
HETATM    9  C10 UNL     1      -1.144  -0.244  -1.908  1.00  0.00     0.059 C 
HETATM   10  N4  UNL     1      -0.350   0.346  -2.777  1.00  0.00    -0.397 N 
ATOM     11  H41 UNL     1      -0.752   0.352  -3.714  1.00  0.00     0.156 HD
ATOM     12  H42 UNL     1       0.512   0.675  -2.343  1.00  0.00     0.156 HD
HETATM   13  C11 UNL     1      -2.376  -0.714  -2.528  1.00  0.00     0.066 C 
HETATM   14  C12 UNL     1      -3.357  -1.523  -2.162  1.00  0.00     0.097 C 
HETATM   15  C14 UNL     1      -3.606  -2.299  -0.934  1.00  0.00     0.159 C 
HETATM   16  N11 UNL     1      -4.703  -3.169  -1.077  1.00  0.00    -0.079 NA
HETATM   17  N12 UNL     1      -3.069  -2.364   0.240  1.00  0.00    -0.284 N 
ATOM     18  H12 UNL     1      -3.550  -3.049   0.823  1.00  0.00     0.188 HD
HETATM   19  N13 UNL     1      -2.027  -1.769   0.934  1.00  0.00    -0.282 N 
ATOM     20  H13 UNL     1      -2.027  -2.032   1.920  1.00  0.00     0.188 HD
ENDROOT
BRANCH   1  21
HETATM   21  C5  UNL     1       2.411   1.613   0.532  1.00  0.00     0.201 C 
BRANCH  21  22
HETATM   22  N1  UNL     1       3.653   1.061   0.996  1.00  0.00    -0.190 N 
BRANCH  22  23
HETATM   23  C4  UNL     1       4.876   1.894   0.993  1.00  0.00     0.312 C 
BRANCH  23  24
HETATM   24  O3  UNL     1       4.687   3.078   1.669  1.00  0.00    -0.362 OA
BRANCH  24  25
HETATM   25  C3  UNL     1       4.364   2.954   3.007  1.00  0.00     0.281 C 
BRANCH  25  26
HETATM   26  C2  UNL     1       4.131   4.289   3.644  1.00  0.00     0.282 C 
HETATM   27  O2  UNL     1       3.827   4.374   4.855  1.00  0.00    -0.263 OA
BRANCH  26  28
HETATM   28  O1  UNL     1       4.241   5.464   2.916  1.00  0.00    -0.325 OA
HETATM   29  C1  UNL     1       4.038   6.769   3.405  1.00  0.00     0.213 C 
ENDBRANCH  26  28
ENDBRANCH  25  26
ENDBRANCH  24  25
ENDBRANCH  23  24
ENDBRANCH  22  23
BRANCH  22  30
HETATM   30  C15 UNL     1       3.802  -0.264   1.461  1.00  0.00     0.697 A 
HETATM   31  N14 UNL     1       4.280  -0.558   2.680  1.00  0.00    -0.187 N 
HETATM   32  C16 UNL     1       4.407  -1.837   3.037  1.00  0.00     0.215 A 
ATOM     33  H14 UNL     1       4.543   0.187   3.325  1.00  0.00     0.185 HD
HETATM   34  N15 UNL     1       4.061  -2.830   2.196  1.00  0.00    -0.187 N 
HETATM   35  C17 UNL     1       3.576  -2.578   0.967  1.00  0.00     0.691 A 
ATOM     36  H15 UNL     1       4.169  -3.798   2.499  1.00  0.00     0.185 HD
HETATM   37  N17 UNL     1       3.462  -1.268   0.636  1.00  0.00    -0.022 N 
ATOM     38  H17 UNL     1       3.099  -1.033  -0.288  1.00  0.00     0.203 HD
BRANCH  35  39
HETATM   39  N16 UNL     1       3.240  -3.504   0.147  1.00  0.00    -0.234 N 
ATOM     40 2H16 UNL     1       3.326  -4.489   0.396  1.00  0.00     0.174 HD
ATOM     41 1H16 UNL     1       2.872  -3.313  -0.785  1.00  0.00     0.174 HD
ENDBRANCH  35  39
ENDBRANCH  22  30
ENDBRANCH  21  22
ENDBRANCH   1  21
BRANCH  14  42
HETATM   42  N5  UNL     1      -4.405  -1.708  -3.117  1.00  0.00    -0.226 N 
HETATM   43  N6  UNL     1      -4.313  -2.876  -3.898  1.00  0.00    -0.005 NA
HETATM   44  N7  UNL     1      -5.196  -2.739  -4.962  1.00  0.00     0.005 NA
HETATM   45  N8  UNL     1      -6.511  -2.610  -4.501  1.00  0.00    -0.013 NA
HETATM   46  N9  UNL     1      -6.685  -1.567  -3.627  1.00  0.00    -0.275 N 
HETATM   47  C13 UNL     1      -5.489  -0.813  -3.320  1.00  0.00     0.419 C 
ATOM     48  H9  UNL     1      -7.593  -1.339  -3.222  1.00  0.00     0.181 HD
BRANCH  47  49
HETATM   49  N10 UNL     1      -5.792   0.030  -2.170  1.00  0.00    -0.038 N 
ATOM     50 3H10 UNL     1      -5.952  -0.542  -1.341  1.00  0.00     0.279 HD
ATOM     51 2H10 UNL     1      -4.960   0.539  -1.872  1.00  0.00     0.279 HD
ATOM     52 1H10 UNL     1      -6.570   0.673  -2.316  1.00  0.00     0.279 HD
ENDBRANCH  47  49
ENDBRANCH  14  42
TORSDOF 11
