REMARK  13 active torsions:
REMARK  status: ('A' for Active; 'I' for Inactive)
REMARK    1  A    between atoms: C2_2  and  C3_3 
REMARK    2  A    between atoms: C3_3  and  C4_4 
REMARK    3  A    between atoms: C4_4  and  C5_5 
REMARK    4  A    between atoms: C5_5  and  C6_6 
REMARK    5  A    between atoms: C7_7  and  C8_8 
REMARK    6  A    between atoms: C8_8  and  C9_9 
REMARK    7  A    between atoms: C16_19  and  O4_20 
REMARK    8  A    between atoms: C17_22  and  O5_23 
REMARK    9  A    between atoms: C18_25  and  O6_26 
REMARK   10  A    between atoms: C19_28  and  O7_29 
REMARK   11  A    between atoms: C20_31  and  C21_32 
REMARK   12  A    between atoms: C21_32  and  O8_33 
REMARK   13  A    between atoms: C22_36  and  O10_37 
ROOT
HETATM    1  C9  UNL     1      -0.447   0.727   0.235  1.00  0.00     0.135 C 
HETATM    2  O1  UNL     1      -0.853   1.150  -1.057  1.00  0.00    -0.341 OA
HETATM    3  C10 UNL     1      -1.081   2.513  -0.895  1.00  0.00     0.294 C 
HETATM    4  O2  UNL     1      -2.100   2.975  -1.725  1.00  0.00    -0.324 OA
HETATM    5  C11 UNL     1      -2.784   3.904  -0.940  1.00  0.00     0.160 C 
HETATM    6  C12 UNL     1      -4.098   4.307  -1.536  1.00  0.00     0.078 C 
HETATM    7  C13 UNL     1      -1.916   5.127  -0.679  1.00  0.00     0.078 C 
HETATM    8  O3  UNL     1      -2.963   3.192   0.267  1.00  0.00    -0.345 OA
HETATM    9  C14 UNL     1      -1.712   2.679   0.471  1.00  0.00     0.190 C 
HETATM   10  C15 UNL     1      -1.638   1.324   1.039  1.00  0.00     0.092 C 
HETATM   11  C16 UNL     1      -2.743   0.392   0.695  1.00  0.00     0.170 C 
HETATM   12  C17 UNL     1      -2.166  -0.787   0.006  1.00  0.00     0.171 C 
HETATM   13  C18 UNL     1      -2.644  -2.119   0.517  1.00  0.00     0.192 C 
HETATM   14  C19 UNL     1      -1.771  -3.123  -0.209  1.00  0.00     0.181 C 
HETATM   15  C20 UNL     1      -0.303  -2.870   0.129  1.00  0.00     0.180 C 
HETATM   16  O9  UNL     1       0.068  -1.596  -0.266  1.00  0.00    -0.340 OA
HETATM   17  C22 UNL     1      -0.689  -0.702   0.466  1.00  0.00     0.232 C 
ENDROOT
BRANCH   1  18
HETATM   18  C8  UNL     1       0.817   1.348   0.659  1.00  0.00     0.071 C 
BRANCH  18  19
HETATM   19  C7  UNL     1       1.923   1.015  -0.265  1.00  0.00    -0.027 C 
HETATM   20  C6  UNL     1       3.072   0.415   0.153  1.00  0.00    -0.031 C 
BRANCH  20  21
HETATM   21  C5  UNL     1       4.118   0.117  -0.815  1.00  0.00     0.027 C 
BRANCH  21  22
HETATM   22  C4  UNL     1       4.565  -1.280  -0.981  1.00  0.00     0.007 C 
BRANCH  22  23
HETATM   23  C3  UNL     1       5.275  -1.892   0.167  1.00  0.00     0.026 C 
BRANCH  23  24
HETATM   24  C2  UNL     1       4.554  -1.941   1.430  1.00  0.00    -0.037 C 
HETATM   25  C1  UNL     1       5.165  -1.449   2.538  1.00  0.00     0.007 C 
ENDBRANCH  23  24
ENDBRANCH  22  23
ENDBRANCH  21  22
ENDBRANCH  20  21
ENDBRANCH  18  19
ENDBRANCH   1  18
BRANCH  17  26
HETATM   26  O10 UNL     1      -0.694  -0.969   1.834  1.00  0.00    -0.360 OA
ATOM     27  H10 UNL     1      -0.851  -1.894   1.984  1.00  0.00     0.213 HD
ENDBRANCH  17  26
BRANCH  11  28
HETATM   28  O4  UNL     1      -3.708   0.957  -0.138  1.00  0.00    -0.392 OA
ATOM     29  H4  UNL     1      -4.414   0.361  -0.358  1.00  0.00     0.210 HD
ENDBRANCH  11  28
BRANCH  12  30
HETATM   30  O5  UNL     1      -2.259  -0.771  -1.362  1.00  0.00    -0.379 OA
ATOM     31  H5  UNL     1      -1.889  -1.527  -1.804  1.00  0.00     0.211 HD
ENDBRANCH  12  30
BRANCH  13  32
HETATM   32  O6  UNL     1      -3.964  -2.393   0.156  1.00  0.00    -0.390 OA
ATOM     33  H6  UNL     1      -4.266  -3.234   0.479  1.00  0.00     0.210 HD
ENDBRANCH  13  32
BRANCH  15  34
HETATM   34  C21 UNL     1       0.546  -3.964  -0.478  1.00  0.00     0.198 C 
BRANCH  34  35
HETATM   35  O8  UNL     1       1.884  -3.868  -0.148  1.00  0.00    -0.398 OA
ATOM     36  H8  UNL     1       2.417  -4.555  -0.529  1.00  0.00     0.209 HD
ENDBRANCH  34  35
ENDBRANCH  15  34
BRANCH  14  37
HETATM   37  O7  UNL     1      -2.123  -4.425   0.030  1.00  0.00    -0.390 OA
ATOM     38  H7  UNL     1      -1.576  -5.054  -0.425  1.00  0.00     0.210 HD
ENDBRANCH  14  37
TORSDOF 13
