REMARK  13 active torsions:
REMARK  status: ('A' for Active; 'I' for Inactive)
REMARK    1  A    between atoms: C2_2  and  C3_3 
REMARK    2  A    between atoms: C4_5  and  C5_6 
REMARK    3  A    between atoms: C6_7  and  O2_8 
REMARK    4  A    between atoms: C7_10  and  O3_11 
REMARK    5  A    between atoms: C8_13  and  O4_14 
REMARK    6  A    between atoms: O4_14  and  C9_15 
REMARK    7  A    between atoms: C11_17  and  C12_18 
REMARK    8  A    between atoms: C12_18  and  O5_19 
REMARK    9  A    between atoms: C12_18  and  O6_21 
REMARK   10  A    between atoms: C15_23  and  O7_24 
REMARK   11  A    between atoms: C16_26  and  O8_27 
REMARK   12  A    between atoms: C17_29  and  O9_30 
REMARK   13  A    between atoms: C18_32  and  O10_34 
ROOT
HETATM    1  C5  UNL     1      -2.820   0.675   0.144  1.00  0.00     0.083 C 
HETATM    2  C6  UNL     1      -2.451   0.153   1.503  1.00  0.00     0.159 C 
HETATM    3  C7  UNL     1      -1.029  -0.237   1.397  1.00  0.00     0.179 C 
HETATM    4  C8  UNL     1      -0.413   0.507   0.221  1.00  0.00     0.187 C 
HETATM    5  C18 UNL     1      -1.619   0.561  -0.734  1.00  0.00     0.091 C 
HETATM    6  C19 UNL     1      -1.485   1.780  -1.625  1.00  0.00     0.049 C 
ENDROOT
BRANCH   4   7
HETATM    7  O4  UNL     1       0.601  -0.283  -0.234  1.00  0.00    -0.372 OA
BRANCH   7   8
HETATM    8  C9  UNL     1       1.863   0.303  -0.281  1.00  0.00     0.154 C 
HETATM    9  C10 UNL     1       2.838  -0.421   0.580  1.00  0.00     0.047 C 
HETATM   10  C11 UNL     1       4.228  -0.536   0.116  1.00  0.00     0.075 C 
HETATM   11  C15 UNL     1       4.471  -0.380  -1.341  1.00  0.00     0.158 C 
HETATM   12  C16 UNL     1       3.656   0.694  -2.008  1.00  0.00     0.178 C 
HETATM   13  C17 UNL     1       2.215   0.367  -1.733  1.00  0.00     0.178 C 
BRANCH  10  14
HETATM   14  C12 UNL     1       5.205   0.288   0.954  1.00  0.00     0.265 C 
BRANCH  14  15
HETATM   15  O5  UNL     1       4.946   1.626   0.971  1.00  0.00    -0.366 OA
HETATM   16  C13 UNL     1       5.949   2.446   0.517  1.00  0.00     0.204 C 
ENDBRANCH  14  15
BRANCH  14  17
HETATM   17  O6  UNL     1       5.231  -0.241   2.246  1.00  0.00    -0.366 OA
HETATM   18  C14 UNL     1       6.480  -0.775   2.575  1.00  0.00     0.204 C 
ENDBRANCH  14  17
ENDBRANCH  10  14
BRANCH  11  19
HETATM   19  O7  UNL     1       5.823  -0.312  -1.619  1.00  0.00    -0.392 OA
ATOM     20  H7  UNL     1       5.978  -0.212  -2.551  1.00  0.00     0.210 HD
ENDBRANCH  11  19
BRANCH  12  21
HETATM   21  O8  UNL     1       3.843   0.524  -3.397  1.00  0.00    -0.390 OA
ATOM     22  H8  UNL     1       3.328   1.202  -3.818  1.00  0.00     0.210 HD
ENDBRANCH  12  21
BRANCH  13  23
HETATM   23  O9  UNL     1       1.944  -0.892  -2.298  1.00  0.00    -0.390 OA
ATOM     24  H9  UNL     1       2.168  -0.851  -3.220  1.00  0.00     0.210 HD
ENDBRANCH  13  23
ENDBRANCH   7   8
ENDBRANCH   4   7
BRANCH   3  25
HETATM   25  O3  UNL     1      -0.381   0.058   2.590  1.00  0.00    -0.390 OA
ATOM     26  H3  UNL     1       0.533  -0.193   2.522  1.00  0.00     0.210 HD
ENDBRANCH   3  25
BRANCH   5  27
HETATM   27  O10 UNL     1      -1.579  -0.531  -1.548  1.00  0.00    -0.387 OA
ATOM     28  H10 UNL     1      -0.814  -0.604  -2.107  1.00  0.00     0.210 HD
ENDBRANCH   5  27
BRANCH   2  29
HETATM   29  O2  UNL     1      -2.585   1.101   2.515  1.00  0.00    -0.392 OA
ATOM     30  H2  UNL     1      -2.352   0.771   3.375  1.00  0.00     0.210 HD
ENDBRANCH   2  29
BRANCH   1  31
HETATM   31  C4  UNL     1      -4.091   0.130  -0.383  1.00  0.00     0.132 C 
HETATM   32  O1  UNL     1      -5.114   0.461   0.505  1.00  0.00    -0.376 OA
HETATM   33  C3  UNL     1      -6.049  -0.540   0.506  1.00  0.00     0.147 C 
HETATM   34  C21 UNL     1      -5.696  -1.534  -0.573  1.00  0.00     0.017 C 
HETATM   35  C20 UNL     1      -4.176  -1.310  -0.658  1.00  0.00     0.039 C 
HETATM   36  C22 UNL     1      -6.385  -1.233  -1.867  1.00  0.00     0.013 C 
BRANCH  33  37
HETATM   37  C2  UNL     1      -6.134  -1.293   1.787  1.00  0.00    -0.005 C 
HETATM   38  C1  UNL     1      -6.235  -0.694   2.966  1.00  0.00     0.009 C 
ENDBRANCH  33  37
ENDBRANCH   1  31
TORSDOF 13
