REMARK  16 active torsions:
REMARK  status: ('A' for Active; 'I' for Inactive)
REMARK    1  A    between atoms: C3_3  and  C4_4 
REMARK    2  A    between atoms: C4_4  and  C5_5 
REMARK    3  A    between atoms: C5_5  and  C6_6 
REMARK    4  A    between atoms: C7_7  and  C8_8 
REMARK    5  A    between atoms: C9_9  and  C10_10 
REMARK    6  A    between atoms: C10_10  and  O1_11 
REMARK    7  A    between atoms: C12_15  and  O3_16 
REMARK    8  A    between atoms: O3_16  and  C13_17 
REMARK    9  A    between atoms: C14_20  and  C15_21 
REMARK   10  A    between atoms: C15_21  and  C16_22 
REMARK   11  A    between atoms: C16_22  and  C17_23 
REMARK   12  A    between atoms: C17_23  and  N1_24 
REMARK   13  A    between atoms: N2_28  and  O6_30 
REMARK   14  A    between atoms: C19_33  and  O7_34 
REMARK   15  A    between atoms: C20_36  and  O8_37 
REMARK   16  A    between atoms: C22_40  and  O9_41 
ROOT
HETATM    1  C1  UNL     1      11.419   0.624   0.255  1.00  0.00     0.012 C 
HETATM    2  C2  UNL     1      10.539  -0.156   0.024  1.00  0.00    -0.117 C 
HETATM    3  C3  UNL     1       9.462  -1.097  -0.275  1.00  0.00     0.094 C 
ENDROOT
BRANCH   3   4
HETATM    4  C4  UNL     1       9.198  -2.001   0.918  1.00  0.00     0.024 C 
BRANCH   4   5
HETATM    5  C5  UNL     1       8.079  -2.963   0.577  1.00  0.00     0.096 C 
BRANCH   5   6
HETATM    6  C6  UNL     1       6.845  -2.243   0.249  1.00  0.00    -0.092 C 
HETATM    7  C7  UNL     1       5.828  -1.632  -0.037  1.00  0.00    -0.015 C 
BRANCH   7   8
HETATM    8  C8  UNL     1       4.662  -0.912  -0.387  1.00  0.00    -0.012 C 
HETATM    9  C9  UNL     1       3.674  -0.290  -0.704  1.00  0.00    -0.049 C 
BRANCH   9  10
HETATM   10  C10 UNL     1       2.508   0.458  -1.104  1.00  0.00     0.169 C 
HETATM   11  C11 UNL     1       1.378  -0.484  -1.457  1.00  0.00     0.225 C 
HETATM   12  O2  UNL     1       0.263   0.201  -1.886  1.00  0.00    -0.357 OA
HETATM   13  C12 UNL     1      -0.241   1.090  -0.953  1.00  0.00     0.265 C 
HETATM   14  C21 UNL     1       0.803   2.116  -0.589  1.00  0.00     0.096 C 
HETATM   15  C22 UNL     1       1.988   1.375  -0.002  1.00  0.00     0.171 C 
BRANCH  10  16
HETATM   16  O1  UNL     1       2.737   1.268  -2.214  1.00  0.00    -0.373 OA
ATOM     17  H1  UNL     1       1.969   1.761  -2.478  1.00  0.00     0.212 HD
ENDBRANCH  10  16
BRANCH  13  18
HETATM   18  O3  UNL     1      -0.803   0.478   0.141  1.00  0.00    -0.326 OA
BRANCH  18  19
HETATM   19  C13 UNL     1      -2.173   0.731   0.275  1.00  0.00     0.330 C 
HETATM   20  O4  UNL     1      -2.829  -0.465   0.077  1.00  0.00    -0.205 OA
HETATM   21  O5  UNL     1      -3.901  -0.276  -0.699  1.00  0.00    -0.233 OA
HETATM   22  C14 UNL     1      -4.765   0.521   0.062  1.00  0.00     0.168 C 
HETATM   23  C18 UNL     1      -4.637   0.089   1.487  1.00  0.00     0.070 C 
HETATM   24  C19 UNL     1      -3.675   0.913   2.283  1.00  0.00     0.154 C 
HETATM   25  C20 UNL     1      -2.520   1.445   1.525  1.00  0.00     0.205 C 
BRANCH  22  26
HETATM   26  C15 UNL     1      -6.168   0.491  -0.467  1.00  0.00     0.091 C 
BRANCH  26  27
HETATM   27  C16 UNL     1      -6.761  -0.852  -0.480  1.00  0.00     0.037 C 
HETATM   28  N2  UNL     1      -6.098  -1.853  -0.069  1.00  0.00    -0.276 N 
ATOM     29  H2  UNL     1      -5.151  -1.668   0.262  1.00  0.00     0.193 HD
BRANCH  27  30
HETATM   30  C17 UNL     1      -8.143  -1.010  -0.981  1.00  0.00     0.283 C 
BRANCH  30  31
HETATM   31  N1  UNL     1      -9.108  -0.246  -0.221  1.00  0.00    -0.074 N 
ATOM     32  H13 UNL     1      -9.052  -0.472   0.772  1.00  0.00     0.274 HD
ATOM     33  H12 UNL     1      -8.845   0.739  -0.182  1.00  0.00     0.274 HD
ATOM     34  H11 UNL     1     -10.061  -0.355  -0.567  1.00  0.00     0.274 HD
ENDBRANCH  30  31
ENDBRANCH  27  30
BRANCH  28  35
HETATM   35  O6  UNL     1      -6.514  -3.142  -0.023  1.00  0.00    -0.290 OA
ATOM     36  H6  UNL     1      -6.018  -3.891   0.285  1.00  0.00     0.244 HD
ENDBRANCH  28  35
ENDBRANCH  26  27
ENDBRANCH  22  26
BRANCH  24  37
HETATM   37  O7  UNL     1      -4.421   1.958   2.871  1.00  0.00    -0.393 OA
ATOM     38  H7  UNL     1      -3.810   2.481   3.376  1.00  0.00     0.210 HD
ENDBRANCH  24  37
BRANCH  25  39
HETATM   39  O8  UNL     1      -2.741   2.826   1.315  1.00  0.00    -0.388 OA
ATOM     40  H8  UNL     1      -2.964   3.284   2.117  1.00  0.00     0.210 HD
ENDBRANCH  25  39
ENDBRANCH  18  19
ENDBRANCH  13  18
BRANCH  15  41
HETATM   41  O9  UNL     1       1.658   0.681   1.138  1.00  0.00    -0.391 OA
ATOM     42  H9  UNL     1       1.334   1.252   1.824  1.00  0.00     0.210 HD
ENDBRANCH  15  41
ENDBRANCH   9  10
ENDBRANCH   7   8
ENDBRANCH   5   6
ENDBRANCH   4   5
ENDBRANCH   3   4
TORSDOF 16
