REMARK  13 active torsions:
REMARK  status: ('A' for Active; 'I' for Inactive)
REMARK    1  A    between atoms: C2_2  and  C3_3 
REMARK    2  A    between atoms: C4_4  and  C5_5 
REMARK    3  A    between atoms: C5_5  and  O2_7 
REMARK    4  A    between atoms: O2_7  and  C6_8 
REMARK    5  A    between atoms: C7_10  and  O4_11 
REMARK    6  A    between atoms: O4_11  and  C8_12 
REMARK    7  A    between atoms: C8_12  and  C9_13 
REMARK    8  A    between atoms: C18_22  and  O5_23 
REMARK    9  A    between atoms: C19_25  and  O6_26 
REMARK   10  A    between atoms: C20_28  and  O7_29 
REMARK   11  A    between atoms: C21_31  and  O8_32 
REMARK   12  A    between atoms: C22_34  and  C23_35 
REMARK   13  A    between atoms: C23_35  and  N1_36 
ROOT
HETATM    1  C6  UNL     1       2.005   0.279   1.169  1.00  0.00     0.281 C 
HETATM    2  O3  UNL     1       1.903  -0.126  -0.150  1.00  0.00    -0.328 OA
HETATM    3  C7  UNL     1       0.669  -0.735  -0.413  1.00  0.00     0.294 C 
HETATM    4  C19 UNL     1       0.715  -2.216  -0.152  1.00  0.00     0.204 C 
HETATM    5  C20 UNL     1       2.099  -2.708   0.175  1.00  0.00     0.180 C 
HETATM    6  C21 UNL     1       2.748  -2.087   1.347  1.00  0.00     0.160 C 
HETATM    7  C22 UNL     1       2.004  -0.988   2.028  1.00  0.00     0.098 C 
ENDROOT
BRANCH   3   8
HETATM    8  O4  UNL     1       0.338  -0.398  -1.707  1.00  0.00    -0.358 OA
BRANCH   8   9
HETATM    9  C8  UNL     1      -0.766   0.414  -1.857  1.00  0.00     0.177 C 
BRANCH   9  10
HETATM   10  C9  UNL     1      -2.056  -0.147  -1.345  1.00  0.00     0.026 A 
HETATM   11  C10 UNL     1      -3.288   0.653  -1.467  1.00  0.00     0.004 A 
HETATM   12  C11 UNL     1      -4.462   0.606  -0.582  1.00  0.00     0.007 C 
HETATM   13  C17 UNL     1      -3.067  -0.683  -2.175  1.00  0.00    -0.000 A 
HETATM   14  C12 UNL     1      -5.658   0.084  -1.342  1.00  0.00     0.012 C 
HETATM   15  C13 UNL     1      -5.335  -1.015  -2.318  1.00  0.00     0.043 C 
HETATM   16  C14 UNL     1      -4.822  -0.509  -3.618  1.00  0.00    -0.082 C 
HETATM   17  C18 UNL     1      -4.089  -1.712  -1.805  1.00  0.00     0.136 C 
HETATM   18  C15 UNL     1      -5.545  -0.089  -4.631  1.00  0.00     0.015 C 
HETATM   19  C16 UNL     1      -3.327  -0.537  -3.639  1.00  0.00     0.046 C 
BRANCH  17  20
HETATM   20  O5  UNL     1      -4.122  -2.145  -0.536  1.00  0.00    -0.394 OA
ATOM     21  H5  UNL     1      -3.342  -2.581  -0.215  1.00  0.00     0.210 HD
ENDBRANCH  17  20
ENDBRANCH   9  10
ENDBRANCH   8   9
ENDBRANCH   3   8
BRANCH   4  22
HETATM   22  O6  UNL     1      -0.232  -2.654   0.769  1.00  0.00    -0.388 OA
ATOM     23  H6  UNL     1      -0.203  -3.589   0.934  1.00  0.00     0.210 HD
ENDBRANCH   4  22
BRANCH   1  24
HETATM   24  O2  UNL     1       3.253   0.949   1.305  1.00  0.00    -0.286 OA
BRANCH  24  25
HETATM   25  C5  UNL     1       3.296   2.245   1.733  1.00  0.00     0.285 C 
HETATM   26  O1  UNL     1       2.201   2.813   1.998  1.00  0.00    -0.260 OA
BRANCH  25  27
HETATM   27  C4  UNL     1       4.561   2.945   1.878  1.00  0.00     0.082 C 
HETATM   28  C3  UNL     1       4.554   4.195   2.294  1.00  0.00     0.005 C 
BRANCH  28  29
HETATM   29  C2  UNL     1       5.790   4.955   2.461  1.00  0.00    -0.010 C 
HETATM   30  C1  UNL     1       5.735   6.202   2.878  1.00  0.00     0.011 C 
ENDBRANCH  28  29
ENDBRANCH  25  27
ENDBRANCH  24  25
ENDBRANCH   1  24
BRANCH   5  31
HETATM   31  O7  UNL     1       2.883  -2.515  -0.973  1.00  0.00    -0.390 OA
ATOM     32  H7  UNL     1       3.757  -2.826  -0.767  1.00  0.00     0.210 HD
ENDBRANCH   5  31
BRANCH   7  33
HETATM   33  C23 UNL     1       2.788  -0.647   3.305  1.00  0.00     0.241 C 
BRANCH  33  34
HETATM   34  N1  UNL     1       2.810  -1.825   4.151  1.00  0.00    -0.079 N 
ATOM     35  H13 UNL     1       1.876  -2.186   4.347  1.00  0.00     0.274 HD
ATOM     36  H12 UNL     1       3.177  -2.647   3.671  1.00  0.00     0.274 HD
ATOM     37  H11 UNL     1       3.330  -1.599   4.999  1.00  0.00     0.274 HD
ENDBRANCH  33  34
ENDBRANCH   7  33
BRANCH   6  38
HETATM   38  O8  UNL     1       4.030  -1.657   0.996  1.00  0.00    -0.392 OA
ATOM     39  H8  UNL     1       4.448  -1.257   1.750  1.00  0.00     0.210 HD
ENDBRANCH   6  38
TORSDOF 13
