REMARK  3 active torsions:
REMARK  status: ('A' for Active; 'I' for Inactive)
REMARK    1  A    between atoms: C2_2  and  C3_3 
REMARK    2  A    between atoms: C3_3  and  N1_4 
REMARK    3  A    between atoms: N1_4  and  C4_6 
ROOT
HETATM    1  N1  UNL     1       0.768   0.299   0.716  1.00  0.00    -0.365 N 
ATOM      2  H1  UNL     1       1.033   0.057   1.671  1.00  0.00     0.157 HD
ENDROOT
BRANCH   1   3
HETATM    3  C3  UNL     1      -0.530   0.016   0.306  1.00  0.00     0.028 C 
HETATM    4  C6  UNL     1      -1.202  -0.744   1.467  1.00  0.00     0.031 C 
HETATM    5  C7  UNL     1      -2.297  -1.560   0.850  1.00  0.00     0.002 C 
HETATM    6  C8  UNL     1      -1.694  -1.991  -0.452  1.00  0.00     0.002 C 
HETATM    7  C9  UNL     1      -0.607  -1.022  -0.793  1.00  0.00     0.031 C 
BRANCH   3   8
HETATM    8  C2  UNL     1      -1.447   1.129  -0.049  1.00  0.00     0.026 C 
HETATM    9  C1  UNL     1      -1.047   2.020  -1.160  1.00  0.00     0.007 C 
ENDBRANCH   3   8
ENDBRANCH   1   3
BRANCH   1  10
HETATM   10  C4  UNL     1       1.726   0.893  -0.099  1.00  0.00     0.485 C 
HETATM   11  N2  UNL     1       2.961   1.086   0.698  1.00  0.00    -0.005 N 
HETATM   12  C5  UNL     1       3.395  -0.225   0.255  1.00  0.00     0.472 C 
ATOM     13  H22 UNL     1       3.550   1.907   0.558  1.00  0.00     0.283 HD
ATOM     14  H21 UNL     1       2.912   1.312   1.691  1.00  0.00     0.283 HD
HETATM   15  N3  UNL     1       2.542  -0.050  -0.906  1.00  0.00    -0.005 N 
ATOM     16  H32 UNL     1       2.112  -0.853  -1.366  1.00  0.00     0.283 HD
ATOM     17  H31 UNL     1       2.933   0.233  -1.805  1.00  0.00     0.283 HD
ENDBRANCH   1  10
TORSDOF 3
