REMARK  2 active torsions:
REMARK  status: ('A' for Active; 'I' for Inactive)
REMARK    1  A    between atoms: C2_2  and  C3_3 
REMARK    2  A    between atoms: C2_2  and  C4_5 
ROOT
HETATM    1  C4  UNL     1      -0.079   0.285  -0.105  1.00  0.00     0.194 C 
HETATM    2  C5  UNL     1       0.860  -0.474  -1.034  1.00  0.00     0.061 C 
HETATM    3  C6  UNL     1       2.086   0.439  -1.166  1.00  0.00     0.236 C 
HETATM    4  N1  UNL     1       2.454   0.918   0.135  1.00  0.00    -0.051 N 
ATOM      5  H11 UNL     1       2.216   1.905   0.234  1.00  0.00     0.279 HD
ATOM      6  H12 UNL     1       3.469   0.976   0.222  1.00  0.00     0.279 HD
HETATM    7  C7  UNL     1       1.896   0.151   1.220  1.00  0.00     0.463 C 
HETATM    8  N2  UNL     1       0.449   0.163   1.223  1.00  0.00    -0.047 N 
ATOM      9  H21 UNL     1       0.070  -0.654   1.701  1.00  0.00     0.279 HD
ATOM     10  H22 UNL     1       0.083   0.890   1.838  1.00  0.00     0.279 HD
ENDROOT
BRANCH   1  11
HETATM   11  C2  UNL     1      -1.493  -0.217  -0.234  1.00  0.00     0.022 C 
HETATM   12  C1  UNL     1      -1.594  -1.663   0.108  1.00  0.00     0.012 C 
BRANCH  11  13
HETATM   13  C3  UNL     1      -2.403   0.601   0.615  1.00  0.00     0.092 C 
HETATM   14  S1  UNL     1      -2.256   2.356   0.174  1.00  0.00    -0.097 SA
ENDBRANCH  11  13
ENDBRANCH   1  11
TORSDOF 2
