REMARK  3 active torsions:
REMARK  status: ('A' for Active; 'I' for Inactive)
REMARK    1  A    between atoms: C2_2  and  O1_3 
REMARK    2  A    between atoms: O1_3  and  C3_4 
REMARK    3  A    between atoms: C4_7  and  N2_8 
ROOT
HETATM    1  C3  UNL     1       1.077   0.028   0.848  1.00  0.00     0.254 A 
HETATM    2  N1  UNL     1       2.069   0.263   1.769  1.00  0.00    -0.153 N 
ATOM      3  H1  UNL     1       1.942   0.517   2.749  1.00  0.00     0.188 HD
HETATM    4  C4  UNL     1       3.234   0.094   1.133  1.00  0.00     0.693 A 
HETATM    5  N3  UNL     1       2.949  -0.230  -0.126  1.00  0.00    -0.129 N 
ATOM      6  H3  UNL     1       3.649  -0.417  -0.844  1.00  0.00     0.205 HD
HETATM    7  N4  UNL     1       1.647  -0.278  -0.327  1.00  0.00    -0.250 N 
ATOM      8  H4  UNL     1       1.169  -0.503  -1.200  1.00  0.00     0.191 HD
ENDROOT
BRANCH   1   9
HETATM    9  O1  UNL     1      -0.284   0.095   1.087  1.00  0.00    -0.310 OA
BRANCH   9  10
HETATM   10  C2  UNL     1      -1.194  -0.188   0.055  1.00  0.00     0.067 C 
HETATM   11  C1  UNL     1      -1.054  -1.575  -0.456  1.00  0.00     0.047 C 
HETATM   12  C5  UNL     1      -2.644   0.093   0.402  1.00  0.00     0.038 C 
HETATM   13  C6  UNL     1      -2.453   1.479  -0.169  1.00  0.00     0.006 C 
HETATM   14  C7  UNL     1      -1.285   0.909  -0.972  1.00  0.00     0.038 C 
ENDBRANCH   9  10
ENDBRANCH   1   9
BRANCH   4  15
HETATM   15  N2  UNL     1       4.441   0.217   1.621  1.00  0.00    -0.233 N 
ATOM     16  H22 UNL     1       4.659   0.465   2.586  1.00  0.00     0.174 HD
ATOM     17  H21 UNL     1       5.329   0.088   1.136  1.00  0.00     0.174 HD
ENDBRANCH   4  15
TORSDOF 3
