REMARK  4 active torsions:
REMARK  status: ('A' for Active; 'I' for Inactive)
REMARK    1  A    between atoms: C2_2  and  N1_4 
REMARK    2  A    between atoms: C2_2  and  C4_8 
REMARK    3  A    between atoms: C4_8  and  O1_9 
REMARK    4  A    between atoms: C4_8  and  C5_11 
ROOT
HETATM    1  C4  UNL     1      -0.481  -0.838  -0.197  1.00  0.00     0.157 C 
ENDROOT
BRANCH   1   2
HETATM    2  C2  UNL     1      -1.703  -0.233   0.407  1.00  0.00     0.142 C 
HETATM    3  C1  UNL     1      -1.673  -0.222   1.922  1.00  0.00     0.048 C 
HETATM    4  C3  UNL     1      -1.972   1.183  -0.038  1.00  0.00     0.048 C 
BRANCH   2   5
HETATM    5  N1  UNL     1      -2.884  -1.029   0.040  1.00  0.00    -0.069 N 
ATOM      6  H13 UNL     1      -2.895  -1.960   0.456  1.00  0.00     0.275 HD
ATOM      7  H12 UNL     1      -3.750  -0.696   0.464  1.00  0.00     0.275 HD
ATOM      8  H11 UNL     1      -2.904  -1.036  -0.980  1.00  0.00     0.275 HD
ENDBRANCH   2   5
ENDBRANCH   1   2
BRANCH   1   9
HETATM    9  O1  UNL     1      -0.618  -0.847  -1.579  1.00  0.00    -0.393 OA
ATOM     10  H1  UNL     1       0.160  -1.232  -1.964  1.00  0.00     0.210 HD
ENDBRANCH   1   9
BRANCH   1  11
HETATM   11  C5  UNL     1       0.822  -0.262   0.215  1.00  0.00     0.017 C 
HETATM   12  C6  UNL     1       1.925  -1.040  -0.522  1.00  0.00     0.007 C 
HETATM   13  C7  UNL     1       3.030  -0.068  -0.781  1.00  0.00     0.000 C 
HETATM   14  C8  UNL     1       2.616   1.211  -0.087  1.00  0.00     0.000 C 
HETATM   15  C9  UNL     1       1.090   1.137  -0.251  1.00  0.00     0.007 C 
ENDBRANCH   1  11
TORSDOF 4
