REMARK  5 active torsions:
REMARK  status: ('A' for Active; 'I' for Inactive)
REMARK    1  A    between atoms: C2_2  and  O1_5 
REMARK    2  A    between atoms: O1_5  and  C5_6 
REMARK    3  A    between atoms: C5_6  and  C6_7 
REMARK    4  A    between atoms: C6_7  and  C7_8 
REMARK    5  A    between atoms: C10_11  and  N1_12 
ROOT
HETATM    1  C7  UNL     1       1.900   0.044  -0.431  1.00  0.00     0.018 A 
HETATM    2  C8  UNL     1       2.560  -1.132  -1.116  1.00  0.00     0.009 A 
HETATM    3  C9  UNL     1       3.606  -1.235  -0.024  1.00  0.00     0.033 A 
HETATM    4  C10 UNL     1       2.926  -0.061   0.655  1.00  0.00     0.187 A 
ENDROOT
BRANCH   1   5
HETATM    5  C6  UNL     1       0.488  -0.338  -0.011  1.00  0.00     0.033 C 
BRANCH   5   6
HETATM    6  C5  UNL     1      -0.215   0.782   0.671  1.00  0.00     0.169 C 
BRANCH   6   7
HETATM    7  O1  UNL     1      -1.474   0.566   1.117  1.00  0.00    -0.381 OA
BRANCH   7   8
HETATM    8  C2  UNL     1      -2.472   0.236   0.274  1.00  0.00     0.050 C 
HETATM    9  C1  UNL     1      -2.688   1.236  -0.849  1.00  0.00     0.045 C 
HETATM   10  C3  UNL     1      -3.796   0.328   1.086  1.00  0.00     0.045 C 
HETATM   11  C4  UNL     1      -2.485  -1.147  -0.300  1.00  0.00     0.045 C 
ENDBRANCH   7   8
ENDBRANCH   6   7
ENDBRANCH   5   6
ENDBRANCH   1   5
BRANCH   4  12
HETATM   12  N1  UNL     1       3.833   1.052   0.739  1.00  0.00    -0.075 N 
ATOM     13  H13 UNL     1       4.287   1.207  -0.161  1.00  0.00     0.274 HD
ATOM     14  H12 UNL     1       3.313   1.925   0.828  1.00  0.00     0.274 HD
ATOM     15  H11 UNL     1       4.532   0.980   1.479  1.00  0.00     0.274 HD
ENDBRANCH   4  12
TORSDOF 5
