REMARK  0 active torsions:
REMARK  status: ('A' for Active; 'I' for Inactive)
ROOT
HETATM    1  C1  UNL     1      -1.142  -0.512   0.137  1.00  0.00     0.038 C 
HETATM    2  C2  UNL     1       0.202  -1.143  -0.018  1.00  0.00     0.234 C 
HETATM    3  N1  UNL     1       1.281  -0.456   0.584  1.00  0.00    -0.067 N 
ATOM      4  H11 UNL     1       2.096  -1.063   0.670  1.00  0.00     0.278 HD
ATOM      5  H12 UNL     1       1.096  -0.283   1.572  1.00  0.00     0.278 HD
HETATM    6  C3  UNL     1       1.621   0.768  -0.097  1.00  0.00     0.305 C 
HETATM    7  S1  UNL     1       0.212   1.895   0.245  1.00  0.00    -0.142 SA
HETATM    8  C4  UNL     1      -1.232   0.916  -0.254  1.00  0.00     0.077 C 
ENDROOT
TORSDOF 0
