REMARK  0 active torsions:
REMARK  status: ('A' for Active; 'I' for Inactive)
ROOT
HETATM    1  S1  UNL     1       2.362   0.924  -0.261  1.00  0.00    -0.092 SA
HETATM    2  C1  UNL     1       0.891  -0.097  -0.277  1.00  0.00     0.063 C 
HETATM    3  C2  UNL     1       0.306  -0.378   1.097  1.00  0.00     0.021 C 
HETATM    4  C3  UNL     1      -1.048   0.027   0.641  1.00  0.00    -0.008 A 
HETATM    5  C4  UNL     1      -1.578  -0.276  -0.703  1.00  0.00     0.011 A 
HETATM    6  C5  UNL     1      -0.403   0.612  -0.610  1.00  0.00     0.005 A 
ENDROOT
TORSDOF 0
