REMARK  0 active torsions:
REMARK  status: ('A' for Active; 'I' for Inactive)
ROOT
HETATM    1  C1  UNL     1       1.877   0.649   0.212  1.00  0.00     0.011 C 
HETATM    2  C2  UNL     1       0.522   0.354  -0.328  1.00  0.00     0.009 C 
HETATM    3  C3  UNL     1      -0.611   0.845   0.503  1.00  0.00     0.033 C 
HETATM    4  C4  UNL     1      -1.757  -0.022  -0.037  1.00  0.00     0.232 C 
HETATM    5  N1  UNL     1      -1.171  -1.250  -0.471  1.00  0.00    -0.075 N 
ATOM      6  H11 UNL     1      -1.485  -1.521  -1.403  1.00  0.00     0.277 HD
ATOM      7  H12 UNL     1      -1.532  -2.054   0.042  1.00  0.00     0.277 HD
HETATM    8  C5  UNL     1       0.250  -1.147  -0.387  1.00  0.00     0.236 C 
ENDROOT
TORSDOF 0
