REMARK  6 active torsions:
REMARK  status: ('A' for Active; 'I' for Inactive)
REMARK    1  A    between atoms: C2_2  and  N1_4 
REMARK    2  A    between atoms: C7_8  and  C8_9 
REMARK    3  A    between atoms: C8_9  and  N2_10 
REMARK    4  A    between atoms: N2_10  and  C20_25 
REMARK    5  A    between atoms: C9_11  and  C10_12 
REMARK       I    between atoms: N3_18  and  C16_19 
REMARK    6  A    between atoms: C20_25  and  C23_28 
ROOT
HETATM    1  N2  UNL     1      -0.751  -1.709   0.100  1.00  0.00    -0.355 N 
HETATM    2  C9  UNL     1       0.385  -1.575   0.839  1.00  0.00     0.069 C 
ENDROOT
BRANCH   1   3
HETATM    3  C8  UNL     1      -1.944  -1.038   0.293  1.00  0.00     0.070 C 
BRANCH   3   4
HETATM    4  C7  UNL     1      -2.304   0.322  -0.084  1.00  0.00     0.052 C 
HETATM    5  C6  UNL     1      -1.595   1.518   0.391  1.00  0.00     0.013 C 
HETATM    6  C5  UNL     1      -2.293   2.763  -0.139  1.00  0.00     0.031 C 
HETATM    7  C4  UNL     1      -3.750   2.818   0.090  1.00  0.00     0.273 C 
HETATM    8  N1  UNL     1      -4.448   1.565  -0.137  1.00  0.00     0.093 N 
HETATM    9  C24 UNL     1      -3.749   0.518   0.510  1.00  0.00     0.282 C 
BRANCH   8  10
HETATM   10  C2  UNL     1      -5.746   1.678   0.542  1.00  0.00     0.215 C 
HETATM   11  C1  UNL     1      -6.407   0.346   0.738  1.00  0.00     0.042 C 
HETATM   12  C3  UNL     1      -6.694   2.564  -0.230  1.00  0.00     0.042 C 
ENDBRANCH   8  10
ENDBRANCH   3   4
ENDBRANCH   1   3
BRANCH   1  13
HETATM   13  C20 UNL     1      -0.955  -3.043  -0.464  1.00  0.00     0.126 C 
HETATM   14  C21 UNL     1      -1.697  -2.942  -1.788  1.00  0.00     0.048 C 
HETATM   15  C22 UNL     1       0.411  -3.631  -0.916  1.00  0.00     0.048 C 
BRANCH  13  16
HETATM   16  C23 UNL     1      -1.524  -4.060   0.432  1.00  0.00     0.412 C 
HETATM   17  F1  UNL     1      -2.739  -3.868   0.984  1.00  0.00    -0.168 F 
HETATM   18  F2  UNL     1      -1.617  -5.268  -0.294  1.00  0.00    -0.168 F 
HETATM   19  F3  UNL     1      -0.655  -4.411   1.482  1.00  0.00    -0.168 F 
ENDBRANCH  13  16
ENDBRANCH   1  13
BRANCH   2  20
HETATM   20  C10 UNL     1       1.337  -0.487   0.947  1.00  0.00     0.025 C 
HETATM   21  C11 UNL     1       2.452  -0.924   1.945  1.00  0.00     0.010 C 
HETATM   22  C12 UNL     1       3.594  -1.334   1.067  1.00  0.00     0.010 C 
HETATM   23  C13 UNL     1       3.580  -0.181   0.052  1.00  0.00    -0.037 C 
HETATM   24  C14 UNL     1       4.365  -0.609  -1.132  1.00  0.00     0.029 C 
HETATM   25  C18 UNL     1       4.127   1.008   0.774  1.00  0.00     0.029 C 
HETATM   26  C19 UNL     1       2.095  -0.036  -0.224  1.00  0.00     0.019 C 
HETATM   27  C15 UNL     1       4.892   0.544  -1.952  1.00  0.00     0.128 C 
HETATM   28  N3  UNL     1       5.447   1.589  -1.127  1.00  0.00    -0.336 N 
HETATM   29  C16 UNL     1       6.779   2.097  -1.316  1.00  0.00     0.330 C 
HETATM   30  C17 UNL     1       4.602   2.122  -0.086  1.00  0.00     0.128 C 
HETATM   31  N4  UNL     1       7.253   3.113  -0.472  1.00  0.00    -0.040 NA
HETATM   32  O1  UNL     1       7.474   1.607  -2.235  1.00  0.00    -0.251 OA
ENDBRANCH   2  20
TORSDOF 6
