REMARK  10 active torsions:
REMARK  status: ('A' for Active; 'I' for Inactive)
REMARK    1  A    between atoms: C5_7  and  C6_8 
REMARK    2  A    between atoms: C6_8  and  N2_9 
REMARK    3  A    between atoms: N2_9  and  C7_11 
REMARK    4  A    between atoms: C7_11  and  O1_12 
REMARK    5  A    between atoms: C7_11  and  C8_14 
REMARK    6  A    between atoms: C8_14  and  S1_15 
REMARK    7  A    between atoms: S1_15  and  C9_16 
REMARK    8  A    between atoms: C9_16  and  C10_17 
REMARK    9  A    between atoms: C10_17  and  N3_18 
REMARK   10  A    between atoms: C10_17  and  C11_22 
ROOT
HETATM    1  C7  UNL     1       0.466  -0.536  -0.315  1.00  0.00     0.223 C 
ENDROOT
BRANCH   1   2
HETATM    2  N2  UNL     1       1.417  -0.206   0.687  1.00  0.00    -0.392 N 
ATOM      3  H2  UNL     1       1.477  -0.734   1.558  1.00  0.00     0.156 HD
BRANCH   2   4
HETATM    4  C6  UNL     1       2.290   0.902   0.422  1.00  0.00     0.165 C 
BRANCH   4   5
HETATM    5  C5  UNL     1       3.686   0.314   0.328  1.00  0.00     0.024 A 
HETATM    6  C3  UNL     1       4.914   0.854   0.164  1.00  0.00     0.020 A 
HETATM    7  N1  UNL     1       5.915   0.053  -0.021  1.00  0.00    -0.357 N 
HETATM    8  C4  UNL     1       5.101   2.374   0.231  1.00  0.00     0.069 C 
HETATM    9  C2  UNL     1       5.736  -1.254  -0.042  1.00  0.00     0.047 A 
ATOM     10  H1  UNL     1       6.851   0.437  -0.152  1.00  0.00     0.166 HD
HETATM   11  C1  UNL     1       6.701  -2.394  -0.254  1.00  0.00     0.076 C 
HETATM   12  S2  UNL     1       4.053  -1.383   0.211  1.00  0.00    -0.078 SA
ENDBRANCH   4   5
ENDBRANCH   2   4
ENDBRANCH   1   2
BRANCH   1  13
HETATM   13  O1  UNL     1       0.979  -1.396  -1.284  1.00  0.00    -0.376 OA
ATOM     14  H1  UNL     1       0.343  -1.617  -1.954  1.00  0.00     0.212 HD
ENDBRANCH   1  13
BRANCH   1  15
HETATM   15  C8  UNL     1      -0.714  -1.219   0.339  1.00  0.00     0.127 C 
BRANCH  15  16
HETATM   16  S1  UNL     1      -1.552   0.046   1.394  1.00  0.00    -0.163 SA
BRANCH  16  17
HETATM   17  C9  UNL     1      -2.445   1.072   0.097  1.00  0.00     0.107 C 
BRANCH  17  18
HETATM   18  C10 UNL     1      -3.516   0.114  -0.415  1.00  0.00     0.196 C 
BRANCH  18  19
HETATM   19  N3  UNL     1      -4.264   0.780  -1.494  1.00  0.00    -0.074 N 
ATOM     20  H33 UNL     1      -4.649   1.679  -1.205  1.00  0.00     0.274 HD
ATOM     21  H32 UNL     1      -3.656   1.121  -2.239  1.00  0.00     0.274 HD
ATOM     22  H31 UNL     1      -4.980   0.139  -1.836  1.00  0.00     0.274 HD
ENDBRANCH  18  19
BRANCH  18  23
HETATM   23  C11 UNL     1      -4.548  -0.092   0.733  1.00  0.00     0.008 C 
HETATM   24  C12 UNL     1      -5.563  -1.081   0.247  1.00  0.00     0.011 C 
HETATM   25  C13 UNL     1      -5.230   1.253   0.983  1.00  0.00     0.011 C 
ENDBRANCH  18  23
ENDBRANCH  17  18
ENDBRANCH  16  17
ENDBRANCH  15  16
ENDBRANCH   1  15
TORSDOF 10
