REMARK  3 active torsions:
REMARK  status: ('A' for Active; 'I' for Inactive)
REMARK    1  A    between atoms: C2_2  and  C3_3 
REMARK    2  A    between atoms: C3_3  and  N1_5 
REMARK    3  A    between atoms: N1_5  and  C5_7 
ROOT
HETATM    1  C5  UNL     1      -0.757   0.126   0.111  1.00  0.00     0.120 C 
HETATM    2  C6  UNL     1      -0.726  -0.633   1.339  1.00  0.00     0.090 C 
HETATM    3  N2  UNL     1      -0.719  -1.224   2.333  1.00  0.00    -0.195 NA
HETATM    4  C7  UNL     1      -1.735   1.318   0.237  1.00  0.00     0.072 C 
HETATM    5  C8  UNL     1      -3.103   0.826   0.655  1.00  0.00     0.171 C 
HETATM    6  O1  UNL     1      -3.614  -0.088  -0.277  1.00  0.00    -0.391 OA
HETATM    7  C9  UNL     1      -2.765  -1.187  -0.299  1.00  0.00     0.171 C 
HETATM    8  C10 UNL     1      -1.439  -0.797  -0.921  1.00  0.00     0.072 C 
ENDROOT
BRANCH   1   9
HETATM    9  N1  UNL     1       0.441   0.671  -0.364  1.00  0.00    -0.397 N 
ATOM     10  H1  UNL     1       0.529   1.686  -0.413  1.00  0.00     0.155 HD
BRANCH   9  11
HETATM   11  C3  UNL     1       1.519  -0.112  -0.773  1.00  0.00     0.074 C 
HETATM   12  C4  UNL     1       2.609   0.829  -1.317  1.00  0.00     0.032 C 
BRANCH  11  13
HETATM   13  C2  UNL     1       2.204  -0.966   0.268  1.00  0.00     0.020 C 
HETATM   14  C1  UNL     1       2.786  -0.126   1.375  1.00  0.00     0.007 C 
ENDBRANCH  11  13
ENDBRANCH   9  11
ENDBRANCH   1   9
TORSDOF 3
