REMARK  3 active torsions:
REMARK  status: ('A' for Active; 'I' for Inactive)
REMARK    1  A    between atoms: N1_2  and  C2_5 
REMARK    2  A    between atoms: C2_5  and  C3_6 
REMARK    3  A    between atoms: C3_6  and  C4_7 
ROOT
HETATM    1  C4  UNL     1      -0.364  -1.154  -0.528  1.00  0.00     0.133 C 
HETATM    2  O1  UNL     1      -0.667  -0.994  -1.909  1.00  0.00    -0.384 OA
HETATM    3  C5  UNL     1      -0.749   0.379  -2.049  1.00  0.00     0.175 C 
HETATM    4  C6  UNL     1      -1.586   0.831  -0.888  1.00  0.00     0.046 C 
HETATM    5  C7  UNL     1      -1.018   2.006  -0.138  1.00  0.00     0.175 C 
HETATM    6  O2  UNL     1      -0.610   1.580   1.103  1.00  0.00    -0.390 OA
HETATM    7  C8  UNL     1      -1.233   0.363   1.349  1.00  0.00     0.179 C 
HETATM    8  C9  UNL     1      -1.409  -0.335   0.065  1.00  0.00     0.011 C 
HETATM    9  C10 UNL     1      -2.725  -1.129   0.023  1.00  0.00     0.020 C 
ENDROOT
BRANCH   1  10
HETATM   10  C3  UNL     1       1.062  -0.868  -0.371  1.00  0.00     0.060 C 
BRANCH  10  11
HETATM   11  C2  UNL     1       1.689  -1.014   0.973  1.00  0.00     0.234 C 
BRANCH  11  12
HETATM   12  N1  UNL     1       3.123  -0.688   0.797  1.00  0.00    -0.079 N 
HETATM   13  C1  UNL     1       3.324   0.711   0.534  1.00  0.00     0.266 C 
ATOM     14  H12 UNL     1       3.549  -1.267   0.073  1.00  0.00     0.276 HD
ATOM     15  H11 UNL     1       3.675  -0.999   1.596  1.00  0.00     0.276 HD
ENDBRANCH  11  12
ENDBRANCH  10  11
ENDBRANCH   1  10
TORSDOF 3
