REMARK  3 active torsions:
REMARK  status: ('A' for Active; 'I' for Inactive)
REMARK    1  A    between atoms: N1_2  and  C3_4 
REMARK    2  A    between atoms: C6_7  and  N2_8 
REMARK    3  A    between atoms: N2_8  and  C7_10 
ROOT
HETATM    1  C7  UNL     1      -2.136  -0.667  -0.007  1.00  0.00     0.108 C 
HETATM    2  C8  UNL     1      -2.218  -0.440  -1.481  1.00  0.00     0.054 C 
HETATM    3  C9  UNL     1      -3.099   0.276   0.665  1.00  0.00     0.054 C 
HETATM    4  C10 UNL     1      -2.798  -2.013   0.156  1.00  0.00     0.089 C 
HETATM    5  N3  UNL     1      -3.310  -3.058   0.304  1.00  0.00    -0.195 NA
ENDROOT
BRANCH   1   6
HETATM    6  N2  UNL     1      -0.955  -0.736   0.632  1.00  0.00    -0.396 N 
ATOM      7  H2  UNL     1      -0.824  -1.635   1.096  1.00  0.00     0.155 HD
BRANCH   6   8
HETATM    8  C6  UNL     1       0.096   0.080   0.814  1.00  0.00     0.111 C 
HETATM    9  C3  UNL     1       0.973   0.576  -0.297  1.00  0.00     0.244 C 
HETATM   10  C4  UNL     1       1.461   1.578   0.780  1.00  0.00     0.040 C 
HETATM   11  C5  UNL     1      -0.036   1.549   1.180  1.00  0.00     0.029 C 
BRANCH   9  12
HETATM   12  N1  UNL     1       1.976  -0.290  -0.795  1.00  0.00     0.086 N 
HETATM   13  C1  UNL     1       3.048   0.373  -1.469  1.00  0.00     0.310 C 
HETATM   14  C2  UNL     1       2.481  -1.276   0.094  1.00  0.00     0.310 C 
ENDBRANCH   9  12
ENDBRANCH   6   8
ENDBRANCH   1   6
TORSDOF 3
