REMARK  3 active torsions:
REMARK  status: ('A' for Active; 'I' for Inactive)
REMARK    1  A    between atoms: C2_2  and  O1_3 
REMARK    2  A    between atoms: C2_2  and  N1_6 
REMARK    3  A    between atoms: N1_6  and  C3_8 
ROOT
HETATM    1  N1  UNL     1      -0.581   0.632   0.623  1.00  0.00    -0.379 N 
ATOM      2  H1  UNL     1      -0.282   1.273   1.358  1.00  0.00     0.157 HD
ENDROOT
BRANCH   1   3
HETATM    3  C2  UNL     1      -1.805   0.877  -0.004  1.00  0.00     0.185 C 
HETATM    4  C1  UNL     1      -2.784  -0.256   0.342  1.00  0.00     0.084 C 
HETATM    5  S1  UNL     1      -1.811   1.037  -1.800  1.00  0.00    -0.033 SA
BRANCH   3   6
HETATM    6  O1  UNL     1      -2.368   2.088   0.505  1.00  0.00    -0.362 OA
ATOM      7  H1  UNL     1      -1.763   2.788   0.291  1.00  0.00     0.213 HD
ENDBRANCH   3   6
ENDBRANCH   1   3
BRANCH   1   8
HETATM    8  C3  UNL     1       0.258  -0.438   0.304  1.00  0.00     0.080 C 
HETATM    9  C4  UNL     1       0.859  -0.303  -1.066  1.00  0.00     0.025 C 
HETATM   10  C5  UNL     1       2.370  -0.397  -0.888  1.00  0.00     0.002 C 
HETATM   11  C6  UNL     1       2.630  -0.080   0.561  1.00  0.00     0.002 C 
HETATM   12  C7  UNL     1       1.421  -0.609   1.265  1.00  0.00     0.025 C 
ENDBRANCH   1   8
TORSDOF 3
