REMARK  4 active torsions:
REMARK  status: ('A' for Active; 'I' for Inactive)
REMARK    1  A    between atoms: C5_5  and  C6_6 
REMARK    2  A    between atoms: C6_6  and  C7_7 
REMARK    3  A    between atoms: C7_7  and  N1_8 
REMARK    4  A    between atoms: C8_12  and  N2_13 
ROOT
HETATM    1  C1  UNL     1      -3.814   0.028  -0.626  1.00  0.00     0.021 C 
HETATM    2  C2  UNL     1      -2.552   0.226   0.143  1.00  0.00     0.045 C 
HETATM    3  C3  UNL     1      -1.539   1.092  -0.563  1.00  0.00     0.015 C 
HETATM    4  C4  UNL     1      -0.256   1.018   0.270  1.00  0.00     0.008 C 
HETATM    5  C5  UNL     1       0.567  -0.154  -0.194  1.00  0.00     0.027 C 
HETATM    6  C8  UNL     1      -0.090  -1.477   0.095  1.00  0.00     0.249 C 
HETATM    7  S1  UNL     1      -1.798  -1.339   0.604  1.00  0.00    -0.132 SA
ENDROOT
BRANCH   5   8
HETATM    8  C6  UNL     1       1.924  -0.153   0.429  1.00  0.00     0.034 C 
BRANCH   8   9
HETATM    9  C7  UNL     1       2.742   1.063   0.127  1.00  0.00     0.230 C 
BRANCH   9  10
HETATM   10  N1  UNL     1       4.028   0.892   0.812  1.00  0.00    -0.079 N 
ATOM     11  H13 UNL     1       3.930   0.712   1.811  1.00  0.00     0.274 HD
ATOM     12  H12 UNL     1       4.499   0.021   0.569  1.00  0.00     0.274 HD
ATOM     13  H11 UNL     1       4.586   1.721   0.606  1.00  0.00     0.274 HD
ENDBRANCH   9  10
ENDBRANCH   8   9
ENDBRANCH   5   8
BRANCH   6  14
HETATM   14  N2  UNL     1       0.050  -2.318  -1.087  1.00  0.00    -0.066 N 
ATOM     15  H23 UNL     1      -0.311  -1.874  -1.932  1.00  0.00     0.275 HD
ATOM     16  H22 UNL     1       1.020  -2.417  -1.388  1.00  0.00     0.275 HD
ATOM     17  H21 UNL     1      -0.395  -3.215  -0.891  1.00  0.00     0.275 HD
ENDBRANCH   6  14
TORSDOF 4
