REMARK  4 active torsions:
REMARK  status: ('A' for Active; 'I' for Inactive)
REMARK    1  A    between atoms: C2_2  and  C4_4 
REMARK    2  A    between atoms: C4_4  and  C5_5 
REMARK    3  A    between atoms: C5_5  and  N1_6 
REMARK    4  A    between atoms: C9_15  and  N3_16 
ROOT
HETATM    1  C5  UNL     1       0.386  -0.173   0.273  1.00  0.00     0.158 C 
HETATM    2  C6  UNL     1       0.610  -1.355  -0.616  1.00  0.00     0.061 C 
HETATM    3  C7  UNL     1       2.108  -1.693  -0.473  1.00  0.00     0.121 C 
HETATM    4  N2  UNL     1       2.941  -0.560  -0.534  1.00  0.00    -0.400 N 
ATOM      5  H2  UNL     1       3.929  -0.626  -0.291  1.00  0.00     0.158 HD
HETATM    6  C8  UNL     1       2.381   0.662  -0.937  1.00  0.00     0.090 C 
HETATM    7  C9  UNL     1       1.058   1.016  -0.368  1.00  0.00     0.257 C 
ENDROOT
BRANCH   1   8
HETATM    8  C4  UNL     1      -0.994   0.081   0.716  1.00  0.00     0.045 C 
BRANCH   8   9
HETATM    9  C2  UNL     1      -2.021   0.425  -0.285  1.00  0.00    -0.020 C 
HETATM   10  C1  UNL     1      -3.331   0.637   0.505  1.00  0.00     0.009 C 
HETATM   11  C3  UNL     1      -2.319  -0.673  -1.255  1.00  0.00     0.009 C 
ENDBRANCH   8   9
ENDBRANCH   1   8
BRANCH   1  12
HETATM   12  N1  UNL     1       1.168  -0.473   1.495  1.00  0.00    -0.068 N 
ATOM     13  H13 UNL     1       1.099   0.253   2.208  1.00  0.00     0.275 HD
ATOM     14  H12 UNL     1       0.775  -1.233   2.051  1.00  0.00     0.275 HD
ATOM     15  H11 UNL     1       2.125  -0.649   1.188  1.00  0.00     0.275 HD
ENDBRANCH   1  12
BRANCH   7  16
HETATM   16  N3  UNL     1       1.098   2.107   0.587  1.00  0.00    -0.068 N 
ATOM     17  H33 UNL     1       0.175   2.335   0.956  1.00  0.00     0.275 HD
ATOM     18  H32 UNL     1       1.540   1.838   1.466  1.00  0.00     0.275 HD
ATOM     19  H31 UNL     1       1.552   2.911   0.154  1.00  0.00     0.275 HD
ENDBRANCH   7  16
TORSDOF 4
