REMARK  3 active torsions:
REMARK  status: ('A' for Active; 'I' for Inactive)
REMARK    1  A    between atoms: C1_2  and  C2_3 
REMARK    2  A    between atoms: C2_3  and  N1_4 
REMARK    3  A    between atoms: N1_4  and  C3_7 
ROOT
HETATM    1  C3  UNL     1      -0.140   0.076   0.040  1.00  0.00     0.279 C 
HETATM    2  C4  UNL     1      -1.188   0.434  -0.961  1.00  0.00     0.054 C 
HETATM    3  C5  UNL     1      -2.129   1.388  -0.228  1.00  0.00     0.005 C 
HETATM    4  C6  UNL     1      -2.725   0.640   0.925  1.00  0.00     0.019 C 
HETATM    5  C7  UNL     1      -2.152  -0.722   1.154  1.00  0.00     0.115 C 
HETATM    6  N2  UNL     1      -0.750  -0.833   1.007  1.00  0.00    -0.396 N 
ATOM      7  H2  UNL     1      -0.200  -1.505   1.542  1.00  0.00     0.155 HD
ENDROOT
BRANCH   1   8
HETATM    8  N1  UNL     1       1.014  -0.607  -0.490  1.00  0.00    -0.054 N 
ATOM      9  H12 UNL     1       1.118  -0.503  -1.499  1.00  0.00     0.279 HD
ATOM     10  H11 UNL     1       0.924  -1.623  -0.477  1.00  0.00     0.279 HD
BRANCH   8  11
HETATM   11  C2  UNL     1       2.158  -0.121   0.259  1.00  0.00     0.245 C 
BRANCH  11  12
HETATM   12  C1  UNL     1       3.336  -1.054   0.108  1.00  0.00     0.113 C 
HETATM   13  S1  UNL     1       4.762  -0.102  -0.441  1.00  0.00    -0.096 SA
ENDBRANCH  11  12
ENDBRANCH   8  11
ENDBRANCH   1   8
TORSDOF 3
