REMARK  2 active torsions:
REMARK  status: ('A' for Active; 'I' for Inactive)
REMARK    1  A    between atoms: C2_2  and  C4_4 
REMARK    2  A    between atoms: N1_5  and  C5_7 
ROOT
HETATM    1  C5  UNL     1       1.327  -0.093  -0.380  1.00  0.00     0.283 C 
HETATM    2  C6  UNL     1       1.949  -1.283   0.322  1.00  0.00     0.056 C 
HETATM    3  C7  UNL     1       3.040  -0.678   1.189  1.00  0.00     0.031 C 
HETATM    4  C8  UNL     1       3.161   0.718   0.628  1.00  0.00     0.235 C 
HETATM    5  N2  UNL     1       1.748   1.054   0.395  1.00  0.00    -0.054 N 
ATOM      6  H21 UNL     1       1.197   1.248   1.231  1.00  0.00     0.279 HD
ATOM      7  H22 UNL     1       1.576   1.963  -0.034  1.00  0.00     0.279 HD
ENDROOT
BRANCH   1   8
HETATM    8  N1  UNL     1      -0.057  -0.195  -0.570  1.00  0.00    -0.375 N 
HETATM    9  C4  UNL     1      -0.978   0.053   0.252  1.00  0.00     0.061 C 
ATOM     10  H1  UNL     1      -0.357  -0.511  -1.492  1.00  0.00     0.160 HD
BRANCH   9  11
HETATM   11  C2  UNL     1      -2.390  -0.140  -0.212  1.00  0.00     0.015 C 
HETATM   12  C1  UNL     1      -2.738   1.024  -1.104  1.00  0.00     0.015 C 
HETATM   13  C3  UNL     1      -3.337  -0.282   0.950  1.00  0.00     0.015 C 
ENDBRANCH   9  11
ENDBRANCH   1   8
TORSDOF 2
