REMARK  2 active torsions:
REMARK  status: ('A' for Active; 'I' for Inactive)
REMARK    1  A    between atoms: N1_3  and  N2_5 
REMARK    2  A    between atoms: N2_5  and  C3_7 
ROOT
HETATM    1  C3  UNL     1      -0.402   0.860   0.369  1.00  0.00     0.099 C 
HETATM    2  C4  UNL     1      -0.725   0.027  -0.800  1.00  0.00     0.026 C 
HETATM    3  C5  UNL     1      -1.645  -1.107  -0.612  1.00  0.00     0.002 C 
HETATM    4  C6  UNL     1      -2.462  -1.095   0.634  1.00  0.00     0.000 C 
HETATM    5  C7  UNL     1      -2.727   0.358   1.014  1.00  0.00     0.002 C 
HETATM    6  C8  UNL     1      -1.379   0.876   1.483  1.00  0.00     0.026 C 
ENDROOT
BRANCH   1   7
HETATM    7  N2  UNL     1       0.917   0.536   0.935  1.00  0.00    -0.332 N 
ATOM      8  H2  UNL     1       1.015   0.213   1.898  1.00  0.00     0.180 HD
BRANCH   7   9
HETATM    9  N1  UNL     1       2.029   0.687   0.104  1.00  0.00    -0.320 N 
HETATM   10  C2  UNL     1       3.072  -0.050   0.247  1.00  0.00     0.075 C 
HETATM   11  C1  UNL     1       4.279   0.068  -0.606  1.00  0.00     0.056 C 
ATOM     12  H1  UNL     1       2.013   1.395  -0.630  1.00  0.00     0.185 HD
ENDBRANCH   7   9
ENDBRANCH   1   7
TORSDOF 2
