REMARK  1 active torsions:
REMARK  status: ('A' for Active; 'I' for Inactive)
REMARK    1  A    between atoms: N1_2  and  C2_4 
ROOT
HETATM    1  C2  UNL     1      -0.939  -0.240  -0.403  1.00  0.00     0.111 C 
HETATM    2  C3  UNL     1      -0.978  -1.690  -0.076  1.00  0.00     0.057 C 
HETATM    3  C4  UNL     1       0.080  -1.821   1.006  1.00  0.00     0.275 C 
HETATM    4  N2  UNL     1       0.951  -0.653   0.839  1.00  0.00     0.095 N 
HETATM    5  C5  UNL     1       1.785  -0.898  -0.317  1.00  0.00     0.273 C 
HETATM    6  C6  UNL     1       2.518   0.309  -0.772  1.00  0.00     0.030 C 
HETATM    7  C7  UNL     1       1.952   1.610  -0.364  1.00  0.00     0.004 C 
HETATM    8  C8  UNL     1       0.535   1.641   0.033  1.00  0.00     0.038 C 
HETATM    9  C9  UNL     1      -0.017   0.386   0.614  1.00  0.00     0.245 C 
ENDROOT
BRANCH   1  10
HETATM   10  N1  UNL     1      -2.173   0.410  -0.530  1.00  0.00    -0.419 N 
HETATM   11  C1  UNL     1      -3.038   0.494   0.558  1.00  0.00     0.140 C 
ATOM     12  H1  UNL     1      -2.439   0.824  -1.423  1.00  0.00     0.153 HD
ENDBRANCH   1  10
TORSDOF 1
