REMARK  13 active torsions:
REMARK  status: ('A' for Active; 'I' for Inactive)
REMARK    1  A    between atoms: C2_2  and  C4_4 
REMARK    2  A    between atoms: C4_4  and  C5_5 
REMARK       I    between atoms: C5_5  and  N1_7 
REMARK    3  A    between atoms: N1_7  and  C6_9 
REMARK    4  A    between atoms: C6_9  and  C7_10 
REMARK    5  A    between atoms: C6_9  and  C13_16 
REMARK    6  A    between atoms: N2_18  and  C15_19 
REMARK    7  A    between atoms: C15_19  and  C16_20 
REMARK    8  A    between atoms: C15_19  and  C26_39 
REMARK    9  A    between atoms: C16_20  and  C17_21 
REMARK   10  A    between atoms: C17_21  and  N3_22 
REMARK   11  A    between atoms: C17_21  and  C22_29 
REMARK       I    between atoms: N3_22  and  C18_24 
REMARK   12  A    between atoms: C18_24  and  C19_26 
REMARK       I    between atoms: C22_29  and  N4_31 
REMARK   13  A    between atoms: N4_31  and  C23_33 
ROOT
HETATM    1  C15 UNL     1       1.589  -1.911  -1.201  1.00  0.00     0.017 C 
ENDROOT
BRANCH   1   2
HETATM    2  N2  UNL     1       0.628  -0.905  -1.109  1.00  0.00    -0.359 N 
HETATM    3  C14 UNL     1      -0.577  -1.195  -0.425  1.00  0.00     0.166 C 
HETATM    4  C13 UNL     1      -1.477  -0.099  -0.056  1.00  0.00     0.190 C 
HETATM    5  O4  UNL     1      -0.613   0.963   0.353  1.00  0.00    -0.373 OA
HETATM    6  C30 UNL     1       0.248   1.374  -0.624  1.00  0.00     0.213 C 
HETATM    7  C29 UNL     1       0.663   0.341  -1.642  1.00  0.00     0.090 C 
BRANCH   4   8
HETATM    8  C6  UNL     1      -2.502   0.460  -0.935  1.00  0.00     0.045 C 
BRANCH   8   9
HETATM    9  N1  UNL     1      -3.415   1.343  -0.201  1.00  0.00    -0.328 N 
HETATM   10  C5  UNL     1      -3.275   2.118   0.921  1.00  0.00     0.222 C 
HETATM   11  O1  UNL     1      -2.314   2.288   1.703  1.00  0.00    -0.273 OA
ATOM     12  H1  UNL     1      -4.348   1.390  -0.611  1.00  0.00     0.168 HD
BRANCH  10  13
HETATM   13  C4  UNL     1      -4.494   2.949   1.327  1.00  0.00     0.107 C 
BRANCH  13  14
HETATM   14  C2  UNL     1      -4.270   3.399   2.748  1.00  0.00    -0.014 C 
HETATM   15  C1  UNL     1      -5.418   4.255   3.222  1.00  0.00     0.010 C 
HETATM   16  C3  UNL     1      -4.203   2.121   3.608  1.00  0.00     0.010 C 
ENDBRANCH  13  14
ENDBRANCH  10  13
ENDBRANCH   8   9
BRANCH   8  17
HETATM   17  C7  UNL     1      -3.278  -0.313  -1.892  1.00  0.00    -0.055 C 
HETATM   18  C8  UNL     1      -4.351  -1.222  -1.283  1.00  0.00     0.036 C 
HETATM   19  C9  UNL     1      -5.462  -1.377  -2.294  1.00  0.00     0.004 C 
HETATM   20  C10 UNL     1      -4.993  -1.767  -3.658  1.00  0.00     0.001 C 
HETATM   21  C11 UNL     1      -3.779  -1.012  -4.139  1.00  0.00     0.004 C 
HETATM   22  C12 UNL     1      -2.692  -1.031  -3.027  1.00  0.00     0.036 C 
ENDBRANCH   8  17
ENDBRANCH   4   8
ENDBRANCH   1   2
BRANCH   1  23
HETATM   23  C16 UNL     1       2.351  -2.414  -0.055  1.00  0.00     0.060 C 
BRANCH  23  24
HETATM   24  C17 UNL     1       3.260  -1.597   0.727  1.00  0.00     0.105 C 
BRANCH  24  25
HETATM   25  N3  UNL     1       4.515  -1.697   0.433  1.00  0.00    -0.322 N 
HETATM   26  C18 UNL     1       5.658  -1.123   0.910  1.00  0.00     0.226 C 
HETATM   27  O2  UNL     1       6.235  -1.608   1.943  1.00  0.00    -0.273 OA
ATOM     28  H3  UNL     1       4.691  -2.353  -0.328  1.00  0.00     0.169 HD
BRANCH  26  29
HETATM   29  C19 UNL     1       6.310   0.060   0.298  1.00  0.00     0.078 A 
HETATM   30  C20 UNL     1       7.801  -0.085  -0.039  1.00  0.00     0.015 A 
HETATM   31  C21 UNL     1       7.283   0.910   0.982  1.00  0.00     0.015 A 
ENDBRANCH  26  29
ENDBRANCH  24  25
BRANCH  24  32
HETATM   32  C22 UNL     1       2.974  -0.628   1.746  1.00  0.00     0.274 C 
HETATM   33  O3  UNL     1       1.776  -0.491   2.114  1.00  0.00    -0.266 OA
HETATM   34  N4  UNL     1       3.884   0.204   2.395  1.00  0.00    -0.302 N 
ATOM     35  H4  UNL     1       4.642   0.609   1.845  1.00  0.00     0.171 HD
BRANCH  34  36
HETATM   36  C23 UNL     1       3.823   0.496   3.668  1.00  0.00     0.151 A 
HETATM   37  N5  UNL     1       4.673   1.282   4.302  1.00  0.00    -0.346 N 
HETATM   38  C24 UNL     1       4.508   1.493   5.581  1.00  0.00     0.097 A 
ATOM     39  H5  UNL     1       5.447   1.718   3.801  1.00  0.00     0.167 HD
HETATM   40  C25 UNL     1       3.452   0.881   6.196  1.00  0.00     0.070 A 
HETATM   41  S1  UNL     1       2.735   0.021   4.901  1.00  0.00    -0.064 SA
ENDBRANCH  34  36
ENDBRANCH  24  32
ENDBRANCH  23  24
ENDBRANCH   1  23
BRANCH   1  42
HETATM   42  C26 UNL     1       2.321  -1.914  -2.534  1.00  0.00     0.027 C 
HETATM   43  C27 UNL     1       3.355  -2.940  -2.718  1.00  0.00     0.016 C 
HETATM   44  C28 UNL     1       1.351  -2.019  -3.695  1.00  0.00     0.016 C 
ENDBRANCH   1  42
TORSDOF 13
