REMARK  14 active torsions:
REMARK  status: ('A' for Active; 'I' for Inactive)
REMARK    1  A    between atoms: C2_2  and  C3_3 
REMARK    2  A    between atoms: C4_4  and  C5_5 
REMARK    3  A    between atoms: C5_5  and  C6_6 
REMARK    4  A    between atoms: C6_6  and  N1_7 
REMARK    5  A    between atoms: C6_6  and  C21_29 
REMARK    6  A    between atoms: N1_7  and  C7_9 
REMARK    7  A    between atoms: C7_9  and  C8_10 
REMARK    8  A    between atoms: C7_9  and  C15_17 
REMARK    9  A    between atoms: C8_10  and  C9_11 
REMARK   10  A    between atoms: C15_17  and  O1_18 
REMARK   11  A    between atoms: C15_17  and  C16_20 
REMARK       I    between atoms: C16_20  and  N2_22 
REMARK   12  A    between atoms: N2_22  and  C17_23 
REMARK   13  A    between atoms: C29_40  and  C30_41 
REMARK   14  A    between atoms: C30_41  and  N5_42 
ROOT
HETATM    1  C6  UNL     1      -1.029   0.119  -1.117  1.00  0.00     0.135 C 
ENDROOT
BRANCH   1   2
HETATM    2  C5  UNL     1      -1.621  -0.527  -2.356  1.00  0.00     0.124 C 
BRANCH   2   3
HETATM    3  C4  UNL     1      -0.635  -0.341  -3.454  1.00  0.00    -0.104 C 
HETATM    4  C3  UNL     1       0.195  -0.239  -4.322  1.00  0.00    -0.107 C 
BRANCH   4   5
HETATM    5  C2  UNL     1       1.206  -0.145  -5.362  1.00  0.00     0.089 C 
HETATM    6  C1  UNL     1       0.607  -0.165  -6.758  1.00  0.00     0.018 C 
ENDBRANCH   4   5
ENDBRANCH   2   3
ENDBRANCH   1   2
BRANCH   1   7
HETATM    7  N1  UNL     1       0.213  -0.467  -0.876  1.00  0.00    -0.401 N 
ATOM      8  H1  UNL     1       0.477  -1.373  -1.263  1.00  0.00     0.154 HD
BRANCH   7   9
HETATM    9  C7  UNL     1       1.156   0.358   0.019  1.00  0.00     0.141 C 
BRANCH   9  10
HETATM   10  C8  UNL     1       1.436   1.561  -0.731  1.00  0.00     0.036 C 
BRANCH  10  11
HETATM   11  C9  UNL     1       2.086   2.775  -0.266  1.00  0.00    -0.012 C 
HETATM   12  C10 UNL     1       3.416   2.957   0.230  1.00  0.00     0.005 C 
HETATM   13  C11 UNL     1       4.149   4.180  -0.324  1.00  0.00     0.000 C 
HETATM   14  C12 UNL     1       3.318   5.408  -0.165  1.00  0.00     0.000 C 
HETATM   15  C13 UNL     1       1.876   5.204  -0.644  1.00  0.00     0.000 C 
HETATM   16  C14 UNL     1       1.839   3.911  -1.368  1.00  0.00     0.005 C 
ENDBRANCH  10  11
ENDBRANCH   9  10
BRANCH   9  17
HETATM   17  C15 UNL     1       2.086  -0.708   0.300  1.00  0.00     0.148 C 
BRANCH  17  18
HETATM   18  O1  UNL     1       1.452  -1.923  -0.036  1.00  0.00    -0.357 OA
ATOM     19  H1  UNL     1       2.065  -2.625   0.149  1.00  0.00     0.217 HD
ENDBRANCH  17  18
BRANCH  17  20
HETATM   20  C16 UNL     1       3.412  -1.060   0.766  1.00  0.00     0.344 C 
HETATM   21  O2  UNL     1       4.195  -0.243   1.296  1.00  0.00    -0.249 OA
HETATM   22  N2  UNL     1       3.783  -2.424   0.569  1.00  0.00    -0.370 NA
BRANCH  22  23
HETATM   23  C17 UNL     1       4.133  -3.703   0.385  1.00  0.00     0.437 A 
HETATM   24  C18 UNL     1       4.776  -4.658   1.390  1.00  0.00     0.303 A 
HETATM   25  C19 UNL     1       5.359  -4.096   2.579  1.00  0.00     0.116 C 
HETATM   26  N3  UNL     1       5.375  -4.338   0.177  1.00  0.00     0.145 N 
HETATM   27  S1  UNL     1       7.105  -3.784   2.027  1.00  0.00    -0.137 SA
HETATM   28  C20 UNL     1       6.685  -3.921   0.241  1.00  0.00     0.351 C 
ENDBRANCH  22  23
ENDBRANCH  17  20
ENDBRANCH   9  17
ENDBRANCH   7   9
ENDBRANCH   1   7
BRANCH   1  29
HETATM   29  C21 UNL     1      -1.972  -0.095   0.070  1.00  0.00     0.022 C 
HETATM   30  N4  UNL     1      -1.865   0.780   1.062  1.00  0.00    -0.331 N 
HETATM   31  C22 UNL     1      -2.645   0.696   2.221  1.00  0.00     0.230 C 
ATOM     32  H4  UNL     1      -1.191   1.540   0.977  1.00  0.00     0.168 HD
HETATM   33  O3  UNL     1      -2.842   1.675   2.996  1.00  0.00    -0.272 OA
HETATM   34  C23 UNL     1      -3.289  -0.548   2.600  1.00  0.00     0.042 C 
HETATM   35  C24 UNL     1      -2.662  -1.069   3.887  1.00  0.00     0.019 C 
HETATM   36  C27 UNL     1      -4.713  -0.207   2.993  1.00  0.00     0.019 C 
HETATM   37  C28 UNL     1      -3.211  -1.632   1.581  1.00  0.00     0.035 C 
HETATM   38  C25 UNL     1      -3.738  -1.123   4.923  1.00  0.00     0.001 C 
HETATM   39  C26 UNL     1      -4.684  -0.025   4.512  1.00  0.00     0.001 C 
HETATM   40  C29 UNL     1      -2.856  -1.194   0.199  1.00  0.00     0.073 C 
BRANCH  40  41
HETATM   41  C30 UNL     1      -4.156  -1.148  -0.612  1.00  0.00     0.067 C 
BRANCH  41  42
HETATM   42  N5  UNL     1      -5.025  -0.100  -0.399  1.00  0.00    -0.401 N 
HETATM   43  C31 UNL     1      -4.800   1.210  -0.785  1.00  0.00     0.148 C 
HETATM   44  C32 UNL     1      -6.418  -0.469  -0.615  1.00  0.00     0.148 C 
ENDBRANCH  41  42
ENDBRANCH  40  41
ENDBRANCH   1  29
TORSDOF 14
