REMARK  12 active torsions:
REMARK  status: ('A' for Active; 'I' for Inactive)
REMARK    1  A    between atoms: C2_2  and  O1_3 
REMARK    2  A    between atoms: O1_3  and  C3_4 
REMARK    3  A    between atoms: C3_4  and  C4_6 
REMARK    4  A    between atoms: N1_14  and  C12_15 
REMARK    5  A    between atoms: C12_15  and  C13_16 
REMARK    6  A    between atoms: C20_24  and  C21_25 
REMARK    7  A    between atoms: C21_25  and  C22_26 
REMARK       I    between atoms: C22_26  and  N2_28 
REMARK    8  A    between atoms: N2_28  and  C23_30 
REMARK    9  A    between atoms: C23_30  and  C24_31 
REMARK   10  A    between atoms: C24_31  and  N3_32 
REMARK   11  A    between atoms: C29_37  and  C30_38 
REMARK   12  A    between atoms: C30_38  and  O5_39 
ROOT
HETATM    1  C4  UNL     1      -2.056   1.674  -0.248  1.00  0.00     0.091 C 
HETATM    2  C5  UNL     1      -2.549   1.721  -1.673  1.00  0.00     0.026 C 
HETATM    3  C6  UNL     1      -3.890   2.284  -1.936  1.00  0.00     0.002 C 
HETATM    4  C7  UNL     1      -5.063   1.511  -1.409  1.00  0.00     0.000 C 
HETATM    5  C8  UNL     1      -5.714   2.202  -0.228  1.00  0.00     0.004 C 
HETATM    6  C9  UNL     1      -5.204   1.718   1.086  1.00  0.00     0.029 C 
HETATM    7  C10 UNL     1      -4.082   0.760   0.974  1.00  0.00    -0.000 C 
HETATM    8  C11 UNL     1      -2.851   0.674   0.478  1.00  0.00     0.029 C 
HETATM    9  N1  UNL     1      -2.453  -0.666   0.797  1.00  0.00    -0.320 N 
HETATM   10  C19 UNL     1      -1.051  -0.870   0.602  1.00  0.00     0.228 C 
HETATM   11  O3  UNL     1      -0.534  -1.937   1.092  1.00  0.00    -0.273 OA
HETATM   12  C20 UNL     1      -0.119   0.011  -0.103  1.00  0.00     0.088 C 
HETATM   13  C31 UNL     1      -0.556   1.395  -0.270  1.00  0.00     0.040 C 
ENDROOT
BRANCH  12  14
HETATM   14  C21 UNL     1       1.221  -0.076   0.650  1.00  0.00     0.117 C 
BRANCH  14  15
HETATM   15  C22 UNL     1       2.286   0.750   0.052  1.00  0.00     0.218 C 
HETATM   16  O4  UNL     1       2.071   1.373  -1.014  1.00  0.00    -0.274 OA
HETATM   17  N2  UNL     1       3.525   0.795   0.729  1.00  0.00    -0.359 N 
ATOM     18  H2  UNL     1       3.640   0.268   1.595  1.00  0.00     0.162 HD
BRANCH  17  19
HETATM   19  C23 UNL     1       4.621   1.564   0.226  1.00  0.00     0.152 C 
BRANCH  19  20
HETATM   20  C24 UNL     1       5.055   1.054  -1.115  1.00  0.00     0.292 C 
BRANCH  20  21
HETATM   21  N3  UNL     1       5.442  -0.338  -0.993  1.00  0.00     0.096 N 
HETATM   22  C25 UNL     1       5.858  -0.848  -2.296  1.00  0.00     0.273 C 
HETATM   23  C26 UNL     1       7.129  -0.196  -2.755  1.00  0.00     0.030 C 
HETATM   24  C27 UNL     1       8.196  -0.191  -1.705  1.00  0.00     0.004 C 
HETATM   25  C28 UNL     1       7.699   0.226  -0.351  1.00  0.00     0.038 C 
HETATM   26  C29 UNL     1       6.438  -0.546   0.008  1.00  0.00     0.246 C 
BRANCH  26  27
HETATM   27  C30 UNL     1       6.795  -2.020   0.096  1.00  0.00     0.199 C 
BRANCH  27  28
HETATM   28  O5  UNL     1       7.775  -2.162   1.102  1.00  0.00    -0.399 OA
ATOM     29  H5  UNL     1       7.998  -3.084   1.157  1.00  0.00     0.209 HD
ENDBRANCH  27  28
ENDBRANCH  26  27
ENDBRANCH  20  21
ENDBRANCH  19  20
ENDBRANCH  17  19
ENDBRANCH  14  15
ENDBRANCH  12  14
BRANCH   9  30
HETATM   30  C12 UNL     1      -3.339  -1.704   1.232  1.00  0.00     0.136 C 
BRANCH  30  31
HETATM   31  C13 UNL     1      -4.060  -2.502   0.194  1.00  0.00     0.004 C 
HETATM   32  C14 UNL     1      -4.920  -3.518   0.944  1.00  0.00     0.006 C 
HETATM   33  C15 UNL     1      -4.146  -4.725   1.378  1.00  0.00     0.000 C 
HETATM   34  C16 UNL     1      -3.635  -5.394   0.094  1.00  0.00     0.000 C 
HETATM   35  C17 UNL     1      -2.625  -4.454  -0.487  1.00  0.00     0.000 C 
HETATM   36  C18 UNL     1      -3.185  -3.104  -0.821  1.00  0.00     0.006 C 
ENDBRANCH  30  31
ENDBRANCH   9  30
BRANCH   1  37
HETATM   37  C3  UNL     1      -2.122   3.012   0.389  1.00  0.00     0.273 C 
HETATM   38  O2  UNL     1      -2.367   4.035  -0.257  1.00  0.00    -0.264 OA
BRANCH  37  39
HETATM   39  O1  UNL     1      -1.896   3.115   1.748  1.00  0.00    -0.321 OA
BRANCH  39  40
HETATM   40  C2  UNL     1      -1.928   4.353   2.396  1.00  0.00     0.174 C 
HETATM   41  C1  UNL     1      -3.208   5.106   2.315  1.00  0.00     0.034 C 
ENDBRANCH  39  40
ENDBRANCH  37  39
ENDBRANCH   1  37
TORSDOF 12
