REMARK  12 active torsions:
REMARK  status: ('A' for Active; 'I' for Inactive)
REMARK    1  A    between atoms: C2_2  and  C3_3 
REMARK    2  A    between atoms: C3_3  and  C4_4 
REMARK    3  A    between atoms: C4_4  and  C5_5 
REMARK       I    between atoms: C5_5  and  N1_7 
REMARK    4  A    between atoms: N1_7  and  C6_9 
REMARK    5  A    between atoms: C7_14  and  C8_15 
REMARK    6  A    between atoms: C8_15  and  C9_16 
REMARK    7  A    between atoms: C9_16  and  C10_17 
REMARK    8  A    between atoms: C10_17  and  C11_18 
REMARK    9  A    between atoms: C11_18  and  C12_19 
REMARK   10  A    between atoms: C13_24  and  N6_25 
REMARK       I    between atoms: N6_25  and  C14_27 
REMARK   11  A    between atoms: C14_27  and  C15_29 
REMARK   12  A    between atoms: C15_29  and  N7_32 
ROOT
HETATM    1  C12 UNL     1      -0.557  -0.231  -0.787  1.00  0.00     0.037 A 
HETATM    2  N4  UNL     1      -1.299  -0.279   0.334  1.00  0.00    -0.302 N 
ATOM      3  H4  UNL     1      -0.826  -0.345   1.235  1.00  0.00     0.186 HD
HETATM    4  N5  UNL     1      -2.618  -0.244   0.308  1.00  0.00    -0.284 N 
ATOM      5  H5  UNL     1      -3.168  -0.280   1.167  1.00  0.00     0.188 HD
HETATM    6  C13 UNL     1      -3.214  -0.158  -0.912  1.00  0.00     0.134 A 
HETATM    7  C22 UNL     1      -2.539  -0.103  -2.097  1.00  0.00     0.028 A 
HETATM    8  C23 UNL     1      -3.211  -0.009  -3.297  1.00  0.00    -0.047 A 
HETATM    9  C24 UNL     1      -4.664   0.027  -3.386  1.00  0.00     0.049 C 
HETATM   10  C25 UNL     1      -2.385   0.045  -4.434  1.00  0.00     0.007 A 
HETATM   11  C26 UNL     1      -1.033   0.011  -4.402  1.00  0.00     0.002 A 
HETATM   12  C27 UNL     1      -0.396  -0.084  -3.176  1.00  0.00     0.014 A 
HETATM   13  C28 UNL     1      -1.142  -0.142  -2.022  1.00  0.00     0.002 A 
ENDROOT
BRANCH   1  14
HETATM   14  C11 UNL     1       0.911  -0.325  -0.644  1.00  0.00     0.059 C 
BRANCH  14  15
HETATM   15  C10 UNL     1       1.377  -1.739  -0.926  1.00  0.00     0.006 C 
BRANCH  15  16
HETATM   16  C9  UNL     1       2.864  -1.899  -0.803  1.00  0.00     0.007 C 
BRANCH  16  17
HETATM   17  C8  UNL     1       3.598  -0.994  -1.757  1.00  0.00     0.066 C 
BRANCH  17  18
HETATM   18  C7  UNL     1       5.088  -1.210  -1.641  1.00  0.00     0.069 A 
HETATM   19  N3  UNL     1       5.830  -2.062  -2.353  1.00  0.00    -0.296 N 
HETATM   20  N2  UNL     1       7.071  -2.149  -2.140  1.00  0.00    -0.279 N 
ATOM     21  H3  UNL     1       5.394  -2.643  -3.069  1.00  0.00     0.187 HD
HETATM   22  C6  UNL     1       7.635  -1.380  -1.196  1.00  0.00     0.167 A 
ATOM     23  H2  UNL     1       7.641  -2.799  -2.681  1.00  0.00     0.189 HD
HETATM   24  S1  UNL     1       6.265  -0.513  -0.623  1.00  0.00    -0.038 SA
BRANCH  22  25
HETATM   25  N1  UNL     1       8.890  -1.356  -0.863  1.00  0.00    -0.306 N 
HETATM   26  C5  UNL     1       9.220  -0.403   0.218  1.00  0.00     0.227 C 
HETATM   27  O1  UNL     1      10.035   0.460  -0.109  1.00  0.00    -0.273 OA
ATOM     28  H1  UNL     1       9.591  -1.946  -1.311  1.00  0.00     0.171 HD
BRANCH  26  29
HETATM   29  C4  UNL     1       8.535  -0.641   1.459  1.00  0.00     0.130 C 
BRANCH  29  30
HETATM   30  C3  UNL     1       9.271  -0.599   2.724  1.00  0.00    -0.022 C 
BRANCH  30  31
HETATM   31  C2  UNL     1       9.921   0.606   3.204  1.00  0.00    -0.034 C 
HETATM   32  C1  UNL     1      11.071   1.241   2.551  1.00  0.00     0.036 C 
ENDBRANCH  30  31
ENDBRANCH  29  30
ENDBRANCH  26  29
ENDBRANCH  22  25
ENDBRANCH  17  18
ENDBRANCH  16  17
ENDBRANCH  15  16
ENDBRANCH  14  15
ENDBRANCH   1  14
BRANCH   6  33
HETATM   33  N6  UNL     1      -4.478  -0.143  -0.900  1.00  0.00    -0.309 N 
HETATM   34  C14 UNL     1      -5.298  -0.211   0.250  1.00  0.00     0.261 C 
HETATM   35  O2  UNL     1      -5.332  -1.355   0.822  1.00  0.00    -0.270 OA
ATOM     36  H6  UNL     1      -4.949  -0.076  -1.802  1.00  0.00     0.170 HD
BRANCH  34  37
HETATM   37  C15 UNL     1      -6.075   0.924   0.787  1.00  0.00     0.232 C 
HETATM   38  C16 UNL     1      -7.037   1.405  -0.283  1.00  0.00     0.059 C 
HETATM   39  C17 UNL     1      -5.219   2.113   1.163  1.00  0.00     0.059 C 
BRANCH  37  40
HETATM   40  N7  UNL     1      -6.761   0.479   1.975  1.00  0.00     0.106 N 
HETATM   41  C18 UNL     1      -7.463   1.497   2.680  1.00  0.00     0.274 C 
HETATM   42  C19 UNL     1      -8.626   0.773   3.353  1.00  0.00     0.032 C 
HETATM   43  C20 UNL     1      -9.008  -0.248   2.321  1.00  0.00     0.032 C 
HETATM   44  C21 UNL     1      -7.681  -0.608   1.710  1.00  0.00     0.274 C 
ENDBRANCH  37  40
ENDBRANCH  34  37
ENDBRANCH   6  33
TORSDOF 12
