REMARK  11 active torsions:
REMARK  status: ('A' for Active; 'I' for Inactive)
REMARK    1  A    between atoms: C2_2  and  C3_3 
REMARK    2  A    between atoms: C3_3  and  C4_4 
REMARK    3  A    between atoms: C4_4  and  N1_5 
REMARK       I    between atoms: N1_5  and  C6_7 
REMARK    4  A    between atoms: C6_7  and  C7_9 
REMARK       I    between atoms: N2_13  and  C11_14 
REMARK       I    between atoms: C11_14  and  N3_16 
REMARK    5  A    between atoms: N3_16  and  C12_18 
REMARK    6  A    between atoms: C12_18  and  C13_19 
REMARK    7  A    between atoms: C12_18  and  C15_21 
REMARK    8  A    between atoms: C12_18  and  C27_39 
REMARK    9  A    between atoms: C18_24  and  C19_25 
REMARK   10  A    between atoms: C19_25  and  N4_27 
REMARK   11  A    between atoms: N4_27  and  O3_28 
REMARK       I    between atoms: N4_27  and  C21_30 
REMARK       I    between atoms: C21_30  and  N5_32 
ROOT
HETATM    1  C15 UNL     1      -1.561  -1.640   0.260  1.00  0.00    -0.009 A 
HETATM    2  C16 UNL     1      -1.483  -0.238   0.242  1.00  0.00     0.012 A 
HETATM    3  C17 UNL     1      -2.458   0.616   0.697  1.00  0.00     0.010 A 
HETATM    4  C18 UNL     1      -3.610   0.146   1.220  1.00  0.00    -0.032 A 
HETATM    5  C24 UNL     1      -3.761  -1.209   1.280  1.00  0.00     0.032 A 
HETATM    6  C25 UNL     1      -2.753  -2.066   0.811  1.00  0.00     0.054 A 
HETATM    7  C26 UNL     1      -2.934  -3.463   1.113  1.00  0.00     0.100 C 
HETATM    8  N6  UNL     1      -3.082  -4.548   1.397  1.00  0.00    -0.191 NA
ENDROOT
BRANCH   1   9
HETATM    9  C12 UNL     1      -0.537  -2.522  -0.317  1.00  0.00     0.066 C 
BRANCH   9  10
HETATM   10  N3  UNL     1       0.559  -1.603  -0.709  1.00  0.00    -0.329 N 
HETATM   11  C11 UNL     1       0.662  -0.710  -1.743  1.00  0.00     0.320 C 
HETATM   12  N2  UNL     1       1.842   0.102  -1.945  1.00  0.00    -0.321 N 
HETATM   13  O2  UNL     1      -0.228  -0.507  -2.598  1.00  0.00    -0.247 OA
HETATM   14  C7  UNL     1       3.035   0.085  -1.132  1.00  0.00     0.181 C 
HETATM   15  C10 UNL     1       2.030   1.071  -2.983  1.00  0.00     0.129 C 
HETATM   16  C8  UNL     1       4.099   0.333  -2.181  1.00  0.00     0.037 C 
HETATM   17  C9  UNL     1       3.470   1.001  -3.353  1.00  0.00     0.022 C 
ATOM     18  H3  UNL     1       1.379  -1.643  -0.103  1.00  0.00     0.165 HD
BRANCH  14  19
HETATM   19  C6  UNL     1       2.949   1.125  -0.101  1.00  0.00     0.242 C 
HETATM   20  N1  UNL     1       3.607   1.155   1.142  1.00  0.00    -0.355 N 
HETATM   21  C5  UNL     1       3.398   2.286   2.027  1.00  0.00     0.152 C 
HETATM   22  O1  UNL     1       2.190   2.107  -0.360  1.00  0.00    -0.271 OA
BRANCH  20  23
HETATM   23  C4  UNL     1       4.470   0.104   1.567  1.00  0.00     0.125 C 
BRANCH  23  24
HETATM   24  C3  UNL     1       5.911   0.296   1.239  1.00  0.00     0.019 C 
BRANCH  24  25
HETATM   25  C2  UNL     1       6.495   1.565   1.871  1.00  0.00    -0.003 C 
HETATM   26  C1  UNL     1       7.968   1.668   1.493  1.00  0.00     0.005 C 
ENDBRANCH  24  25
ENDBRANCH  23  24
ENDBRANCH  20  23
ENDBRANCH  14  19
ENDBRANCH   9  10
BRANCH   9  27
HETATM   27  C13 UNL     1       0.176  -3.346   0.746  1.00  0.00     0.032 C 
HETATM   28  C14 UNL     1       0.623  -2.453   1.852  1.00  0.00     0.008 C 
ENDBRANCH   9  27
BRANCH   9  29
HETATM   29  C27 UNL     1      -0.770  -3.247  -1.578  1.00  0.00     0.010 C 
HETATM   30  C28 UNL     1       0.549  -3.993  -1.987  1.00  0.00     0.012 C 
HETATM   31  C29 UNL     1      -1.913  -4.132  -1.858  1.00  0.00     0.012 C 
ENDBRANCH   9  29
ENDBRANCH   1   9
BRANCH   4  32
HETATM   32  C19 UNL     1      -4.706   0.997   1.724  1.00  0.00     0.148 C 
HETATM   33  C20 UNL     1      -5.977   0.196   1.879  1.00  0.00     0.040 C 
BRANCH  32  34
HETATM   34  N4  UNL     1      -4.990   2.091   0.823  1.00  0.00    -0.201 N 
HETATM   35  C21 UNL     1      -5.338   1.896  -0.536  1.00  0.00     0.344 C 
HETATM   36  O4  UNL     1      -5.382   0.682  -0.937  1.00  0.00    -0.245 OA
HETATM   37  N5  UNL     1      -5.625   2.963  -1.424  1.00  0.00    -0.341 N 
HETATM   38  C22 UNL     1      -5.588   4.331  -1.018  1.00  0.00     0.154 C 
HETATM   39  C23 UNL     1      -5.970   2.631  -2.795  1.00  0.00     0.154 C 
BRANCH  34  40
HETATM   40  O3  UNL     1      -4.918   3.348   1.294  1.00  0.00    -0.283 OA
ATOM     41  H3  UNL     1      -5.105   4.067   0.702  1.00  0.00     0.245 HD
ENDBRANCH  34  40
ENDBRANCH  32  34
ENDBRANCH   4  32
TORSDOF 11
