REMARK  11 active torsions:
REMARK  status: ('A' for Active; 'I' for Inactive)
REMARK    1  A    between atoms: C2_2  and  C3_3 
REMARK    2  A    between atoms: C7_7  and  N1_8 
REMARK       I    between atoms: N1_8  and  C8_9 
REMARK    3  A    between atoms: C8_9  and  C9_11 
REMARK    4  A    between atoms: C9_11  and  C10_12 
REMARK    5  A    between atoms: C10_12  and  C11_13 
REMARK    6  A    between atoms: C11_13  and  C12_14 
REMARK    7  A    between atoms: C12_14  and  C13_15 
REMARK    8  A    between atoms: C13_15  and  C14_16 
REMARK    9  A    between atoms: N2_24  and  C19_25 
REMARK   10  A    between atoms: C19_25  and  C20_26 
REMARK       I    between atoms: C20_26  and  N3_28 
REMARK   11  A    between atoms: N3_28  and  C21_30 
ROOT
HETATM    1  C3  UNL     1      -0.865   2.872  -2.231  1.00  0.00    -0.028 C 
HETATM    2  C4  UNL     1       0.332   2.765  -3.201  1.00  0.00     0.015 C 
HETATM    3  C5  UNL     1      -0.026   1.301  -3.200  1.00  0.00    -0.000 C 
HETATM    4  C6  UNL     1       0.531   0.581  -2.068  1.00  0.00     0.061 C 
HETATM    5  C7  UNL     1       0.109   1.144  -0.661  1.00  0.00     0.178 C 
HETATM    6  C17 UNL     1      -0.284   2.558  -0.904  1.00  0.00     0.066 C 
HETATM    7  C18 UNL     1      -1.215   0.463  -0.392  1.00  0.00     0.266 C 
HETATM    8  O2  UNL     1      -1.488   0.218   0.779  1.00  0.00    -0.269 OA
HETATM    9  N2  UNL     1      -2.162   0.082  -1.378  1.00  0.00    -0.320 N 
HETATM   10  C27 UNL     1      -2.420   0.849  -2.592  1.00  0.00     0.073 C 
HETATM   11  C28 UNL     1      -1.444   1.803  -3.030  1.00  0.00     0.037 C 
ENDROOT
BRANCH   5  12
HETATM   12  N1  UNL     1       1.122   0.872   0.218  1.00  0.00    -0.393 NA
HETATM   13  C8  UNL     1       2.141   0.601   1.112  1.00  0.00     0.287 C 
HETATM   14  O1  UNL     1       2.279   1.001   2.273  1.00  0.00    -0.258 OA
BRANCH  13  15
HETATM   15  C9  UNL     1       3.245  -0.312   0.614  1.00  0.00     0.119 C 
BRANCH  15  16
HETATM   16  C10 UNL     1       4.599  -0.196   1.107  1.00  0.00     0.010 C 
BRANCH  16  17
HETATM   17  C11 UNL     1       4.966  -0.313   2.522  1.00  0.00     0.001 C 
BRANCH  17  18
HETATM   18  C12 UNL     1       6.497  -0.169   2.672  1.00  0.00     0.001 C 
BRANCH  18  19
HETATM   19  C13 UNL     1       7.225  -1.268   2.002  1.00  0.00     0.016 C 
BRANCH  19  20
HETATM   20  C14 UNL     1       8.704  -1.249   2.084  1.00  0.00     0.059 C 
HETATM   21  C15 UNL     1       9.222  -1.301   3.469  1.00  0.00     0.027 C 
HETATM   22  C16 UNL     1      10.741  -1.409   3.368  1.00  0.00     0.087 C 
HETATM   23  S1  UNL     1      11.248   0.164   2.539  1.00  0.00    -0.097 SA
HETATM   24  S2  UNL     1       9.412   0.290   1.371  1.00  0.00    -0.093 SA
ENDBRANCH  19  20
ENDBRANCH  18  19
ENDBRANCH  17  18
ENDBRANCH  16  17
ENDBRANCH  15  16
ENDBRANCH  13  15
ENDBRANCH   5  12
BRANCH   1  25
HETATM   25  C2  UNL     1      -1.625   4.155  -2.286  1.00  0.00     0.006 C 
HETATM   26  C1  UNL     1      -0.853   5.383  -1.959  1.00  0.00     0.006 C 
ENDBRANCH   1  25
BRANCH   9  27
HETATM   27  C19 UNL     1      -2.963  -1.088  -1.194  1.00  0.00     0.233 C 
BRANCH  27  28
HETATM   28  C20 UNL     1      -4.334  -0.892  -0.740  1.00  0.00     0.236 C 
HETATM   29  O3  UNL     1      -4.927   0.190  -0.561  1.00  0.00    -0.272 OA
HETATM   30  N3  UNL     1      -5.106  -2.087  -0.472  1.00  0.00    -0.355 N 
ATOM     31  H3  UNL     1      -4.624  -2.982  -0.558  1.00  0.00     0.162 HD
BRANCH  30  32
HETATM   32  C21 UNL     1      -6.468  -2.122  -0.102  1.00  0.00     0.084 C 
HETATM   33  C22 UNL     1      -6.914  -1.233   1.035  1.00  0.00     0.025 C 
HETATM   34  C23 UNL     1      -8.377  -1.621   1.313  1.00  0.00     0.002 C 
HETATM   35  C24 UNL     1      -9.056  -2.193   0.108  1.00  0.00     0.000 C 
HETATM   36  C25 UNL     1      -8.471  -3.560  -0.184  1.00  0.00     0.002 C 
HETATM   37  C26 UNL     1      -6.972  -3.528   0.106  1.00  0.00     0.025 C 
ENDBRANCH  30  32
ENDBRANCH  27  28
ENDBRANCH   9  27
TORSDOF 11
