REMARK  13 active torsions:
REMARK  status: ('A' for Active; 'I' for Inactive)
REMARK    1  A    between atoms: C2_2  and  C3_3 
REMARK    2  A    between atoms: C3_3  and  N1_4 
REMARK    3  A    between atoms: N1_4  and  C4_7 
REMARK    4  A    between atoms: C6_9  and  C7_10 
REMARK    5  A    between atoms: C7_10  and  O1_11 
REMARK    6  A    between atoms: C10_16  and  C11_17 
REMARK    7  A    between atoms: C13_19  and  O3_20 
REMARK    8  A    between atoms: O3_20  and  C14_21 
REMARK    9  A    between atoms: C15_23  and  C16_24 
REMARK   10  A    between atoms: C16_24  and  N2_25 
REMARK   11  A    between atoms: C17_29  and  O5_30 
REMARK   12  A    between atoms: C18_32  and  O6_33 
REMARK   13  A    between atoms: C19_35  and  O7_36 
ROOT
HETATM    1  C4  UNL     1       3.359   0.094  -0.435  1.00  0.00     0.237 C 
HETATM    2  C5  UNL     1       2.368   1.143   0.023  1.00  0.00     0.082 C 
HETATM    3  C6  UNL     1       1.489   0.652  -1.130  1.00  0.00     0.007 C 
HETATM    4  C8  UNL     1       0.775  -0.557  -0.672  1.00  0.00     0.084 C 
HETATM    5  C9  UNL     1       1.712  -1.430   0.119  1.00  0.00     0.271 C 
HETATM    6  O2  UNL     1       1.374  -1.315   1.450  1.00  0.00    -0.353 OA
HETATM    7  C10 UNL     1      -0.011  -1.175   1.504  1.00  0.00     0.154 C 
HETATM    8  C13 UNL     1      -0.358  -0.336   0.273  1.00  0.00     0.163 C 
HETATM    9  O8  UNL     1       3.033  -1.173  -0.035  1.00  0.00    -0.322 OA
HETATM   10  C20 UNL     1       2.794   0.291  -1.832  1.00  0.00     0.021 C 
HETATM   11  C21 UNL     1       2.783  -0.927  -2.687  1.00  0.00     0.020 C 
HETATM   12  C22 UNL     1       3.406   1.463  -2.563  1.00  0.00     0.020 C 
ENDROOT
BRANCH   8  13
HETATM   13  O3  UNL     1      -1.572  -0.896  -0.186  1.00  0.00    -0.350 OA
BRANCH  13  14
HETATM   14  C14 UNL     1      -2.627   0.007  -0.164  1.00  0.00     0.292 C 
HETATM   15  O4  UNL     1      -3.582  -0.362   0.808  1.00  0.00    -0.349 OA
HETATM   16  C15 UNL     1      -4.557   0.641   0.778  1.00  0.00     0.181 C 
HETATM   17  C17 UNL     1      -5.438   0.448  -0.447  1.00  0.00     0.180 C 
HETATM   18  C18 UNL     1      -4.673  -0.281  -1.537  1.00  0.00     0.183 C 
HETATM   19  C19 UNL     1      -3.209   0.119  -1.529  1.00  0.00     0.204 C 
BRANCH  16  20
HETATM   20  C16 UNL     1      -5.358   0.674   2.055  1.00  0.00     0.264 C 
BRANCH  20  21
HETATM   21  N2  UNL     1      -4.423   0.932   3.148  1.00  0.00    -0.077 N 
ATOM     22  H23 UNL     1      -3.651   0.266   3.178  1.00  0.00     0.274 HD
ATOM     23  H22 UNL     1      -3.865   1.774   3.005  1.00  0.00     0.274 HD
ATOM     24  H21 UNL     1      -4.965   0.954   4.012  1.00  0.00     0.274 HD
ENDBRANCH  20  21
ENDBRANCH  16  20
BRANCH  17  25
HETATM   25  O5  UNL     1      -6.504  -0.367  -0.075  1.00  0.00    -0.390 OA
ATOM     26  H5  UNL     1      -7.054  -0.488  -0.840  1.00  0.00     0.210 HD
ENDBRANCH  17  25
BRANCH  18  27
HETATM   27  O6  UNL     1      -4.820  -1.631  -1.358  1.00  0.00    -0.390 OA
ATOM     28  H6  UNL     1      -4.341  -2.087  -2.040  1.00  0.00     0.210 HD
ENDBRANCH  18  27
BRANCH  19  29
HETATM   29  O7  UNL     1      -3.124   1.429  -2.006  1.00  0.00    -0.388 OA
ATOM     30  H7  UNL     1      -3.496   1.500  -2.877  1.00  0.00     0.210 HD
ENDBRANCH  19  29
ENDBRANCH  13  14
ENDBRANCH   8  13
BRANCH   7  31
HETATM   31  C11 UNL     1      -0.622  -2.557   1.372  1.00  0.00     0.030 C 
HETATM   32  C12 UNL     1      -0.134  -3.433   2.508  1.00  0.00     0.007 C 
ENDBRANCH   7  31
BRANCH   3  33
HETATM   33  C7  UNL     1       0.767   1.726  -1.858  1.00  0.00     0.175 C 
BRANCH  33  34
HETATM   34  O1  UNL     1      -0.092   2.475  -1.044  1.00  0.00    -0.400 OA
ATOM     35  H1  UNL     1      -0.554   3.162  -1.510  1.00  0.00     0.209 HD
ENDBRANCH  33  34
ENDBRANCH   3  33
BRANCH   1  36
HETATM   36  N1  UNL     1       4.713   0.510  -0.226  1.00  0.00    -0.039 N 
ATOM     37  H12 UNL     1       4.970   1.342  -0.758  1.00  0.00     0.281 HD
ATOM     38  H11 UNL     1       5.400  -0.119  -0.641  1.00  0.00     0.281 HD
BRANCH  36  39
HETATM   39  C3  UNL     1       4.869   0.673   1.229  1.00  0.00     0.262 C 
BRANCH  39  40
HETATM   40  C2  UNL     1       6.233   1.109   1.541  1.00  0.00    -0.010 C 
HETATM   41  C1  UNL     1       6.999   0.356   2.318  1.00  0.00     0.008 C 
ENDBRANCH  39  40
ENDBRANCH  36  39
ENDBRANCH   1  36
TORSDOF 13
