REMARK  12 active torsions:
REMARK  status: ('A' for Active; 'I' for Inactive)
REMARK    1  A    between atoms: N1_2  and  C2_3 
REMARK    2  A    between atoms: N1_2  and  C15_32 
REMARK    3  A    between atoms: C2_3  and  C3_4 
REMARK    4  A    between atoms: C3_4  and  O1_5 
REMARK    5  A    between atoms: C6_10  and  C7_11 
REMARK    6  A    between atoms: C7_11  and  N2_12 
REMARK       I    between atoms: N2_12  and  C8_14 
REMARK    7  A    between atoms: C8_14  and  C9_16 
REMARK    8  A    between atoms: C10_18  and  C11_19 
REMARK    9  A    between atoms: C11_19  and  O4_20 
REMARK   10  A    between atoms: C12_22  and  O5_23 
REMARK   11  A    between atoms: C13_25  and  O6_26 
REMARK   12  A    between atoms: C14_28  and  O7_29 
ROOT
HETATM    1  N2  UNL     1       2.307   0.536   0.032  1.00  0.00    -0.356 N 
ATOM      2  H2  UNL     1       2.658   1.224  -0.634  1.00  0.00     0.162 HD
HETATM    3  C8  UNL     1       3.306  -0.233   0.679  1.00  0.00     0.249 C 
HETATM    4  O2  UNL     1       3.046  -1.088   1.534  1.00  0.00    -0.271 OA
ENDROOT
BRANCH   1   5
HETATM    5  C7  UNL     1       0.903   0.499   0.164  1.00  0.00     0.155 C 
BRANCH   5   6
HETATM    6  C6  UNL     1       0.191  -0.655  -0.434  1.00  0.00     0.152 C 
HETATM    7  C5  UNL     1       0.772  -1.978  -0.252  1.00  0.00     0.107 C 
HETATM    8  S1  UNL     1      -0.203  -3.089  -1.383  1.00  0.00    -0.161 SA
HETATM    9  C4  UNL     1      -1.903  -2.519  -1.199  1.00  0.00     0.144 C 
HETATM   10  C3  UNL     1      -1.936  -1.581  -0.026  1.00  0.00     0.197 C 
HETATM   11  O8  UNL     1      -1.158  -0.496  -0.119  1.00  0.00    -0.345 OA
BRANCH  10  12
HETATM   12  C2  UNL     1      -3.359  -1.165   0.331  1.00  0.00     0.341 C 
BRANCH  12  13
HETATM   13  N1  UNL     1      -4.008  -0.350  -0.636  1.00  0.00     0.094 N 
HETATM   14  C1  UNL     1      -3.409   0.956  -0.723  1.00  0.00     0.310 C 
BRANCH  13  15
HETATM   15  C15 UNL     1      -5.418  -0.272  -0.280  1.00  0.00     0.222 C 
HETATM   16  C16 UNL     1      -6.253   0.436  -1.294  1.00  0.00     0.036 C 
HETATM   17  C17 UNL     1      -7.715   0.275  -0.856  1.00  0.00     0.002 C 
HETATM   18  C18 UNL     1      -7.912   1.147   0.356  1.00  0.00     0.000 C 
HETATM   19  C19 UNL     1      -6.628   1.499   1.038  1.00  0.00     0.002 C 
HETATM   20  C20 UNL     1      -5.629   0.385   1.058  1.00  0.00     0.036 C 
ENDBRANCH  13  15
ENDBRANCH  12  13
ENDBRANCH  10  12
BRANCH  10  21
HETATM   21  O1  UNL     1      -1.523  -2.358   1.089  1.00  0.00    -0.363 OA
ATOM     22  H1  UNL     1      -0.637  -2.617   0.867  1.00  0.00     0.213 HD
ENDBRANCH  10  21
ENDBRANCH   5   6
ENDBRANCH   1   5
BRANCH   3  23
HETATM   23  C9  UNL     1       4.717   0.039   0.281  1.00  0.00     0.245 C 
HETATM   24  O3  UNL     1       5.637  -0.644   1.066  1.00  0.00    -0.364 OA
HETATM   25  C10 UNL     1       6.877  -0.054   0.895  1.00  0.00     0.177 C 
HETATM   26  C12 UNL     1       7.299   0.239  -0.487  1.00  0.00     0.180 C 
HETATM   27  C13 UNL     1       6.263   0.361  -1.539  1.00  0.00     0.181 C 
HETATM   28  C14 UNL     1       5.030  -0.418  -1.136  1.00  0.00     0.187 C 
BRANCH  25  29
HETATM   29  C11 UNL     1       6.965   1.144   1.832  1.00  0.00     0.198 C 
BRANCH  29  30
HETATM   30  O4  UNL     1       6.800   0.654   3.135  1.00  0.00    -0.398 OA
ATOM     31  H4  UNL     1       6.855   1.401   3.719  1.00  0.00     0.209 HD
ENDBRANCH  29  30
ENDBRANCH  25  29
BRANCH  26  32
HETATM   32  O5  UNL     1       8.056   1.442  -0.431  1.00  0.00    -0.390 OA
ATOM     33  H5  UNL     1       8.328   1.631  -1.321  1.00  0.00     0.210 HD
ENDBRANCH  26  32
BRANCH  27  34
HETATM   34  O6  UNL     1       5.832   1.697  -1.708  1.00  0.00    -0.390 OA
ATOM     35  H6  UNL     1       5.168   1.775  -2.383  1.00  0.00     0.210 HD
ENDBRANCH  27  34
BRANCH  28  36
HETATM   36  O7  UNL     1       3.984  -0.282  -2.010  1.00  0.00    -0.390 OA
ATOM     37  H7  UNL     1       4.179  -0.567  -2.895  1.00  0.00     0.210 HD
ENDBRANCH  28  36
ENDBRANCH   3  23
TORSDOF 12
