REMARK  14 active torsions:
REMARK  status: ('A' for Active; 'I' for Inactive)
REMARK    1  A    between atoms: O1_2  and  C2_3 
REMARK    2  A    between atoms: C2_3  and  C3_5 
REMARK    3  A    between atoms: C4_6  and  C5_7 
REMARK    4  A    between atoms: C6_8  and  C8_10 
REMARK    5  A    between atoms: C8_10  and  C9_11 
REMARK    6  A    between atoms: C8_10  and  O9_35 
REMARK    7  A    between atoms: C10_12  and  C11_13 
REMARK    8  A    between atoms: C15_17  and  O3_18 
REMARK    9  A    between atoms: C16_20  and  O4_21 
REMARK   10  A    between atoms: O4_21  and  C17_22 
REMARK   11  A    between atoms: C20_26  and  O6_27 
REMARK   12  A    between atoms: C21_29  and  O7_30 
REMARK   13  A    between atoms: C22_32  and  O8_33 
REMARK   14  A    between atoms: O9_35  and  N1_36 
ROOT
HETATM    1  C11 UNL     1      -0.710  -0.032  -1.795  1.00  0.00     0.040 C 
HETATM    2  C12 UNL     1      -1.901   0.212  -2.746  1.00  0.00     0.018 C 
HETATM    3  C13 UNL     1      -2.277  -1.250  -3.025  1.00  0.00     0.013 C 
HETATM    4  C14 UNL     1      -1.390  -1.709  -4.162  1.00  0.00     0.012 C 
HETATM    5  C15 UNL     1      -1.857  -2.023  -1.788  1.00  0.00     0.151 C 
HETATM    6  C16 UNL     1      -1.455  -0.919  -0.785  1.00  0.00     0.161 C 
ENDROOT
BRANCH   1   7
HETATM    7  C10 UNL     1      -0.179   1.191  -1.243  1.00  0.00    -0.021 C 
HETATM    8  C9  UNL     1       1.040   1.622  -1.174  1.00  0.00     0.008 C 
BRANCH   8   9
HETATM    9  C8  UNL     1       2.298   1.006  -1.640  1.00  0.00     0.203 C 
BRANCH   9  10
HETATM   10  C6  UNL     1       3.128   0.492  -0.518  1.00  0.00    -0.049 C 
HETATM   11  C5  UNL     1       4.336   0.979  -0.346  1.00  0.00     0.006 C 
HETATM   12  C7  UNL     1       2.609  -0.543   0.384  1.00  0.00     0.046 C 
BRANCH  11  13
HETATM   13  C4  UNL     1       5.135   0.461   0.759  1.00  0.00     0.006 C 
HETATM   14  C3  UNL     1       6.373   0.918   0.985  1.00  0.00     0.082 C 
BRANCH  14  15
HETATM   15  C2  UNL     1       7.190   0.429   2.068  1.00  0.00     0.282 C 
HETATM   16  O2  UNL     1       6.770  -0.454   2.850  1.00  0.00    -0.260 OA
BRANCH  15  17
HETATM   17  O1  UNL     1       8.458   0.936   2.254  1.00  0.00    -0.323 OA
HETATM   18  C1  UNL     1       9.288   0.496   3.286  1.00  0.00     0.213 C 
ENDBRANCH  15  17
ENDBRANCH  14  15
ENDBRANCH  11  13
ENDBRANCH   9  10
BRANCH   9  19
HETATM   19  O9  UNL     1       2.158  -0.007  -2.560  1.00  0.00    -0.274 OA
BRANCH  19  20
HETATM   20  N1  UNL     1       2.718   0.330  -3.715  1.00  0.00    -0.310 N 
ATOM     21  H12 UNL     1       3.184   1.222  -3.882  1.00  0.00     0.184 HD
ATOM     22  H11 UNL     1       2.614  -0.421  -4.397  1.00  0.00     0.184 HD
ENDBRANCH  19  20
ENDBRANCH   9  19
ENDBRANCH   8   9
ENDBRANCH   1   7
BRANCH   6  23
HETATM   23  O4  UNL     1      -2.560  -0.269  -0.302  1.00  0.00    -0.350 OA
BRANCH  23  24
HETATM   24  C17 UNL     1      -2.667  -0.243   1.070  1.00  0.00     0.292 C 
HETATM   25  O5  UNL     1      -3.780  -0.999   1.446  1.00  0.00    -0.351 OA
HETATM   26  C18 UNL     1      -4.966  -0.446   0.981  1.00  0.00     0.152 C 
HETATM   27  C19 UNL     1      -6.077  -1.423   1.387  1.00  0.00     0.042 C 
HETATM   28  C20 UNL     1      -5.285   0.882   1.590  1.00  0.00     0.178 C 
HETATM   29  C21 UNL     1      -4.089   1.307   2.427  1.00  0.00     0.183 C 
HETATM   30  C22 UNL     1      -2.864   1.150   1.551  1.00  0.00     0.204 C 
BRANCH  28  31
HETATM   31  O6  UNL     1      -6.448   0.844   2.354  1.00  0.00    -0.390 OA
ATOM     32  H6  UNL     1      -6.651   1.688   2.741  1.00  0.00     0.210 HD
ENDBRANCH  28  31
BRANCH  29  33
HETATM   33  O7  UNL     1      -4.025   0.583   3.593  1.00  0.00    -0.390 OA
ATOM     34  H7  UNL     1      -3.278   0.849   4.116  1.00  0.00     0.210 HD
ENDBRANCH  29  33
BRANCH  30  35
HETATM   35  O8  UNL     1      -1.760   1.650   2.245  1.00  0.00    -0.388 OA
ATOM     36  H8  UNL     1      -1.886   2.540   2.552  1.00  0.00     0.210 HD
ENDBRANCH  30  35
ENDBRANCH  23  24
ENDBRANCH   6  23
BRANCH   5  37
HETATM   37  O3  UNL     1      -2.852  -2.822  -1.287  1.00  0.00    -0.393 OA
ATOM     38  H3  UNL     1      -2.589  -3.306  -0.513  1.00  0.00     0.210 HD
ENDBRANCH   5  37
TORSDOF 14
