REMARK  10 active torsions:
REMARK  status: ('A' for Active; 'I' for Inactive)
REMARK    1  A    between atoms: C2_2  and  N1_3 
REMARK    2  A    between atoms: N1_3  and  C3_5 
REMARK    3  A    between atoms: C4_6  and  O1_7 
REMARK    4  A    between atoms: C5_9  and  O2_10 
REMARK    5  A    between atoms: C9_15  and  O3_16 
REMARK    6  A    between atoms: C11_18  and  O4_19 
REMARK    7  A    between atoms: O4_19  and  C12_20 
REMARK    8  A    between atoms: C14_22  and  N2_23 
REMARK       I    between atoms: N2_23  and  C15_25 
REMARK       I    between atoms: C15_25  and  N3_27 
REMARK    9  A    between atoms: N3_27  and  N4_29 
REMARK   10  A    between atoms: C16_32  and  O8_33 
ROOT
HETATM    1  O4  UNL     1      -0.309  -0.832  -0.465  1.00  0.00    -0.347 OA
ENDROOT
BRANCH   1   2
HETATM    2  C11 UNL     1      -1.345  -0.044  -0.021  1.00  0.00     0.202 C 
HETATM    3  C3  UNL     1      -2.385  -0.853   0.613  1.00  0.00     0.049 C 
HETATM    4  C4  UNL     1      -3.770  -0.272   0.741  1.00  0.00     0.195 C 
HETATM    5  C5  UNL     1      -4.179   0.647  -0.339  1.00  0.00     0.163 C 
HETATM    6  C6  UNL     1      -3.089   1.480  -0.955  1.00  0.00     0.010 C 
HETATM    7  C7  UNL     1      -3.575   2.080  -2.255  1.00  0.00     0.020 C 
HETATM    8  C8  UNL     1      -2.739   2.573   0.025  1.00  0.00     0.020 C 
HETATM    9  C9  UNL     1      -1.870   0.642  -1.304  1.00  0.00     0.166 C 
BRANCH   3  10
HETATM   10  N1  UNL     1      -1.973  -1.607   1.709  1.00  0.00    -0.372 N 
ATOM     11  H1  UNL     1      -1.693  -2.573   1.539  1.00  0.00     0.164 HD
BRANCH  10  12
HETATM   12  C2  UNL     1      -1.915  -1.142   3.013  1.00  0.00     0.056 C 
HETATM   13  C1  UNL     1      -0.907  -0.119   3.437  1.00  0.00     0.054 C 
ENDBRANCH  10  12
ENDBRANCH   3  10
BRANCH   4  14
HETATM   14  O1  UNL     1      -4.658  -1.378   0.708  1.00  0.00    -0.387 OA
ATOM     15  H1  UNL     1      -5.531  -1.012   0.789  1.00  0.00     0.210 HD
ENDBRANCH   4  14
BRANCH   5  16
HETATM   16  O2  UNL     1      -5.095   1.580   0.215  1.00  0.00    -0.392 OA
ATOM     17  H2  UNL     1      -5.358   2.172  -0.480  1.00  0.00     0.210 HD
ENDBRANCH   5  16
BRANCH   9  18
HETATM   18  O3  UNL     1      -2.080  -0.192  -2.342  1.00  0.00    -0.387 OA
HETATM   19  C10 UNL     1      -1.402  -0.062  -3.494  1.00  0.00     0.202 C 
ENDBRANCH   9  18
ENDBRANCH   1   2
BRANCH   1  20
HETATM   20  C12 UNL     1       0.961  -0.428  -0.066  1.00  0.00     0.263 C 
HETATM   21  C13 UNL     1       1.704  -1.349   0.807  1.00  0.00     0.088 C 
HETATM   22  C14 UNL     1       3.158  -1.399   0.446  1.00  0.00     0.122 C 
HETATM   23  C16 UNL     1       3.344  -1.701  -1.023  1.00  0.00     0.169 C 
HETATM   24  C17 UNL     1       2.281  -1.002  -1.843  1.00  0.00     0.151 C 
HETATM   25  C18 UNL     1       2.788  -0.475  -3.145  1.00  0.00     0.042 C 
HETATM   26  O9  UNL     1       1.718   0.037  -1.105  1.00  0.00    -0.354 OA
BRANCH  22  27
HETATM   27  N2  UNL     1       3.786  -0.152   0.825  1.00  0.00    -0.334 N 
HETATM   28  C15 UNL     1       4.937  -0.047   1.638  1.00  0.00     0.339 C 
HETATM   29  O5  UNL     1       5.469  -1.092   2.070  1.00  0.00    -0.245 OA
HETATM   30  N3  UNL     1       5.502   1.202   1.974  1.00  0.00    -0.191 N 
ATOM     31  H3  UNL     1       5.050   2.039   1.606  1.00  0.00     0.198 HD
ATOM     32  H2  UNL     1       3.368   0.713   0.481  1.00  0.00     0.164 HD
BRANCH  30  33
HETATM   33  N4  UNL     1       6.628   1.376   2.768  1.00  0.00    -0.035 N 
HETATM   34  O6  UNL     1       6.485   1.720   3.970  1.00  0.00    -0.516 OA
HETATM   35  O7  UNL     1       7.928   1.198   2.339  1.00  0.00    -0.516 OA
ENDBRANCH  30  33
ENDBRANCH  22  27
BRANCH  23  36
HETATM   36  O8  UNL     1       4.589  -1.224  -1.406  1.00  0.00    -0.391 OA
ATOM     37  H8  UNL     1       4.706  -1.414  -2.329  1.00  0.00     0.210 HD
ENDBRANCH  23  36
ENDBRANCH   1  20
TORSDOF 10
