REMARK  15 active torsions:
REMARK  status: ('A' for Active; 'I' for Inactive)
REMARK    1  A    between atoms: C2_2  and  C3_3 
REMARK    2  A    between atoms: C2_2  and  C10_20 
REMARK    3  A    between atoms: C3_3  and  O1_4 
REMARK    4  A    between atoms: O1_4  and  C4_5 
REMARK    5  A    between atoms: C5_7  and  C6_8 
REMARK    6  A    between atoms: C6_8  and  O3_9 
REMARK    7  A    between atoms: C7_11  and  O4_12 
REMARK    8  A    between atoms: C8_14  and  O5_15 
REMARK    9  A    between atoms: C9_17  and  O6_18 
REMARK   10  A    between atoms: C11_22  and  C12_23 
REMARK   11  A    between atoms: C12_23  and  O8_24 
REMARK   12  A    between atoms: C14_27  and  N1_28 
REMARK   13  A    between atoms: C19_36  and  N2_37 
REMARK   14  A    between atoms: N2_37  and  N3_39 
REMARK   15  A    between atoms: N3_39  and  N4_40 
ROOT
HETATM    1  C10 UNL     1      -1.114   0.112  -1.291  1.00  0.00     0.296 C 
HETATM    2  O7  UNL     1      -1.850   1.224  -1.615  1.00  0.00    -0.339 OA
HETATM    3  C11 UNL     1      -2.732   1.483  -0.602  1.00  0.00     0.140 C 
HETATM    4  C13 UNL     1      -4.195   1.331  -1.023  1.00  0.00     0.084 C 
HETATM    5  C14 UNL     1      -4.547   0.002  -0.537  1.00  0.00     0.135 C 
HETATM    6  C15 UNL     1      -5.915  -0.267  -0.052  1.00  0.00     0.039 C 
HETATM    7  C16 UNL     1      -5.651  -1.446   0.901  1.00  0.00     0.003 C 
HETATM    8  C17 UNL     1      -4.170  -1.322   1.301  1.00  0.00     0.012 C 
HETATM    9  C18 UNL     1      -3.838   0.021   0.835  1.00  0.00     0.083 C 
HETATM   10  C19 UNL     1      -2.489   0.392   0.453  1.00  0.00     0.202 C 
HETATM   11  O9  UNL     1      -1.748  -0.521  -0.235  1.00  0.00    -0.321 OA
ENDROOT
BRANCH   1  12
HETATM   12  C2  UNL     1       0.321   0.390  -1.032  1.00  0.00    -0.011 C 
HETATM   13  C1  UNL     1       0.849   1.600  -1.108  1.00  0.00     0.021 C 
BRANCH  12  14
HETATM   14  C3  UNL     1       1.194  -0.757  -0.670  1.00  0.00     0.209 C 
BRANCH  14  15
HETATM   15  O1  UNL     1       2.498  -0.397  -0.452  1.00  0.00    -0.354 OA
BRANCH  15  16
HETATM   16  C4  UNL     1       3.272  -1.500  -0.118  1.00  0.00     0.291 C 
HETATM   17  O2  UNL     1       3.818  -1.418   1.142  1.00  0.00    -0.348 OA
HETATM   18  C5  UNL     1       4.925  -0.638   1.272  1.00  0.00     0.179 C 
HETATM   19  C7  UNL     1       6.018  -0.888   0.285  1.00  0.00     0.180 C 
HETATM   20  C8  UNL     1       5.483  -0.844  -1.113  1.00  0.00     0.183 C 
HETATM   21  C9  UNL     1       4.294  -1.740  -1.201  1.00  0.00     0.204 C 
BRANCH  18  22
HETATM   22  C6  UNL     1       4.625   0.843   1.335  1.00  0.00     0.198 C 
BRANCH  22  23
HETATM   23  O3  UNL     1       3.795   1.077   2.450  1.00  0.00    -0.398 OA
ATOM     24  H3  UNL     1       3.607   2.007   2.490  1.00  0.00     0.209 HD
ENDBRANCH  22  23
ENDBRANCH  18  22
BRANCH  19  25
HETATM   25  O4  UNL     1       7.023   0.065   0.506  1.00  0.00    -0.390 OA
ATOM     26  H4  UNL     1       7.718  -0.094  -0.122  1.00  0.00     0.210 HD
ENDBRANCH  19  25
BRANCH  20  27
HETATM   27  O5  UNL     1       5.234   0.449  -1.571  1.00  0.00    -0.390 OA
ATOM     28  H5  UNL     1       4.895   0.477  -2.458  1.00  0.00     0.210 HD
ENDBRANCH  20  27
BRANCH  21  29
HETATM   29  O6  UNL     1       4.705  -3.067  -1.225  1.00  0.00    -0.388 OA
ATOM     30  H6  UNL     1       5.349  -3.218  -1.907  1.00  0.00     0.210 HD
ENDBRANCH  21  29
ENDBRANCH  15  16
ENDBRANCH  14  15
ENDBRANCH  12  14
ENDBRANCH   1  12
BRANCH   3  31
HETATM   31  C12 UNL     1      -2.574   2.854  -0.001  1.00  0.00     0.207 C 
BRANCH  31  32
HETATM   32  O8  UNL     1      -2.785   3.775  -1.026  1.00  0.00    -0.398 OA
ATOM     33  H8  UNL     1      -2.685   4.640  -0.647  1.00  0.00     0.209 HD
ENDBRANCH  31  32
ENDBRANCH   3  31
BRANCH  10  34
HETATM   34  N2  UNL     1      -1.789   1.018   1.547  1.00  0.00    -0.213 N 
ATOM     35  H2  UNL     1      -1.079   1.720   1.339  1.00  0.00     0.200 HD
BRANCH  34  36
HETATM   36  N3  UNL     1      -2.016   0.738   2.710  1.00  0.00    -0.245 NA
BRANCH  36  37
HETATM   37  N4  UNL     1      -1.965   0.252   3.845  1.00  0.00    -0.261 N 
ATOM     38  H42 UNL     1      -1.140  -0.314   3.646  1.00  0.00     0.193 HD
ATOM     39  H41 UNL     1      -2.155   0.017   4.819  1.00  0.00     0.193 HD
ENDBRANCH  36  37
ENDBRANCH  34  36
ENDBRANCH  10  34
BRANCH   5  40
HETATM   40  N1  UNL     1      -4.102  -1.104  -1.340  1.00  0.00    -0.070 N 
ATOM     41  H13 UNL     1      -4.430  -0.989  -2.299  1.00  0.00     0.275 HD
ATOM     42  H12 UNL     1      -3.094  -1.044  -1.482  1.00  0.00     0.275 HD
ATOM     43  H11 UNL     1      -4.348  -2.034  -1.000  1.00  0.00     0.275 HD
ENDBRANCH   5  40
TORSDOF 15
