REMARK  11 active torsions:
REMARK  status: ('A' for Active; 'I' for Inactive)
REMARK    1  A    between atoms: C4_6  and  C5_7 
REMARK    2  A    between atoms: C5_7  and  N1_8 
REMARK    3  A    between atoms: N1_8  and  C6_10 
REMARK    4  A    between atoms: C7_11  and  O3_12 
REMARK    5  A    between atoms: C8_14  and  C9_15 
REMARK    6  A    between atoms: C9_15  and  N2_16 
REMARK    7  A    between atoms: N2_16  and  C10_18 
REMARK    8  A    between atoms: C15_23  and  O4_24 
REMARK    9  A    between atoms: C16_27  and  C17_28 
REMARK   10  A    between atoms: C21_33  and  O7_34 
REMARK   11  A    between atoms: C22_36  and  O8_37 
ROOT
HETATM    1  C6  UNL     1      -1.063   0.117  -0.455  1.00  0.00     0.139 C 
HETATM    2  C7  UNL     1       0.270  -0.504  -0.189  1.00  0.00     0.173 C 
HETATM    3  C8  UNL     1       1.110   0.177   0.850  1.00  0.00     0.170 C 
HETATM    4  O5  UNL     1       1.094   1.536   0.788  1.00  0.00    -0.371 OA
HETATM    5  C16 UNL     1       0.380   2.134  -0.226  1.00  0.00     0.181 C 
HETATM    6  C21 UNL     1      -1.043   1.564  -0.111  1.00  0.00     0.174 C 
ENDROOT
BRANCH   1   7
HETATM    7  N1  UNL     1      -2.199  -0.622  -0.042  1.00  0.00    -0.410 N 
ATOM      8  H1  UNL     1      -2.247  -1.638  -0.124  1.00  0.00     0.153 HD
BRANCH   7   9
HETATM    9  C5  UNL     1      -3.277   0.154   0.499  1.00  0.00     0.149 C 
BRANCH   9  10
HETATM   10  C4  UNL     1      -4.569  -0.624   0.650  1.00  0.00     0.172 C 
HETATM   11  O2  UNL     1      -4.537  -1.699   1.499  1.00  0.00    -0.357 OA
HETATM   12  C3  UNL     1      -5.898  -2.020   1.744  1.00  0.00     0.339 C 
HETATM   13  O1  UNL     1      -6.742  -1.559   0.742  1.00  0.00    -0.359 OA
HETATM   14  C2  UNL     1      -6.291  -1.871  -0.545  1.00  0.00     0.151 C 
HETATM   15  C1  UNL     1      -6.181  -3.366  -0.751  1.00  0.00     0.042 C 
HETATM   16  C22 UNL     1      -4.948  -1.203  -0.732  1.00  0.00     0.177 C 
BRANCH  16  17
HETATM   17  O8  UNL     1      -5.082  -0.200  -1.670  1.00  0.00    -0.390 OA
ATOM     18  H8  UNL     1      -4.238   0.220  -1.788  1.00  0.00     0.210 HD
ENDBRANCH  16  17
ENDBRANCH   9  10
ENDBRANCH   7   9
ENDBRANCH   1   7
BRANCH   2  19
HETATM   19  O3  UNL     1       1.040  -0.573  -1.375  1.00  0.00    -0.391 OA
ATOM     20  H3  UNL     1       1.887  -0.968  -1.206  1.00  0.00     0.210 HD
ENDBRANCH   2  19
BRANCH   6  21
HETATM   21  O7  UNL     1      -1.786   2.259  -1.071  1.00  0.00    -0.391 OA
ATOM     22  H7  UNL     1      -1.773   3.183  -0.851  1.00  0.00     0.210 HD
ENDBRANCH   6  21
BRANCH   3  23
HETATM   23  C9  UNL     1       2.565  -0.267   0.615  1.00  0.00     0.149 C 
BRANCH  23  24
HETATM   24  N2  UNL     1       2.642  -1.660   0.732  1.00  0.00    -0.412 N 
ATOM     25  H2  UNL     1       1.819  -2.236   0.912  1.00  0.00     0.153 HD
BRANCH  24  26
HETATM   26  C10 UNL     1       3.988  -2.242   0.578  1.00  0.00     0.105 C 
HETATM   27  C11 UNL     1       4.918  -1.763   1.627  1.00  0.00     0.027 C 
HETATM   28  C12 UNL     1       6.339  -1.551   1.238  1.00  0.00     0.002 C 
HETATM   29  C13 UNL     1       6.344  -0.790  -0.085  1.00  0.00     0.003 C 
HETATM   30  C14 UNL     1       5.819  -1.759  -1.091  1.00  0.00     0.034 C 
HETATM   31  C15 UNL     1       4.419  -2.219  -0.822  1.00  0.00     0.140 C 
BRANCH  31  32
HETATM   32  O4  UNL     1       4.344  -3.497  -1.437  1.00  0.00    -0.394 OA
ATOM     33  H4  UNL     1       4.623  -3.482  -2.345  1.00  0.00     0.210 HD
ENDBRANCH  31  32
ENDBRANCH  24  26
ENDBRANCH  23  24
ENDBRANCH   3  23
BRANCH   5  34
HETATM   34  C17 UNL     1       0.210   3.616   0.145  1.00  0.00     0.153 C 
HETATM   35  C18 UNL     1      -0.448   4.355  -0.979  1.00  0.00     0.036 C 
HETATM   36  C19 UNL     1       0.316   5.695  -0.940  1.00  0.00     0.029 C 
HETATM   37  C20 UNL     1       1.014   5.582   0.395  1.00  0.00     0.168 C 
HETATM   38  O6  UNL     1       1.453   4.237   0.325  1.00  0.00    -0.383 OA
ENDBRANCH   5  34
TORSDOF 11
