REMARK  9 active torsions:
REMARK  status: ('A' for Active; 'I' for Inactive)
REMARK    1  A    between atoms: C2_2  and  C3_3 
REMARK    2  A    between atoms: C3_3  and  C4_4 
REMARK    3  A    between atoms: C3_3  and  N1_12 
REMARK    4  A    between atoms: C4_4  and  O1_5 
REMARK    5  A    between atoms: O1_5  and  C5_6 
REMARK    6  A    between atoms: N1_12  and  C11_15 
REMARK    7  A    between atoms: C11_15  and  C12_16 
REMARK    8  A    between atoms: C12_16  and  N2_17 
REMARK    9  A    between atoms: N2_17  and  C13_19 
ROOT
HETATM    1  C3  UNL     1       1.082  -1.820  -0.389  1.00  0.00     0.209 C 
ENDROOT
BRANCH   1   2
HETATM    2  C2  UNL     1       0.668  -3.271  -0.347  1.00  0.00     0.030 C 
HETATM    3  C1  UNL     1       0.495  -3.783   1.049  1.00  0.00     0.007 C 
ENDBRANCH   1   2
BRANCH   1   4
HETATM    4  C4  UNL     1       2.419  -1.734   0.358  1.00  0.00     0.208 C 
BRANCH   4   5
HETATM    5  O1  UNL     1       2.903  -0.531   0.288  1.00  0.00    -0.349 OA
BRANCH   5   6
HETATM    6  C5  UNL     1       3.380   0.650   0.139  1.00  0.00     0.068 A 
HETATM    7  C6  UNL     1       3.635   1.227  -1.111  1.00  0.00     0.037 A 
HETATM    8  C7  UNL     1       4.143   2.484  -1.280  1.00  0.00     0.003 A 
HETATM    9  C8  UNL     1       4.420   3.222  -0.142  1.00  0.00     0.000 A 
HETATM   10  C9  UNL     1       4.189   2.702   1.108  1.00  0.00     0.003 A 
HETATM   11  C10 UNL     1       3.684   1.454   1.256  1.00  0.00     0.037 A 
ENDBRANCH   5   6
ENDBRANCH   4   5
ENDBRANCH   1   4
BRANCH   1  12
HETATM   12  N1  UNL     1       0.124  -0.911   0.136  1.00  0.00    -0.067 N 
ATOM     13  H12 UNL     1      -0.033  -1.096   1.127  1.00  0.00     0.277 HD
ATOM     14  H11 UNL     1       0.520   0.027   0.192  1.00  0.00     0.277 HD
BRANCH  12  15
HETATM   15  C11 UNL     1      -1.116  -0.882  -0.564  1.00  0.00     0.252 C 
BRANCH  15  16
HETATM   16  C12 UNL     1      -2.086   0.138  -0.020  1.00  0.00     0.141 C 
BRANCH  16  17
HETATM   17  N2  UNL     1      -3.321   0.164  -0.726  1.00  0.00    -0.416 N 
ATOM     18  H2  UNL     1      -3.504  -0.480  -1.495  1.00  0.00     0.153 HD
BRANCH  17  19
HETATM   19  C13 UNL     1      -4.286   1.118  -0.321  1.00  0.00     0.068 C 
HETATM   20  C14 UNL     1      -3.838   2.552  -0.482  1.00  0.00     0.031 C 
HETATM   21  C15 UNL     1      -4.803   0.931   1.086  1.00  0.00     0.031 C 
ENDBRANCH  17  19
ENDBRANCH  16  17
ENDBRANCH  15  16
ENDBRANCH  12  15
ENDBRANCH   1  12
TORSDOF 9
