REMARK  9 active torsions:
REMARK  status: ('A' for Active; 'I' for Inactive)
REMARK    1  A    between atoms: C2_2  and  C4_4 
REMARK    2  A    between atoms: C4_4  and  C5_5 
REMARK    3  A    between atoms: C5_5  and  C6_6 
REMARK    4  A    between atoms: C6_6  and  N1_8 
REMARK    5  A    between atoms: N1_8  and  C8_10 
REMARK    6  A    between atoms: C8_10  and  C9_11 
REMARK    7  A    between atoms: C9_11  and  C11_13 
REMARK    8  A    between atoms: C11_13  and  O1_14 
REMARK    9  A    between atoms: O1_14  and  C12_15 
ROOT
HETATM    1  C9  UNL     1      -1.347   0.537  -0.985  1.00  0.00     0.044 C 
HETATM    2  C10 UNL     1      -1.615   1.149  -2.366  1.00  0.00     0.017 C 
ENDROOT
BRANCH   1   3
HETATM    3  C8  UNL     1      -0.340   1.409  -0.302  1.00  0.00     0.062 C 
BRANCH   3   4
HETATM    4  N1  UNL     1       0.085   1.070   0.977  1.00  0.00    -0.398 N 
ATOM      5  H1  UNL     1      -0.222   1.637   1.767  1.00  0.00     0.159 HD
BRANCH   4   6
HETATM    6  C6  UNL     1       0.925  -0.031   1.214  1.00  0.00     0.076 C 
HETATM    7  C7  UNL     1       0.386  -1.396   0.889  1.00  0.00     0.032 C 
BRANCH   6   8
HETATM    8  C5  UNL     1       2.296   0.161   0.546  1.00  0.00     0.025 C 
BRANCH   8   9
HETATM    9  C4  UNL     1       3.238  -0.882   1.064  1.00  0.00     0.006 C 
BRANCH   9  10
HETATM   10  C2  UNL     1       4.619  -0.753   0.465  1.00  0.00    -0.023 C 
HETATM   11  C1  UNL     1       4.645  -0.883  -1.021  1.00  0.00     0.009 C 
HETATM   12  C3  UNL     1       5.281   0.530   0.922  1.00  0.00     0.009 C 
ENDBRANCH   9  10
ENDBRANCH   8   9
ENDBRANCH   6   8
ENDBRANCH   4   6
ENDBRANCH   3   4
ENDBRANCH   1   3
BRANCH   1  13
HETATM   13  C11 UNL     1      -2.690   0.568  -0.281  1.00  0.00     0.185 C 
BRANCH  13  14
HETATM   14  O1  UNL     1      -3.588  -0.260  -0.991  1.00  0.00    -0.348 OA
BRANCH  14  15
HETATM   15  C12 UNL     1      -4.916  -0.409  -0.540  1.00  0.00     0.102 A 
HETATM   16  C13 UNL     1      -5.942  -1.144  -1.075  1.00  0.00     0.145 A 
HETATM   17  N2  UNL     1      -7.005  -0.962  -0.280  1.00  0.00    -0.309 N 
HETATM   18  N3  UNL     1      -6.706  -0.161   0.714  1.00  0.00    -0.309 N 
ATOM     19  H2  UNL     1      -7.920  -1.388  -0.428  1.00  0.00     0.186 HD
HETATM   20  C14 UNL     1      -5.425   0.205   0.593  1.00  0.00     0.145 A 
ATOM     21  H3  UNL     1      -7.343   0.133   1.455  1.00  0.00     0.186 HD
ENDBRANCH  14  15
ENDBRANCH  13  14
ENDBRANCH   1  13
TORSDOF 9
