REMARK  3 active torsions:
REMARK  status: ('A' for Active; 'I' for Inactive)
REMARK    1  A    between atoms: C2_2  and  C3_3 
REMARK    2  A    between atoms: C3_3  and  C4_4 
REMARK    3  A    between atoms: C4_4  and  C5_5 
ROOT
HETATM    1  C5  UNL     1      -0.028   0.393  -0.477  1.00  0.00    -0.010 C 
HETATM    2  C6  UNL     1      -0.584  -0.983  -0.802  1.00  0.00     0.039 C 
HETATM    3  C7  UNL     1      -2.061  -0.935  -1.122  1.00  0.00     0.211 C 
HETATM    4  C8  UNL     1      -2.825  -1.433   0.105  1.00  0.00     0.265 C 
HETATM    5  N1  UNL     1      -2.177  -0.832   1.254  1.00  0.00    -0.067 N 
ATOM      6  H11 UNL     1      -1.311  -1.314   1.496  1.00  0.00     0.277 HD
ATOM      7  H12 UNL     1      -2.695  -1.007   2.115  1.00  0.00     0.277 HD
HETATM    8  C9  UNL     1      -1.964   0.566   1.036  1.00  0.00     0.211 C 
HETATM    9  C10 UNL     1      -2.798   1.119  -0.113  1.00  0.00     0.265 C 
HETATM   10  N2  UNL     1      -2.424   0.444  -1.309  1.00  0.00    -0.067 N 
ATOM     11  H21 UNL     1      -3.161   0.527  -2.010  1.00  0.00     0.277 HD
ATOM     12  H22 UNL     1      -1.675   0.948  -1.783  1.00  0.00     0.277 HD
HETATM   13  C11 UNL     1      -0.509   0.867   0.867  1.00  0.00     0.039 C 
ENDROOT
BRANCH   1  14
HETATM   14  C4  UNL     1       1.471   0.400  -0.604  1.00  0.00     0.005 C 
BRANCH  14  15
HETATM   15  C3  UNL     1       2.143  -0.580   0.322  1.00  0.00     0.000 C 
BRANCH  15  16
HETATM   16  C2  UNL     1       3.632  -0.489   0.111  1.00  0.00    -0.005 C 
HETATM   17  C1  UNL     1       4.178   0.880   0.395  1.00  0.00     0.005 C 
ENDBRANCH  15  16
ENDBRANCH  14  15
ENDBRANCH   1  14
TORSDOF 3
