REMARK  5 active torsions:
REMARK  status: ('A' for Active; 'I' for Inactive)
REMARK    1  A    between atoms: C2_2  and  N1_3 
REMARK    2  A    between atoms: N1_3  and  C3_6 
REMARK    3  A    between atoms: C3_6  and  C4_7 
REMARK    4  A    between atoms: C5_14  and  C6_15 
REMARK    5  A    between atoms: C6_15  and  N5_16 
ROOT
HETATM    1  C4  UNL     1       0.513   0.547   0.220  1.00  0.00     0.078 A 
HETATM    2  N2  UNL     1       0.494   1.885   0.554  1.00  0.00    -0.287 N 
ATOM      3  H2  UNL     1      -0.334   2.422   0.813  1.00  0.00     0.188 HD
HETATM    4  N3  UNL     1       1.674   2.335   0.485  1.00  0.00    -0.242 N 
ATOM      5  H3  UNL     1       1.943   3.300   0.680  1.00  0.00     0.208 HD
HETATM    6  N4  UNL     1       2.519   1.365   0.120  1.00  0.00    -0.287 N 
ATOM      7  H4  UNL     1       3.527   1.459  -0.006  1.00  0.00     0.188 HD
HETATM    8  C5  UNL     1       1.793   0.234  -0.052  1.00  0.00     0.078 A 
ENDROOT
BRANCH   1   9
HETATM    9  C3  UNL     1      -0.588  -0.406   0.402  1.00  0.00     0.292 C 
BRANCH   9  10
HETATM   10  N1  UNL     1      -1.496  -0.433  -0.711  1.00  0.00    -0.070 N 
ATOM     11  H12 UNL     1      -1.202  -1.096  -1.428  1.00  0.00     0.277 HD
ATOM     12  H11 UNL     1      -1.445   0.421  -1.267  1.00  0.00     0.277 HD
BRANCH  10  13
HETATM   13  C2  UNL     1      -2.852  -0.700  -0.243  1.00  0.00     0.228 C 
HETATM   14  C1  UNL     1      -3.277   0.733   0.218  1.00  0.00     0.034 C 
ENDBRANCH  10  13
ENDBRANCH   9  10
ENDBRANCH   1   9
BRANCH   8  15
HETATM   15  C6  UNL     1       2.327  -1.044  -0.604  1.00  0.00     0.290 C 
BRANCH  15  16
HETATM   16  N5  UNL     1       3.787  -1.027  -0.468  1.00  0.00    -0.074 N 
ATOM     17  H53 UNL     1       4.212  -0.205  -0.897  1.00  0.00     0.274 HD
ATOM     18  H52 UNL     1       4.091  -0.855   0.490  1.00  0.00     0.274 HD
ATOM     19  H51 UNL     1       4.152  -1.901  -0.846  1.00  0.00     0.274 HD
ENDBRANCH  15  16
ENDBRANCH   8  15
TORSDOF 5
