REMARK  3 active torsions:
REMARK  status: ('A' for Active; 'I' for Inactive)
REMARK    1  A    between atoms: C2_2  and  N1_3 
REMARK    2  A    between atoms: C2_2  and  C5_13 
REMARK    3  A    between atoms: N1_3  and  C3_5 
ROOT
HETATM    1  N1  UNL     1       0.083   0.747   0.250  1.00  0.00    -0.214 N 
ATOM      2  H1  UNL     1      -0.284   1.680   0.438  1.00  0.00     0.178 HD
ENDROOT
BRANCH   1   3
HETATM    3  C2  UNL     1      -0.799  -0.326  -0.128  1.00  0.00     0.159 C 
HETATM    4  C1  UNL     1      -0.776  -1.368   0.961  1.00  0.00     0.040 C 
BRANCH   3   5
HETATM    5  C5  UNL     1      -2.177   0.108  -0.365  1.00  0.00     0.109 C 
HETATM    6  N5  UNL     1      -3.132  -0.428   0.305  1.00  0.00    -0.389 N 
ATOM      7  H52 UNL     1      -2.867  -1.142   0.984  1.00  0.00     0.157 HD
ATOM      8  H51 UNL     1      -4.092  -0.126   0.140  1.00  0.00     0.157 HD
HETATM    9  N6  UNL     1      -2.546   1.102  -1.310  1.00  0.00    -0.086 NA
ENDBRANCH   3   5
ENDBRANCH   1   3
BRANCH   1  10
HETATM   10  C3  UNL     1       1.475   0.480   0.356  1.00  0.00     0.694 A 
HETATM   11  N2  UNL     1       2.451   1.373   0.708  1.00  0.00    -0.185 N 
HETATM   12  C4  UNL     1       3.638   0.747   0.686  1.00  0.00     0.215 A 
ATOM     13  H2  UNL     1       2.301   2.353   0.948  1.00  0.00     0.185 HD
HETATM   14  N3  UNL     1       3.435  -0.519   0.329  1.00  0.00    -0.281 N 
HETATM   15  N4  UNL     1       2.156  -0.667   0.137  1.00  0.00    -0.131 N 
ATOM     16  H3  UNL     1       4.149  -1.240   0.225  1.00  0.00     0.188 HD
ATOM     17  H4  UNL     1       1.719  -1.545  -0.145  1.00  0.00     0.205 HD
ENDBRANCH   1  10
TORSDOF 3
