REMARK  4 active torsions:
REMARK  status: ('A' for Active; 'I' for Inactive)
REMARK    1  A    between atoms: N1_2  and  C2_5 
REMARK    2  A    between atoms: C2_5  and  C3_6 
REMARK    3  A    between atoms: C3_6  and  N2_7 
REMARK    4  A    between atoms: C5_11  and  N4_12 
ROOT
HETATM    1  N2  UNL     1       0.872  -0.089   0.477  1.00  0.00    -0.271 N 
HETATM    2  C4  UNL     1       0.870  -1.404   0.247  1.00  0.00     0.218 A 
HETATM    3  N3  UNL     1       2.007  -1.691  -0.402  1.00  0.00    -0.185 N 
ATOM      4  H3  UNL     1       2.303  -2.614  -0.720  1.00  0.00     0.185 HD
HETATM    5  C5  UNL     1       2.684  -0.545  -0.557  1.00  0.00     0.691 A 
HETATM    6  N5  UNL     1       1.962   0.441  -0.005  1.00  0.00    -0.129 N 
ATOM      7  H5  UNL     1       2.219   1.427   0.031  1.00  0.00     0.206 HD
ENDROOT
BRANCH   1   8
HETATM    8  C3  UNL     1      -0.168   0.672   1.154  1.00  0.00     0.177 C 
BRANCH   8   9
HETATM    9  C2  UNL     1      -1.145   1.137   0.131  1.00  0.00     0.253 C 
BRANCH   9  10
HETATM   10  N1  UNL     1      -1.814   0.096  -0.600  1.00  0.00    -0.077 N 
HETATM   11  C1  UNL     1      -2.703  -0.588   0.287  1.00  0.00     0.267 C 
ATOM     12  H12 UNL     1      -1.162  -0.537  -1.063  1.00  0.00     0.276 HD
ATOM     13  H11 UNL     1      -2.287   0.446  -1.433  1.00  0.00     0.276 HD
ENDBRANCH   9  10
ENDBRANCH   8   9
ENDBRANCH   1   8
BRANCH   5  14
HETATM   14  N4  UNL     1       3.842  -0.394  -1.141  1.00  0.00    -0.233 N 
ATOM     15  H42 UNL     1       4.391  -1.144  -1.561  1.00  0.00     0.174 HD
ATOM     16  H41 UNL     1       4.357   0.478  -1.259  1.00  0.00     0.174 HD
ENDBRANCH   5  14
TORSDOF 4
