REMARK  4 active torsions:
REMARK  status: ('A' for Active; 'I' for Inactive)
REMARK    1  A    between atoms: N1_2  and  C2_5 
REMARK    2  A    between atoms: C2_5  and  N2_6 
REMARK    3  A    between atoms: C2_5  and  C3_10 
REMARK    4  A    between atoms: N2_6  and  N3_7 
ROOT
HETATM    1  C2  UNL     1      -1.093   0.571  -0.052  1.00  0.00     0.348 C 
ENDROOT
BRANCH   1   2
HETATM    2  N1  UNL     1      -2.212  -0.233  -0.478  1.00  0.00    -0.054 N 
HETATM    3  C1  UNL     1      -2.073  -1.544   0.122  1.00  0.00     0.269 C 
ATOM      4  H12 UNL     1      -2.307  -0.271  -1.493  1.00  0.00     0.279 HD
ATOM      5  H11 UNL     1      -3.112   0.202  -0.273  1.00  0.00     0.279 HD
ENDBRANCH   1   2
BRANCH   1   6
HETATM    6  N2  UNL     1      -1.162   1.908  -0.616  1.00  0.00    -0.108 NA
BRANCH   6   7
HETATM    7  N3  UNL     1      -2.312   2.586  -0.241  1.00  0.00    -0.346 N 
ATOM      8  H32 UNL     1      -3.023   2.177   0.365  1.00  0.00     0.172 HD
ATOM      9  H31 UNL     1      -2.360   3.525  -0.637  1.00  0.00     0.172 HD
ENDBRANCH   6   7
ENDBRANCH   1   6
BRANCH   1  10
HETATM   10  C3  UNL     1       0.202  -0.038  -0.456  1.00  0.00     0.088 A 
HETATM   11  C4  UNL     1       1.331  -0.171   0.336  1.00  0.00     0.137 A 
HETATM   12  N4  UNL     1       2.313  -0.770  -0.365  1.00  0.00    -0.289 N 
HETATM   13  C5  UNL     1       3.645  -1.089   0.105  1.00  0.00     0.174 C 
HETATM   14  N5  UNL     1       1.814  -1.008  -1.565  1.00  0.00    -0.021 NA
HETATM   15  N6  UNL     1       0.551  -0.576  -1.637  1.00  0.00    -0.283 N 
ATOM     16  H6  UNL     1      -0.052  -0.644  -2.457  1.00  0.00     0.184 HD
ENDBRANCH   1  10
TORSDOF 4
