REMARK  12 active torsions:
REMARK  status: ('A' for Active; 'I' for Inactive)
REMARK    1  A    between atoms: N1_1  and  N2_4 
REMARK    2  A    between atoms: N2_4  and  N3_6 
REMARK    3  A    between atoms: C1_9  and  C2_10 
REMARK       I    between atoms: C2_10  and  N5_12 
REMARK    4  A    between atoms: N5_12  and  N6_14 
REMARK    5  A    between atoms: C3_16  and  C4_17 
REMARK    6  A    between atoms: C4_17  and  O2_18 
REMARK    7  A    between atoms: N7_20  and  N8_22 
REMARK    8  A    between atoms: N8_22  and  C5_24 
REMARK    9  A    between atoms: C7_28  and  N10_29 
REMARK   10  A    between atoms: C8_32  and  O5_33 
REMARK   11  A    between atoms: C10_37  and  O6_38 
REMARK   12  A    between atoms: C11_40  and  O7_41 
ROOT
HETATM    1  N6  UNL     1       0.464   0.913   0.651  1.00  0.00    -0.305 N 
ATOM      2  H6  UNL     1      -0.354   0.319   0.787  1.00  0.00     0.186 HD
HETATM    3  C3  UNL     1       0.398   2.162   0.935  1.00  0.00     0.164 C 
ENDROOT
BRANCH   1   4
HETATM    4  N5  UNL     1       1.670   0.350   0.148  1.00  0.00    -0.265 N 
HETATM    5  C2  UNL     1       2.871   0.563   0.845  1.00  0.00     0.291 C 
HETATM    6  O1  UNL     1       2.828   1.257   1.917  1.00  0.00    -0.264 OA
ATOM      7  H5  UNL     1       1.663  -0.202  -0.709  1.00  0.00     0.190 HD
BRANCH   5   8
HETATM    8  C1  UNL     1       4.148   0.027   0.386  1.00  0.00     0.157 A 
HETATM    9  N4  UNL     1       5.349   0.221   1.005  1.00  0.00    -0.268 N 
HETATM   10  N3  UNL     1       6.303  -0.377   0.336  1.00  0.00    -0.155 N 
ATOM     11  H4  UNL     1       5.484   0.754   1.864  1.00  0.00     0.189 HD
HETATM   12  C11 UNL     1       5.782  -0.985  -0.739  1.00  0.00     0.217 A 
HETATM   13  C10 UNL     1       4.405  -0.736  -0.721  1.00  0.00     0.154 A 
BRANCH  10  14
HETATM   14  N2  UNL     1       7.668  -0.378   0.678  1.00  0.00    -0.226 N 
ATOM     15  H2  UNL     1       8.033  -1.114   1.282  1.00  0.00     0.210 HD
BRANCH  14  16
HETATM   16  N1  UNL     1       8.533   0.614   0.203  1.00  0.00    -0.329 N 
ATOM     17  H12 UNL     1       8.152   1.343  -0.400  1.00  0.00     0.178 HD
ATOM     18  H11 UNL     1       9.522   0.613   0.451  1.00  0.00     0.178 HD
ENDBRANCH  14  16
ENDBRANCH  10  14
BRANCH  12  19
HETATM   19  O7  UNL     1       6.453  -1.721  -1.695  1.00  0.00    -0.342 OA
ATOM     20  H7  UNL     1       6.084  -2.152  -2.457  1.00  0.00     0.219 HD
ENDBRANCH  12  19
BRANCH  13  21
HETATM   21  O6  UNL     1       3.528  -1.212  -1.687  1.00  0.00    -0.355 OA
ATOM     22  H6  UNL     1       3.706  -1.742  -2.455  1.00  0.00     0.218 HD
ENDBRANCH  13  21
ENDBRANCH   5   8
ENDBRANCH   1   4
BRANCH   3  23
HETATM   23  C4  UNL     1      -0.807   2.752   1.442  1.00  0.00     0.172 C 
HETATM   24  N7  UNL     1      -1.915   2.183   1.674  1.00  0.00    -0.278 N 
ATOM     25  H7  UNL     1      -2.655   2.785   2.035  1.00  0.00     0.189 HD
BRANCH  23  26
HETATM   26  O2  UNL     1      -0.747   4.141   1.718  1.00  0.00    -0.344 OA
ATOM     27  H2  UNL     1      -1.545   4.532   2.054  1.00  0.00     0.219 HD
ENDBRANCH  23  26
BRANCH  24  28
HETATM   28  N8  UNL     1      -2.253   0.850   1.501  1.00  0.00    -0.287 N 
ATOM     29  H8  UNL     1      -1.637   0.125   1.868  1.00  0.00     0.188 HD
BRANCH  28  30
HETATM   30  C5  UNL     1      -3.453   0.473   0.815  1.00  0.00     0.095 C 
HETATM   31  N9  UNL     1      -4.505   1.168   0.953  1.00  0.00    -0.376 N 
HETATM   32  C6  UNL     1      -5.764   0.884   0.313  1.00  0.00     0.156 C 
ATOM     33  H9  UNL     1      -4.456   1.986   1.560  1.00  0.00     0.160 HD
HETATM   34  C7  UNL     1      -5.708  -0.159  -0.753  1.00  0.00     0.219 C 
HETATM   35  C8  UNL     1      -4.808  -1.302  -0.265  1.00  0.00     0.150 C 
HETATM   36  S1  UNL     1      -4.669  -2.617  -1.482  1.00  0.00    -0.053 SA
HETATM   37  C9  UNL     1      -3.440  -0.715  -0.039  1.00  0.00     0.130 C 
BRANCH  34  38
HETATM   38  N10 UNL     1      -7.040  -0.668  -1.035  1.00  0.00    -0.145 N 
HETATM   39  O3  UNL     1      -7.515  -0.581  -2.181  1.00  0.00    -0.536 OA
HETATM   40  O4  UNL     1      -7.809  -1.259  -0.059  1.00  0.00    -0.536 OA
ENDBRANCH  34  38
BRANCH  35  41
HETATM   41  O5  UNL     1      -5.389  -1.748   0.923  1.00  0.00    -0.376 OA
ATOM     42  H5  UNL     1      -4.832  -2.456   1.225  1.00  0.00     0.211 HD
ENDBRANCH  35  41
ENDBRANCH  28  30
ENDBRANCH  24  28
ENDBRANCH   3  23
TORSDOF 12
