REMARK  12 active torsions:
REMARK  status: ('A' for Active; 'I' for Inactive)
REMARK       I    between atoms: C2_2  and  N1_4 
REMARK    1  A    between atoms: C4_6  and  O2_7 
REMARK    2  A    between atoms: C5_9  and  C6_10 
REMARK    3  A    between atoms: C6_10  and  O3_11 
REMARK    4  A    between atoms: C6_10  and  C7_13 
REMARK    5  A    between atoms: C7_13  and  N2_14 
REMARK    6  A    between atoms: N5_19  and  N6_20 
REMARK    7  A    between atoms: C8_23  and  N7_24 
REMARK    8  A    between atoms: N7_24  and  C9_26 
REMARK    9  A    between atoms: C9_26  and  C10_27 
REMARK   10  A    between atoms: C11_30  and  N9_31 
REMARK   11  A    between atoms: N11_38  and  N12_39 
REMARK   12  A    between atoms: C13_42  and  O4_43 
ROOT
HETATM    1  N2  UNL     1      -0.130   1.199   1.742  1.00  0.00    -0.102 N 
HETATM    2  N3  UNL     1      -0.136   1.869   2.878  1.00  0.00    -0.209 N 
ATOM      3  H3  UNL     1       0.636   1.935   3.541  1.00  0.00     0.210 HD
HETATM    4  N4  UNL     1      -1.307   2.433   3.003  1.00  0.00    -0.192 N 
ATOM      5  H4  UNL     1      -1.610   3.018   3.782  1.00  0.00     0.212 HD
HETATM    6  N5  UNL     1      -2.043   2.110   1.929  1.00  0.00    -0.010 N 
HETATM    7  C8  UNL     1      -1.317   1.330   1.120  1.00  0.00     0.733 A 
ENDROOT
BRANCH   7   8
HETATM    8  N7  UNL     1      -1.642   0.812   0.032  1.00  0.00    -0.214 N 
ATOM      9  H7  UNL     1      -0.904   0.244  -0.384  1.00  0.00     0.178 HD
BRANCH   8  10
HETATM   10  C9  UNL     1      -2.824   0.853  -0.740  1.00  0.00     0.217 C 
BRANCH  10  11
HETATM   11  C10 UNL     1      -3.864  -0.139  -0.374  1.00  0.00     0.139 A 
HETATM   12  N8  UNL     1      -5.172   0.129  -0.247  1.00  0.00    -0.177 N 
HETATM   13  C11 UNL     1      -6.097  -0.777   0.082  1.00  0.00     0.679 A 
ATOM     14  H8  UNL     1      -5.481   1.087  -0.412  1.00  0.00     0.185 HD
HETATM   15  N10 UNL     1      -5.690  -2.043   0.301  1.00  0.00    -0.165 N 
HETATM   16  C12 UNL     1      -4.375  -2.364   0.184  1.00  0.00     0.213 A 
ATOM     17  H10 UNL     1      -6.369  -2.760   0.555  1.00  0.00     0.186 HD
HETATM   18  S1  UNL     1      -3.924  -3.911   0.457  1.00  0.00    -0.038 SA
HETATM   19  N11 UNL     1      -3.469  -1.405  -0.154  1.00  0.00    -0.221 N 
BRANCH  13  20
HETATM   20  N9  UNL     1      -7.353  -0.501   0.200  1.00  0.00    -0.234 N 
ATOM     21  H92 UNL     1      -7.661   0.457   0.034  1.00  0.00     0.174 HD
ATOM     22  H91 UNL     1      -8.059  -1.193   0.451  1.00  0.00     0.174 HD
ENDBRANCH  13  20
BRANCH  19  23
HETATM   23  N12 UNL     1      -2.141  -1.749  -0.268  1.00  0.00    -0.335 N 
ATOM     24 2H12 UNL     1      -1.462  -1.031  -0.521  1.00  0.00     0.177 HD
ATOM     25 1H12 UNL     1      -1.841  -2.710  -0.101  1.00  0.00     0.177 HD
ENDBRANCH  19  23
ENDBRANCH  10  11
ENDBRANCH   8  10
ENDBRANCH   7   8
BRANCH   1  26
HETATM   26  C7  UNL     1       0.993   0.427   1.196  1.00  0.00     0.206 C 
BRANCH  26  27
HETATM   27  C6  UNL     1       1.870   1.330   0.360  1.00  0.00     0.178 C 
BRANCH  27  28
HETATM   28  C5  UNL     1       3.026   0.670  -0.240  1.00  0.00     0.058 A 
HETATM   29  C4  UNL     1       3.987   1.336  -0.966  1.00  0.00     0.095 A 
HETATM   30  C3  UNL     1       4.909   0.433  -1.382  1.00  0.00     0.139 A 
HETATM   31  N1  UNL     1       4.534  -0.774  -0.926  1.00  0.00    -0.270 N 
HETATM   32  C2  UNL     1       5.259  -1.998  -1.163  1.00  0.00     0.226 C 
HETATM   33  C13 UNL     1       3.395  -0.651  -0.233  1.00  0.00     0.161 A 
HETATM   34  C1  UNL     1       6.511  -1.978  -1.956  1.00  0.00     0.118 C 
HETATM   35  O1  UNL     1       4.809  -3.046  -0.689  1.00  0.00    -0.273 OA
BRANCH  29  36
HETATM   36  O2  UNL     1       4.049   2.704  -1.254  1.00  0.00    -0.358 OA
ATOM     37  H2  UNL     1       3.403   3.337  -0.963  1.00  0.00     0.217 HD
ENDBRANCH  29  36
BRANCH  33  38
HETATM   38  O4  UNL     1       2.721  -1.704   0.383  1.00  0.00    -0.345 OA
ATOM     39  H4  UNL     1       1.913  -1.617   0.875  1.00  0.00     0.219 HD
ENDBRANCH  33  38
ENDBRANCH  27  28
BRANCH  27  40
HETATM   40  O3  UNL     1       1.085   1.853  -0.667  1.00  0.00    -0.389 OA
ATOM     41  H3  UNL     1       0.333   2.282  -0.277  1.00  0.00     0.210 HD
ENDBRANCH  27  40
ENDBRANCH  26  27
ENDBRANCH   1  26
BRANCH   6  42
HETATM   42  N6  UNL     1      -3.334   2.573   1.794  1.00  0.00    -0.308 N 
ATOM     43  H62 UNL     1      -3.887   3.168   2.411  1.00  0.00     0.179 HD
ATOM     44  H61 UNL     1      -3.894   2.327   0.977  1.00  0.00     0.179 HD
ENDBRANCH   6  42
TORSDOF 12
