REMARK  10 active torsions:
REMARK  status: ('A' for Active; 'I' for Inactive)
REMARK    1  A    between atoms: C2_2  and  C3_3 
REMARK    2  A    between atoms: C3_3  and  N1_6 
REMARK    3  A    between atoms: N1_6  and  C6_9 
REMARK    4  A    between atoms: C6_9  and  C7_10 
REMARK    5  A    between atoms: C7_10  and  C8_11 
REMARK    6  A    between atoms: C8_11  and  C10_13 
REMARK    7  A    between atoms: C8_11  and  C15_19 
REMARK    8  A    between atoms: C10_13  and  C11_14 
REMARK    9  A    between atoms: C11_14  and  C12_15 
REMARK   10  A    between atoms: C16_20  and  O1_21 
ROOT
HETATM    1  C12 UNL     1      -1.192   3.610  -0.112  1.00  0.00    -0.016 C 
HETATM    2  C13 UNL     1      -1.947   4.258  -0.982  1.00  0.00     0.089 C 
HETATM    3  C14 UNL     1      -1.516   5.524  -1.479  1.00  0.00     0.087 C 
HETATM    4  N2  UNL     1      -1.154   6.559  -1.887  1.00  0.00    -0.192 NA
ENDROOT
BRANCH   1   5
HETATM    5  C11 UNL     1      -1.573   2.288   0.451  1.00  0.00     0.028 C 
BRANCH   5   6
HETATM    6  C10 UNL     1      -0.512   1.313   0.084  1.00  0.00     0.015 C 
BRANCH   6   7
HETATM    7  C8  UNL     1      -0.751  -0.097   0.591  1.00  0.00    -0.009 C 
HETATM    8  C9  UNL     1      -0.562   0.032   2.092  1.00  0.00     0.018 C 
BRANCH   7   9
HETATM    9  C7  UNL     1       0.449  -0.852   0.065  1.00  0.00     0.039 C 
BRANCH   9  10
HETATM   10  C6  UNL     1       1.779  -0.191   0.313  1.00  0.00     0.234 C 
BRANCH  10  11
HETATM   11  N1  UNL     1       2.757  -1.133  -0.271  1.00  0.00    -0.064 N 
ATOM     12  H12 UNL     1       2.540  -1.348  -1.244  1.00  0.00     0.278 HD
ATOM     13  H11 UNL     1       2.658  -2.070   0.119  1.00  0.00     0.278 HD
BRANCH  11  14
HETATM   14  C3  UNL     1       4.103  -0.631  -0.121  1.00  0.00     0.135 C 
HETATM   15  C4  UNL     1       5.024  -1.657  -0.761  1.00  0.00     0.050 C 
HETATM   16  C5  UNL     1       4.512  -0.494   1.316  1.00  0.00     0.050 C 
BRANCH  14  17
HETATM   17  C2  UNL     1       4.282   0.636  -0.858  1.00  0.00     0.001 C 
HETATM   18  C1  UNL     1       4.860   1.660  -0.283  1.00  0.00     0.009 C 
ENDBRANCH  14  17
ENDBRANCH  11  14
ENDBRANCH  10  11
ENDBRANCH   9  10
ENDBRANCH   7   9
BRANCH   7  19
HETATM   19  C15 UNL     1      -2.043  -0.637   0.171  1.00  0.00     0.259 C 
HETATM   20  C16 UNL     1      -2.139  -0.612  -1.344  1.00  0.00     0.152 C 
HETATM   21  C17 UNL     1      -3.643  -0.425  -1.631  1.00  0.00     0.035 C 
HETATM   22  C18 UNL     1      -4.250  -1.709  -1.174  1.00  0.00     0.033 C 
HETATM   23  C19 UNL     1      -3.702  -2.343   0.011  1.00  0.00     0.272 C 
HETATM   24  N3  UNL     1      -2.442  -1.927   0.547  1.00  0.00     0.092 N 
HETATM   25  C20 UNL     1      -2.467  -2.278   1.930  1.00  0.00     0.310 C 
BRANCH  20  26
HETATM   26  O1  UNL     1      -1.850  -1.865  -1.908  1.00  0.00    -0.393 OA
ATOM     27  H1  UNL     1      -1.910  -1.849  -2.856  1.00  0.00     0.210 HD
ENDBRANCH  20  26
ENDBRANCH   7  19
ENDBRANCH   6   7
ENDBRANCH   5   6
ENDBRANCH   1   5
TORSDOF 10
