REMARK  12 active torsions:
REMARK  status: ('A' for Active; 'I' for Inactive)
REMARK    1  A    between atoms: C6_6  and  C7_7 
REMARK    2  A    between atoms: C7_7  and  C8_8 
REMARK    3  A    between atoms: C9_9  and  C10_10 
REMARK    4  A    between atoms: C10_10  and  C11_11 
REMARK    5  A    between atoms: C12_12  and  C13_13 
REMARK    6  A    between atoms: C13_13  and  C14_14 
REMARK    7  A    between atoms: C15_15  and  C16_16 
REMARK    8  A    between atoms: C17_17  and  C18_18 
REMARK    9  A    between atoms: C18_18  and  O1_19 
REMARK   10  A    between atoms: C18_18  and  C19_21 
REMARK   11  A    between atoms: C19_21  and  N1_22 
REMARK   12  A    between atoms: C21_28  and  O3_29 
ROOT
HETATM    1  C10 UNL     1       0.274   2.721  -1.816  1.00  0.00     0.053 C 
ENDROOT
BRANCH   1   2
HETATM    2  C9  UNL     1      -0.319   2.145  -0.558  1.00  0.00    -0.027 C 
HETATM    3  C8  UNL     1      -1.124   1.092  -0.587  1.00  0.00    -0.030 C 
BRANCH   3   4
HETATM    4  C7  UNL     1      -1.660   0.595   0.702  1.00  0.00     0.034 C 
BRANCH   4   5
HETATM    5  C6  UNL     1      -3.170   0.680   0.636  1.00  0.00     0.023 C 
HETATM    6  C5  UNL     1      -3.679   0.167   1.972  1.00  0.00     0.039 C 
HETATM    7  C4  UNL     1      -4.127  -1.228   1.623  1.00  0.00     0.122 C 
HETATM    8  C3  UNL     1      -5.640  -1.199   1.525  1.00  0.00     0.038 C 
HETATM    9  O2  UNL     1      -3.519  -1.543   0.425  1.00  0.00    -0.378 OA
HETATM   10  C2  UNL     1      -6.010  -0.104   0.543  1.00  0.00     0.015 C 
HETATM   11  C1  UNL     1      -7.437  -0.382   0.098  1.00  0.00     0.012 C 
HETATM   12  C21 UNL     1      -5.122  -0.224  -0.651  1.00  0.00     0.151 C 
HETATM   13  C20 UNL     1      -3.658  -0.369  -0.311  1.00  0.00     0.155 C 
BRANCH  12  14
HETATM   14  O3  UNL     1      -5.490  -1.413  -1.322  1.00  0.00    -0.393 OA
ATOM     15  H3  UNL     1      -4.925  -1.489  -2.082  1.00  0.00     0.210 HD
ENDBRANCH  12  14
ENDBRANCH   4   5
ENDBRANCH   3   4
ENDBRANCH   1   2
BRANCH   1  16
HETATM   16  C11 UNL     1       1.764   2.614  -1.629  1.00  0.00    -0.027 C 
HETATM   17  C12 UNL     1       2.436   1.893  -2.508  1.00  0.00    -0.027 C 
BRANCH  17  18
HETATM   18  C13 UNL     1       3.929   1.766  -2.350  1.00  0.00     0.054 C 
BRANCH  18  19
HETATM   19  C14 UNL     1       4.204   0.332  -2.189  1.00  0.00    -0.023 C 
HETATM   20  C15 UNL     1       4.771  -0.178  -1.145  1.00  0.00    -0.004 C 
BRANCH  20  21
HETATM   21  C16 UNL     1       5.205   0.604  -0.006  1.00  0.00    -0.002 C 
HETATM   22  C17 UNL     1       5.783   0.030   1.043  1.00  0.00     0.006 C 
BRANCH  22  23
HETATM   23  C18 UNL     1       5.977  -1.436   1.022  1.00  0.00     0.166 C 
BRANCH  23  24
HETATM   24  O1  UNL     1       7.006  -1.740   0.128  1.00  0.00    -0.390 OA
ATOM     25  H1  UNL     1       7.131  -2.682   0.115  1.00  0.00     0.210 HD
ENDBRANCH  23  24
BRANCH  23  26
HETATM   26  C19 UNL     1       6.435  -1.942   2.379  1.00  0.00     0.265 C 
BRANCH  26  27
HETATM   27  N1  UNL     1       6.647  -3.368   2.256  1.00  0.00    -0.077 N 
ATOM     28  H13 UNL     1       5.830  -3.864   1.900  1.00  0.00     0.274 HD
ATOM     29  H12 UNL     1       7.288  -3.613   1.502  1.00  0.00     0.274 HD
ATOM     30  H11 UNL     1       6.955  -3.708   3.167  1.00  0.00     0.274 HD
ENDBRANCH  26  27
ENDBRANCH  23  26
ENDBRANCH  22  23
ENDBRANCH  20  21
ENDBRANCH  18  19
ENDBRANCH  17  18
ENDBRANCH   1  16
TORSDOF 12
