REMARK  12 active torsions:
REMARK  status: ('A' for Active; 'I' for Inactive)
REMARK    1  A    between atoms: N2_5  and  C3_6 
REMARK    2  A    between atoms: C3_6  and  O1_7 
REMARK    3  A    between atoms: C3_6  and  C4_9 
REMARK    4  A    between atoms: N4_13  and  C7_15 
REMARK    5  A    between atoms: C7_15  and  C8_16 
REMARK    6  A    between atoms: C8_16  and  C9_17 
REMARK    7  A    between atoms: C9_17  and  O2_19 
REMARK    8  A    between atoms: C9_17  and  C11_21 
REMARK    9  A    between atoms: N5_22  and  O3_24 
REMARK   10  A    between atoms: C12_26  and  N6_27 
REMARK   11  A    between atoms: N6_27  and  O4_29 
REMARK   12  A    between atoms: N8_33  and  N9_34 
ROOT
HETATM    1  C4  UNL     1       1.397  -1.032  -0.745  1.00  0.00     0.112 A 
HETATM    2  C5  UNL     1       0.026  -0.789  -0.586  1.00  0.00     0.104 A 
HETATM    3  N3  UNL     1      -0.624  -1.386   0.544  1.00  0.00    -0.098 NA
HETATM    4  C6  UNL     1      -0.623   0.002  -1.508  1.00  0.00     0.087 A 
HETATM    5  N4  UNL     1      -1.824   0.286  -1.477  1.00  0.00    -0.386 N 
ATOM      6  H4  UNL     1      -2.041   0.883  -2.275  1.00  0.00     0.159 HD
HETATM    7  C12 UNL     1       0.153   0.523  -2.571  1.00  0.00     0.125 A 
HETATM    8  C13 UNL     1       1.486   0.264  -2.692  1.00  0.00     0.168 A 
HETATM    9  N7  UNL     1       2.289   0.771  -3.744  1.00  0.00    -0.078 NA
HETATM   10  N8  UNL     1       2.099  -0.520  -1.766  1.00  0.00    -0.244 N 
ENDROOT
BRANCH   1  11
HETATM   11  C3  UNL     1       2.097  -1.879   0.239  1.00  0.00     0.300 C 
BRANCH  11  12
HETATM   12  N2  UNL     1       3.270  -1.240   0.809  1.00  0.00    -0.206 N 
HETATM   13  N1  UNL     1       3.249   0.019   1.163  1.00  0.00    -0.291 N 
HETATM   14  C2  UNL     1       4.345   0.625   1.698  1.00  0.00     0.090 A 
ATOM     15  H1  UNL     1       2.393   0.559   1.036  1.00  0.00     0.187 HD
HETATM   16  C1  UNL     1       4.268   2.045   2.080  1.00  0.00     0.076 C 
HETATM   17  C15 UNL     1       5.523  -0.069   1.887  1.00  0.00     0.273 A 
HETATM   18  N10 UNL     1       5.528  -1.361   1.518  1.00  0.00    -0.272 N 
HETATM   19  O6  UNL     1       6.510   0.528   2.383  1.00  0.00    -0.266 OA
HETATM   20  C14 UNL     1       4.431  -1.931   0.993  1.00  0.00     0.346 A 
ATOM     21  H10 UNL     1       6.375  -1.916   1.638  1.00  0.00     0.173 HD
HETATM   22  O5  UNL     1       4.401  -3.147   0.634  1.00  0.00    -0.245 OA
ENDBRANCH  11  12
BRANCH  11  23
HETATM   23  O1  UNL     1       2.426  -3.117  -0.307  1.00  0.00    -0.369 OA
ATOM     24  H1  UNL     1       1.659  -3.535  -0.680  1.00  0.00     0.212 HD
ENDBRANCH  11  23
ENDBRANCH   1  11
BRANCH  10  25
HETATM   25  N9  UNL     1       3.460  -0.795  -1.873  1.00  0.00    -0.337 N 
ATOM     26  H92 UNL     1       3.920  -1.383  -1.178  1.00  0.00     0.177 HD
ATOM     27  H91 UNL     1       3.994  -0.405  -2.650  1.00  0.00     0.177 HD
ENDBRANCH  10  25
BRANCH   5  28
HETATM   28  C7  UNL     1      -2.986   0.081  -0.741  1.00  0.00     0.123 C 
BRANCH  28  29
HETATM   29  C8  UNL     1      -3.530   1.443  -0.304  1.00  0.00     0.062 C 
BRANCH  29  30
HETATM   30  C9  UNL     1      -4.795   1.309   0.504  1.00  0.00     0.089 C 
HETATM   31  C10 UNL     1      -4.587   0.504   1.760  1.00  0.00     0.052 C 
BRANCH  30  32
HETATM   32  O2  UNL     1      -5.180   2.595   0.873  1.00  0.00    -0.385 OA
ATOM     33  H2  UNL     1      -5.977   2.511   1.382  1.00  0.00     0.211 HD
ENDBRANCH  30  32
BRANCH  30  34
HETATM   34  C11 UNL     1      -5.901   0.744  -0.310  1.00  0.00     0.124 C 
HETATM   35  N5  UNL     1      -6.286  -0.486  -0.173  1.00  0.00    -0.281 N 
ATOM     36  H5  UNL     1      -5.819  -1.083   0.510  1.00  0.00     0.193 HD
BRANCH  35  37
HETATM   37  O3  UNL     1      -7.304  -0.998  -0.925  1.00  0.00    -0.290 OA
ATOM     38  H3  UNL     1      -7.586  -1.900  -0.825  1.00  0.00     0.244 HD
ENDBRANCH  35  37
ENDBRANCH  30  34
ENDBRANCH  29  30
ENDBRANCH  28  29
ENDBRANCH   5  28
BRANCH   7  39
HETATM   39  N6  UNL     1      -0.481   1.354  -3.556  1.00  0.00    -0.264 N 
ATOM     40  H6  UNL     1      -0.668   0.953  -4.475  1.00  0.00     0.194 HD
BRANCH  39  41
HETATM   41  O4  UNL     1      -0.811   2.519  -3.356  1.00  0.00    -0.289 OA
ATOM     42  H4  UNL     1      -1.230   3.069  -4.008  1.00  0.00     0.244 HD
ENDBRANCH  39  41
ENDBRANCH   7  39
TORSDOF 12
