REMARK  12 active torsions:
REMARK  status: ('A' for Active; 'I' for Inactive)
REMARK    1  A    between atoms: S1_2  and  C2_3 
REMARK    2  A    between atoms: C2_3  and  C3_4 
REMARK    3  A    between atoms: C4_6  and  C5_7 
REMARK    4  A    between atoms: C4_6  and  C9_27 
REMARK    5  A    between atoms: C5_7  and  N1_8 
REMARK    6  A    between atoms: N1_8  and  C6_10 
REMARK    7  A    between atoms: C7_13  and  N3_14 
REMARK    8  A    between atoms: N4_17  and  N5_18 
REMARK    9  A    between atoms: C8_21  and  N6_22 
REMARK   10  A    between atoms: C9_27  and  N9_32 
REMARK   11  A    between atoms: N8_28  and  O1_30 
REMARK   12  A    between atoms: N9_32  and  O2_34 
ROOT
HETATM    1  C5  UNL     1      -0.207  -0.194   0.375  1.00  0.00     0.197 C 
ENDROOT
BRANCH   1   2
HETATM    2  C4  UNL     1       1.011  -1.109   0.279  1.00  0.00     0.207 C 
HETATM    3  S2  UNL     1       2.256  -0.410   1.342  1.00  0.00    -0.097 SA
HETATM    4  C3  UNL     1       3.722  -0.339   0.283  1.00  0.00     0.210 C 
HETATM    5  S3  UNL     1       3.035  -1.111  -1.170  1.00  0.00     0.281 S 
HETATM    6  O3  UNL     1       1.419  -1.146  -1.003  1.00  0.00    -0.242 OA
HETATM    7  O4  UNL     1       3.670  -2.452  -1.405  1.00  0.00    -0.197 OA
HETATM    8  O5  UNL     1       3.382  -0.272  -2.393  1.00  0.00    -0.197 OA
BRANCH   4   9
HETATM    9  C2  UNL     1       4.108   1.067  -0.064  1.00  0.00     0.106 C 
BRANCH   9  10
HETATM   10  S1  UNL     1       4.491   2.082   1.371  1.00  0.00    -0.171 SA
HETATM   11  C1  UNL     1       4.934   3.748   0.754  1.00  0.00     0.089 C 
ENDBRANCH   9  10
ENDBRANCH   4   9
BRANCH   2  12
HETATM   12  C9  UNL     1       0.691  -2.484   0.743  1.00  0.00     0.170 C 
HETATM   13  N8  UNL     1      -0.457  -2.865   1.118  1.00  0.00    -0.252 N 
ATOM     14  H8  UNL     1      -1.233  -2.203   1.111  1.00  0.00     0.195 HD
BRANCH  13  15
HETATM   15  O1  UNL     1      -0.672  -4.152   1.533  1.00  0.00    -0.288 OA
ATOM     16  H1  UNL     1      -1.533  -4.438   1.814  1.00  0.00     0.244 HD
ENDBRANCH  13  15
BRANCH  12  17
HETATM   17  N9  UNL     1       1.756  -3.418   0.761  1.00  0.00    -0.252 N 
ATOM     18  H9  UNL     1       1.817  -4.148   0.051  1.00  0.00     0.195 HD
BRANCH  17  19
HETATM   19  O2  UNL     1       2.687  -3.328   1.730  1.00  0.00    -0.288 OA
ATOM     20  H2  UNL     1       3.401  -3.954   1.742  1.00  0.00     0.244 HD
ENDBRANCH  17  19
ENDBRANCH  12  17
ENDBRANCH   2  12
ENDBRANCH   1   2
BRANCH   1  21
HETATM   21  N1  UNL     1      -1.296  -0.663  -0.443  1.00  0.00    -0.221 N 
ATOM     22  H1  UNL     1      -1.182  -1.515  -0.992  1.00  0.00     0.177 HD
BRANCH  21  23
HETATM   23  C6  UNL     1      -2.514   0.039  -0.495  1.00  0.00     0.707 A 
HETATM   24  N2  UNL     1      -3.526  -0.405  -1.262  1.00  0.00    -0.020 N 
HETATM   25  C7  UNL     1      -4.710   0.208  -1.362  1.00  0.00     0.726 A 
ATOM     26  H2  UNL     1      -3.382  -1.260  -1.799  1.00  0.00     0.203 HD
HETATM   27  N4  UNL     1      -4.914   1.344  -0.655  1.00  0.00     0.084 N 
HETATM   28  C8  UNL     1      -3.928   1.822   0.124  1.00  0.00     0.726 A 
HETATM   29  N7  UNL     1      -2.755   1.171   0.192  1.00  0.00    -0.020 N 
ATOM     30  H7  UNL     1      -2.018   1.549   0.787  1.00  0.00     0.203 HD
BRANCH  25  31
HETATM   31  N3  UNL     1      -5.609  -0.300  -2.123  1.00  0.00    -0.232 N 
ATOM     32  H32 UNL     1      -5.455  -1.156  -2.656  1.00  0.00     0.174 HD
ATOM     33  H31 UNL     1      -6.512   0.168  -2.199  1.00  0.00     0.174 HD
ENDBRANCH  25  31
BRANCH  27  34
HETATM   34  N5  UNL     1      -6.153   1.954  -0.781  1.00  0.00    -0.309 N 
ATOM     35  H52 UNL     1      -6.901   1.591  -1.372  1.00  0.00     0.178 HD
ATOM     36  H51 UNL     1      -6.307   2.810  -0.248  1.00  0.00     0.178 HD
ENDBRANCH  27  34
BRANCH  28  37
HETATM   37  N6  UNL     1      -4.125   2.919   0.807  1.00  0.00    -0.232 N 
ATOM     38  H62 UNL     1      -5.016   3.413   0.755  1.00  0.00     0.174 HD
ATOM     39  H61 UNL     1      -3.377   3.282   1.398  1.00  0.00     0.174 HD
ENDBRANCH  28  37
ENDBRANCH  21  23
ENDBRANCH   1  21
TORSDOF 12
