REMARK  2 active torsions:
REMARK  status: ('A' for Active; 'I' for Inactive)
REMARK    1  A    between atoms: C3_3  and  C4_4 
REMARK    2  A    between atoms: C4_4  and  C5_6 
ROOT
HETATM    1  C1  UNL     1       2.951  -0.992  -0.503  1.00  0.00     0.112 C 
HETATM    2  C2  UNL     1       1.627  -0.369  -0.440  1.00  0.00    -0.102 C 
HETATM    3  C3  UNL     1       0.515   0.135  -0.376  1.00  0.00    -0.019 C 
ENDROOT
BRANCH   3   4
HETATM    4  C4  UNL     1      -0.798   0.706  -0.295  1.00  0.00     0.289 C 
HETATM    5  O1  UNL     1      -1.151   1.572  -1.108  1.00  0.00    -0.273 OA
BRANCH   4   6
HETATM    6  C5  UNL     1      -1.680   0.237   0.760  1.00  0.00     0.313 C 
HETATM    7  N1  UNL     1      -2.988   0.774   0.879  1.00  0.00    -0.054 NA
HETATM    8  O2  UNL     1      -1.330  -0.638   1.585  1.00  0.00    -0.267 OA
ENDBRANCH   4   6
ENDBRANCH   3   4
TORSDOF 2
