REMARK  3 active torsions:
REMARK  status: ('A' for Active; 'I' for Inactive)
REMARK    1  A    between atoms: C2_2  and  C3_3 
REMARK    2  A    between atoms: C3_3  and  N1_4 
REMARK    3  A    between atoms: C3_3  and  C5_8 
ROOT
HETATM    1  C3  UNL     1      -0.047  -0.253  -0.523  1.00  0.00     0.295 C 
ENDROOT
BRANCH   1   2
HETATM    2  C2  UNL     1       0.218   0.937   0.293  1.00  0.00     0.005 C 
HETATM    3  C1  UNL     1       0.738   2.037  -0.263  1.00  0.00     0.009 C 
ENDBRANCH   1   2
BRANCH   1   4
HETATM    4  N1  UNL     1      -1.148  -1.049   0.018  1.00  0.00    -0.063 N 
HETATM    5  C4  UNL     1      -2.406  -0.383   0.051  1.00  0.00     0.268 C 
ATOM      6  H12 UNL     1      -1.228  -1.931  -0.488  1.00  0.00     0.278 HD
ATOM      7  H11 UNL     1      -0.909  -1.399   0.946  1.00  0.00     0.278 HD
ENDBRANCH   1   4
BRANCH   1   8
HETATM    8  C5  UNL     1       1.097  -1.169  -0.692  1.00  0.00     0.265 C 
HETATM    9  N2  UNL     1       2.440  -0.701  -0.678  1.00  0.00    -0.060 NA
HETATM   10  O1  UNL     1       0.840  -2.414  -0.847  1.00  0.00    -0.274 OA
ENDBRANCH   1   8
TORSDOF 3
