REMARK  1 active torsions:
REMARK  status: ('A' for Active; 'I' for Inactive)
REMARK       I    between atoms: C1_2  and  N2_4 
REMARK    1  A    between atoms: N2_4  and  C2_6 
ROOT
HETATM    1  N1  UNL     1       3.320   0.566  -0.130  1.00  0.00    -0.040 NA
HETATM    2  C1  UNL     1       2.095   0.344   0.546  1.00  0.00     0.329 C 
HETATM    3  O1  UNL     1       2.082   0.335   1.810  1.00  0.00    -0.251 OA
HETATM    4  N2  UNL     1       0.884   0.133  -0.171  1.00  0.00    -0.341 N 
ATOM      5  H2  UNL     1       0.921   0.145  -1.190  1.00  0.00     0.164 HD
ENDROOT
BRANCH   4   6
HETATM    6  C2  UNL     1      -0.382  -0.095   0.455  1.00  0.00     0.085 A 
HETATM    7  C3  UNL     1      -1.495   0.825  -0.032  1.00  0.00     0.025 A 
HETATM    8  C4  UNL     1      -2.308  -0.375  -0.449  1.00  0.00     0.004 A 
HETATM    9  C5  UNL     1      -1.170  -1.274  -0.015  1.00  0.00     0.025 A 
ENDBRANCH   4   6
TORSDOF 1
