REMARK  2 active torsions:
REMARK  status: ('A' for Active; 'I' for Inactive)
REMARK    1  A    between atoms: C2_2  and  N1_4 
REMARK       I    between atoms: N1_4  and  C4_6 
REMARK    2  A    between atoms: C4_6  and  C5_8 
ROOT
HETATM    1  N1  UNL     1       0.278  -0.057   0.184  1.00  0.00    -0.353 N 
ATOM      2  H1  UNL     1       0.367   0.586   0.971  1.00  0.00     0.163 HD
HETATM    3  C4  UNL     1       1.444  -0.628  -0.334  1.00  0.00     0.256 C 
HETATM    4  O1  UNL     1       1.372  -1.421  -1.296  1.00  0.00    -0.267 OA
ENDROOT
BRANCH   3   5
HETATM    5  C5  UNL     1       2.741  -0.319   0.224  1.00  0.00     0.155 C 
HETATM    6  N2  UNL     1       3.813  -0.843  -0.249  1.00  0.00    -0.404 N 
ATOM      7  H22 UNL     1       3.730  -1.488  -1.035  1.00  0.00     0.155 HD
ATOM      8  H21 UNL     1       4.728  -0.625   0.145  1.00  0.00     0.155 HD
ENDBRANCH   3   5
BRANCH   1   9
HETATM    9  C2  UNL     1      -1.054  -0.326  -0.333  1.00  0.00     0.076 C 
HETATM   10  C1  UNL     1      -1.838  -0.957   0.822  1.00  0.00     0.032 C 
HETATM   11  C3  UNL     1      -1.779   0.917  -0.737  1.00  0.00     0.032 C 
ENDBRANCH   1   9
TORSDOF 2
