REMARK  6 active torsions:
REMARK  status: ('A' for Active; 'I' for Inactive)
REMARK    1  A    between atoms: N1_1  and  C1_4 
REMARK    2  A    between atoms: C2_7  and  N3_8 
REMARK    3  A    between atoms: N3_8  and  N4_10 
REMARK    4  A    between atoms: N4_10  and  O1_12 
REMARK    5  A    between atoms: C4_17  and  S1_18 
REMARK    6  A    between atoms: S1_18  and  N6_19 
ROOT
HETATM    1  C1  UNL     1      -0.149   0.084   1.038  1.00  0.00     0.139 A 
HETATM    2  N2  UNL     1      -1.471  -0.145   0.812  1.00  0.00    -0.174 N 
ATOM      3  H2  UNL     1      -2.115  -0.141   1.603  1.00  0.00     0.186 HD
HETATM    4  C2  UNL     1      -1.955  -0.377  -0.421  1.00  0.00     0.699 A 
HETATM    5  N5  UNL     1      -1.076  -0.374  -1.436  1.00  0.00    -0.199 N 
ATOM      6  H5  UNL     1      -1.422  -0.547  -2.380  1.00  0.00     0.183 HD
HETATM    7  C3  UNL     1       0.240  -0.153  -1.265  1.00  0.00     0.135 A 
HETATM    8  C4  UNL     1       0.752   0.086  -0.007  1.00  0.00     0.139 A 
ENDROOT
BRANCH   4   9
HETATM    9  N3  UNL     1      -3.220  -0.594  -0.624  1.00  0.00    -0.112 N 
ATOM     10  H3  UNL     1      -3.548  -0.765  -1.574  1.00  0.00     0.207 HD
BRANCH   9  11
HETATM   11  N4  UNL     1      -4.142  -0.599   0.426  1.00  0.00    -0.196 N 
ATOM     12  H4  UNL     1      -4.535  -1.488   0.736  1.00  0.00     0.216 HD
BRANCH  11  13
HETATM   13  O1  UNL     1      -4.500   0.459   0.998  1.00  0.00    -0.274 OA
ATOM     14  H1  UNL     1      -5.127   0.456   1.712  1.00  0.00     0.246 HD
ENDBRANCH  11  13
ENDBRANCH   9  11
ENDBRANCH   4   9
BRANCH   1  15
HETATM   15  N1  UNL     1       0.317   0.307   2.222  1.00  0.00    -0.384 N 
ATOM     16  H12 UNL     1      -0.349   0.306   2.995  1.00  0.00     0.157 HD
ATOM     17  H11 UNL     1       1.308   0.479   2.391  1.00  0.00     0.157 HD
ENDBRANCH   1  15
BRANCH   8  18
HETATM   18  S1  UNL     1       2.454   0.381   0.283  1.00  0.00     0.261 S 
HETATM   19  O2  UNL     1       2.667   1.719   0.946  1.00  0.00    -0.201 OA
HETATM   20  O3  UNL     1       2.959  -0.676   1.228  1.00  0.00    -0.201 OA
BRANCH  18  21
HETATM   21  N6  UNL     1       3.379   0.338  -1.139  1.00  0.00    -0.324 N 
ATOM     22  H62 UNL     1       2.972   0.158  -2.057  1.00  0.00     0.169 HD
ATOM     23  H61 UNL     1       4.370   0.510  -0.970  1.00  0.00     0.169 HD
ENDBRANCH  18  21
ENDBRANCH   8  18
TORSDOF 6
