REMARK  4 active torsions:
REMARK  status: ('A' for Active; 'I' for Inactive)
REMARK    1  A    between atoms: N2_3  and  C2_4 
REMARK    2  A    between atoms: N2_3  and  C3_7 
REMARK    3  A    between atoms: C2_4  and  O1_5 
REMARK    4  A    between atoms: C6_11  and  O3_12 
ROOT
HETATM    1  N1  UNL     1       2.415  -0.860  -2.213  1.00  0.00    -0.172 NA
HETATM    2  C1  UNL     1       2.215  -0.534  -1.120  1.00  0.00     0.185 C 
HETATM    3  N2  UNL     1       1.981  -0.139   0.196  1.00  0.00    -0.252 N 
ENDROOT
BRANCH   3   4
HETATM    4  C2  UNL     1       3.012   0.592   0.894  1.00  0.00     0.305 C 
BRANCH   4   5
HETATM    5  O1  UNL     1       3.328   1.786   0.251  1.00  0.00    -0.381 OA
ATOM      6  H1  UNL     1       4.006   2.267   0.710  1.00  0.00     0.211 HD
ENDBRANCH   4   5
ENDBRANCH   3   4
BRANCH   3   7
HETATM    7  C3  UNL     1       0.739  -0.466   0.825  1.00  0.00     0.352 C 
HETATM    8  O2  UNL     1       0.540  -1.888   0.887  1.00  0.00    -0.319 OA
HETATM    9  C4  UNL     1      -0.303  -2.522  -0.012  1.00  0.00     0.140 C 
HETATM   10  C5  UNL     1      -1.430  -1.914  -0.344  1.00  0.00     0.062 C 
HETATM   11  C6  UNL     1      -1.679  -0.574   0.301  1.00  0.00     0.177 A 
HETATM   12  C7  UNL     1      -2.791   0.129  -0.359  1.00  0.00     0.038 A 
HETATM   13  N3  UNL     1      -0.421   0.144   0.203  1.00  0.00    -0.308 N 
HETATM   14  C8  UNL     1      -2.730   1.271  -0.982  1.00  0.00     0.002 A 
HETATM   15  C9  UNL     1      -1.435   1.946  -1.048  1.00  0.00     0.017 A 
HETATM   16  C10 UNL     1      -0.377   1.386  -0.481  1.00  0.00     0.093 A 
BRANCH  11  17
HETATM   17  O3  UNL     1      -2.041  -0.811   1.632  1.00  0.00    -0.364 OA
ATOM     18  H3  UNL     1      -2.198   0.033   2.038  1.00  0.00     0.213 HD
ENDBRANCH  11  17
ENDBRANCH   3   7
TORSDOF 4
