REMARK  18 active torsions:
REMARK  status: ('A' for Active; 'I' for Inactive)
REMARK    1  A    between atoms: N1_1  and  C1_4 
REMARK    2  A    between atoms: C3_9  and  N4_10 
REMARK    3  A    between atoms: N4_10  and  C4_12 
REMARK    4  A    between atoms: C4_12  and  N5_13 
REMARK    5  A    between atoms: C4_12  and  O1_17 
REMARK    6  A    between atoms: C5_19  and  O2_20 
REMARK    7  A    between atoms: N6_25  and  C8_26 
REMARK    8  A    between atoms: C9_28  and  O4_29 
REMARK    9  A    between atoms: C9_28  and  C10_31 
REMARK   10  A    between atoms: C10_31  and  O5_32 
REMARK   11  A    between atoms: C11_34  and  C12_35 
REMARK   12  A    between atoms: C12_35  and  O6_36 
REMARK   13  A    between atoms: O6_36  and  C13_37 
REMARK   14  A    between atoms: C13_37  and  O7_38 
REMARK   15  A    between atoms: C13_37  and  O8_40 
REMARK   16  A    between atoms: C13_37  and  O9_42 
REMARK   17  A    between atoms: C14_44  and  O10_45 
REMARK   18  A    between atoms: C15_47  and  O11_48 
ROOT
HETATM    1  C1  UNL     1      -3.431  -2.274   1.885  1.00  0.00     0.121 C 
HETATM    2  N2  UNL     1      -4.332  -1.309   1.976  1.00  0.00    -0.328 N 
ATOM      3  H2  UNL     1      -5.084  -1.463   2.648  1.00  0.00     0.168 HD
HETATM    4  C2  UNL     1      -4.380  -0.145   1.290  1.00  0.00     0.147 C 
HETATM    5  N3  UNL     1      -5.260   0.833   1.817  1.00  0.00    -0.080 NA
HETATM    6  C3  UNL     1      -3.705   0.245   0.153  1.00  0.00     0.109 C 
HETATM    7  C5  UNL     1      -2.667  -0.473  -0.440  1.00  0.00     0.124 C 
HETATM    8  C6  UNL     1      -1.807  -1.430   0.136  1.00  0.00     0.101 A 
HETATM    9  C7  UNL     1      -2.213  -2.223   1.193  1.00  0.00     0.095 A 
HETATM   10  S1  UNL     1      -0.686  -2.896   1.119  1.00  0.00    -0.003 SA
HETATM   11  N6  UNL     1      -0.542  -1.791  -0.134  1.00  0.00    -0.282 N 
ENDROOT
BRANCH  11  12
HETATM   12  C8  UNL     1       0.531  -1.429  -1.068  1.00  0.00     0.270 C 
HETATM   13  O3  UNL     1       1.606  -2.268  -0.853  1.00  0.00    -0.324 OA
HETATM   14  C9  UNL     1       2.575  -1.780  -0.008  1.00  0.00     0.193 C 
HETATM   15  C11 UNL     1       3.280  -0.560  -0.578  1.00  0.00     0.106 C 
HETATM   16  C14 UNL     1       2.320   0.172  -1.483  1.00  0.00     0.162 C 
HETATM   17  C15 UNL     1       0.884   0.027  -1.012  1.00  0.00     0.197 C 
BRANCH  14  18
HETATM   18  O4  UNL     1       2.174  -1.601   1.293  1.00  0.00    -0.363 OA
ATOM     19  H4  UNL     1       2.843  -1.264   1.877  1.00  0.00     0.213 HD
ENDBRANCH  14  18
BRANCH  14  20
HETATM   20  C10 UNL     1       3.643  -2.877   0.050  1.00  0.00     0.233 C 
BRANCH  20  21
HETATM   21  O5  UNL     1       3.055  -4.047   0.548  1.00  0.00    -0.396 OA
ATOM     22  H5  UNL     1       3.717  -4.727   0.584  1.00  0.00     0.209 HD
ENDBRANCH  20  21
ENDBRANCH  14  20
BRANCH  15  23
HETATM   23  C12 UNL     1       3.818   0.332   0.521  1.00  0.00     0.189 C 
BRANCH  23  24
HETATM   24  O6  UNL     1       4.443   1.417  -0.090  1.00  0.00    -0.308 OA
BRANCH  24  25
HETATM   25  C13 UNL     1       4.981   2.313   0.815  1.00  0.00     0.409 C 
BRANCH  25  26
HETATM   26  O7  UNL     1       5.570   3.340   0.075  1.00  0.00    -0.319 OA
ATOM     27  H7  UNL     1       5.940   3.956   0.697  1.00  0.00     0.218 HD
ENDBRANCH  25  26
BRANCH  25  28
HETATM   28  O8  UNL     1       4.071   2.842   1.698  1.00  0.00    -0.319 OA
ATOM     29  H8  UNL     1       4.441   3.458   2.320  1.00  0.00     0.218 HD
ENDBRANCH  25  28
BRANCH  25  30
HETATM   30  O9  UNL     1       6.011   1.680   1.534  1.00  0.00    -0.319 OA
ATOM     31  H9  UNL     1       6.381   2.296   2.156  1.00  0.00     0.218 HD
ENDBRANCH  25  30
ENDBRANCH  24  25
ENDBRANCH  23  24
ENDBRANCH  15  23
BRANCH  16  32
HETATM   32  O10 UNL     1       2.672   1.501  -1.678  1.00  0.00    -0.392 OA
ATOM     33  H10 UNL     1       2.068   1.962  -2.248  1.00  0.00     0.210 HD
ENDBRANCH  16  32
BRANCH  17  34
HETATM   34  O11 UNL     1       0.661   0.612   0.212  1.00  0.00    -0.389 OA
ATOM     35  H11 UNL     1       0.885   1.535   0.247  1.00  0.00     0.210 HD
ENDBRANCH  17  34
ENDBRANCH  11  12
BRANCH   7  36
HETATM   36  O2  UNL     1      -2.511  -0.158  -1.777  1.00  0.00    -0.356 OA
ATOM     37  H2  UNL     1      -1.804  -0.647  -2.181  1.00  0.00     0.218 HD
ENDBRANCH   7  36
BRANCH   6  38
HETATM   38  N4  UNL     1      -4.101   1.483  -0.467  1.00  0.00    -0.337 N 
ATOM     39  H4  UNL     1      -3.639   2.342  -0.169  1.00  0.00     0.164 HD
BRANCH  38  40
HETATM   40  C4  UNL     1      -5.102   1.571  -1.473  1.00  0.00     0.424 C 
BRANCH  40  41
HETATM   41  N5  UNL     1      -5.255   2.953  -1.879  1.00  0.00    -0.035 N 
ATOM     42  H53 UNL     1      -5.447   3.569  -1.089  1.00  0.00     0.279 HD
ATOM     43  H52 UNL     1      -4.372   3.368  -2.176  1.00  0.00     0.279 HD
ATOM     44  H51 UNL     1      -5.973   3.016  -2.601  1.00  0.00     0.279 HD
ENDBRANCH  40  41
BRANCH  40  45
HETATM   45  O1  UNL     1      -6.355   1.163  -0.974  1.00  0.00    -0.355 OA
ATOM     46  H1  UNL     1      -7.024   1.222  -1.646  1.00  0.00     0.213 HD
ENDBRANCH  40  45
ENDBRANCH  38  40
ENDBRANCH   6  38
BRANCH   1  47
HETATM   47  N1  UNL     1      -3.652  -3.396   2.481  1.00  0.00    -0.384 N 
ATOM     48  H12 UNL     1      -4.538  -3.433   2.985  1.00  0.00     0.157 HD
ATOM     49  H11 UNL     1      -2.958  -4.140   2.411  1.00  0.00     0.157 HD
ENDBRANCH   1  47
TORSDOF 18
