REMARK  18 active torsions:
REMARK  status: ('A' for Active; 'I' for Inactive)
REMARK    1  A    between atoms: N1_1  and  C1_5 
REMARK    2  A    between atoms: C1_5  and  O1_6 
REMARK    3  A    between atoms: C1_5  and  C2_8 
REMARK    4  A    between atoms: C3_9  and  N2_10 
REMARK    5  A    between atoms: N2_10  and  O2_12 
REMARK    6  A    between atoms: C4_14  and  O3_15 
REMARK    7  A    between atoms: C5_17  and  N3_18 
REMARK    8  A    between atoms: N3_18  and  C6_20 
REMARK    9  A    between atoms: C7_22  and  O5_23 
REMARK   10  A    between atoms: O5_23  and  C8_24 
REMARK   11  A    between atoms: C9_26  and  C10_27 
REMARK   12  A    between atoms: C10_27  and  O7_28 
REMARK   13  A    between atoms: C11_30  and  O8_31 
REMARK   14  A    between atoms: C12_33  and  O9_34 
REMARK   15  A    between atoms: C13_36  and  O10_37 
REMARK   16  A    between atoms: C14_39  and  O11_40 
REMARK   17  A    between atoms: C15_42  and  O12_43 
REMARK   18  A    between atoms: C18_48  and  O14_49 
ROOT
HETATM    1  C6  UNL     1       0.567   1.235  -0.783  1.00  0.00     0.256 C 
HETATM    2  O4  UNL     1      -0.457   0.317  -0.594  1.00  0.00    -0.332 OA
HETATM    3  C7  UNL     1      -1.428   0.939   0.139  1.00  0.00     0.297 C 
HETATM    4  C14 UNL     1      -0.835   2.089   0.857  1.00  0.00     0.206 C 
HETATM    5  C15 UNL     1       0.617   2.055   0.478  1.00  0.00     0.200 C 
ENDROOT
BRANCH   1   6
HETATM    6  N3  UNL     1       1.800   0.733  -1.252  1.00  0.00    -0.359 N 
ATOM      7  H3  UNL     1       2.145   1.107  -2.136  1.00  0.00     0.162 HD
BRANCH   6   8
HETATM    8  C5  UNL     1       2.602  -0.239  -0.612  1.00  0.00     0.070 C 
HETATM    9  C4  UNL     1       3.779  -0.602  -1.288  1.00  0.00     0.121 C 
HETATM   10  C3  UNL     1       5.006  -0.953  -0.743  1.00  0.00     0.103 C 
HETATM   11  C2  UNL     1       5.322  -1.117   0.578  1.00  0.00     0.066 C 
HETATM   12  C18 UNL     1       4.419  -1.402   1.604  1.00  0.00     0.129 C 
HETATM   13  C17 UNL     1       3.043  -1.230   1.587  1.00  0.00     0.207 C 
HETATM   14  C16 UNL     1       2.186  -0.740   0.603  1.00  0.00     0.089 C 
HETATM   15  O13 UNL     1       2.440  -1.567   2.630  1.00  0.00    -0.285 OA
BRANCH   9  16
HETATM   16  O3  UNL     1       3.716  -0.612  -2.655  1.00  0.00    -0.356 OA
ATOM     17  H3  UNL     1       2.876  -0.372  -3.028  1.00  0.00     0.218 HD
ENDBRANCH   9  16
BRANCH  10  18
HETATM   18  N2  UNL     1       6.063  -1.168  -1.660  1.00  0.00    -0.266 N 
ATOM     19  H2  UNL     1       6.618  -0.385  -2.005  1.00  0.00     0.194 HD
BRANCH  18  20
HETATM   20  O2  UNL     1       6.324  -2.433  -2.072  1.00  0.00    -0.289 OA
ATOM     21  H2  UNL     1       7.033  -2.577  -2.687  1.00  0.00     0.244 HD
ENDBRANCH  18  20
ENDBRANCH  10  18
BRANCH  11  22
HETATM   22  C1  UNL     1       6.705  -1.000   1.045  1.00  0.00     0.356 C 
BRANCH  22  23
HETATM   23  N1  UNL     1       6.685  -0.189   2.262  1.00  0.00    -0.049 N 
ATOM     24  H13 UNL     1       7.613  -0.068   2.668  1.00  0.00     0.277 HD
ATOM     25  H12 UNL     1       6.485   0.794   2.075  1.00  0.00     0.277 HD
ATOM     26  H11 UNL     1       6.023  -0.606   2.916  1.00  0.00     0.277 HD
ENDBRANCH  22  23
BRANCH  22  27
HETATM   27  O1  UNL     1       7.594  -0.440   0.167  1.00  0.00    -0.366 OA
ATOM     28  H1  UNL     1       7.607  -0.967  -0.623  1.00  0.00     0.212 HD
ENDBRANCH  22  27
ENDBRANCH  11  22
BRANCH  12  29
HETATM   29  O14 UNL     1       4.971  -1.918   2.773  1.00  0.00    -0.356 OA
ATOM     30  H14 UNL     1       4.357  -2.112   3.471  1.00  0.00     0.218 HD
ENDBRANCH  12  29
ENDBRANCH   6   8
ENDBRANCH   1   6
BRANCH   5  31
HETATM   31  O12 UNL     1       1.114   3.343   0.230  1.00  0.00    -0.388 OA
ATOM     32  H12 UNL     1       1.146   3.861   1.026  1.00  0.00     0.210 HD
ENDBRANCH   5  31
BRANCH   3  33
HETATM   33  O5  UNL     1      -2.545   1.277  -0.624  1.00  0.00    -0.326 OA
BRANCH  33  34
HETATM   34  C8  UNL     1      -3.659   0.611  -0.205  1.00  0.00     0.294 C 
HETATM   35  O6  UNL     1      -4.212  -0.222  -1.175  1.00  0.00    -0.348 OA
HETATM   36  C9  UNL     1      -5.025  -1.148  -0.485  1.00  0.00     0.179 C 
HETATM   37  C11 UNL     1      -6.218  -0.456   0.132  1.00  0.00     0.180 C 
HETATM   38  C12 UNL     1      -6.112   1.035  -0.087  1.00  0.00     0.183 C 
HETATM   39  C13 UNL     1      -4.751   1.567   0.223  1.00  0.00     0.204 C 
BRANCH  36  40
HETATM   40  C10 UNL     1      -5.387  -2.301  -1.360  1.00  0.00     0.198 C 
BRANCH  40  41
HETATM   41  O7  UNL     1      -4.183  -2.918  -1.748  1.00  0.00    -0.398 OA
ATOM     42  H7  UNL     1      -4.413  -3.652  -2.305  1.00  0.00     0.209 HD
ENDBRANCH  40  41
ENDBRANCH  36  40
BRANCH  37  43
HETATM   43  O8  UNL     1      -6.298  -0.672   1.507  1.00  0.00    -0.390 OA
ATOM     44  H8  UNL     1      -7.048  -0.237   1.895  1.00  0.00     0.210 HD
ENDBRANCH  37  43
BRANCH  38  45
HETATM   45  O9  UNL     1      -6.407   1.266  -1.441  1.00  0.00    -0.390 OA
ATOM     46  H9  UNL     1      -6.340   2.204  -1.579  1.00  0.00     0.210 HD
ENDBRANCH  38  45
BRANCH  39  47
HETATM   47  O10 UNL     1      -4.633   1.747   1.613  1.00  0.00    -0.388 OA
ATOM     48  H10 UNL     1      -5.319   2.347   1.882  1.00  0.00     0.210 HD
ENDBRANCH  39  47
ENDBRANCH  33  34
ENDBRANCH   3  33
BRANCH   4  49
HETATM   49  O11 UNL     1      -1.345   3.310   0.405  1.00  0.00    -0.388 OA
ATOM     50  H11 UNL     1      -0.964   4.048   0.866  1.00  0.00     0.210 HD
ENDBRANCH   4  49
TORSDOF 18
