REMARK  13 active torsions:
REMARK  status: ('A' for Active; 'I' for Inactive)
REMARK    1  A    between atoms: N1_1  and  C1_4 
REMARK    2  A    between atoms: C2_7  and  N3_8 
REMARK    3  A    between atoms: N4_11  and  O1_12 
REMARK    4  A    between atoms: N7_21  and  C7_22 
REMARK    5  A    between atoms: C8_25  and  C9_26 
REMARK    6  A    between atoms: C9_26  and  N9_27 
REMARK    7  A    between atoms: N9_27  and  O3_28 
REMARK    8  A    between atoms: O3_28  and  C10_29 
REMARK    9  A    between atoms: C10_29  and  C11_30 
REMARK   10  A    between atoms: C11_30  and  O4_31 
REMARK   11  A    between atoms: C11_30  and  N10_33 
REMARK       I    between atoms: N10_33  and  C12_35 
REMARK       I    between atoms: C12_35  and  N11_36 
REMARK       I    between atoms: C12_35  and  N12_40 
REMARK   12  A    between atoms: C13_44  and  O5_45 
REMARK   13  A    between atoms: C14_47  and  O6_48 
ROOT
HETATM    1  C7  UNL     1      -1.042   0.482  -0.090  1.00  0.00     0.286 C 
HETATM    2  O2  UNL     1      -0.502   0.523  -1.368  1.00  0.00    -0.257 OA
HETATM    3  N8  UNL     1       0.126  -0.696  -1.566  1.00  0.00    -0.089 NA
HETATM    4  C8  UNL     1       1.260  -0.735  -0.725  1.00  0.00     0.154 C 
HETATM    5  C13 UNL     1       0.996  -0.518   0.737  1.00  0.00     0.174 C 
HETATM    6  C14 UNL     1       0.087   0.696   0.909  1.00  0.00     0.199 C 
ENDROOT
BRANCH   1   7
HETATM    7  N7  UNL     1      -2.138   1.358   0.118  1.00  0.00    -0.295 N 
HETATM    8  C6  UNL     1      -2.169   2.703   0.305  1.00  0.00     0.188 A 
HETATM    9  N6  UNL     1      -3.467   3.067   0.457  1.00  0.00    -0.347 N 
HETATM   10  C5  UNL     1      -4.254   1.955   0.367  1.00  0.00     0.105 A 
ATOM     11  H6  UNL     1      -3.801   4.018   0.613  1.00  0.00     0.167 HD
HETATM   12  C4  UNL     1      -5.617   1.763   0.440  1.00  0.00     0.109 A 
HETATM   13  C15 UNL     1      -3.424   0.908   0.157  1.00  0.00     0.140 A 
HETATM   14  C3  UNL     1      -6.164   0.491   0.295  1.00  0.00     0.138 A 
HETATM   15  N5  UNL     1      -6.488   2.824   0.676  1.00  0.00    -0.097 NA
HETATM   16  N4  UNL     1      -7.455   0.258   0.331  1.00  0.00    -0.049 N 
HETATM   17  C16 UNL     1      -5.279  -0.552   0.086  1.00  0.00     0.110 A 
HETATM   18  C2  UNL     1      -7.982  -0.968   0.171  1.00  0.00     0.704 A 
HETATM   19  N2  UNL     1      -7.175  -2.042  -0.038  1.00  0.00    -0.173 N 
HETATM   20  C1  UNL     1      -5.837  -1.808  -0.076  1.00  0.00     0.144 A 
ATOM     21  H2  UNL     1      -7.556  -2.980  -0.161  1.00  0.00     0.186 HD
HETATM   22  N13 UNL     1      -3.944  -0.328   0.022  1.00  0.00    -0.335 N 
ATOM     23  H13 UNL     1      -3.316  -1.116  -0.133  1.00  0.00     0.168 HD
BRANCH  16  24
HETATM   24  O1  UNL     1      -8.308   1.342   0.544  1.00  0.00    -0.269 OA
ATOM     25  H1  UNL     1      -7.935   2.209   0.657  1.00  0.00     0.245 HD
ENDBRANCH  16  24
BRANCH  18  26
HETATM   26  N3  UNL     1      -9.246  -1.182   0.192  1.00  0.00    -0.232 N 
ATOM     27  H32 UNL     1      -9.646  -2.112   0.071  1.00  0.00     0.174 HD
ATOM     28  H31 UNL     1      -9.851  -0.376   0.349  1.00  0.00     0.174 HD
ENDBRANCH  18  26
BRANCH  20  29
HETATM   29  N1  UNL     1      -5.007  -2.773  -0.274  1.00  0.00    -0.383 N 
ATOM     30  H12 UNL     1      -5.418  -3.699  -0.393  1.00  0.00     0.157 HD
ATOM     31  H11 UNL     1      -4.003  -2.597  -0.303  1.00  0.00     0.157 HD
ENDBRANCH  20  29
ENDBRANCH   1   7
BRANCH   6  32
HETATM   32  O6  UNL     1      -0.447   0.641   2.181  1.00  0.00    -0.388 OA
ATOM     33  H6  UNL     1       0.257   0.775   2.804  1.00  0.00     0.210 HD
ENDBRANCH   6  32
BRANCH   5  34
HETATM   34  O5  UNL     1       0.499  -1.658   1.336  1.00  0.00    -0.391 OA
ATOM     35  H5  UNL     1       0.332  -1.521   2.261  1.00  0.00     0.210 HD
ENDBRANCH   5  34
BRANCH   4  36
HETATM   36  C9  UNL     1       2.155  -1.909  -1.011  1.00  0.00     0.168 C 
BRANCH  36  37
HETATM   37  N9  UNL     1       3.278  -1.843  -0.021  1.00  0.00    -0.099 NA
BRANCH  37  38
HETATM   38  O3  UNL     1       4.169  -1.113  -0.480  1.00  0.00    -0.282 OA
BRANCH  38  39
HETATM   39  C10 UNL     1       5.473  -1.092  -0.612  1.00  0.00     0.248 C 
BRANCH  39  40
HETATM   40  C11 UNL     1       5.787   0.286  -1.264  1.00  0.00     0.242 C 
BRANCH  40  41
HETATM   41  O4  UNL     1       5.120   1.277  -0.532  1.00  0.00    -0.375 OA
ATOM     42  H4  UNL     1       5.312   2.118  -0.930  1.00  0.00     0.212 HD
ENDBRANCH  40  41
BRANCH  40  43
HETATM   43  N10 UNL     1       7.128   0.486  -1.464  1.00  0.00    -0.347 N 
HETATM   44  C12 UNL     1       8.086   0.659  -0.471  1.00  0.00     0.478 C 
HETATM   45  N11 UNL     1       7.870   1.898   0.301  1.00  0.00    -0.033 N 
HETATM   46  N12 UNL     1       8.422  -0.422   0.399  1.00  0.00    -0.033 N 
ATOM     47 3H11 UNL     1       7.823   2.712  -0.312  1.00  0.00     0.278 HD
ATOM     48 2H11 UNL     1       6.927   1.932   0.688  1.00  0.00     0.278 HD
ATOM     49 1H11 UNL     1       8.573   2.025   1.029  1.00  0.00     0.278 HD
ATOM     50 3H12 UNL     1       7.565  -0.762   0.835  1.00  0.00     0.278 HD
ATOM     51 2H12 UNL     1       8.692  -1.222  -0.173  1.00  0.00     0.278 HD
ATOM     52 1H12 UNL     1       9.125  -0.295   1.127  1.00  0.00     0.278 HD
ATOM     53  H10 UNL     1       7.453   0.510  -2.430  1.00  0.00     0.159 HD
ENDBRANCH  40  43
ENDBRANCH  39  40
ENDBRANCH  38  39
ENDBRANCH  37  38
ENDBRANCH  36  37
ENDBRANCH   4  36
TORSDOF 13
