REMARK  19 active torsions:
REMARK  status: ('A' for Active; 'I' for Inactive)
REMARK    1  A    between atoms: C2_2  and  C3_4 
REMARK    2  A    between atoms: C6_8  and  O3_9 
REMARK    3  A    between atoms: C7_11  and  O4_12 
REMARK    4  A    between atoms: C8_14  and  C9_15 
REMARK    5  A    between atoms: C9_15  and  O5_16 
REMARK    6  A    between atoms: C9_15  and  O6_18 
REMARK    7  A    between atoms: O6_18  and  C10_19 
REMARK    8  A    between atoms: C11_21  and  C12_22 
REMARK    9  A    between atoms: C12_22  and  O8_23 
REMARK   10  A    between atoms: C13_25  and  O9_26 
REMARK   11  A    between atoms: C13_25  and  C14_28 
REMARK   12  A    between atoms: C14_28  and  O10_29 
REMARK   13  A    between atoms: C15_31  and  O11_32 
REMARK   14  A    between atoms: O11_32  and  C16_33 
REMARK   15  A    between atoms: C17_37  and  N2_38 
REMARK   16  A    between atoms: N2_38  and  N3_39 
REMARK   17  A    between atoms: C18_42  and  O12_43 
REMARK   18  A    between atoms: C18_42  and  O13_45 
REMARK   19  A    between atoms: C19_47  and  O14_48 
ROOT
HETATM    1  C10 UNL     1       0.258   0.731   1.758  1.00  0.00     0.296 C 
HETATM    2  O7  UNL     1       0.631   1.703   2.707  1.00  0.00    -0.348 OA
HETATM    3  C11 UNL     1       0.502   2.930   2.085  1.00  0.00     0.187 C 
HETATM    4  C13 UNL     1       0.468   2.667   0.567  1.00  0.00     0.137 C 
HETATM    5  C15 UNL     1       1.023   1.279   0.562  1.00  0.00     0.218 C 
ENDROOT
BRANCH   1   6
HETATM    6  O6  UNL     1      -1.091   0.757   1.654  1.00  0.00    -0.325 OA
BRANCH   6   7
HETATM    7  C9  UNL     1      -1.782  -0.388   2.033  1.00  0.00     0.298 C 
BRANCH   7   8
HETATM    8  C8  UNL     1      -2.840  -0.780   1.137  1.00  0.00     0.050 A 
HETATM    9  C3  UNL     1      -2.855  -1.857   0.320  1.00  0.00     0.073 A 
HETATM   10  C4  UNL     1      -3.960  -2.168  -0.525  1.00  0.00     0.189 A 
HETATM   11  O2  UNL     1      -4.016  -3.188  -1.323  1.00  0.00    -0.287 OA
HETATM   12  C5  UNL     1      -5.072  -1.314  -0.499  1.00  0.00     0.095 A 
HETATM   13  C6  UNL     1      -5.065  -0.226   0.322  1.00  0.00     0.103 A 
HETATM   14  C7  UNL     1      -3.993   0.055   1.127  1.00  0.00     0.111 A 
BRANCH   9  15
HETATM   15  C2  UNL     1      -1.740  -2.775   0.229  1.00  0.00     0.160 C 
HETATM   16  C1  UNL     1      -1.703  -3.975  -0.665  1.00  0.00     0.097 C 
HETATM   17  O1  UNL     1      -0.718  -2.609   0.913  1.00  0.00    -0.293 OA
ENDBRANCH   9  15
BRANCH  13  18
HETATM   18  O3  UNL     1      -6.177   0.625   0.346  1.00  0.00    -0.358 OA
ATOM     19  H3  UNL     1      -6.172   1.383   0.918  1.00  0.00     0.217 HD
ENDBRANCH  13  18
BRANCH  14  20
HETATM   20  O4  UNL     1      -3.940   1.145   1.975  1.00  0.00    -0.357 OA
ATOM     21  H4  UNL     1      -3.196   1.340   2.533  1.00  0.00     0.217 HD
ENDBRANCH  14  20
ENDBRANCH   7   8
BRANCH   7  22
HETATM   22  O5  UNL     1      -2.471  -0.031   3.259  1.00  0.00    -0.367 OA
ATOM     23  H5  UNL     1      -1.773   0.227   3.850  1.00  0.00     0.213 HD
ENDBRANCH   7  22
ENDBRANCH   6   7
ENDBRANCH   1   6
BRANCH   5  24
HETATM   24  O11 UNL     1       0.911   0.538  -0.559  1.00  0.00    -0.343 OA
BRANCH  24  25
HETATM   25  C16 UNL     1       2.170   0.008  -0.869  1.00  0.00     0.358 C 
HETATM   26  N1  UNL     1       2.166  -1.439  -0.757  1.00  0.00    -0.021 N 
HETATM   27  C17 UNL     1       3.462  -1.787  -1.298  1.00  0.00     0.364 C 
ATOM     28  H12 UNL     1       1.978  -1.799   0.179  1.00  0.00     0.282 HD
ATOM     29  H11 UNL     1       1.374  -1.904  -1.200  1.00  0.00     0.282 HD
HETATM   30  C18 UNL     1       3.419  -1.003  -2.602  1.00  0.00     0.236 C 
HETATM   31  C19 UNL     1       2.659   0.274  -2.235  1.00  0.00     0.240 C 
BRANCH  27  32
HETATM   32  N2  UNL     1       3.608  -3.199  -1.516  1.00  0.00    -0.109 NA
BRANCH  32  33
HETATM   33  N3  UNL     1       3.442  -3.827  -0.264  1.00  0.00    -0.346 N 
ATOM     34  H32 UNL     1       3.254  -3.354   0.620  1.00  0.00     0.172 HD
ATOM     35  H31 UNL     1       3.546  -4.830  -0.419  1.00  0.00     0.172 HD
ENDBRANCH  32  33
ENDBRANCH  27  32
BRANCH  30  36
HETATM   36  O12 UNL     1       4.719  -0.765  -2.987  1.00  0.00    -0.361 OA
ATOM     37  H12 UNL     1       4.692  -0.276  -3.801  1.00  0.00     0.213 HD
ENDBRANCH  30  36
BRANCH  30  38
HETATM   38  O13 UNL     1       2.664  -1.647  -3.556  1.00  0.00    -0.361 OA
ATOM     39  H13 UNL     1       2.637  -1.158  -4.370  1.00  0.00     0.213 HD
ENDBRANCH  30  38
BRANCH  31  40
HETATM   40  O14 UNL     1       3.627   1.298  -2.278  1.00  0.00    -0.386 OA
ATOM     41  H14 UNL     1       3.942   1.469  -3.158  1.00  0.00     0.210 HD
ENDBRANCH  31  40
ENDBRANCH  24  25
ENDBRANCH   5  24
BRANCH   3  42
HETATM   42  C12 UNL     1      -0.705   3.696   2.540  1.00  0.00     0.199 C 
BRANCH  42  43
HETATM   43  O8  UNL     1      -0.805   4.926   1.900  1.00  0.00    -0.398 OA
ATOM     44  H8  UNL     1      -1.569   5.411   2.188  1.00  0.00     0.209 HD
ENDBRANCH  42  43
ENDBRANCH   3  42
BRANCH   4  45
HETATM   45  O9  UNL     1      -0.862   2.726   0.139  1.00  0.00    -0.382 OA
ATOM     46  H9  UNL     1      -0.883   2.564  -0.797  1.00  0.00     0.210 HD
ENDBRANCH   4  45
BRANCH   4  47
HETATM   47  C14 UNL     1       1.297   3.703  -0.115  1.00  0.00     0.207 C 
BRANCH  47  48
HETATM   48  O10 UNL     1       1.242   3.531  -1.497  1.00  0.00    -0.398 OA
ATOM     49  H10 UNL     1       1.770   4.191  -1.931  1.00  0.00     0.209 HD
ENDBRANCH  47  48
ENDBRANCH   4  47
TORSDOF 19
