REMARK  6 active torsions:
REMARK  status: ('A' for Active; 'I' for Inactive)
REMARK    1  A    between atoms: C2_2  and  C4_4 
REMARK    2  A    between atoms: C4_4  and  C5_5 
REMARK    3  A    between atoms: C9_16  and  C10_17 
REMARK    4  A    between atoms: C10_17  and  C11_18 
REMARK    5  A    between atoms: C18_31  and  C19_32 
REMARK    6  A    between atoms: C19_32  and  C20_33 
ROOT
HETATM    1  C5  UNL     1      -2.521  -2.306   1.035  1.00  0.00     0.177 C 
HETATM    2  N1  UNL     1      -1.590  -2.745   2.049  1.00  0.00    -0.340 N 
ATOM      3  H1  UNL     1      -1.917  -2.624   3.008  1.00  0.00     0.163 HD
HETATM    4  C6  UNL     1      -0.322  -3.305   1.935  1.00  0.00     0.310 C 
HETATM    5  O1  UNL     1       0.380  -3.344   3.024  1.00  0.00    -0.262 OA
HETATM    6  C7  UNL     1       0.366  -3.865   0.783  1.00  0.00     0.316 C 
HETATM    7  O2  UNL     1       0.872  -5.055   0.877  1.00  0.00    -0.262 OA
HETATM    8  N2  UNL     1       0.573  -3.266  -0.492  1.00  0.00    -0.288 N 
ATOM      9  H2  UNL     1       0.402  -3.859  -1.304  1.00  0.00     0.172 HD
HETATM   10  C8  UNL     1       0.988  -1.946  -0.759  1.00  0.00     0.247 C 
HETATM   11  O3  UNL     1       0.377  -1.374  -1.741  1.00  0.00    -0.271 OA
HETATM   12  C9  UNL     1       2.020  -1.157  -0.057  1.00  0.00     0.177 C 
HETATM   13  N3  UNL     1       1.956   0.227  -0.456  1.00  0.00    -0.346 N 
ATOM     14  H3  UNL     1       1.333   0.430  -1.238  1.00  0.00     0.163 HD
HETATM   15  C14 UNL     1       2.628   1.327   0.079  1.00  0.00     0.240 C 
HETATM   16  O4  UNL     1       3.058   2.171  -0.794  1.00  0.00    -0.271 OA
HETATM   17  C15 UNL     1       2.905   1.647   1.475  1.00  0.00     0.172 C 
HETATM   18  C16 UNL     1       4.051   2.657   1.589  1.00  0.00     0.042 C 
HETATM   19  N4  UNL     1       1.817   2.114   2.270  1.00  0.00    -0.346 N 
ATOM     20  H4  UNL     1       2.063   2.365   3.228  1.00  0.00     0.163 HD
HETATM   21  C17 UNL     1       0.472   2.283   1.949  1.00  0.00     0.241 C 
HETATM   22  O5  UNL     1      -0.366   1.729   2.754  1.00  0.00    -0.271 OA
HETATM   23  C18 UNL     1      -0.112   3.014   0.810  1.00  0.00     0.177 C 
HETATM   24  N5  UNL     1      -1.540   3.189   0.998  1.00  0.00    -0.346 N 
ATOM     25  H5  UNL     1      -1.890   4.146   1.039  1.00  0.00     0.163 HD
HETATM   26  C23 UNL     1      -2.476   2.162   1.128  1.00  0.00     0.240 C 
HETATM   27  O6  UNL     1      -3.412   2.340   1.980  1.00  0.00    -0.271 OA
HETATM   28  C24 UNL     1      -2.509   0.879   0.384  1.00  0.00     0.172 C 
HETATM   29  C25 UNL     1      -2.711   1.245  -1.084  1.00  0.00     0.042 C 
HETATM   30  N6  UNL     1      -3.559   0.014   0.867  1.00  0.00    -0.346 N 
ATOM     31  H6  UNL     1      -4.514   0.344   0.727  1.00  0.00     0.163 HD
HETATM   32  C26 UNL     1      -3.420  -1.219   1.502  1.00  0.00     0.241 C 
HETATM   33  O7  UNL     1      -4.081  -1.478   2.548  1.00  0.00    -0.271 OA
ENDROOT
BRANCH   1  34
HETATM   34  C4  UNL     1      -3.443  -3.476   0.659  1.00  0.00     0.038 C 
BRANCH  34  35
HETATM   35  C2  UNL     1      -4.436  -3.076  -0.394  1.00  0.00    -0.020 C 
HETATM   36  C1  UNL     1      -5.291  -4.286  -0.697  1.00  0.00     0.009 C 
HETATM   37  C3  UNL     1      -3.860  -2.550  -1.654  1.00  0.00     0.009 C 
ENDBRANCH  34  35
ENDBRANCH   1  34
BRANCH  12  38
HETATM   38  C10 UNL     1       3.364  -1.755  -0.028  1.00  0.00     0.038 C 
BRANCH  38  39
HETATM   39  C11 UNL     1       4.059  -2.026  -1.309  1.00  0.00    -0.020 C 
HETATM   40  C12 UNL     1       5.440  -2.618  -0.922  1.00  0.00     0.009 C 
HETATM   41  C13 UNL     1       3.442  -3.180  -2.117  1.00  0.00     0.009 C 
ENDBRANCH  38  39
ENDBRANCH  12  38
BRANCH  23  42
HETATM   42  C19 UNL     1       0.548   4.383   0.654  1.00  0.00     0.038 C 
BRANCH  42  43
HETATM   43  C20 UNL     1      -0.041   5.136  -0.509  1.00  0.00    -0.020 C 
HETATM   44  C21 UNL     1       0.704   6.478  -0.548  1.00  0.00     0.009 C 
HETATM   45  C22 UNL     1       0.295   4.455  -1.821  1.00  0.00     0.009 C 
ENDBRANCH  42  43
ENDBRANCH  23  42
TORSDOF 6
