REMARK  8 active torsions:
REMARK  status: ('A' for Active; 'I' for Inactive)
REMARK    1  A    between atoms: N2_4  and  N3_6 
REMARK       I    between atoms: N3_6  and  C1_8 
REMARK    2  A    between atoms: C1_8  and  C2_10 
REMARK    3  A    between atoms: C2_10  and  O2_11 
REMARK    4  A    between atoms: C2_10  and  C3_13 
REMARK    5  A    between atoms: N4_18  and  O4_19 
REMARK    6  A    between atoms: C14_29  and  C15_30 
REMARK    7  A    between atoms: C15_30  and  C16_31 
REMARK    8  A    between atoms: C28_47  and  O5_48 
ROOT
HETATM    1  C3  UNL     1      -2.906   0.808   0.742  1.00  0.00     0.202 C 
HETATM    2  O3  UNL     1      -3.577  -0.402   0.412  1.00  0.00    -0.349 OA
HETATM    3  C4  UNL     1      -3.678  -1.710   0.289  1.00  0.00     0.153 C 
HETATM    4  C5  UNL     1      -2.703  -2.913   0.236  1.00  0.00     0.054 C 
HETATM    5  C6  UNL     1      -2.380  -3.656  -0.975  1.00  0.00     0.140 C 
HETATM    6  N4  UNL     1      -1.294  -4.189  -1.530  1.00  0.00    -0.247 N 
HETATM    7  C7  UNL     1       0.051  -4.056  -1.804  1.00  0.00     0.119 C 
HETATM    8  C8  UNL     1       1.259  -3.678  -1.183  1.00  0.00     0.003 C 
HETATM    9  C9  UNL     1       1.654  -2.960   0.011  1.00  0.00     0.076 A 
HETATM   10  C10 UNL     1       1.853  -1.452   0.486  1.00  0.00     0.091 A 
HETATM   11  C11 UNL     1       1.023  -0.636   0.677  1.00  0.00     0.049 A 
HETATM   12  C12 UNL     1       1.253  -1.920   0.595  1.00  0.00     0.105 A 
HETATM   13  N5  UNL     1       3.057  -1.529   0.278  1.00  0.00    -0.266 NA
HETATM   14  C13 UNL     1       2.748  -0.397   0.374  1.00  0.00     0.137 A 
HETATM   15  C14 UNL     1       2.150   0.811   0.523  1.00  0.00     0.018 A 
HETATM   16  N6  UNL     1       0.823   0.635   0.754  1.00  0.00    -0.330 N 
HETATM   17  C22 UNL     1      -0.321   1.449   0.852  1.00  0.00     0.108 C 
HETATM   18  C23 UNL     1      -1.564   1.129   0.165  1.00  0.00     0.014 C 
HETATM   19  C24 UNL     1      -1.385   0.721  -1.108  1.00  0.00     0.056 C 
HETATM   20  N7  UNL     1      -1.398   1.068  -2.481  1.00  0.00    -0.102 NA
HETATM   21  C25 UNL     1      -1.050  -0.604  -0.687  1.00  0.00     0.029 C 
HETATM   22  C26 UNL     1      -0.837  -1.131   0.599  1.00  0.00     0.029 C 
HETATM   23  C27 UNL     1       0.057  -2.167   0.805  1.00  0.00     0.041 C 
HETATM   24  N8  UNL     1      -0.618  -3.328   1.268  1.00  0.00    -0.338 N 
ATOM     25  H8  UNL     1      -0.054  -4.088   1.649  1.00  0.00     0.168 HD
HETATM   26  C28 UNL     1      -1.937  -3.487   1.236  1.00  0.00     0.154 C 
ENDROOT
BRANCH   1  27
HETATM   27  C2  UNL     1      -3.889   1.829   0.250  1.00  0.00     0.245 C 
BRANCH  27  28
HETATM   28  C1  UNL     1      -3.438   3.204   0.383  1.00  0.00     0.268 C 
HETATM   29  N3  UNL     1      -4.171   4.201   1.083  1.00  0.00    -0.254 N 
ATOM     30  H3  UNL     1      -5.058   3.942   1.515  1.00  0.00     0.191 HD
HETATM   31  O1  UNL     1      -2.353   3.552  -0.137  1.00  0.00    -0.269 OA
BRANCH  29  32
HETATM   32  N2  UNL     1      -3.730   5.517   1.204  1.00  0.00    -0.247 N 
HETATM   33  N1  UNL     1      -4.548   6.406   1.587  1.00  0.00    -0.331 N 
ATOM     34  H12 UNL     1      -5.511   6.145   1.799  1.00  0.00     0.178 HD
ATOM     35  H11 UNL     1      -4.225   7.369   1.676  1.00  0.00     0.178 HD
ATOM     36  H2  UNL     1      -2.764   5.761   0.988  1.00  0.00     0.207 HD
ENDBRANCH  29  32
ENDBRANCH  27  28
BRANCH  27  37
HETATM   37  O2  UNL     1      -5.123   1.724   0.889  1.00  0.00    -0.383 OA
ATOM     38  H2  UNL     1      -5.418   0.825   0.802  1.00  0.00     0.210 HD
ENDBRANCH  27  37
ENDBRANCH   1  27
BRANCH  26  39
HETATM   39  O5  UNL     1      -2.358  -4.238   2.267  1.00  0.00    -0.345 OA
ATOM     40  H5  UNL     1      -1.832  -4.632   2.953  1.00  0.00     0.219 HD
ENDBRANCH  26  39
BRANCH  15  41
HETATM   41  C15 UNL     1       2.793   2.102   0.450  1.00  0.00     0.093 C 
BRANCH  41  42
HETATM   42  C16 UNL     1       4.265   1.952   0.239  1.00  0.00    -0.053 A 
HETATM   43  C17 UNL     1       5.143   1.935   1.291  1.00  0.00     0.007 A 
HETATM   44  C18 UNL     1       6.475   1.774   0.990  1.00  0.00     0.001 A 
HETATM   45  C19 UNL     1       6.866   1.638  -0.340  1.00  0.00     0.000 A 
HETATM   46  C20 UNL     1       5.976   1.657  -1.390  1.00  0.00     0.001 A 
HETATM   47  C21 UNL     1       4.652   1.817  -1.088  1.00  0.00     0.007 A 
ENDBRANCH  41  42
ENDBRANCH  15  41
BRANCH   6  48
HETATM   48  O4  UNL     1      -1.751  -5.430  -2.092  1.00  0.00    -0.284 OA
ATOM     49  H4  UNL     1      -0.976  -5.810  -2.488  1.00  0.00     0.245 HD
ENDBRANCH   6  48
TORSDOF 8
