REMARK  7 active torsions:
REMARK  status: ('A' for Active; 'I' for Inactive)
REMARK    1  A    between atoms: C2_2  and  C4_4 
REMARK    2  A    between atoms: C4_4  and  C5_5 
REMARK    3  A    between atoms: C6_8  and  O1_9 
REMARK    4  A    between atoms: C7_11  and  O2_12 
REMARK    5  A    between atoms: C9_18  and  C10_19 
REMARK    6  A    between atoms: C17_32  and  C18_33 
REMARK    7  A    between atoms: C18_33  and  C19_34 
ROOT
HETATM    1  C5  UNL     1       2.946  -1.880  -0.347  1.00  0.00     0.176 C 
HETATM    2  N1  UNL     1       2.521  -3.200  -0.715  1.00  0.00    -0.354 N 
ATOM      3  H1  UNL     1       2.632  -3.372  -1.714  1.00  0.00     0.162 HD
HETATM    4  C6  UNL     1       1.998  -4.299  -0.056  1.00  0.00     0.189 C 
HETATM    5  C7  UNL     1       0.674  -4.695   0.392  1.00  0.00     0.194 C 
HETATM    6  N2  UNL     1      -0.584  -4.600  -0.249  1.00  0.00    -0.302 N 
ATOM      7  H2  UNL     1      -1.079  -5.485  -0.357  1.00  0.00     0.171 HD
HETATM    8  C8  UNL     1      -1.256  -3.482  -0.759  1.00  0.00     0.246 C 
HETATM    9  O3  UNL     1      -1.573  -3.437  -1.969  1.00  0.00    -0.271 OA
HETATM   10  C9  UNL     1      -1.653  -2.261   0.068  1.00  0.00     0.180 C 
HETATM   11  N3  UNL     1      -1.634  -1.131  -0.819  1.00  0.00    -0.346 N 
ATOM     12  H3  UNL     1      -0.689  -0.867  -1.097  1.00  0.00     0.163 HD
HETATM   13  C13 UNL     1      -2.602  -0.316  -1.385  1.00  0.00     0.240 C 
HETATM   14  O4  UNL     1      -2.964  -0.624  -2.591  1.00  0.00    -0.271 OA
HETATM   15  C14 UNL     1      -3.333   0.871  -0.903  1.00  0.00     0.172 C 
HETATM   16  C15 UNL     1      -4.854   0.719  -1.090  1.00  0.00     0.042 C 
HETATM   17  N4  UNL     1      -2.999   2.041  -1.758  1.00  0.00    -0.346 N 
ATOM     18  H4  UNL     1      -3.595   2.242  -2.561  1.00  0.00     0.163 HD
HETATM   19  C16 UNL     1      -1.898   2.884  -1.510  1.00  0.00     0.241 C 
HETATM   20  O5  UNL     1      -1.489   3.654  -2.467  1.00  0.00    -0.271 OA
HETATM   21  C17 UNL     1      -1.110   3.019  -0.275  1.00  0.00     0.177 C 
HETATM   22  N5  UNL     1       0.298   2.913  -0.710  1.00  0.00    -0.346 N 
ATOM     23  H5  UNL     1       0.676   3.723  -1.202  1.00  0.00     0.163 HD
HETATM   24  C22 UNL     1       1.175   1.841  -0.531  1.00  0.00     0.246 C 
HETATM   25  O6  UNL     1       1.576   1.283  -1.620  1.00  0.00    -0.271 OA
HETATM   26  C23 UNL     1       1.712   1.255   0.705  1.00  0.00     0.106 C 
HETATM   27  C24 UNL     1       3.174   1.690   0.761  1.00  0.00     0.048 C 
HETATM   28  C25 UNL     1       1.120   2.030   1.917  1.00  0.00     0.048 C 
HETATM   29  N6  UNL     1       1.491  -0.136   0.923  1.00  0.00    -0.342 N 
ATOM     30  H6  UNL     1       0.540  -0.336   1.232  1.00  0.00     0.163 HD
HETATM   31  C26 UNL     1       2.260  -1.272   0.814  1.00  0.00     0.241 C 
HETATM   32  O7  UNL     1       2.425  -1.946   1.911  1.00  0.00    -0.271 OA
ENDROOT
BRANCH   1  33
HETATM   33  C4  UNL     1       4.453  -1.841  -0.148  1.00  0.00     0.038 C 
BRANCH  33  34
HETATM   34  C2  UNL     1       5.336  -2.143  -1.260  1.00  0.00    -0.020 C 
HETATM   35  C1  UNL     1       6.776  -1.998  -0.731  1.00  0.00     0.009 C 
HETATM   36  C3  UNL     1       5.277  -3.405  -2.000  1.00  0.00     0.009 C 
ENDBRANCH  33  34
ENDBRANCH   1  33
BRANCH   4  37
HETATM   37  O1  UNL     1       2.894  -5.225   0.249  1.00  0.00    -0.343 OA
ATOM     38  H1  UNL     1       2.535  -5.979   0.701  1.00  0.00     0.219 HD
ENDBRANCH   4  37
BRANCH   5  39
HETATM   39  O2  UNL     1       0.590  -5.235   1.582  1.00  0.00    -0.343 OA
ATOM     40  H2  UNL     1      -0.276  -5.494   1.875  1.00  0.00     0.219 HD
ENDBRANCH   5  39
BRANCH  10  41
HETATM   41  C10 UNL     1      -2.892  -2.535   0.827  1.00  0.00     0.009 C 
HETATM   42  C11 UNL     1      -3.322  -1.421   1.714  1.00  0.00     0.012 C 
HETATM   43  C12 UNL     1      -2.838  -3.817   1.633  1.00  0.00     0.012 C 
ENDBRANCH  10  41
BRANCH  21  44
HETATM   44  C18 UNL     1      -1.352   4.322   0.403  1.00  0.00     0.038 C 
BRANCH  44  45
HETATM   45  C19 UNL     1      -2.684   4.672   0.915  1.00  0.00    -0.020 C 
HETATM   46  C20 UNL     1      -2.558   6.082   1.602  1.00  0.00     0.009 C 
HETATM   47  C21 UNL     1      -3.836   4.761  -0.034  1.00  0.00     0.009 C 
ENDBRANCH  44  45
ENDBRANCH  21  44
TORSDOF 7
