REMARK  12 active torsions:
REMARK  status: ('A' for Active; 'I' for Inactive)
REMARK       I    between atoms: N1_2  and  C2_4 
REMARK       I    between atoms: C2_4  and  N2_6 
REMARK       I    between atoms: C3_8  and  N3_9 
REMARK       I    between atoms: C3_8  and  N6_21 
REMARK    1  A    between atoms: N3_9  and  O2_11 
REMARK    2  A    between atoms: O2_11  and  C4_12 
REMARK    3  A    between atoms: C4_12  and  C5_13 
REMARK    4  A    between atoms: C5_13  and  C6_14 
REMARK    5  A    between atoms: C6_14  and  O3_15 
REMARK    6  A    between atoms: N6_21  and  N7_23 
REMARK    7  A    between atoms: N7_23  and  C9_24 
REMARK    8  A    between atoms: C9_24  and  C10_25 
REMARK       I    between atoms: N9_27  and  C11_29 
REMARK       I    between atoms: C11_29  and  N11_31 
REMARK    9  A    between atoms: N11_31  and  C12_33 
REMARK   10  A    between atoms: C12_33  and  O4_34 
REMARK   11  A    between atoms: C12_33  and  N12_36 
REMARK   12  A    between atoms: N12_36  and  C13_38 
ROOT
HETATM    1  C4  UNL     1      -5.738   0.797  -1.341  1.00  0.00     0.158 C 
HETATM    2  N4  UNL     1      -5.374   1.858  -1.966  1.00  0.00    -0.275 N 
ATOM      3  H4  UNL     1      -4.614   2.424  -1.590  1.00  0.00     0.180 HD
HETATM    4  C8  UNL     1      -6.010   2.257  -3.170  1.00  0.00     0.183 C 
HETATM    5  N5  UNL     1      -6.553   2.583  -4.140  1.00  0.00    -0.172 NA
ENDROOT
BRANCH   1   6
HETATM    6  O2  UNL     1      -5.024   0.524  -0.165  1.00  0.00    -0.209 OA
BRANCH   6   7
HETATM    7  N3  UNL     1      -4.189   1.472   0.370  1.00  0.00    -0.088 N 
HETATM    8  C3  UNL     1      -3.132   1.026   1.212  1.00  0.00     0.726 C 
HETATM    9  N2  UNL     1      -3.448   0.245   2.189  1.00  0.00    -0.138 N 
HETATM   10  N6  UNL     1      -1.767   1.385   1.042  1.00  0.00    -0.045 N 
HETATM   11  C2  UNL     1      -4.785  -0.160   2.429  1.00  0.00     0.334 C 
ATOM     12  H2  UNL     1      -2.712  -0.092   2.809  1.00  0.00     0.189 HD
HETATM   13  N1  UNL     1      -5.748   0.635   3.095  1.00  0.00    -0.347 N 
HETATM   14  O1  UNL     1      -5.191  -1.299   2.040  1.00  0.00    -0.247 OA
HETATM   15  C1  UNL     1      -7.110   0.222   3.335  1.00  0.00     0.151 C 
ATOM     16  H1  UNL     1      -5.462   1.557   3.426  1.00  0.00     0.163 HD
ATOM     17  H6  UNL     1      -1.413   2.168   1.592  1.00  0.00     0.213 HD
ATOM     18  H3  UNL     1      -4.321   2.464   0.171  1.00  0.00     0.214 HD
BRANCH  10  19
HETATM   19  N7  UNL     1      -0.880   0.751   0.185  1.00  0.00     0.032 N 
HETATM   20  C19 UNL     1      -1.465   0.298  -1.066  1.00  0.00     0.268 C 
HETATM   21  C20 UNL     1      -1.565  -1.109  -0.582  1.00  0.00     0.060 C 
HETATM   22  C21 UNL     1      -0.595  -0.636   0.477  1.00  0.00     0.268 C 
BRANCH  19  23
HETATM   23  C9  UNL     1       0.279   1.571  -0.085  1.00  0.00     0.338 C 
BRANCH  23  24
HETATM   24  C10 UNL     1       1.575   0.870   0.234  1.00  0.00     0.123 C 
HETATM   25  N8  UNL     1       1.885   0.646   1.589  1.00  0.00    -0.086 NA
HETATM   26  N9  UNL     1       2.359   0.492  -0.682  1.00  0.00    -0.321 N 
HETATM   27  C11 UNL     1       3.595  -0.169  -0.604  1.00  0.00     0.196 C 
ATOM     28  H9  UNL     1       2.043   0.700  -1.629  1.00  0.00     0.169 HD
HETATM   29  N10 UNL     1       3.985  -0.785   0.617  1.00  0.00    -0.063 NA
HETATM   30  N11 UNL     1       4.311  -0.195  -1.624  1.00  0.00    -0.296 N 
ATOM     31  H11 UNL     1       3.885   0.289  -2.415  1.00  0.00     0.172 HD
BRANCH  30  32
HETATM   32  C12 UNL     1       5.520  -0.716  -1.923  1.00  0.00     0.238 C 
BRANCH  32  33
HETATM   33  O4  UNL     1       5.956  -0.448  -3.137  1.00  0.00    -0.332 OA
ATOM     34  H4  UNL     1       6.807  -0.815  -3.347  1.00  0.00     0.221 HD
ENDBRANCH  32  33
BRANCH  32  35
HETATM   35  N12 UNL     1       6.383  -1.502  -1.130  1.00  0.00    -0.155 N 
ATOM     36  H12 UNL     1       6.111  -2.468  -0.949  1.00  0.00     0.188 HD
BRANCH  35  37
HETATM   37  C13 UNL     1       7.483  -1.089  -0.622  1.00  0.00     0.685 A 
HETATM   38  N13 UNL     1       8.200  -1.980   0.113  1.00  0.00    -0.196 N 
HETATM   39  C14 UNL     1       9.366  -1.580   0.653  1.00  0.00     0.024 A 
ATOM     40  H13 UNL     1       7.861  -2.932   0.252  1.00  0.00     0.184 HD
HETATM   41  C15 UNL     1      10.151  -2.578   1.426  1.00  0.00     0.068 C 
HETATM   42  C16 UNL     1       9.832  -0.287   0.469  1.00  0.00     0.050 A 
HETATM   43  C17 UNL     1       9.068   0.575  -0.283  1.00  0.00     0.024 A 
HETATM   44  C18 UNL     1       9.479   1.987  -0.535  1.00  0.00     0.068 C 
HETATM   45  N14 UNL     1       7.895   0.186  -0.832  1.00  0.00    -0.196 N 
ATOM     46  H14 UNL     1       7.336   0.833  -1.388  1.00  0.00     0.184 HD
ENDBRANCH  35  37
ENDBRANCH  32  35
ENDBRANCH  30  32
ENDBRANCH  23  24
ENDBRANCH  19  23
ENDBRANCH  10  19
ENDBRANCH   6   7
ENDBRANCH   1   6
BRANCH   1  47
HETATM   47  C5  UNL     1      -6.842  -0.104  -1.804  1.00  0.00     0.113 C 
BRANCH  47  48
HETATM   48  C6  UNL     1      -7.991  -0.069  -0.815  1.00  0.00     0.175 C 
BRANCH  48  49
HETATM   49  O3  UNL     1      -9.046  -0.878  -1.172  1.00  0.00    -0.396 OA
HETATM   50  C7  UNL     1      -8.712  -2.218  -1.266  1.00  0.00     0.201 C 
ENDBRANCH  48  49
ENDBRANCH  47  48
ENDBRANCH   1  47
TORSDOF 12
