REMARK  4 active torsions:
REMARK  status: ('A' for Active; 'I' for Inactive)
REMARK    1  A    between atoms: N1_2  and  C2_3 
REMARK    2  A    between atoms: C2_3  and  O1_4 
REMARK    3  A    between atoms: O1_4  and  N2_5 
REMARK    4  A    between atoms: N2_5  and  C3_7 
ROOT
HETATM    1  O1  UNL     1       1.159   0.283   0.340  1.00  0.00    -0.250 OA
ENDROOT
BRANCH   1   2
HETATM    2  C2  UNL     1      -0.017  -0.377   0.677  1.00  0.00     0.460 C 
BRANCH   2   3
HETATM    3  N1  UNL     1      -0.939  -0.250  -0.422  1.00  0.00     0.031 N 
HETATM    4  C1  UNL     1      -1.333  -1.497  -1.001  1.00  0.00     0.300 C 
HETATM    5  C4  UNL     1      -2.139   0.524  -0.070  1.00  0.00     0.280 C 
HETATM    6  C5  UNL     1      -1.232   1.703  -0.361  1.00  0.00     0.172 C 
HETATM    7  N4  UNL     1      -0.635   0.780  -1.327  1.00  0.00    -0.043 NA
ENDBRANCH   2   3
ENDBRANCH   1   2
BRANCH   1   8
HETATM    8  N2  UNL     1       2.069   0.198   1.338  1.00  0.00    -0.261 N 
ATOM      9  H2  UNL     1       1.875   0.559   2.272  1.00  0.00     0.195 HD
BRANCH   8  10
HETATM   10  C3  UNL     1       3.310  -0.420   1.020  1.00  0.00     0.197 C 
HETATM   11  N3  UNL     1       3.993  -0.055  -0.002  1.00  0.00    -0.394 N 
ATOM     12  H32 UNL     1       3.625   0.694  -0.588  1.00  0.00     0.156 HD
ATOM     13  H31 UNL     1       4.883  -0.498  -0.230  1.00  0.00     0.156 HD
ENDBRANCH   8  10
ENDBRANCH   1   8
TORSDOF 4
