REMARK  4 active torsions:
REMARK  status: ('A' for Active; 'I' for Inactive)
REMARK    1  A    between atoms: C2_4  and  C3_5 
REMARK    2  A    between atoms: C3_5  and  C4_6 
REMARK    3  A    between atoms: C4_6  and  O1_7 
REMARK    4  A    between atoms: O1_7  and  C5_8 
ROOT
HETATM    1  C1  UNL     1      -3.123  -0.157  -0.943  1.00  0.00     0.180 A 
HETATM    2  N1  UNL     1      -2.622  -0.355   0.286  1.00  0.00    -0.355 N 
ATOM      3  H1  UNL     1      -3.087  -0.852   1.046  1.00  0.00     0.166 HD
HETATM    4  C2  UNL     1      -1.383   0.221   0.350  1.00  0.00     0.027 A 
HETATM    5  C6  UNL     1      -1.189   0.760  -0.894  1.00  0.00     0.114 A 
HETATM    6  N4  UNL     1      -2.248   0.534  -1.689  1.00  0.00    -0.360 N 
ATOM      7  H4  UNL     1      -2.363   0.827  -2.659  1.00  0.00     0.166 HD
ENDROOT
BRANCH   4   8
HETATM    8  C3  UNL     1      -0.520   0.220   1.547  1.00  0.00     0.084 C 
BRANCH   8   9
HETATM    9  C4  UNL     1       0.390  -0.969   1.645  1.00  0.00     0.177 C 
BRANCH   9  10
HETATM   10  O1  UNL     1       1.262  -1.068   0.624  1.00  0.00    -0.353 OA
BRANCH  10  11
HETATM   11  C5  UNL     1       2.175  -0.083   0.417  1.00  0.00     0.342 A 
HETATM   12  N2  UNL     1       3.461  -0.278  -0.084  1.00  0.00    -0.094 NA
HETATM   13  N3  UNL     1       2.514   0.177  -0.968  1.00  0.00    -0.094 NA
ENDBRANCH  10  11
ENDBRANCH   9  10
ENDBRANCH   8   9
ENDBRANCH   4   8
TORSDOF 4
