REMARK  4 active torsions:
REMARK  status: ('A' for Active; 'I' for Inactive)
REMARK    1  A    between atoms: C2_2  and  C3_3 
REMARK    2  A    between atoms: C3_3  and  N1_4 
REMARK    3  A    between atoms: N1_4  and  C4_7 
REMARK    4  A    between atoms: C4_7  and  C5_8 
ROOT
HETATM    1  C5  UNL     1      -0.863   0.597  -0.270  1.00  0.00     0.408 C 
HETATM    2  N2  UNL     1      -1.632   0.492  -1.517  1.00  0.00    -0.043 N 
ATOM      3  H21 UNL     1      -1.097   0.190  -2.331  1.00  0.00     0.279 HD
ATOM      4  H22 UNL     1      -1.926   1.381  -1.921  1.00  0.00     0.279 HD
HETATM    5  C6  UNL     1      -2.709  -0.391  -1.128  1.00  0.00     0.262 C 
HETATM    6  C7  UNL     1      -3.089   0.095   0.226  1.00  0.00     0.262 C 
HETATM    7  N3  UNL     1      -1.870   0.631   0.776  1.00  0.00    -0.043 N 
ATOM      8  H31 UNL     1      -1.992   1.560   1.180  1.00  0.00     0.279 HD
ATOM      9  H32 UNL     1      -1.575   0.152   1.627  1.00  0.00     0.279 HD
ENDROOT
BRANCH   1  10
HETATM   10  C4  UNL     1       0.017  -0.607  -0.181  1.00  0.00     0.294 C 
BRANCH  10  11
HETATM   11  N1  UNL     1       0.835  -0.633   1.000  1.00  0.00    -0.068 N 
ATOM     12  H12 UNL     1       1.245  -1.557   1.138  1.00  0.00     0.277 HD
ATOM     13  H11 UNL     1       0.261  -0.577   1.841  1.00  0.00     0.277 HD
BRANCH  11  14
HETATM   14  C3  UNL     1       1.862   0.396   1.004  1.00  0.00     0.259 C 
BRANCH  14  15
HETATM   15  C2  UNL     1       2.888   0.095  -0.060  1.00  0.00    -0.010 C 
HETATM   16  C1  UNL     1       4.135  -0.088   0.314  1.00  0.00     0.008 C 
ENDBRANCH  14  15
ENDBRANCH  11  14
ENDBRANCH  10  11
ENDBRANCH   1  10
TORSDOF 4
