REMARK  2 active torsions:
REMARK  status: ('A' for Active; 'I' for Inactive)
REMARK       I    between atoms: C1_4  and  N3_6 
REMARK    1  A    between atoms: N3_6  and  N4_8 
REMARK    2  A    between atoms: C2_10  and  N5_11 
ROOT
HETATM    1  N5  UNL     1       1.798   0.331   1.157  1.00  0.00    -0.341 N 
ATOM      2  H5  UNL     1       1.644   0.925   1.972  1.00  0.00     0.167 HD
HETATM    3  C3  UNL     1       0.846   0.278   0.280  1.00  0.00     0.079 C 
HETATM    4  C4  UNL     1      -0.346   1.127   0.636  1.00  0.00     0.103 C 
HETATM    5  C5  UNL     1      -1.060   1.641  -0.573  1.00  0.00     0.239 C 
HETATM    6  N6  UNL     1      -1.827   2.812  -0.265  1.00  0.00    -0.073 N 
ATOM      7  H61 UNL     1      -2.010   3.350  -1.112  1.00  0.00     0.277 HD
ATOM      8  H62 UNL     1      -1.258   3.484   0.250  1.00  0.00     0.277 HD
HETATM    9  C6  UNL     1      -3.053   2.553   0.437  1.00  0.00     0.259 C 
HETATM   10  C7  UNL     1      -3.914   1.507  -0.212  1.00  0.00     0.259 C 
HETATM   11  N7  UNL     1      -3.859   0.229   0.475  1.00  0.00    -0.072 N 
ATOM     12  H71 UNL     1      -4.447   0.233   1.308  1.00  0.00     0.277 HD
ATOM     13  H72 UNL     1      -2.951   0.087   0.918  1.00  0.00     0.277 HD
HETATM   14  C8  UNL     1      -4.191  -0.865  -0.389  1.00  0.00     0.259 C 
HETATM   15  C9  UNL     1      -3.266  -2.020  -0.060  1.00  0.00     0.259 C 
HETATM   16  N8  UNL     1      -2.243  -2.068  -1.090  1.00  0.00    -0.072 N 
ATOM     17  H81 UNL     1      -2.348  -1.305  -1.759  1.00  0.00     0.277 HD
ATOM     18  H82 UNL     1      -2.387  -2.853  -1.725  1.00  0.00     0.277 HD
HETATM   19  C10 UNL     1      -0.908  -2.089  -0.507  1.00  0.00     0.251 C 
HETATM   20  C11 UNL     1       0.018  -1.406  -1.448  1.00  0.00     0.148 C 
HETATM   21  N9  UNL     1       0.959  -0.509  -0.877  1.00  0.00    -0.378 N 
ATOM     22  H9  UNL     1       1.843  -0.424  -1.379  1.00  0.00     0.160 HD
ENDROOT
BRANCH   1  23
HETATM   23  C2  UNL     1       3.025  -0.355   1.090  1.00  0.00     0.198 C 
HETATM   24  N4  UNL     1       4.033   0.034   0.401  1.00  0.00    -0.294 N 
ATOM     25  H4  UNL     1       3.981   0.892  -0.148  1.00  0.00     0.187 HD
BRANCH  24  26
HETATM   26  N3  UNL     1       5.197  -0.723   0.408  1.00  0.00    -0.273 N 
HETATM   27  C1  UNL     1       6.429  -0.056   0.668  1.00  0.00     0.200 C 
HETATM   28  N1  UNL     1       6.768   0.100   1.890  1.00  0.00    -0.372 N 
HETATM   29  N2  UNL     1       7.279   0.433  -0.355  1.00  0.00    -0.062 NA
ATOM     30  H12 UNL     1       7.650   0.577   2.076  1.00  0.00     0.158 HD
ATOM     31  H11 UNL     1       6.156  -0.252   2.626  1.00  0.00     0.158 HD
ATOM     32  H3  UNL     1       5.171  -1.727   0.232  1.00  0.00     0.189 HD
ENDBRANCH  24  26
ENDBRANCH   1  23
TORSDOF 2
