REMARK  4 active torsions:
REMARK  status: ('A' for Active; 'I' for Inactive)
REMARK    1  A    between atoms: C5_6  and  C6_7 
REMARK    2  A    between atoms: C6_7  and  N8_21 
REMARK    3  A    between atoms: N2_8  and  N3_10 
REMARK       I    between atoms: N3_10  and  C7_12 
REMARK       I    between atoms: C7_12  and  N5_16 
REMARK    4  A    between atoms: N8_21  and  N9_23 
ROOT
HETATM    1  C6  UNL     1       0.441  -0.474   0.316  1.00  0.00     0.141 C 
HETATM    2  N2  UNL     1       1.455   0.296   0.380  1.00  0.00    -0.270 N 
ATOM      3  H2  UNL     1       1.341   1.245   0.023  1.00  0.00     0.189 HD
ENDROOT
BRANCH   1   4
HETATM    4  C5  UNL     1      -0.794   0.018  -0.245  1.00  0.00    -0.004 C 
HETATM    5  C4  UNL     1      -0.788   1.426  -0.720  1.00  0.00     0.044 C 
HETATM    6  C3  UNL     1      -1.908   2.203  -0.058  1.00  0.00     0.035 C 
HETATM    7  C2  UNL     1      -3.183   1.822  -0.780  1.00  0.00     0.275 C 
HETATM    8  N1  UNL     1      -3.771   0.620  -0.284  1.00  0.00     0.119 N 
HETATM    9  C1  UNL     1      -5.157   0.586  -0.742  1.00  0.00     0.312 C 
HETATM   10  C11 UNL     1      -3.154  -0.592  -0.788  1.00  0.00     0.451 C 
HETATM   11  C9  UNL     1      -1.802  -0.831  -0.279  1.00  0.00     0.016 C 
HETATM   12  N10 UNL     1      -3.653  -1.756  -0.062  1.00  0.00    -0.036 N 
HETATM   13  C10 UNL     1      -2.255  -2.202   0.041  1.00  0.00     0.274 C 
ATOM     14 2H10 UNL     1      -4.372  -2.359  -0.461  1.00  0.00     0.280 HD
ATOM     15 1H10 UNL     1      -4.237  -1.651   0.768  1.00  0.00     0.280 HD
ENDBRANCH   1   4
BRANCH   1  16
HETATM   16  N8  UNL     1       0.514  -1.800   0.786  1.00  0.00    -0.291 N 
ATOM     17  H8  UNL     1       0.254  -2.000   1.752  1.00  0.00     0.188 HD
BRANCH  16  18
HETATM   18  N9  UNL     1       0.934  -2.848  -0.037  1.00  0.00    -0.344 N 
ATOM     19  H92 UNL     1       1.191  -2.630  -1.000  1.00  0.00     0.176 HD
ATOM     20  H91 UNL     1       0.987  -3.808   0.303  1.00  0.00     0.176 HD
ENDBRANCH  16  18
ENDBRANCH   1  16
BRANCH   2  21
HETATM   21  N3  UNL     1       2.707  -0.043   0.895  1.00  0.00    -0.131 N 
HETATM   22  C7  UNL     1       3.594   0.987   1.346  1.00  0.00     0.692 C 
HETATM   23  N4  UNL     1       3.184   2.070   1.887  1.00  0.00    -0.233 N 
HETATM   24  N5  UNL     1       4.989   0.801   1.188  1.00  0.00    -0.165 N 
ATOM     25  H42 UNL     1       2.179   2.204   2.001  1.00  0.00     0.174 HD
ATOM     26  H41 UNL     1       3.816   2.804   2.208  1.00  0.00     0.174 HD
HETATM   27  C8  UNL     1       5.434   0.336   0.076  1.00  0.00     0.215 C 
ATOM     28  H5  UNL     1       5.631   1.033   1.946  1.00  0.00     0.186 HD
HETATM   29  N6  UNL     1       4.559   0.014  -0.972  1.00  0.00    -0.066 NA
HETATM   30  N7  UNL     1       6.839   0.158  -0.061  1.00  0.00    -0.066 NA
ATOM     31  H3  UNL     1       2.990  -1.022   0.950  1.00  0.00     0.205 HD
ENDBRANCH   2  21
TORSDOF 4
