REMARK  6 active torsions:
REMARK  status: ('A' for Active; 'I' for Inactive)
REMARK    1  A    between atoms: S1_2  and  N1_5 
REMARK       I    between atoms: C2_7  and  N2_8 
REMARK       I    between atoms: C2_7  and  N6_19 
REMARK    2  A    between atoms: N2_8  and  N3_10 
REMARK    3  A    between atoms: N3_10  and  C3_12 
REMARK    4  A    between atoms: C3_12  and  N4_14 
REMARK    5  A    between atoms: N4_14  and  N5_16 
REMARK       I    between atoms: N6_19  and  C4_21 
REMARK       I    between atoms: C4_21  and  N7_23 
REMARK    6  A    between atoms: N7_23  and  N8_25 
ROOT
HETATM    1  N1  UNL     1      -1.095  -1.752  -0.309  1.00  0.00    -0.115 N 
ATOM      2  H1  UNL     1      -2.063  -2.048  -0.185  1.00  0.00     0.197 HD
HETATM    3  C2  UNL     1      -0.918  -0.516  -0.440  1.00  0.00     0.710 C 
HETATM    4  N2  UNL     1       0.378   0.015  -0.616  1.00  0.00    -0.129 N 
ATOM      5  H2  UNL     1       0.727   0.163  -1.563  1.00  0.00     0.205 HD
HETATM    6  N6  UNL     1      -2.028   0.365  -0.410  1.00  0.00    -0.138 N 
ATOM      7  H6  UNL     1      -2.957  -0.036  -0.280  1.00  0.00     0.189 HD
HETATM    8  C4  UNL     1      -1.921   1.762  -0.549  1.00  0.00     0.352 C 
HETATM    9  O3  UNL     1      -0.795   2.271  -0.706  1.00  0.00    -0.245 OA
HETATM   10  N7  UNL     1      -3.064   2.579  -0.510  1.00  0.00    -0.258 N 
ATOM     11  H7  UNL     1      -3.975   2.138  -0.379  1.00  0.00     0.191 HD
ENDROOT
BRANCH   1  12
HETATM   12  S1  UNL     1       0.054  -2.991  -0.310  1.00  0.00     0.240 S 
HETATM   13  C1  UNL     1      -0.477  -4.457  -1.138  1.00  0.00     0.186 C 
HETATM   14  O1  UNL     1       1.316  -2.523  -0.972  1.00  0.00    -0.206 OA
HETATM   15  O2  UNL     1       0.426  -3.383   1.112  1.00  0.00    -0.206 OA
ENDBRANCH   1  12
BRANCH   4  16
HETATM   16  N3  UNL     1       1.206   0.348   0.478  1.00  0.00    -0.261 N 
ATOM     17  H3  UNL     1       0.828   0.351   1.425  1.00  0.00     0.190 HD
BRANCH  16  18
HETATM   18  C3  UNL     1       2.568   0.679   0.252  1.00  0.00     0.205 C 
HETATM   19  S2  UNL     1       3.170   0.675  -1.268  1.00  0.00    -0.038 SA
BRANCH  18  20
HETATM   20  N4  UNL     1       3.409   1.014   1.333  1.00  0.00    -0.282 N 
ATOM     21  H4  UNL     1       4.387   1.251   1.164  1.00  0.00     0.189 HD
BRANCH  20  22
HETATM   22  N5  UNL     1       2.905   1.021   2.632  1.00  0.00    -0.343 N 
ATOM     23  H52 UNL     1       1.925   0.781   2.784  1.00  0.00     0.176 HD
ATOM     24  H51 UNL     1       3.513   1.263   3.414  1.00  0.00     0.176 HD
ENDBRANCH  20  22
ENDBRANCH  18  20
ENDBRANCH  16  18
ENDBRANCH   4  16
BRANCH  10  25
HETATM   25  N8  UNL     1      -3.007   3.971  -0.643  1.00  0.00    -0.341 N 
ATOM     26  H82 UNL     1      -2.088   4.395  -0.773  1.00  0.00     0.177 HD
ATOM     27  H81 UNL     1      -3.836   4.564  -0.615  1.00  0.00     0.177 HD
ENDBRANCH  10  25
TORSDOF 6
