REMARK  2 active torsions:
REMARK  status: ('A' for Active; 'I' for Inactive)
REMARK       I    between atoms: C2_5  and  N3_6 
REMARK       I    between atoms: C2_5  and  N9_19 
REMARK    1  A    between atoms: N3_6  and  N4_8 
REMARK       I    between atoms: N4_8  and  C3_10 
REMARK       I    between atoms: N6_12  and  C4_14 
REMARK    2  A    between atoms: N9_19  and  N10_21 
ROOT
HETATM    1  N1  UNL     1      -0.297  -2.212  -3.250  1.00  0.00    -0.171 NA
HETATM    2  C1  UNL     1       0.327  -1.667  -2.418  1.00  0.00     0.196 C 
HETATM    3  N2  UNL     1       1.061  -1.028  -1.417  1.00  0.00    -0.123 N 
ATOM      4  H2  UNL     1       2.021  -0.740  -1.607  1.00  0.00     0.197 HD
HETATM    5  C2  UNL     1       0.549  -0.796  -0.259  1.00  0.00     0.721 C 
HETATM    6  N3  UNL     1      -0.784  -1.208  -0.026  1.00  0.00    -0.128 N 
ATOM      7  H3  UNL     1      -1.080  -2.107  -0.406  1.00  0.00     0.205 HD
HETATM    8  N9  UNL     1       1.320  -0.141   0.747  1.00  0.00    -0.116 N 
ATOM      9  H9  UNL     1       0.895   0.068   1.650  1.00  0.00     0.207 HD
ENDROOT
BRANCH   6  10
HETATM   10  N4  UNL     1      -1.713  -0.467   0.686  1.00  0.00    -0.259 N 
HETATM   11  C3  UNL     1      -3.013  -0.131   0.166  1.00  0.00     0.209 C 
HETATM   12  N5  UNL     1      -3.127   0.698  -0.979  1.00  0.00    -0.062 NA
HETATM   13  N6  UNL     1      -4.087  -0.569   0.719  1.00  0.00    -0.304 N 
HETATM   14  C4  UNL     1      -5.344  -0.216   0.177  1.00  0.00     0.188 C 
ATOM     15  H6  UNL     1      -4.033  -1.167   1.543  1.00  0.00     0.171 HD
HETATM   16  N7  UNL     1      -5.691  -0.523  -1.025  1.00  0.00    -0.373 N 
HETATM   17  N8  UNL     1      -6.258   0.501   0.985  1.00  0.00    -0.064 NA
ATOM     18  H72 UNL     1      -5.032  -1.040  -1.607  1.00  0.00     0.158 HD
ATOM     19  H71 UNL     1      -6.598  -0.268  -1.416  1.00  0.00     0.158 HD
ATOM     20  H4  UNL     1      -1.465  -0.145   1.621  1.00  0.00     0.190 HD
ENDBRANCH   6  10
BRANCH   8  21
HETATM   21  N10 UNL     1       2.586   0.201   0.523  1.00  0.00    -0.223 N 
HETATM   22  C5  UNL     1       2.960   1.511   0.257  1.00  0.00     0.168 C 
HETATM   23  C6  UNL     1       4.490   1.432   0.161  1.00  0.00     0.058 C 
HETATM   24  C7  UNL     1       4.705  -0.075  -0.029  1.00  0.00     0.175 C 
HETATM   25  S1  UNL     1       6.312  -0.544   0.637  1.00  0.00    -0.072 SA
HETATM   26  N11 UNL     1       3.605  -0.630   0.755  1.00  0.00    -0.106 NA
ENDBRANCH   8  21
TORSDOF 2
