REMARK  4 active torsions:
REMARK  status: ('A' for Active; 'I' for Inactive)
REMARK    1  A    between atoms: C2_2  and  N1_3 
REMARK    2  A    between atoms: C2_2  and  C4_12 
REMARK       I    between atoms: N1_3  and  C3_5 
REMARK       I    between atoms: C3_5  and  N2_7 
REMARK    3  A    between atoms: N2_7  and  N3_9 
REMARK       I    between atoms: C4_12  and  N4_14 
REMARK    4  A    between atoms: N4_14  and  N5_16 
REMARK       I    between atoms: N5_16  and  C5_18 
REMARK       I    between atoms: C5_18  and  N6_20 
ROOT
HETATM    1  C4  UNL     1      -1.102   0.868   0.965  1.00  0.00     0.258 C 
HETATM    2  O2  UNL     1      -0.594   1.441  -0.016  1.00  0.00    -0.269 OA
HETATM    3  N4  UNL     1      -0.360  -0.113   1.666  1.00  0.00    -0.264 N 
ATOM      4  H4  UNL     1      -0.781  -0.577   2.471  1.00  0.00     0.190 HD
ENDROOT
BRANCH   3   5
HETATM    5  N5  UNL     1       0.928  -0.457   1.281  1.00  0.00    -0.249 N 
HETATM    6  C5  UNL     1       1.148  -1.054   0.016  1.00  0.00     0.337 C 
HETATM    7  O3  UNL     1       0.135  -1.246  -0.721  1.00  0.00    -0.245 OA
HETATM    8  N6  UNL     1       2.445  -1.429  -0.432  1.00  0.00    -0.330 N 
HETATM    9  C6  UNL     1       3.560  -1.194   0.471  1.00  0.00     0.155 C 
HETATM   10  C9  UNL     1       2.579  -2.004  -1.728  1.00  0.00     0.155 C 
HETATM   11  C7  UNL     1       4.867  -1.520  -0.268  1.00  0.00     0.252 C 
HETATM   12  N7  UNL     1       4.716  -0.850  -1.569  1.00  0.00    -0.072 N 
HETATM   13  C8  UNL     1       3.906  -1.741  -2.380  1.00  0.00     0.252 C 
ATOM     14  H72 UNL     1       4.339   0.095  -1.500  1.00  0.00     0.277 HD
ATOM     15  H71 UNL     1       5.603  -0.596  -2.003  1.00  0.00     0.277 HD
ATOM     16  H5  UNL     1       1.714  -0.280   1.907  1.00  0.00     0.192 HD
ENDBRANCH   3   5
BRANCH   1  17
HETATM   17  C2  UNL     1      -2.483   1.206   1.408  1.00  0.00     0.176 C 
HETATM   18  C1  UNL     1      -2.478   1.639   2.858  1.00  0.00     0.042 C 
BRANCH  17  19
HETATM   19  N1  UNL     1      -3.080   2.215   0.568  1.00  0.00    -0.329 N 
HETATM   20  C3  UNL     1      -4.239   1.922  -0.184  1.00  0.00     0.335 C 
HETATM   21  O1  UNL     1      -4.769   0.781  -0.136  1.00  0.00    -0.246 OA
HETATM   22  N2  UNL     1      -4.815   2.911  -1.000  1.00  0.00    -0.258 N 
ATOM     23  H2  UNL     1      -4.398   3.841  -1.051  1.00  0.00     0.191 HD
ATOM     24  H1  UNL     1      -2.663   3.145   0.517  1.00  0.00     0.165 HD
BRANCH  22  25
HETATM   25  N3  UNL     1      -5.958   2.615  -1.739  1.00  0.00    -0.341 N 
ATOM     26  H32 UNL     1      -6.362   1.681  -1.677  1.00  0.00     0.177 HD
ATOM     27  H31 UNL     1      -6.376   3.333  -2.331  1.00  0.00     0.177 HD
ENDBRANCH  22  25
ENDBRANCH  17  19
ENDBRANCH   1  17
TORSDOF 4
