REMARK  4 active torsions:
REMARK  status: ('A' for Active; 'I' for Inactive)
REMARK    1  A    between atoms: C2_2  and  O1_3 
REMARK    2  A    between atoms: C6_11  and  C7_12 
REMARK    3  A    between atoms: C6_11  and  C8_15 
REMARK       I    between atoms: C8_15  and  N3_17 
REMARK    4  A    between atoms: N3_17  and  N4_19 
REMARK       I    between atoms: N4_19  and  C9_21 
ROOT
HETATM    1  C1  UNL     1      -3.840   2.069   0.148  1.00  0.00     0.081 C 
HETATM    2  C2  UNL     1      -3.181   1.072  -0.799  1.00  0.00     0.255 A 
HETATM    3  N1  UNL     1      -3.316  -0.335  -0.587  1.00  0.00    -0.027 N 
ATOM      4  H11 UNL     1      -3.597  -1.133  -1.157  1.00  0.00     0.282 HD
ATOM      5  H12 UNL     1      -3.954  -0.934  -0.063  1.00  0.00     0.282 HD
HETATM    6  C3  UNL     1      -2.075   0.339  -0.304  1.00  0.00     0.187 A 
HETATM    7  C4  UNL     1      -1.682   0.286   1.167  1.00  0.00     0.046 C 
HETATM    8  C5  UNL     1      -0.908  -1.045   1.154  1.00  0.00     0.031 C 
HETATM    9  C6  UNL     1      -0.016  -0.812  -0.069  1.00  0.00     0.123 C 
HETATM   10  C10 UNL     1      -0.811   0.023  -1.009  1.00  0.00     0.073 C 
ENDROOT
BRANCH   9  11
HETATM   11  C7  UNL     1       0.276  -2.112  -0.698  1.00  0.00     0.249 C 
HETATM   12  N2  UNL     1       0.958  -3.160  -0.018  1.00  0.00    -0.061 NA
HETATM   13  O2  UNL     1      -0.073  -2.367  -1.901  1.00  0.00    -0.275 OA
ENDBRANCH   9  11
BRANCH   9  14
HETATM   14  C8  UNL     1       1.207  -0.130   0.427  1.00  0.00     0.254 C 
HETATM   15  O3  UNL     1       1.348   0.159   1.656  1.00  0.00    -0.270 OA
HETATM   16  N3  UNL     1       2.278   0.235  -0.432  1.00  0.00    -0.265 N 
ATOM     17  H3  UNL     1       2.216   0.024  -1.428  1.00  0.00     0.190 HD
BRANCH  16  18
HETATM   18  N4  UNL     1       3.393   0.866   0.055  1.00  0.00    -0.251 N 
HETATM   19  C9  UNL     1       4.665   0.249   0.187  1.00  0.00     0.347 C 
HETATM   20  N5  UNL     1       5.770   0.970   0.702  1.00  0.00    -0.038 NA
HETATM   21  O4  UNL     1       4.853  -0.943  -0.144  1.00  0.00    -0.249 OA
ATOM     22  H4  UNL     1       3.303   1.841   0.341  1.00  0.00     0.191 HD
ENDBRANCH  16  18
ENDBRANCH   9  14
BRANCH   2  23
HETATM   23  O1  UNL     1      -3.192   1.466  -2.139  1.00  0.00    -0.363 OA
ATOM     24  H1  UNL     1      -2.781   0.845  -2.729  1.00  0.00     0.212 HD
ENDBRANCH   2  23
TORSDOF 4
