REMARK  6 active torsions:
REMARK  status: ('A' for Active; 'I' for Inactive)
REMARK    1  A    between atoms: C2_2  and  S1_5 
REMARK    2  A    between atoms: S1_5  and  C5_6 
REMARK    3  A    between atoms: C5_6  and  C6_7 
REMARK    4  A    between atoms: C6_7  and  C7_8 
REMARK    5  A    between atoms: C7_8  and  N1_9 
REMARK    6  A    between atoms: C13_20  and  C14_21 
ROOT
HETATM    1  N1  UNL     1      -0.618   1.391   0.318  1.00  0.00    -0.322 N 
HETATM    2  C8  UNL     1      -0.664   2.597   1.113  1.00  0.00     0.291 C 
HETATM    3  O1  UNL     1       0.091   2.555   2.111  1.00  0.00    -0.264 OA
HETATM    4  C9  UNL     1      -1.389   3.861   1.027  1.00  0.00     0.217 C 
HETATM    5  O2  UNL     1      -1.582   4.369   2.163  1.00  0.00    -0.287 OA
HETATM    6  C10 UNL     1      -1.960   4.712  -0.022  1.00  0.00     0.098 C 
HETATM    7  C11 UNL     1      -2.061   4.038  -1.363  1.00  0.00     0.111 C 
HETATM    8  C12 UNL     1      -2.930   2.843  -1.186  1.00  0.00     0.219 C 
HETATM    9  O3  UNL     1      -4.132   3.068  -1.505  1.00  0.00    -0.274 OA
HETATM   10  N2  UNL     1      -2.691   1.518  -0.738  1.00  0.00    -0.338 N 
ATOM     11  H2  UNL     1      -3.548   1.030  -0.476  1.00  0.00     0.164 HD
HETATM   12  C13 UNL     1      -1.507   0.700  -0.568  1.00  0.00     0.212 C 
ENDROOT
BRANCH   1  13
HETATM   13  C7  UNL     1       0.694   0.772   0.511  1.00  0.00     0.129 C 
BRANCH  13  14
HETATM   14  C6  UNL     1       1.685   1.284  -0.510  1.00  0.00     0.030 C 
BRANCH  14  15
HETATM   15  C5  UNL     1       3.035   0.667  -0.336  1.00  0.00     0.076 C 
BRANCH  15  16
HETATM   16  S1  UNL     1       3.012  -1.140  -0.504  1.00  0.00    -0.160 SA
BRANCH  16  17
HETATM   17  C2  UNL     1       4.718  -1.710  -0.288  1.00  0.00    -0.003 C 
HETATM   18  C1  UNL     1       5.547  -1.214  -1.427  1.00  0.00     0.026 C 
HETATM   19  C3  UNL     1       5.287  -1.074   0.985  1.00  0.00     0.026 C 
HETATM   20  C4  UNL     1       4.821  -3.199  -0.100  1.00  0.00     0.026 C 
ENDBRANCH  16  17
ENDBRANCH  15  16
ENDBRANCH  14  15
ENDBRANCH  13  14
ENDBRANCH   1  13
BRANCH  12  21
HETATM   21  C14 UNL     1      -1.958  -0.650  -0.132  1.00  0.00     0.119 C 
HETATM   22  C15 UNL     1      -2.699  -0.609   1.161  1.00  0.00     0.028 C 
HETATM   23  C16 UNL     1      -2.442  -1.917   1.886  1.00  0.00     0.002 C 
HETATM   24  C17 UNL     1      -2.728  -3.054   0.907  1.00  0.00     0.002 C 
HETATM   25  C18 UNL     1      -4.002  -2.824   0.165  1.00  0.00     0.019 C 
HETATM   26  C19 UNL     1      -3.929  -1.820  -0.930  1.00  0.00     0.114 C 
HETATM   27  N3  UNL     1      -2.655  -1.269  -1.206  1.00  0.00    -0.413 N 
ATOM     28  H3  UNL     1      -2.251  -1.314  -2.142  1.00  0.00     0.153 HD
ENDBRANCH  12  21
TORSDOF 6
