REMARK  8 active torsions:
REMARK  status: ('A' for Active; 'I' for Inactive)
REMARK    1  A    between atoms: O1_2  and  C2_3 
REMARK    2  A    between atoms: C2_3  and  C3_5 
REMARK    3  A    between atoms: C6_8  and  C7_9 
REMARK    4  A    between atoms: C7_9  and  N1_10 
REMARK    5  A    between atoms: C7_9  and  C16_24 
REMARK    6  A    between atoms: N1_10  and  C8_12 
REMARK    7  A    between atoms: C8_12  and  C10_14 
REMARK       I    between atoms: C10_14  and  N2_16 
REMARK    8  A    between atoms: N2_16  and  C11_18 
ROOT
HETATM    1  C7  UNL     1       0.864  -1.346  -0.126  1.00  0.00     0.084 C 
ENDROOT
BRANCH   1   2
HETATM    2  C6  UNL     1       2.136  -0.711   0.239  1.00  0.00     0.008 C 
HETATM    3  C5  UNL     1       2.152   0.732  -0.158  1.00  0.00     0.007 C 
HETATM    4  C4  UNL     1       3.263   1.448   0.532  1.00  0.00     0.015 C 
HETATM    5  C3  UNL     1       4.534   0.699   0.491  1.00  0.00     0.085 C 
HETATM    6  C20 UNL     1       4.576  -0.503  -0.404  1.00  0.00     0.015 C 
HETATM    7  C19 UNL     1       3.363  -1.372  -0.325  1.00  0.00     0.007 C 
BRANCH   5   8
HETATM    8  C2  UNL     1       5.626   1.619   0.053  1.00  0.00     0.262 C 
HETATM    9  O2  UNL     1       6.331   1.333  -0.956  1.00  0.00    -0.265 OA
BRANCH   8  10
HETATM   10  O1  UNL     1       5.911   2.798   0.715  1.00  0.00    -0.326 OA
HETATM   11  C1  UNL     1       6.963   3.631   0.258  1.00  0.00     0.213 C 
ENDBRANCH   8  10
ENDBRANCH   5   8
ENDBRANCH   1   2
BRANCH   1  12
HETATM   12  N1  UNL     1      -0.251  -0.711   0.511  1.00  0.00    -0.405 N 
ATOM     13  H1  UNL     1      -0.208  -0.421   1.488  1.00  0.00     0.154 HD
BRANCH  12  14
HETATM   14  C8  UNL     1      -1.415  -0.502  -0.269  1.00  0.00     0.165 C 
HETATM   15  C9  UNL     1      -1.328   0.456  -1.415  1.00  0.00     0.042 C 
BRANCH  14  16
HETATM   16  C10 UNL     1      -2.551  -0.136   0.612  1.00  0.00     0.240 C 
HETATM   17  O3  UNL     1      -2.385  -0.110   1.859  1.00  0.00    -0.271 OA
HETATM   18  N2  UNL     1      -3.801   0.176   0.058  1.00  0.00    -0.355 N 
ATOM     19  H2  UNL     1      -3.898   0.160  -0.957  1.00  0.00     0.162 HD
BRANCH  18  20
HETATM   20  C11 UNL     1      -4.961   0.520   0.853  1.00  0.00     0.088 C 
HETATM   21  C12 UNL     1      -5.204   2.000   0.831  1.00  0.00     0.051 C 
HETATM   22  C13 UNL     1      -6.144   2.380  -0.261  1.00  0.00     0.169 C 
HETATM   23  O4  UNL     1      -7.344   1.681  -0.086  1.00  0.00    -0.391 OA
HETATM   24  C14 UNL     1      -7.079   0.365  -0.473  1.00  0.00     0.169 C 
HETATM   25  C15 UNL     1      -6.140  -0.330   0.484  1.00  0.00     0.051 C 
ENDBRANCH  18  20
ENDBRANCH  14  16
ENDBRANCH  12  14
ENDBRANCH   1  12
BRANCH   1  26
HETATM   26  C16 UNL     1       0.721  -2.822   0.085  1.00  0.00     0.000 C 
HETATM   27  C17 UNL     1       0.905  -3.271   1.490  1.00  0.00     0.011 C 
HETATM   28  C18 UNL     1       1.439  -3.648  -0.936  1.00  0.00     0.011 C 
ENDBRANCH   1  26
TORSDOF 8
