REMARK  1 active torsions:
REMARK  status: ('A' for Active; 'I' for Inactive)
REMARK    1  A    between atoms: O1_1  and  N1_3 
ROOT
HETATM    1  N1  UNL     1       0.481   0.794  -0.006  1.00  0.00    -0.151 N 
HETATM    2  C1  UNL     1       1.187  -0.365  -0.095  1.00  0.00     0.309 A 
HETATM    3  F1  UNL     1       2.518  -0.423  -0.299  1.00  0.00    -0.161 F 
HETATM    4  N2  UNL     1       0.364  -1.417   0.049  1.00  0.00    -0.257 N 
ATOM      5  H2  UNL     1       0.637  -2.400   0.023  1.00  0.00     0.191 HD
HETATM    6  N3  UNL     1      -0.866  -0.953   0.231  1.00  0.00    -0.270 N 
ATOM      7  H3  UNL     1      -1.711  -1.508   0.371  1.00  0.00     0.189 HD
HETATM    8  C2  UNL     1      -0.785   0.388   0.196  1.00  0.00     0.224 A 
HETATM    9 CL1  UNL     1      -2.152   1.454   0.388  1.00  0.00    -0.041 Cl
ENDROOT
BRANCH   1  10
HETATM   10  O1  UNL     1       0.952   2.085  -0.101  1.00  0.00    -0.277 OA
ATOM     11  H1  UNL     1       0.459   2.895  -0.039  1.00  0.00     0.245 HD
ENDBRANCH   1  10
TORSDOF 1
