REMARK  6 active torsions:
REMARK  status: ('A' for Active; 'I' for Inactive)
REMARK    1  A    between atoms: N1_2  and  C2_4 
REMARK    2  A    between atoms: C3_7  and  N3_8 
REMARK    3  A    between atoms: C5_13  and  N5_14 
REMARK    4  A    between atoms: N5_14  and  N6_16 
REMARK    5  A    between atoms: C6_18  and  C7_19 
REMARK    6  A    between atoms: C7_19  and  N7_20 
ROOT
HETATM    1  C2  UNL     1       2.216  -0.857  -0.454  1.00  0.00     0.706 A 
HETATM    2  N2  UNL     1       2.505   0.414  -0.092  1.00  0.00    -0.022 N 
ATOM      3  H2  UNL     1       3.451   0.787  -0.170  1.00  0.00     0.203 HD
HETATM    4  C3  UNL     1       1.496   1.163   0.374  1.00  0.00     0.706 A 
HETATM    5  N4  UNL     1       0.231   0.658   0.477  1.00  0.00    -0.020 N 
ATOM      6  H4  UNL     1      -0.520   1.249   0.835  1.00  0.00     0.203 HD
HETATM    7  C5  UNL     1      -0.037  -0.608   0.112  1.00  0.00     0.725 A 
HETATM    8  N8  UNL     1       0.975  -1.363  -0.357  1.00  0.00    -0.020 N 
ATOM      9  H8  UNL     1       0.798  -2.327  -0.641  1.00  0.00     0.203 HD
ENDROOT
BRANCH   7  10
HETATM   10  N5  UNL     1      -1.217  -1.126   0.191  1.00  0.00    -0.132 N 
ATOM     11  H5  UNL     1      -1.393  -2.090  -0.093  1.00  0.00     0.205 HD
BRANCH  10  12
HETATM   12  N6  UNL     1      -2.242  -0.315   0.681  1.00  0.00    -0.300 N 
HETATM   13  C6  UNL     1      -3.413  -0.417   0.212  1.00  0.00     0.107 C 
ATOM     14  H6  UNL     1      -2.047   0.362   1.419  1.00  0.00     0.186 HD
BRANCH  13  15
HETATM   15  C7  UNL     1      -4.531   0.444   0.722  1.00  0.00     0.275 C 
BRANCH  15  16
HETATM   16  N7  UNL     1      -5.208   0.980  -0.432  1.00  0.00    -0.075 N 
ATOM     17  H73 UNL     1      -4.583   1.471  -1.071  1.00  0.00     0.274 HD
ATOM     18  H72 UNL     1      -5.521   0.260  -1.084  1.00  0.00     0.274 HD
ATOM     19  H71 UNL     1      -5.968   1.565  -0.085  1.00  0.00     0.274 HD
ENDBRANCH  15  16
ENDBRANCH  13  15
ENDBRANCH  10  12
ENDBRANCH   7  10
BRANCH   4  20
HETATM   20  N3  UNL     1       1.746   2.375   0.725  1.00  0.00    -0.229 N 
HETATM   21  C4  UNL     1       3.074   2.886   0.611  1.00  0.00     0.165 C 
ATOM     22  H3  UNL     1       0.998   2.969   1.083  1.00  0.00     0.177 HD
ENDBRANCH   4  20
BRANCH   1  23
HETATM   23  N1  UNL     1       3.184  -1.575  -0.901  1.00  0.00    -0.229 N 
HETATM   24  C1  UNL     1       2.896  -2.939  -1.294  1.00  0.00     0.165 C 
ATOM     25  H1  UNL     1       4.128  -1.195  -0.977  1.00  0.00     0.177 HD
ENDBRANCH   1  23
TORSDOF 6
