REMARK  5 active torsions:
REMARK  status: ('A' for Active; 'I' for Inactive)
REMARK    1  A    between atoms: N1_1  and  C1_4 
REMARK    2  A    between atoms: C4_7  and  C5_8 
REMARK    3  A    between atoms: C5_8  and  N2_9 
REMARK    4  A    between atoms: N2_9  and  N3_11 
REMARK    5  A    between atoms: N3_11  and  C6_13 
ROOT
HETATM    1  N2  UNL     1      -0.541   0.921  -0.997  1.00  0.00    -0.295 N 
ATOM      2  H2  UNL     1      -0.030   1.794  -0.866  1.00  0.00     0.186 HD
ENDROOT
BRANCH   1   3
HETATM    3  C5  UNL     1       0.077  -0.193  -0.801  1.00  0.00     0.138 C 
BRANCH   3   4
HETATM    4  C4  UNL     1       1.476  -0.160  -0.402  1.00  0.00     0.065 A 
HETATM    5  C3  UNL     1       2.154  -1.341  -0.188  1.00  0.00     0.036 A 
HETATM    6  C2  UNL     1       3.476  -1.253   0.189  1.00  0.00     0.051 A 
HETATM    7  C1  UNL     1       4.094  -0.021   0.344  1.00  0.00     0.113 A 
HETATM    8  N8  UNL     1       3.389   1.084   0.124  1.00  0.00    -0.285 N 
HETATM    9  N7  UNL     1       2.124   1.002  -0.236  1.00  0.00    -0.298 N 
ATOM     10  H8  UNL     1       3.828   1.998   0.234  1.00  0.00     0.188 HD
ATOM     11  H7  UNL     1       1.611   1.869  -0.397  1.00  0.00     0.187 HD
BRANCH   7  12
HETATM   12  N1  UNL     1       5.338   0.015   0.699  1.00  0.00    -0.384 N 
ATOM     13  H12 UNL     1       5.879  -0.833   0.868  1.00  0.00     0.157 HD
ATOM     14  H11 UNL     1       5.792   0.921   0.813  1.00  0.00     0.157 HD
ENDBRANCH   7  12
ENDBRANCH   3   4
ENDBRANCH   1   3
BRANCH   1  15
HETATM   15  N3  UNL     1      -1.884   0.979  -1.382  1.00  0.00    -0.131 N 
ATOM     16  H3  UNL     1      -2.136   1.327  -2.307  1.00  0.00     0.205 HD
BRANCH  15  17
HETATM   17  C6  UNL     1      -2.803   0.592  -0.566  1.00  0.00     0.715 A 
HETATM   18  N4  UNL     1      -2.662   0.102   0.699  1.00  0.00    -0.127 N 
HETATM   19  N5  UNL     1      -3.855  -0.176   1.191  1.00  0.00    -0.237 N 
ATOM     20  H4  UNL     1      -1.776  -0.029   1.187  1.00  0.00     0.206 HD
HETATM   21  C7  UNL     1      -4.776   0.124   0.267  1.00  0.00     0.353 A 
ATOM     22  H5  UNL     1      -4.043  -0.555   2.119  1.00  0.00     0.192 HD
HETATM   23  O1  UNL     1      -6.019   0.000   0.359  1.00  0.00    -0.245 OA
HETATM   24  N6  UNL     1      -4.129   0.595  -0.809  1.00  0.00    -0.137 N 
ATOM     25  H6  UNL     1      -4.570   0.906  -1.674  1.00  0.00     0.189 HD
ENDBRANCH  15  17
ENDBRANCH   1  15
TORSDOF 5
