REMARK  3 active torsions:
REMARK  status: ('A' for Active; 'I' for Inactive)
REMARK    1  A    between atoms: C3_8  and  S1_9 
REMARK    2  A    between atoms: S1_9  and  C4_12 
REMARK    3  A    between atoms: N4_17  and  N5_18 
ROOT
HETATM    1  N1  UNL     1      -3.742   0.838   1.206  1.00  0.00    -0.233 N 
ATOM      2  H11 UNL     1      -4.185   0.152   1.818  1.00  0.00     0.174 HD
ATOM      3  H12 UNL     1      -4.166   1.753   1.052  1.00  0.00     0.174 HD
HETATM    4  C1  UNL     1      -2.630   0.561   0.612  1.00  0.00     0.692 A 
HETATM    5  N2  UNL     1      -2.013   1.517  -0.241  1.00  0.00    -0.198 N 
ATOM      6  H2  UNL     1      -2.428   2.435  -0.403  1.00  0.00     0.183 HD
HETATM    7  C2  UNL     1      -0.792   1.133  -0.856  1.00  0.00     0.151 A 
HETATM    8  C3  UNL     1      -0.244  -0.066  -0.648  1.00  0.00     0.187 A 
HETATM    9  N4  UNL     1      -0.833  -1.046   0.197  1.00  0.00    -0.176 N 
HETATM   10  N6  UNL     1      -2.032  -0.728   0.829  1.00  0.00    -0.111 N 
ATOM     11  H6  UNL     1      -2.484  -1.406   1.443  1.00  0.00     0.208 HD
ENDROOT
BRANCH   8  12
HETATM   12  S1  UNL     1       1.256  -0.448  -1.446  1.00  0.00     0.226 S 
HETATM   13  O1  UNL     1       1.382  -1.923  -1.719  1.00  0.00    -0.219 OA
HETATM   14  O2  UNL     1       1.294   0.319  -2.737  1.00  0.00    -0.219 OA
BRANCH  12  15
HETATM   15  C4  UNL     1       2.663   0.015  -0.459  1.00  0.00     0.339 A 
HETATM   16  C5  UNL     1       2.627   0.110   0.970  1.00  0.00     0.283 A 
HETATM   17  N3  UNL     1       2.659   1.352   0.129  1.00  0.00    -0.052 N 
ATOM     18  H32 UNL     1       3.244   2.186   0.068  1.00  0.00     0.278 HD
ATOM     19  H31 UNL     1       2.092   2.195   0.038  1.00  0.00     0.278 HD
ENDBRANCH  12  15
ENDBRANCH   8  12
BRANCH   9  20
HETATM   20  N5  UNL     1      -0.192  -2.279   0.360  1.00  0.00    -0.323 N 
ATOM     21  H52 UNL     1       0.686  -2.512  -0.103  1.00  0.00     0.179 HD
ATOM     22  H51 UNL     1      -0.615  -2.982   0.966  1.00  0.00     0.179 HD
ENDBRANCH   9  20
TORSDOF 3
