REMARK  2 active torsions:
REMARK  status: ('A' for Active; 'I' for Inactive)
REMARK    1  A    between atoms: C2_2  and  N1_4 
REMARK    2  A    between atoms: N1_4  and  C4_6 
ROOT
HETATM    1  C4  UNL     1       0.880   0.578   0.199  1.00  0.00     0.140 A 
HETATM    2  N2  UNL     1      -0.025   0.804  -0.615  1.00  0.00    -0.347 N 
ATOM      3  H2  UNL     1      -0.001   1.236  -1.539  1.00  0.00     0.163 HD
HETATM    4  C5  UNL     1      -1.064   0.295   0.109  1.00  0.00     0.126 A 
HETATM    5  C6  UNL     1      -1.800  -0.913  -0.507  1.00  0.00     0.049 C 
HETATM    6  C7  UNL     1      -2.973  -1.244   0.406  1.00  0.00     0.004 C 
HETATM    7  C8  UNL     1      -4.074  -0.212   0.187  1.00  0.00     0.006 C 
HETATM    8  C9  UNL     1      -3.453   1.088  -0.296  1.00  0.00     0.055 C 
HETATM    9  C10 UNL     1      -2.188   1.258   0.448  1.00  0.00     0.019 C 
HETATM   10  N3  UNL     1      -2.035   2.155   1.325  1.00  0.00    -0.403 N 
ATOM     11  H31 UNL     1      -2.790   2.802   1.553  1.00  0.00     0.155 HD
ATOM     12  H32 UNL     1      -1.162   2.272   1.839  1.00  0.00     0.155 HD
HETATM   13  S1  UNL     1      -0.058  -0.166   1.468  1.00  0.00    -0.057 SA
ENDROOT
BRANCH   1  14
HETATM   14  N1  UNL     1       2.333   0.826   0.189  1.00  0.00    -0.367 N 
ATOM     15  H1  UNL     1       2.695   1.676   0.620  1.00  0.00     0.162 HD
BRANCH  14  16
HETATM   16  C2  UNL     1       3.249  -0.097  -0.411  1.00  0.00     0.075 C 
HETATM   17  C1  UNL     1       4.648   0.455  -0.249  1.00  0.00     0.032 C 
HETATM   18  C3  UNL     1       3.243  -1.437   0.336  1.00  0.00     0.032 C 
ENDBRANCH  14  16
ENDBRANCH   1  14
TORSDOF 2
