REMARK  1 active torsions:
REMARK  status: ('A' for Active; 'I' for Inactive)
REMARK    1  A    between atoms: C12_17  and  O1_18 
ROOT
HETATM    1  C1  UNL     1      -2.537  -1.671  -0.441  1.00  0.00     0.011 C 
HETATM    2  C2  UNL     1      -2.083  -0.277  -0.708  1.00  0.00    -0.007 C 
HETATM    3  C3  UNL     1      -2.507   0.550   0.497  1.00  0.00     0.005 C 
HETATM    4  C4  UNL     1      -2.095   1.969   0.430  1.00  0.00     0.001 C 
HETATM    5  C5  UNL     1      -0.713   2.149  -0.163  1.00  0.00     0.008 C 
HETATM    6  C6  UNL     1      -0.036   0.794   0.006  1.00  0.00     0.028 C 
HETATM    7  C7  UNL     1      -0.638  -0.116  -1.038  1.00  0.00     0.063 C 
HETATM    8  C8  UNL     1       0.141  -1.347  -1.111  1.00  0.00     0.076 C 
HETATM    9  N1  UNL     1      -0.122  -2.291  -1.974  1.00  0.00    -0.389 N 
ATOM     10  H11 UNL     1       0.423  -3.152  -2.025  1.00  0.00     0.157 HD
ATOM     11  H12 UNL     1      -0.899  -2.175  -2.625  1.00  0.00     0.157 HD
HETATM   12  N2  UNL     1       1.223  -1.509  -0.204  1.00  0.00    -0.369 N 
ATOM     13  H2  UNL     1       1.445  -2.457   0.101  1.00  0.00     0.161 HD
HETATM   14  C9  UNL     1       2.035  -0.429   0.320  1.00  0.00     0.050 C 
HETATM   15  C10 UNL     1       3.457  -0.537  -0.232  1.00  0.00     0.041 C 
HETATM   16  C11 UNL     1       2.140  -0.538   1.824  1.00  0.00     0.041 C 
HETATM   17  C12 UNL     1       1.458   0.899  -0.110  1.00  0.00     0.150 C 
ENDROOT
BRANCH  17  18
HETATM   18  O1  UNL     1       1.878   1.887   0.792  1.00  0.00    -0.393 OA
ATOM     19  H1  UNL     1       2.823   1.953   0.719  1.00  0.00     0.210 HD
ENDBRANCH  17  18
TORSDOF 1
