REMARK  2 active torsions:
REMARK  status: ('A' for Active; 'I' for Inactive)
REMARK    1  A    between atoms: C2_2  and  N1_3 
REMARK    2  A    between atoms: N1_3  and  C3_5 
ROOT
HETATM    1  C1  UNL     1       0.528   1.333  -1.938  1.00  0.00     0.044 C 
HETATM    2  C2  UNL     1      -0.053   0.435  -0.842  1.00  0.00     0.056 C 
HETATM    3  C6  UNL     1      -1.289  -0.162  -1.369  1.00  0.00     0.004 C 
HETATM    4  C7  UNL     1      -2.027  -1.286  -0.829  1.00  0.00    -0.006 C 
HETATM    5  C8  UNL     1      -2.499  -1.468   0.534  1.00  0.00    -0.026 C 
HETATM    6  C9  UNL     1      -3.244  -0.494   1.339  1.00  0.00     0.038 C 
HETATM    7  C10 UNL     1      -2.380   0.637   1.997  1.00  0.00     0.083 C 
HETATM    8  C11 UNL     1      -1.353   0.861   1.064  1.00  0.00    -0.180 C 
HETATM    9  C12 UNL     1      -0.236   1.383   0.395  1.00  0.00     0.114 C 
ENDROOT
BRANCH   2  10
HETATM   10  N1  UNL     1       0.895  -0.593  -0.513  1.00  0.00    -0.349 N 
ATOM     11  H1  UNL     1       0.625  -1.569  -0.638  1.00  0.00     0.163 HD
BRANCH  10  12
HETATM   12  C3  UNL     1       2.221  -0.294  -0.010  1.00  0.00     0.172 C 
HETATM   13  N2  UNL     1       3.216   0.144  -0.661  1.00  0.00    -0.361 N 
HETATM   14  C4  UNL     1       4.372   0.326   0.153  1.00  0.00     0.142 C 
ATOM     15  H2  UNL     1       3.192   0.345  -1.661  1.00  0.00     0.162 HD
HETATM   16  C5  UNL     1       4.051  -0.504   1.383  1.00  0.00     0.142 C 
HETATM   17  N3  UNL     1       2.599  -0.461   1.343  1.00  0.00    -0.361 N 
ATOM     18  H3  UNL     1       1.969  -0.537   2.142  1.00  0.00     0.162 HD
ENDBRANCH  10  12
ENDBRANCH   2  10
TORSDOF 2
