REMARK  13 active torsions:
REMARK  status: ('A' for Active; 'I' for Inactive)
REMARK    1  A    between atoms: C2_2  and  C3_3 
REMARK    2  A    between atoms: C7_7  and  C8_8 
REMARK    3  A    between atoms: C8_8  and  C9_9 
REMARK    4  A    between atoms: C9_9  and  C10_11 
REMARK    5  A    between atoms: C10_11  and  N1_13 
REMARK    6  A    between atoms: N1_13  and  S1_15 
REMARK    7  A    between atoms: C19_26  and  C21_28 
REMARK    8  A    between atoms: C21_28  and  O5_29 
REMARK    9  A    between atoms: C21_28  and  N2_31 
REMARK   10  A    between atoms: N2_31  and  C22_33 
REMARK   11  A    between atoms: C22_33  and  C23_34 
REMARK   12  A    between atoms: C23_34  and  C24_35 
REMARK   13  A    between atoms: C24_35  and  C25_36 
ROOT
HETATM    1  C3  UNL     1      -3.722   1.811  -1.761  1.00  0.00    -0.027 C 
HETATM    2  C4  UNL     1      -5.152   2.227  -2.055  1.00  0.00     0.019 C 
HETATM    3  C5  UNL     1      -3.542   0.398  -2.201  1.00  0.00     0.014 C 
HETATM    4  C6  UNL     1      -2.184  -0.145  -1.811  1.00  0.00     0.012 C 
HETATM    5  C7  UNL     1      -2.050  -0.060  -0.300  1.00  0.00    -0.026 C 
HETATM    6  C12 UNL     1      -2.034   1.455  -0.047  1.00  0.00    -0.004 C 
HETATM    7  C13 UNL     1      -1.561   1.787   1.356  1.00  0.00     0.006 C 
HETATM    8  C14 UNL     1      -0.183   1.225   1.637  1.00  0.00     0.006 C 
HETATM    9  C15 UNL     1       0.305   0.510   0.445  1.00  0.00     0.003 C 
HETATM   10  C16 UNL     1      -0.767  -0.571   0.204  1.00  0.00    -0.000 C 
HETATM   11  C17 UNL     1       0.005  -1.579  -0.529  1.00  0.00     0.007 C 
HETATM   12  C18 UNL     1       1.174  -1.716   0.494  1.00  0.00     0.014 C 
HETATM   13  C19 UNL     1       1.584  -0.258   0.504  1.00  0.00     0.004 C 
HETATM   14  C20 UNL     1       2.234  -0.066  -0.863  1.00  0.00     0.020 C 
HETATM   15  C28 UNL     1      -3.355   2.089  -0.329  1.00  0.00     0.018 C 
ENDROOT
BRANCH  13  16
HETATM   16  C21 UNL     1       2.541   0.113   1.548  1.00  0.00     0.222 C 
BRANCH  16  17
HETATM   17  O5  UNL     1       1.958   0.020   2.859  1.00  0.00    -0.376 OA
ATOM     18  H5  UNL     1       2.579   0.261   3.536  1.00  0.00     0.212 HD
ENDBRANCH  16  17
BRANCH  16  19
HETATM   19  N2  UNL     1       3.684  -0.674   1.641  1.00  0.00    -0.396 N 
ATOM     20  H2  UNL     1       3.735  -1.229   2.495  1.00  0.00     0.155 HD
BRANCH  19  21
HETATM   21  C22 UNL     1       4.745  -0.844   0.810  1.00  0.00     0.116 C 
BRANCH  21  22
HETATM   22  C23 UNL     1       5.634   0.431   0.757  1.00  0.00     0.020 C 
BRANCH  22  23
HETATM   23  C24 UNL     1       6.793   0.178  -0.176  1.00  0.00     0.005 C 
BRANCH  23  24
HETATM   24  C25 UNL     1       7.702   1.370  -0.275  1.00  0.00    -0.023 C 
HETATM   25  C26 UNL     1       8.847   1.026  -1.239  1.00  0.00     0.009 C 
HETATM   26  C27 UNL     1       8.364   1.688   1.049  1.00  0.00     0.009 C 
ENDBRANCH  23  24
ENDBRANCH  22  23
ENDBRANCH  21  22
ENDBRANCH  19  21
ENDBRANCH  16  19
ENDBRANCH  13  16
BRANCH   5  27
HETATM   27  C8  UNL     1      -3.235  -0.592   0.419  1.00  0.00     0.090 C 
BRANCH  27  28
HETATM   28  C9  UNL     1      -3.621  -1.990   0.186  1.00  0.00     0.150 C 
HETATM   29  O1  UNL     1      -3.089  -2.706  -0.615  1.00  0.00    -0.296 OA
BRANCH  28  30
HETATM   30  C10 UNL     1      -4.742  -2.628   0.962  1.00  0.00     0.160 C 
HETATM   31  C11 UNL     1      -4.447  -2.460   2.439  1.00  0.00     0.041 C 
BRANCH  30  32
HETATM   32  N1  UNL     1      -4.957  -3.986   0.614  1.00  0.00    -0.289 N 
ATOM     33  H1  UNL     1      -4.234  -4.698   0.713  1.00  0.00     0.175 HD
BRANCH  32  34
HETATM   34  S1  UNL     1      -6.530  -4.343   0.011  1.00  0.00     0.205 S 
HETATM   35  O2  UNL     1      -6.490  -5.402  -1.059  1.00  0.00    -0.578 OA
HETATM   36  O3  UNL     1      -7.055  -3.092  -0.647  1.00  0.00    -0.578 OA
HETATM   37  O4  UNL     1      -7.594  -4.755   1.238  1.00  0.00    -0.578 OA
ENDBRANCH  32  34
ENDBRANCH  30  32
ENDBRANCH  28  30
ENDBRANCH  27  28
ENDBRANCH   5  27
BRANCH   1  38
HETATM   38  C2  UNL     1      -2.867   2.677  -2.638  1.00  0.00    -0.028 C 
HETATM   39  C1  UNL     1      -3.166   3.963  -2.757  1.00  0.00     0.007 C 
ENDBRANCH   1  38
TORSDOF 13
