REMARK  1 active torsions:
REMARK  status: ('A' for Active; 'I' for Inactive)
REMARK    1  A    between atoms: N2_23  and  N3_25 
ROOT
HETATM    1  C1  UNL     1      -2.719   2.781  -0.502  1.00  0.00     0.039 C 
HETATM    2  C2  UNL     1      -2.099   2.419   0.829  1.00  0.00     0.120 C 
HETATM    3  C3  UNL     1      -2.833   1.272   1.444  1.00  0.00     0.032 C 
HETATM    4  C4  UNL     1      -3.525   0.413   0.407  1.00  0.00     0.002 C 
HETATM    5  C5  UNL     1      -3.606  -1.040   0.830  1.00  0.00     0.000 C 
HETATM    6  C6  UNL     1      -3.707  -1.868  -0.450  1.00  0.00     0.000 C 
HETATM    7  C7  UNL     1      -2.335  -2.020  -1.074  1.00  0.00     0.000 C 
HETATM    8  C8  UNL     1      -1.659  -3.188  -0.428  1.00  0.00     0.000 C 
HETATM    9  C9  UNL     1      -0.247  -3.400  -0.844  1.00  0.00     0.003 C 
HETATM   10  C10 UNL     1       0.606  -2.194  -0.885  1.00  0.00     0.040 C 
HETATM   11  C11 UNL     1       1.180  -1.845   0.493  1.00  0.00     0.206 C 
HETATM   12  F1  UNL     1       0.139  -1.304   1.208  1.00  0.00    -0.246 F 
HETATM   13  C12 UNL     1       2.338  -0.881   0.319  1.00  0.00     0.227 C 
HETATM   14  O1  UNL     1       2.382  -0.484  -0.975  1.00  0.00    -0.340 OA
HETATM   15  C13 UNL     1       3.034   0.681  -1.280  1.00  0.00     0.162 C 
HETATM   16  C14 UNL     1       3.407   0.523  -2.776  1.00  0.00     0.078 C 
HETATM   17  C15 UNL     1       4.316   0.923  -0.583  1.00  0.00     0.078 C 
HETATM   18  O2  UNL     1       2.126   1.712  -1.274  1.00  0.00    -0.308 OA
HETATM   19  C16 UNL     1       1.988   2.414  -0.105  1.00  0.00     0.376 C 
HETATM   20  N1  UNL     1       1.827   1.594   1.064  1.00  0.00    -0.328 N 
ATOM     21  H1  UNL     1       1.407   2.069   1.863  1.00  0.00     0.165 HD
HETATM   22  C17 UNL     1       2.156   0.230   1.291  1.00  0.00     0.127 C 
HETATM   23  N2  UNL     1       2.340  -0.147   2.506  1.00  0.00    -0.293 N 
ATOM     24  H2  UNL     1       2.236   0.552   3.241  1.00  0.00     0.187 HD
HETATM   25  O3  UNL     1       1.024   3.368  -0.273  1.00  0.00    -0.319 OA
HETATM   26  C18 UNL     1      -0.048   3.345   0.565  1.00  0.00     0.343 C 
HETATM   27  O4  UNL     1      -0.734   2.150   0.630  1.00  0.00    -0.362 OA
ENDROOT
BRANCH  23  28
HETATM   28  N3  UNL     1       2.669  -1.435   2.885  1.00  0.00    -0.344 N 
ATOM     29  H32 UNL     1       2.769  -2.121   2.137  1.00  0.00     0.176 HD
ATOM     30  H31 UNL     1       2.815  -1.734   3.849  1.00  0.00     0.176 HD
ENDBRANCH  23  28
TORSDOF 1
