REMARK  9 active torsions:
REMARK  status: ('A' for Active; 'I' for Inactive)
REMARK    1  A    between atoms: C2_2  and  C4_4 
REMARK    2  A    between atoms: C4_4  and  N1_5 
REMARK    3  A    between atoms: C4_4  and  C5_9 
REMARK       I    between atoms: C5_9  and  N2_11 
REMARK    4  A    between atoms: C9_15  and  C10_16 
REMARK    5  A    between atoms: C10_16  and  N3_17 
REMARK    6  A    between atoms: C10_16  and  C19_39 
REMARK    7  A    between atoms: C11_19  and  C12_20 
REMARK    8  A    between atoms: C11_19  and  C18_36 
REMARK    9  A    between atoms: C12_20  and  N5_24 
REMARK       I    between atoms: N6_27  and  C15_28 
REMARK       I    between atoms: C15_28  and  N7_30 
ROOT
HETATM    1  N3  UNL     1      -0.596  -1.260  -0.190  1.00  0.00    -0.350 N 
ATOM      2  H3  UNL     1      -1.016  -0.804   0.620  1.00  0.00     0.166 HD
HETATM    3  C11 UNL     1       0.742  -1.279  -0.043  1.00  0.00     0.142 C 
ENDROOT
BRANCH   1   4
HETATM    4  C10 UNL     1      -1.631  -1.660  -1.093  1.00  0.00     0.034 C 
BRANCH   4   5
HETATM    5  C9  UNL     1      -2.738  -0.761  -0.786  1.00  0.00     0.137 C 
HETATM    6  N2  UNL     1      -3.209  -0.371   0.489  1.00  0.00    -0.340 N 
HETATM    7  C5  UNL     1      -3.251   0.912   1.159  1.00  0.00     0.251 C 
HETATM    8  C6  UNL     1      -3.660  -1.571   1.159  1.00  0.00     0.127 C 
HETATM    9  O1  UNL     1      -3.241   1.094   2.358  1.00  0.00    -0.271 OA
HETATM   10  C7  UNL     1      -4.503  -2.204   0.047  1.00  0.00     0.022 C 
HETATM   11  C8  UNL     1      -4.094  -1.460  -1.174  1.00  0.00     0.033 C 
BRANCH   7  12
HETATM   12  C4  UNL     1      -3.342   2.139   0.279  1.00  0.00     0.278 C 
BRANCH  12  13
HETATM   13  C2  UNL     1      -4.706   2.779   0.679  1.00  0.00     0.017 C 
HETATM   14  C1  UNL     1      -4.969   4.032  -0.075  1.00  0.00     0.012 C 
HETATM   15  C3  UNL     1      -5.836   1.812   0.533  1.00  0.00     0.012 C 
ENDBRANCH  12  13
BRANCH  12  16
HETATM   16  N1  UNL     1      -2.342   3.098   0.591  1.00  0.00    -0.066 N 
ATOM     17  H13 UNL     1      -2.505   4.007   0.158  1.00  0.00     0.275 HD
ATOM     18  H12 UNL     1      -2.372   3.413   1.561  1.00  0.00     0.275 HD
ATOM     19  H11 UNL     1      -1.450   2.679   0.329  1.00  0.00     0.275 HD
ENDBRANCH  12  16
ENDBRANCH   7  12
ENDBRANCH   4   5
BRANCH   4  20
HETATM   20  C19 UNL     1      -1.614  -3.109  -1.268  1.00  0.00    -0.063 C 
HETATM   21  C20 UNL     1      -1.769  -4.115  -0.207  1.00  0.00     0.045 C 
HETATM   22  C21 UNL     1      -0.591  -3.609  -2.298  1.00  0.00     0.045 C 
ENDBRANCH   4  20
ENDBRANCH   1   4
BRANCH   3  23
HETATM   23  C12 UNL     1       1.701  -0.457  -0.721  1.00  0.00     0.130 C 
HETATM   24  N4  UNL     1       1.788  -0.364  -2.031  1.00  0.00    -0.384 N 
ATOM     25  H42 UNL     1       1.047  -0.890  -2.494  1.00  0.00     0.157 HD
ATOM     26  H41 UNL     1       2.470   0.221  -2.513  1.00  0.00     0.157 HD
BRANCH  23  27
HETATM   27  N5  UNL     1       2.741   0.281  -0.072  1.00  0.00    -0.348 N 
HETATM   28  C13 UNL     1       2.845   1.726  -0.105  1.00  0.00     0.146 C 
HETATM   29  C14 UNL     1       4.339   1.833  -0.483  1.00  0.00     0.149 C 
HETATM   30  N6  UNL     1       4.930   0.803   0.330  1.00  0.00    -0.316 N 
HETATM   31  C15 UNL     1       6.289   0.739   0.744  1.00  0.00     0.325 C 
HETATM   32  C17 UNL     1       3.896  -0.152   0.696  1.00  0.00     0.255 C 
HETATM   33  O2  UNL     1       6.645  -0.282   1.439  1.00  0.00    -0.247 OA
HETATM   34  N7  UNL     1       7.209   1.703   0.442  1.00  0.00    -0.285 N 
HETATM   35  C16 UNL     1       8.407   1.830   0.222  1.00  0.00     0.204 C 
ATOM     36  H7  UNL     1       6.749   2.611   0.380  1.00  0.00     0.172 HD
HETATM   37  N8  UNL     1       9.386   0.776   0.228  1.00  0.00    -0.066 NA
HETATM   38  N9  UNL     1       8.886   3.158  -0.069  1.00  0.00    -0.066 NA
ENDBRANCH  23  27
ENDBRANCH   3  23
BRANCH   3  39
HETATM   39  C18 UNL     1       1.038  -1.888   1.272  1.00  0.00     0.285 C 
HETATM   40  N10 UNL     1       1.201  -1.049   2.437  1.00  0.00    -0.056 NA
HETATM   41  O3  UNL     1       1.152  -3.122   1.536  1.00  0.00    -0.269 OA
ENDBRANCH   3  39
TORSDOF 9
