REMARK  12 active torsions:
REMARK  status: ('A' for Active; 'I' for Inactive)
REMARK    1  A    between atoms: C2_2  and  N2_6 
REMARK       I    between atoms: N2_6  and  C3_8 
REMARK    2  A    between atoms: N4_10  and  C4_12 
REMARK    3  A    between atoms: C4_12  and  C5_13 
REMARK    4  A    between atoms: C5_13  and  C6_14 
REMARK    5  A    between atoms: C6_14  and  C7_15 
REMARK    6  A    between atoms: C7_15  and  N5_16 
REMARK    7  A    between atoms: C7_15  and  C11_24 
REMARK       I    between atoms: N5_16  and  C8_18 
REMARK    8  A    between atoms: C8_18  and  C9_20 
REMARK    9  A    between atoms: C9_20  and  O2_22 
REMARK       I    between atoms: C11_24  and  N6_26 
REMARK   10  A    between atoms: N7_30  and  C15_31 
REMARK   11  A    between atoms: C15_31  and  O4_32 
REMARK   12  A    between atoms: C16_34  and  N8_35 
ROOT
HETATM    1  C7  UNL     1      -1.020  -1.200  -1.109  1.00  0.00     0.177 C 
ENDROOT
BRANCH   1   2
HETATM    2  C6  UNL     1      -1.737  -1.572   0.188  1.00  0.00     0.040 C 
BRANCH   2   3
HETATM    3  C5  UNL     1      -2.880  -0.606   0.450  1.00  0.00     0.047 C 
BRANCH   3   4
HETATM    4  C4  UNL     1      -3.590  -0.987   1.728  1.00  0.00     0.063 C 
BRANCH   4   5
HETATM    5  N4  UNL     1      -4.672  -0.145   2.041  1.00  0.00    -0.344 N 
HETATM    6  C3  UNL     1      -5.118   0.917   1.553  1.00  0.00     0.193 C 
HETATM    7  N2  UNL     1      -6.291   1.495   2.181  1.00  0.00    -0.321 N 
HETATM    8  N3  UNL     1      -4.618   1.650   0.438  1.00  0.00    -0.063 NA
ATOM      9  H2  UNL     1      -7.209   1.217   1.835  1.00  0.00     0.169 HD
ATOM     10  H4  UNL     1      -5.212  -0.472   2.842  1.00  0.00     0.167 HD
BRANCH   7  11
HETATM   11  C2  UNL     1      -6.231   2.414   3.236  1.00  0.00     0.072 C 
HETATM   12  C1  UNL     1      -5.331   3.569   3.234  1.00  0.00     0.088 C 
HETATM   13  N1  UNL     1      -7.010   2.222   4.242  1.00  0.00    -0.389 N 
ATOM     14  H12 UNL     1      -6.966   2.891   5.010  1.00  0.00     0.157 HD
ATOM     15  H11 UNL     1      -7.637   1.417   4.243  1.00  0.00     0.157 HD
ENDBRANCH   7  11
ENDBRANCH   4   5
ENDBRANCH   3   4
ENDBRANCH   2   3
ENDBRANCH   1   2
BRANCH   1  16
HETATM   16  N5  UNL     1      -1.990  -1.269  -2.207  1.00  0.00    -0.346 N 
HETATM   17  C8  UNL     1      -2.187  -0.137  -3.003  1.00  0.00     0.246 C 
HETATM   18  O1  UNL     1      -1.569   0.951  -2.824  1.00  0.00    -0.271 OA
ATOM     19  H5  UNL     1      -2.511  -2.127  -2.386  1.00  0.00     0.163 HD
BRANCH  17  20
HETATM   20  C9  UNL     1      -3.155  -0.158  -4.121  1.00  0.00     0.206 C 
HETATM   21  C10 UNL     1      -2.500   0.177  -5.443  1.00  0.00     0.049 C 
BRANCH  20  22
HETATM   22  O2  UNL     1      -3.744  -1.412  -4.173  1.00  0.00    -0.387 OA
ATOM     23  H2  UNL     1      -4.366  -1.425  -4.891  1.00  0.00     0.210 HD
ENDBRANCH  20  22
ENDBRANCH  17  20
ENDBRANCH   1  16
BRANCH   1  24
HETATM   24  C11 UNL     1      -0.014  -2.242  -1.380  1.00  0.00     0.242 C 
HETATM   25  O3  UNL     1      -0.387  -3.247  -2.069  1.00  0.00    -0.271 OA
HETATM   26  N6  UNL     1       1.317  -2.227  -0.950  1.00  0.00    -0.349 N 
HETATM   27  C12 UNL     1       2.163  -3.375  -1.299  1.00  0.00     0.127 C 
HETATM   28  C21 UNL     1       1.755  -1.068  -0.242  1.00  0.00     0.145 C 
HETATM   29  C13 UNL     1       3.457  -2.848  -1.890  1.00  0.00     0.040 C 
HETATM   30  C14 UNL     1       4.505  -2.632  -0.840  1.00  0.00     0.126 C 
HETATM   31  N7  UNL     1       4.140  -1.431  -0.001  1.00  0.00    -0.359 N 
HETATM   32  C20 UNL     1       2.889  -1.452   0.695  1.00  0.00     0.145 C 
BRANCH  31  33
HETATM   33  C15 UNL     1       5.083  -0.431  -0.032  1.00  0.00     0.162 C 
HETATM   34  C16 UNL     1       5.367   0.847   0.532  1.00  0.00     0.256 C 
BRANCH  33  35
HETATM   35  O4  UNL     1       6.095  -0.760  -0.886  1.00  0.00    -0.345 OA
ATOM     36  H4  UNL     1       6.747  -0.069  -0.907  1.00  0.00     0.219 HD
ENDBRANCH  33  35
BRANCH  34  37
HETATM   37  N8  UNL     1       4.651   1.582   1.472  1.00  0.00    -0.055 N 
HETATM   38  C17 UNL     1       3.341   2.044   1.165  1.00  0.00     0.277 C 
HETATM   39  C18 UNL     1       4.752   1.101   2.856  1.00  0.00     0.277 C 
HETATM   40  C19 UNL     1       5.480   2.872   1.588  1.00  0.00     0.277 C 
ENDBRANCH  34  37
ENDBRANCH  31  33
ENDBRANCH   1  24
TORSDOF 12
