REMARK  10 active torsions:
REMARK  status: ('A' for Active; 'I' for Inactive)
REMARK       I    between atoms: N1_4  and  C4_6 
REMARK    1  A    between atoms: C4_6  and  C5_8 
REMARK    2  A    between atoms: C5_8  and  N2_9 
REMARK    3  A    between atoms: C5_8  and  C15_23 
REMARK       I    between atoms: N2_9  and  C6_11 
REMARK    4  A    between atoms: C6_11  and  C7_13 
REMARK    5  A    between atoms: C7_13  and  N3_14 
REMARK    6  A    between atoms: N3_14  and  C8_15 
REMARK    7  A    between atoms: C8_15  and  C9_16 
REMARK       I    between atoms: C15_23  and  N4_25 
REMARK    8  A    between atoms: N4_25  and  C16_27 
REMARK    9  A    between atoms: C17_32  and  N7_33 
REMARK       I    between atoms: N7_33  and  C18_35 
REMARK       I    between atoms: C18_35  and  N8_37 
REMARK   10  A    between atoms: N8_37  and  C19_38 
ROOT
HETATM    1  C1  UNL     1       2.217  -5.990   0.617  1.00  0.00     0.018 C 
HETATM    2  C2  UNL     1       1.704  -4.891   0.635  1.00  0.00    -0.072 C 
HETATM    3  C3  UNL     1       1.057  -3.577   0.654  1.00  0.00     0.155 C 
HETATM    4  N1  UNL     1       0.966  -3.009   1.800  1.00  0.00    -0.328 N 
ATOM      5  H1  UNL     1       1.346  -3.495   2.613  1.00  0.00     0.168 HD
HETATM    6  C4  UNL     1       0.370  -1.752   1.993  1.00  0.00     0.254 C 
HETATM    7  O1  UNL     1       0.079  -1.439   3.189  1.00  0.00    -0.270 OA
ENDROOT
BRANCH   6   8
HETATM    8  C5  UNL     1       0.063  -0.803   0.923  1.00  0.00     0.270 C 
BRANCH   8   9
HETATM    9  N2  UNL     1      -1.225  -0.146   1.199  1.00  0.00    -0.339 N 
HETATM   10  C6  UNL     1      -2.239  -0.209   0.155  1.00  0.00     0.244 C 
HETATM   11  O2  UNL     1      -1.873  -0.836  -0.819  1.00  0.00    -0.272 OA
ATOM     12  H2  UNL     1      -1.400   0.332   2.083  1.00  0.00     0.163 HD
BRANCH  10  13
HETATM   13  C7  UNL     1      -3.496   0.478   0.416  1.00  0.00     0.339 C 
BRANCH  13  14
HETATM   14  N3  UNL     1      -4.524   0.498  -0.549  1.00  0.00    -0.055 N 
HETATM   15  C11 UNL     1      -4.785   1.897  -0.934  1.00  0.00     0.264 C 
HETATM   16  C12 UNL     1      -5.330   2.044  -2.301  1.00  0.00     0.195 C 
HETATM   17  O3  UNL     1      -6.051   0.930  -2.734  1.00  0.00    -0.388 OA
HETATM   18  C13 UNL     1      -5.197  -0.162  -2.850  1.00  0.00     0.195 C 
HETATM   19  C14 UNL     1      -4.107  -0.167  -1.779  1.00  0.00     0.264 C 
BRANCH  14  20
HETATM   20  C8  UNL     1      -5.769  -0.041  -0.126  1.00  0.00     0.237 C 
BRANCH  20  21
HETATM   21  C9  UNL     1      -5.936  -0.444   1.285  1.00  0.00     0.023 C 
HETATM   22  C10 UNL     1      -7.367  -0.994   1.435  1.00  0.00     0.007 C 
ENDBRANCH  20  21
ENDBRANCH  14  20
ENDBRANCH  13  14
ENDBRANCH  10  13
ENDBRANCH   8   9
BRANCH   8  23
HETATM   23  C15 UNL     1       1.027   0.350   0.870  1.00  0.00     0.268 C 
HETATM   24  O4  UNL     1       0.900   1.267   1.750  1.00  0.00    -0.270 OA
HETATM   25  N4  UNL     1       2.015   0.462  -0.065  1.00  0.00    -0.155 N 
ATOM     26  H4  UNL     1       1.747   0.073  -0.969  1.00  0.00     0.187 HD
BRANCH  25  27
HETATM   27  C16 UNL     1       3.156   0.926  -0.066  1.00  0.00     0.714 A 
HETATM   28  N5  UNL     1       3.827   1.522   0.978  1.00  0.00    -0.117 N 
HETATM   29  N6  UNL     1       4.992   1.871   0.507  1.00  0.00    -0.117 N 
ATOM     30  H5  UNL     1       3.483   1.662   1.928  1.00  0.00     0.206 HD
HETATM   31  C17 UNL     1       5.131   1.539  -0.799  1.00  0.00     0.716 A 
ATOM     32  H6  UNL     1       5.713   2.338   1.057  1.00  0.00     0.206 HD
HETATM   33  N9  UNL     1       3.987   0.957  -1.144  1.00  0.00    -0.019 N 
ATOM     34  H9  UNL     1       3.766   0.591  -2.070  1.00  0.00     0.203 HD
BRANCH  31  35
HETATM   35  N7  UNL     1       6.153   1.730  -1.561  1.00  0.00    -0.128 N 
HETATM   36  C18 UNL     1       7.296   2.393  -0.885  1.00  0.00     0.406 C 
HETATM   37  O5  UNL     1       7.066   3.659  -0.825  1.00  0.00    -0.230 OA
HETATM   38  N8  UNL     1       8.273   1.662  -0.489  1.00  0.00    -0.397 NA
ATOM     39  H7  UNL     1       6.174   1.450  -2.542  1.00  0.00     0.190 HD
BRANCH  38  40
HETATM   40  C19 UNL     1       9.391   0.842  -0.033  1.00  0.00     0.219 C 
HETATM   41  C20 UNL     1       9.126  -0.622  -0.502  1.00  0.00     0.041 C 
ENDBRANCH  38  40
ENDBRANCH  31  35
ENDBRANCH  25  27
ENDBRANCH   8  23
ENDBRANCH   6   8
TORSDOF 10
