REMARK  3 active torsions:
REMARK  status: ('A' for Active; 'I' for Inactive)
REMARK    1  A    between atoms: C2_2  and  C3_3 
REMARK    2  A    between atoms: C3_3  and  C5_5 
REMARK    3  A    between atoms: C8_8  and  N1_9 
REMARK       I    between atoms: N1_9  and  C9_11 
REMARK       I    between atoms: C9_11  and  N3_15 
ROOT
HETATM    1  C5  UNL     1      -0.426  -0.136   0.721  1.00  0.00     0.023 C 
HETATM    2  C6  UNL     1      -0.949   0.355   2.039  1.00  0.00     0.009 C 
HETATM    3  C7  UNL     1      -0.564   1.744   1.605  1.00  0.00     0.038 C 
HETATM    4  C8  UNL     1       0.503   1.018   0.843  1.00  0.00     0.053 C 
HETATM    5  C11 UNL     1       1.371   0.557   2.027  1.00  0.00     0.048 C 
HETATM    6  C12 UNL     1       0.244   0.035   2.941  1.00  0.00     0.065 C 
HETATM    7 BR1  UNL     1       0.415  -1.864   3.202  1.00  0.00    -0.091 Br
ENDROOT
BRANCH   4   8
HETATM    8  N1  UNL     1       1.120   1.595  -0.240  1.00  0.00    -0.217 N 
HETATM    9  C9  UNL     1       1.987   0.860  -1.094  1.00  0.00     0.667 C 
HETATM   10  N2  UNL     1       1.651   0.679  -2.339  1.00  0.00    -0.235 N 
HETATM   11  N3  UNL     1       3.218   0.301  -0.662  1.00  0.00    -0.231 N 
ATOM     12  H22 UNL     1       0.766   1.081  -2.649  1.00  0.00     0.174 HD
ATOM     13  H21 UNL     1       2.273   0.152  -2.952  1.00  0.00     0.174 HD
HETATM   14  C10 UNL     1       3.649  -1.053  -0.928  1.00  0.00     0.165 C 
ATOM     15  H3  UNL     1       3.845   0.899  -0.124  1.00  0.00     0.177 HD
ATOM     16  H1  UNL     1       0.951   2.581  -0.438  1.00  0.00     0.178 HD
ENDBRANCH   4   8
BRANCH   1  17
HETATM   17  C3  UNL     1      -1.325  -0.306  -0.405  1.00  0.00    -0.012 C 
HETATM   18  C4  UNL     1      -1.974   0.878  -1.003  1.00  0.00     0.010 C 
BRANCH  17  19
HETATM   19  C2  UNL     1      -2.398  -1.328  -0.001  1.00  0.00     0.000 C 
HETATM   20  C1  UNL     1      -3.208  -1.781  -1.165  1.00  0.00     0.005 C 
ENDBRANCH  17  19
ENDBRANCH   1  17
TORSDOF 3
