REMARK  5 active torsions:
REMARK  status: ('A' for Active; 'I' for Inactive)
REMARK    1  A    between atoms: C2_2  and  S1_3 
REMARK    2  A    between atoms: S1_3  and  C3_4 
REMARK    3  A    between atoms: C5_8  and  C6_9 
REMARK    4  A    between atoms: C8_13  and  C9_14 
REMARK    5  A    between atoms: C9_14  and  C10_15 
ROOT
HETATM    1  C3  UNL     1       0.469   1.977  -0.552  1.00  0.00     0.102 A 
HETATM    2  N1  UNL     1       1.813   1.793  -0.321  1.00  0.00    -0.335 N 
ATOM      3  H1  UNL     1       2.535   2.496  -0.479  1.00  0.00     0.168 HD
HETATM    4  C4  UNL     1       2.035   0.555   0.142  1.00  0.00     0.102 A 
HETATM    5  C5  UNL     1       3.201   0.021   0.474  1.00  0.00     0.021 C 
HETATM    6  N2  UNL     1       0.840  -0.057   0.209  1.00  0.00    -0.340 N 
ATOM      7  H2  UNL     1       0.691  -1.015   0.527  1.00  0.00     0.167 HD
HETATM    8  C8  UNL     1      -0.146   0.791  -0.211  1.00  0.00     0.069 A 
ENDROOT
BRANCH   8   9
HETATM    9  C9  UNL     1      -1.409   0.441  -0.245  1.00  0.00     0.051 C 
BRANCH   9  10
HETATM   10  C10 UNL     1      -1.824  -0.888   0.171  1.00  0.00     0.059 A 
HETATM   11  C11 UNL     1      -2.241  -1.928  -0.655  1.00  0.00     0.037 A 
HETATM   12  C12 UNL     1      -2.350  -1.907  -2.126  1.00  0.00     0.070 C 
HETATM   13  N3  UNL     1      -2.535  -2.987   0.133  1.00  0.00    -0.301 N 
HETATM   14  N4  UNL     1      -2.330  -2.680   1.407  1.00  0.00    -0.266 N 
ATOM     15  H3  UNL     1      -2.866  -3.891  -0.204  1.00  0.00     0.186 HD
HETATM   16  C13 UNL     1      -1.898  -1.407   1.447  1.00  0.00     0.272 A 
ATOM     17  H4  UNL     1      -2.473  -3.295   2.208  1.00  0.00     0.190 HD
HETATM   18  O1  UNL     1      -1.601  -0.774   2.493  1.00  0.00    -0.266 OA
ENDBRANCH   9  10
ENDBRANCH   8   9
BRANCH   1  19
HETATM   19  S1  UNL     1      -0.212   3.342  -1.116  1.00  0.00    -0.083 SA
BRANCH  19  20
HETATM   20  C2  UNL     1      -1.965   3.531  -1.400  1.00  0.00     0.041 C 
HETATM   21  C1  UNL     1      -2.677   4.415  -0.724  1.00  0.00     0.019 C 
ENDBRANCH  19  20
ENDBRANCH   1  19
BRANCH   5  22
HETATM   22  C6  UNL     1       3.309  -1.361   0.973  1.00  0.00     0.026 C 
HETATM   23  C7  UNL     1       4.528  -1.562   1.842  1.00  0.00     0.009 C 
ENDBRANCH   5  22
TORSDOF 5
