REMARK  5 active torsions:
REMARK  status: ('A' for Active; 'I' for Inactive)
REMARK    1  A    between atoms: C2_2  and  C3_3 
REMARK    2  A    between atoms: C3_3  and  N1_4 
REMARK       I    between atoms: N1_4  and  C4_6 
REMARK       I    between atoms: C4_6  and  N3_10 
REMARK    3  A    between atoms: N3_10  and  C5_12 
REMARK    4  A    between atoms: C5_12  and  C6_13 
REMARK    5  A    between atoms: C10_22  and  C11_23 
ROOT
HETATM    1  C6  UNL     1       0.960  -0.166   0.587  1.00  0.00     0.112 C 
HETATM    2  N4  UNL     1       1.059   0.715   1.748  1.00  0.00    -0.360 N 
ATOM      3  H4  UNL     1       1.976   1.060   2.032  1.00  0.00     0.162 HD
HETATM    4  C7  UNL     1      -0.078   1.102   2.488  1.00  0.00     0.172 C 
HETATM    5  S1  UNL     1       0.072   1.755   3.977  1.00  0.00    -0.041 SA
HETATM    6  N5  UNL     1      -1.347   0.902   1.887  1.00  0.00    -0.336 N 
ATOM      7  H5  UNL     1      -2.185   1.174   2.402  1.00  0.00     0.168 HD
HETATM    8  C8  UNL     1      -1.476   0.393   0.722  1.00  0.00     0.024 C 
HETATM    9  C9  UNL     1      -2.867   0.230   0.195  1.00  0.00    -0.038 C 
HETATM   10  C10 UNL     1      -3.762   1.044   0.677  1.00  0.00    -0.009 C 
HETATM   11  C15 UNL     1      -3.155  -0.805  -0.800  1.00  0.00     0.040 C 
HETATM   12  C16 UNL     1      -1.913  -1.185  -1.602  1.00  0.00     0.005 C 
HETATM   13  C17 UNL     1      -0.703  -1.373  -0.744  1.00  0.00     0.013 C 
HETATM   14  C18 UNL     1      -0.349  -0.033  -0.108  1.00  0.00     0.060 C 
ENDROOT
BRANCH   1  15
HETATM   15  C5  UNL     1       2.033   0.332  -0.379  1.00  0.00     0.164 C 
BRANCH  15  16
HETATM   16  N3  UNL     1       3.355   0.276   0.153  1.00  0.00    -0.225 N 
HETATM   17  C4  UNL     1       4.000  -0.945   0.393  1.00  0.00     0.667 C 
HETATM   18  N1  UNL     1       4.795  -1.536  -0.640  1.00  0.00    -0.227 N 
HETATM   19  N2  UNL     1       3.884  -1.522   1.523  1.00  0.00    -0.235 N 
ATOM     20  H1  UNL     1       4.379  -1.775  -1.540  1.00  0.00     0.177 HD
ATOM     21  H22 UNL     1       4.353  -2.411   1.698  1.00  0.00     0.174 HD
ATOM     22  H21 UNL     1       3.317  -1.101   2.259  1.00  0.00     0.174 HD
ATOM     23  H3  UNL     1       3.843   1.146   0.364  1.00  0.00     0.177 HD
BRANCH  18  24
HETATM   24  C3  UNL     1       6.180  -1.786  -0.393  1.00  0.00     0.137 C 
BRANCH  24  25
HETATM   25  C2  UNL     1       6.970  -0.488  -0.263  1.00  0.00     0.016 C 
HETATM   26  C1  UNL     1       6.840   0.286  -1.543  1.00  0.00     0.006 C 
ENDBRANCH  24  25
ENDBRANCH  18  24
ENDBRANCH  15  16
ENDBRANCH   1  15
BRANCH  10  27
HETATM   27  C11 UNL     1      -5.172   1.020   0.268  1.00  0.00    -0.033 C 
HETATM   28  C12 UNL     1      -5.764  -0.347   0.474  1.00  0.00     0.018 C 
HETATM   29  C13 UNL     1      -5.979   1.972   1.189  1.00  0.00     0.018 C 
HETATM   30  C14 UNL     1      -5.342   1.560  -1.120  1.00  0.00     0.018 C 
ENDBRANCH  10  27
TORSDOF 5
