REMARK  12 active torsions:
REMARK  status: ('A' for Active; 'I' for Inactive)
REMARK    1  A    between atoms: N1_1  and  C1_5 
REMARK    2  A    between atoms: C3_7  and  O1_8 
REMARK    3  A    between atoms: C4_10  and  C5_11 
REMARK    4  A    between atoms: C5_11  and  O2_12 
REMARK    5  A    between atoms: C6_15  and  O4_16 
REMARK    6  A    between atoms: O4_16  and  C7_17 
REMARK    7  A    between atoms: C8_18  and  N2_19 
REMARK    8  A    between atoms: C11_25  and  N3_26 
REMARK    9  A    between atoms: C12_30  and  C13_31 
REMARK   10  A    between atoms: C14_35  and  C15_36 
REMARK   11  A    between atoms: C15_36  and  S1_37 
REMARK   12  A    between atoms: S1_37  and  C16_38 
ROOT
HETATM    1  C7  UNL     1       0.844   0.605  -1.089  1.00  0.00     0.162 C 
HETATM    2  C8  UNL     1       1.699   1.486  -2.067  1.00  0.00     0.213 C 
HETATM    3  C9  UNL     1       1.120   2.867  -1.967  1.00  0.00     0.043 C 
HETATM    4  C10 UNL     1      -0.004   2.804  -1.025  1.00  0.00     0.030 C 
HETATM    5  C11 UNL     1      -1.243   3.543  -1.481  1.00  0.00     0.227 C 
HETATM    6  C12 UNL     1      -2.489   3.082  -0.830  1.00  0.00     0.253 C 
HETATM    7  O7  UNL     1      -2.551   1.804  -0.416  1.00  0.00    -0.366 OA
HETATM    8  C14 UNL     1      -1.370   1.214   0.056  1.00  0.00     0.139 C 
HETATM    9  C20 UNL     1      -0.424   1.323  -1.117  1.00  0.00     0.053 C 
ENDROOT
BRANCH   1  10
HETATM   10  O4  UNL     1       0.716  -0.640  -1.682  1.00  0.00    -0.351 OA
BRANCH  10  11
HETATM   11  C6  UNL     1       1.263  -1.712  -1.087  1.00  0.00     0.291 C 
HETATM   12  C1  UNL     1       2.427  -2.320  -1.890  1.00  0.00     0.240 C 
HETATM   13  C2  UNL     1       3.281  -3.029  -0.864  1.00  0.00     0.072 C 
HETATM   14  C3  UNL     1       2.483  -3.729   0.181  1.00  0.00     0.151 C 
HETATM   15  C4  UNL     1       1.009  -3.758  -0.040  1.00  0.00     0.177 C 
HETATM   16  O3  UNL     1       0.464  -2.761  -0.762  1.00  0.00    -0.349 OA
BRANCH  12  17
HETATM   17  N1  UNL     1       1.929  -3.340  -2.796  1.00  0.00    -0.070 N 
ATOM     18  H13 UNL     1       2.669  -3.906  -3.211  1.00  0.00     0.274 HD
ATOM     19  H12 UNL     1       1.440  -4.098  -2.319  1.00  0.00     0.274 HD
ATOM     20  H11 UNL     1       1.353  -2.862  -3.488  1.00  0.00     0.274 HD
ENDBRANCH  12  17
BRANCH  14  21
HETATM   21  O1  UNL     1       2.814  -3.273   1.479  1.00  0.00    -0.393 OA
ATOM     22  H1  UNL     1       2.305  -3.719   2.145  1.00  0.00     0.210 HD
ENDBRANCH  14  21
BRANCH  15  23
HETATM   23  C5  UNL     1       0.337  -3.739   1.342  1.00  0.00     0.198 C 
BRANCH  23  24
HETATM   24  O2  UNL     1       0.812  -4.718   2.181  1.00  0.00    -0.398 OA
ATOM     25  H2  UNL     1       0.397  -4.706   3.035  1.00  0.00     0.209 HD
ENDBRANCH  23  24
ENDBRANCH  15  23
ENDBRANCH  10  11
ENDBRANCH   1  10
BRANCH   2  26
HETATM   26  N2  UNL     1       1.383   1.008  -3.420  1.00  0.00    -0.073 N 
ATOM     27  H23 UNL     1       1.528   0.006  -3.542  1.00  0.00     0.274 HD
ATOM     28  H22 UNL     1       0.385   1.015  -3.632  1.00  0.00     0.274 HD
ATOM     29  H21 UNL     1       1.939   1.581  -4.056  1.00  0.00     0.274 HD
ENDBRANCH   2  26
BRANCH   8  30
HETATM   30  C15 UNL     1      -1.738  -0.175   0.450  1.00  0.00     0.106 C 
BRANCH  30  31
HETATM   31  S1  UNL     1      -2.996  -0.271   1.694  1.00  0.00    -0.162 SA
BRANCH  31  32
HETATM   32  C16 UNL     1      -2.614   0.139   3.356  1.00  0.00     0.047 C 
HETATM   33  C17 UNL     1      -1.659  -0.920   3.961  1.00  0.00     0.015 C 
HETATM   34  C18 UNL     1      -1.141   0.215   4.835  1.00  0.00     0.002 C 
HETATM   35  C19 UNL     1      -1.624   1.184   3.717  1.00  0.00     0.015 C 
ENDBRANCH  31  32
ENDBRANCH  30  31
ENDBRANCH   8  30
BRANCH   5  36
HETATM   36  N3  UNL     1      -1.009   4.955  -1.369  1.00  0.00    -0.072 N 
ATOM     37  H33 UNL     1      -0.716   5.228  -0.431  1.00  0.00     0.274 HD
ATOM     38  H32 UNL     1      -0.172   5.252  -1.871  1.00  0.00     0.274 HD
ATOM     39  H31 UNL     1      -1.844   5.453  -1.676  1.00  0.00     0.274 HD
ENDBRANCH   5  36
BRANCH   6  40
HETATM   40  C13 UNL     1      -2.959   3.991   0.263  1.00  0.00     0.205 C 
HETATM   41  O5  UNL     1      -2.999   5.230   0.153  1.00  0.00    -0.646 OA
HETATM   42  O6  UNL     1      -3.376   3.443   1.468  1.00  0.00    -0.646 OA
ENDBRANCH   6  40
TORSDOF 12
