REMARK  5 active torsions:
REMARK  status: ('A' for Active; 'I' for Inactive)
REMARK    1  A    between atoms: C2_2  and  C3_3 
REMARK    2  A    between atoms: C3_3  and  C4_4 
REMARK    3  A    between atoms: C5_5  and  O1_6 
REMARK    4  A    between atoms: C6_8  and  C7_9 
REMARK    5  A    between atoms: C10_14  and  O2_15 
ROOT
HETATM    1  C4  UNL     1      -0.706  -0.176   0.031  1.00  0.00     0.004 A 
HETATM    2  C5  UNL     1       0.514  -0.852   0.059  1.00  0.00     0.084 A 
HETATM    3  C6  UNL     1       1.725  -0.229  -0.234  1.00  0.00     0.003 A 
HETATM    4  C9  UNL     1       1.742   1.099  -0.566  1.00  0.00     0.052 A 
HETATM    5  C10 UNL     1       0.548   1.779  -0.599  1.00  0.00     0.088 A 
HETATM    6  C11 UNL     1      -0.660   1.151  -0.305  1.00  0.00     0.076 A 
HETATM    7 CL3  UNL     1      -2.117   2.137  -0.391  1.00  0.00    -0.081 Cl
ENDROOT
BRANCH   3   8
HETATM    8  C7  UNL     1       2.984  -0.963  -0.203  1.00  0.00     0.050 C 
HETATM    9  C8  UNL     1       4.081  -0.574   0.393  1.00  0.00     0.104 C 
HETATM   10 CL1  UNL     1       5.537  -1.539   0.357  1.00  0.00    -0.071 Cl
HETATM   11 CL2  UNL     1       4.083   0.934   1.272  1.00  0.00    -0.071 Cl
ENDBRANCH   3   8
BRANCH   2  12
HETATM   12  O1  UNL     1       0.570  -2.172   0.375  1.00  0.00    -0.359 OA
ATOM     13  H1  UNL     1       1.401  -2.632   0.394  1.00  0.00     0.217 HD
ENDBRANCH   2  12
BRANCH   1  14
HETATM   14  C3  UNL     1      -1.940  -0.887   0.380  1.00  0.00     0.069 C 
BRANCH  14  15
HETATM   15  C2  UNL     1      -3.103  -0.076   0.738  1.00  0.00    -0.032 C 
HETATM   16  C1  UNL     1      -4.238  -0.229   0.030  1.00  0.00     0.007 C 
ENDBRANCH  14  15
ENDBRANCH   1  14
BRANCH   5  17
HETATM   17  O2  UNL     1       0.543   3.131  -0.935  1.00  0.00    -0.359 OA
ATOM     18  H2  UNL     1      -0.282   3.601  -0.958  1.00  0.00     0.217 HD
ENDBRANCH   5  17
TORSDOF 5
