REMARK  13 active torsions:
REMARK  status: ('A' for Active; 'I' for Inactive)
REMARK       I    between atoms: N1_2  and  C3_4 
REMARK       I    between atoms: C3_4  and  N3_8 
REMARK    1  A    between atoms: N3_8  and  C4_10 
REMARK    2  A    between atoms: C4_10  and  C5_11 
REMARK    3  A    between atoms: C5_11  and  C6_12 
REMARK    4  A    between atoms: C6_12  and  C7_13 
REMARK    5  A    between atoms: C7_13  and  C8_14 
REMARK    6  A    between atoms: C8_14  and  N4_15 
REMARK    7  A    between atoms: N5_18  and  C11_19 
REMARK    8  A    between atoms: C11_19  and  C12_20 
REMARK    9  A    between atoms: C12_20  and  C13_21 
REMARK   10  A    between atoms: C13_21  and  C14_22 
REMARK   11  A    between atoms: C14_22  and  N6_23 
REMARK   12  A    between atoms: N6_23  and  C15_25 
REMARK   13  A    between atoms: C22_35  and  C23_36 
ROOT
HETATM    1  C11 UNL     1      -1.837  -0.825  -0.042  1.00  0.00     0.117 C 
ENDROOT
BRANCH   1   2
HETATM    2  N5  UNL     1      -0.473  -1.179   0.089  1.00  0.00    -0.409 N 
HETATM    3  C10 UNL     1       0.001  -1.619   1.344  1.00  0.00     0.147 C 
HETATM    4  C9  UNL     1       1.130  -0.849   1.915  1.00  0.00     0.291 C 
HETATM    5  N4  UNL     1       2.210  -0.774   0.943  1.00  0.00     0.091 N 
HETATM    6  C26 UNL     1       1.671   0.047  -0.138  1.00  0.00     0.291 C 
HETATM    7  C25 UNL     1       0.455  -0.539  -0.765  1.00  0.00     0.147 C 
BRANCH   5   8
HETATM    8  C8  UNL     1       2.547  -2.087   0.515  1.00  0.00     0.272 C 
BRANCH   8   9
HETATM    9  C7  UNL     1       3.807  -2.021  -0.356  1.00  0.00     0.030 C 
BRANCH   9  10
HETATM   10  C6  UNL     1       4.876  -1.453   0.546  1.00  0.00     0.003 C 
BRANCH  10  11
HETATM   11  C5  UNL     1       6.195  -1.366  -0.188  1.00  0.00     0.020 C 
BRANCH  11  12
HETATM   12  C4  UNL     1       7.192  -0.806   0.818  1.00  0.00     0.138 C 
BRANCH  12  13
HETATM   13  N3  UNL     1       8.482  -0.732   0.181  1.00  0.00    -0.227 N 
HETATM   14  C3  UNL     1       8.692   0.212  -0.858  1.00  0.00     0.668 C 
HETATM   15  N1  UNL     1       8.974   1.554  -0.438  1.00  0.00    -0.227 N 
HETATM   16  N2  UNL     1       8.645  -0.076  -2.107  1.00  0.00    -0.235 N 
HETATM   17  C1  UNL     1       8.258   2.675  -0.998  1.00  0.00     0.168 C 
HETATM   18  C2  UNL     1      10.002   1.735   0.564  1.00  0.00     0.168 C 
ATOM     19  H22 UNL     1       8.796   0.602  -2.854  1.00  0.00     0.174 HD
ATOM     20  H21 UNL     1       8.444  -1.030  -2.406  1.00  0.00     0.174 HD
ATOM     21  H3  UNL     1       9.237  -1.352   0.474  1.00  0.00     0.177 HD
ENDBRANCH  12  13
ENDBRANCH  11  12
ENDBRANCH  10  11
ENDBRANCH   9  10
ENDBRANCH   8   9
ENDBRANCH   5   8
ENDBRANCH   1   2
BRANCH   1  22
HETATM   22  C12 UNL     1      -2.226   0.418   0.706  1.00  0.00     0.021 C 
BRANCH  22  23
HETATM   23  C13 UNL     1      -3.660   0.783   0.550  1.00  0.00     0.021 C 
BRANCH  23  24
HETATM   24  C14 UNL     1      -4.617  -0.247   1.049  1.00  0.00     0.120 C 
BRANCH  24  25
HETATM   25  N6  UNL     1      -5.958   0.250   0.830  1.00  0.00    -0.389 N 
ATOM     26  H6  UNL     1      -6.415   0.705   1.620  1.00  0.00     0.159 HD
BRANCH  25  27
HETATM   27  C15 UNL     1      -6.619   0.175  -0.245  1.00  0.00     0.042 A 
HETATM   28  C16 UNL     1      -6.063  -0.437  -1.376  1.00  0.00     0.047 A 
HETATM   29  C17 UNL     1      -6.736  -0.524  -2.571  1.00  0.00     0.090 A 
HETATM   30  N7  UNL     1      -7.962   0.002  -2.628  1.00  0.00    -0.365 N 
HETATM   31  C18 UNL     1      -8.570   0.610  -1.581  1.00  0.00     0.046 A 
ATOM     32  H7  UNL     1      -8.470  -0.057  -3.511  1.00  0.00     0.165 HD
HETATM   33  C19 UNL     1      -9.827   1.127  -1.744  1.00  0.00     0.054 A 
HETATM   34  C24 UNL     1      -7.879   0.700  -0.351  1.00  0.00     0.029 A 
HETATM   35  C20 UNL     1     -10.438   1.745  -0.700  1.00  0.00     0.036 A 
HETATM   36 CL1  UNL     1     -12.066   2.422  -0.876  1.00  0.00    -0.084 Cl
HETATM   37  C21 UNL     1      -9.779   1.830   0.474  1.00  0.00     0.037 A 
HETATM   38  C22 UNL     1      -8.477   1.319   0.717  1.00  0.00     0.022 A 
BRANCH  38  39
HETATM   39  C23 UNL     1      -7.952   1.489   2.057  1.00  0.00     0.387 C 
HETATM   40  F1  UNL     1      -8.864   0.667   2.804  1.00  0.00    -0.209 F 
HETATM   41  F2  UNL     1      -8.344   2.741   2.607  1.00  0.00    -0.209 F 
ENDBRANCH  38  39
ENDBRANCH  25  27
ENDBRANCH  24  25
ENDBRANCH  23  24
ENDBRANCH  22  23
ENDBRANCH   1  22
TORSDOF 13
