REMARK  12 active torsions:
REMARK  status: ('A' for Active; 'I' for Inactive)
REMARK       I    between atoms: C1_4  and  N2_5 
REMARK       I    between atoms: C1_4  and  N5_24 
REMARK    1  A    between atoms: N2_5  and  C2_7 
REMARK    2  A    between atoms: C2_7  and  C3_8 
REMARK    3  A    between atoms: C3_8  and  C4_9 
REMARK    4  A    between atoms: C4_9  and  C5_10 
REMARK    5  A    between atoms: C5_10  and  N3_11 
REMARK    6  A    between atoms: N3_11  and  C6_12 
REMARK    7  A    between atoms: N5_24  and  C15_25 
REMARK    8  A    between atoms: N5_24  and  C17_28 
REMARK    9  A    between atoms: C15_25  and  C16_26 
REMARK   10  A    between atoms: C17_28  and  C18_29 
REMARK   11  A    between atoms: C18_29  and  C19_30 
REMARK   12  A    between atoms: C19_30  and  N6_31 
ROOT
HETATM    1  N1  UNL     1      -1.583   0.153  -2.390  1.00  0.00    -0.235 N 
ATOM      2  H11 UNL     1      -2.545  -0.098  -2.620  1.00  0.00     0.174 HD
ATOM      3  H12 UNL     1      -0.995   0.556  -3.120  1.00  0.00     0.174 HD
HETATM    4  C1  UNL     1      -1.095  -0.023  -1.226  1.00  0.00     0.669 C 
HETATM    5  N2  UNL     1       0.223   0.321  -0.911  1.00  0.00    -0.227 N 
ATOM      6  H2  UNL     1       0.414   1.178  -0.391  1.00  0.00     0.177 HD
HETATM    7  N5  UNL     1      -1.913  -0.584  -0.210  1.00  0.00    -0.217 N 
ENDROOT
BRANCH   5   8
HETATM    8  C2  UNL     1       1.313  -0.529  -1.317  1.00  0.00     0.138 C 
BRANCH   8   9
HETATM    9  C3  UNL     1       2.633   0.058  -0.847  1.00  0.00     0.026 C 
BRANCH   9  10
HETATM   10  C4  UNL     1       2.667   0.201   0.648  1.00  0.00     0.061 C 
BRANCH  10  11
HETATM   11  C5  UNL     1       4.055   0.810   0.984  1.00  0.00     0.155 C 
BRANCH  11  12
HETATM   12  N3  UNL     1       5.102   0.076   0.623  1.00  0.00    -0.421 NA
BRANCH  12  13
HETATM   13  C6  UNL     1       6.104  -0.480   0.275  1.00  0.00     0.119 A 
HETATM   14  C7  UNL     1       6.268  -1.876   0.240  1.00  0.00     0.062 A 
HETATM   15  C8  UNL     1       7.414  -2.495  -0.146  1.00  0.00     0.092 A 
HETATM   16  N4  UNL     1       8.452  -1.738  -0.519  1.00  0.00    -0.364 N 
HETATM   17  C9  UNL     1       8.360  -0.410  -0.509  1.00  0.00     0.067 A 
ATOM     18  H4  UNL     1       9.322  -2.182  -0.814  1.00  0.00     0.165 HD
HETATM   19  C10 UNL     1       9.492   0.293  -0.913  1.00  0.00     0.061 A 
HETATM   20  C14 UNL     1       7.227   0.258  -0.127  1.00  0.00     0.033 A 
HETATM   21 CL1  UNL     1      10.964  -0.518  -1.402  1.00  0.00    -0.082 Cl
HETATM   22  C11 UNL     1       9.439   1.679  -0.918  1.00  0.00     0.026 A 
HETATM   23  C12 UNL     1       8.316   2.366  -0.540  1.00  0.00     0.003 A 
HETATM   24  C13 UNL     1       7.218   1.643  -0.147  1.00  0.00     0.017 A 
ENDBRANCH  12  13
ENDBRANCH  11  12
ENDBRANCH  10  11
ENDBRANCH   9  10
ENDBRANCH   8   9
ENDBRANCH   5   8
BRANCH   7  25
HETATM   25  C15 UNL     1      -2.073  -1.990  -0.018  1.00  0.00     0.156 C 
BRANCH  25  26
HETATM   26  C16 UNL     1      -1.475  -2.527   1.249  1.00  0.00     0.135 C 
HETATM   27 CL2  UNL     1      -1.761  -4.281   1.314  1.00  0.00    -0.129 Cl
ENDBRANCH  25  26
ENDBRANCH   7  25
BRANCH   7  28
HETATM   28  C17 UNL     1      -2.603   0.372   0.652  1.00  0.00     0.143 C 
BRANCH  28  29
HETATM   29  C18 UNL     1      -4.095   0.215   0.316  1.00  0.00     0.050 C 
BRANCH  29  30
HETATM   30  C19 UNL     1      -4.849   1.191   1.156  1.00  0.00     0.274 C 
BRANCH  30  31
HETATM   31  N6  UNL     1      -6.255   1.096   0.924  1.00  0.00     0.089 N 
HETATM   32  C20 UNL     1      -6.801  -0.155   1.430  1.00  0.00     0.272 C 
HETATM   33  C21 UNL     1      -8.262  -0.235   1.117  1.00  0.00     0.032 C 
HETATM   34  C22 UNL     1      -8.719   1.089   0.578  1.00  0.00     0.024 C 
HETATM   35  C23 UNL     1      -8.016   1.378  -0.711  1.00  0.00     0.110 C 
HETATM   36 CL3  UNL     1      -8.540   0.234  -1.969  1.00  0.00    -0.123 Cl
HETATM   37  C24 UNL     1      -6.516   1.244  -0.496  1.00  0.00     0.292 C 
ENDBRANCH  30  31
ENDBRANCH  29  30
ENDBRANCH  28  29
ENDBRANCH   7  28
TORSDOF 12
