REMARK  4 active torsions:
REMARK  status: ('A' for Active; 'I' for Inactive)
REMARK       I    between atoms: C1_2  and  N1_3 
REMARK    1  A    between atoms: C1_2  and  C15_23 
REMARK    2  A    between atoms: C2_5  and  C3_6 
REMARK    3  A    between atoms: C7_13  and  C8_14 
REMARK    4  A    between atoms: C8_14  and  O4_15 
ROOT
HETATM    1  C3  UNL     1       0.673   0.531   0.389  1.00  0.00     0.172 C 
HETATM    2  C4  UNL     1       0.269   1.639  -0.531  1.00  0.00     0.112 C 
HETATM    3  S1  UNL     1      -1.512   1.701  -0.716  1.00  0.00    -0.155 SA
HETATM    4  C5  UNL     1      -2.386   0.812   0.595  1.00  0.00     0.117 C 
HETATM    5  C6  UNL     1      -1.372  -0.075   1.294  1.00  0.00     0.276 C 
HETATM    6  O2  UNL     1      -0.169   0.558   1.498  1.00  0.00    -0.349 OA
HETATM    7  O3  UNL     1      -1.203  -1.172   0.465  1.00  0.00    -0.352 OA
HETATM    8  C7  UNL     1      -2.352  -1.363  -0.245  1.00  0.00     0.161 C 
HETATM    9  C9  UNL     1      -3.319  -0.243   0.023  1.00  0.00     0.022 C 
HETATM   10  C10 UNL     1      -3.958   0.240  -1.231  1.00  0.00    -0.017 C 
HETATM   11  C11 UNL     1      -5.214   0.611  -1.236  1.00  0.00    -0.030 C 
HETATM   12  C12 UNL     1      -6.154   0.617  -0.094  1.00  0.00     0.027 C 
HETATM   13  C13 UNL     1      -5.347   0.571   1.183  1.00  0.00     0.005 C 
HETATM   14  C14 UNL     1      -4.349  -0.562   1.069  1.00  0.00     0.018 C 
ENDROOT
BRANCH   1  15
HETATM   15  C2  UNL     1       2.105   0.605   0.779  1.00  0.00     0.096 C 
HETATM   16  N1  UNL     1       2.937   1.423   0.282  1.00  0.00    -0.336 N 
HETATM   17  C1  UNL     1       4.276   1.448   0.688  1.00  0.00     0.251 C 
ATOM     18  H1  UNL     1       2.622   2.080  -0.432  1.00  0.00     0.168 HD
HETATM   19  O1  UNL     1       4.772   2.548   1.042  1.00  0.00    -0.270 OA
BRANCH  17  20
HETATM   20  C15 UNL     1       5.164   0.265   0.732  1.00  0.00     0.224 C 
HETATM   21  O5  UNL     1       4.563  -0.928   0.328  1.00  0.00    -0.375 OA
HETATM   22  C16 UNL     1       5.685  -1.295  -0.419  1.00  0.00     0.181 C 
HETATM   23  C17 UNL     1       6.138   0.111  -0.354  1.00  0.00     0.016 A 
HETATM   24  C18 UNL     1       7.480   0.601  -0.428  1.00  0.00     0.016 A 
HETATM   25  C19 UNL     1       6.387   0.999  -1.453  1.00  0.00     0.016 A 
ENDBRANCH  17  20
ENDBRANCH   1  15
BRANCH   8  26
HETATM   26  C8  UNL     1      -2.900  -2.744   0.017  1.00  0.00     0.197 C 
BRANCH  26  27
HETATM   27  O4  UNL     1      -3.151  -2.939   1.364  1.00  0.00    -0.398 OA
ATOM     28  H4  UNL     1      -3.496  -3.809   1.529  1.00  0.00     0.209 HD
ENDBRANCH  26  27
ENDBRANCH   8  26
TORSDOF 4
