REMARK  8 active torsions:
REMARK  status: ('A' for Active; 'I' for Inactive)
REMARK    1  A    between atoms: C2_2  and  O2_4 
REMARK    2  A    between atoms: O2_4  and  C3_5 
REMARK    3  A    between atoms: C10_12  and  O3_13 
REMARK    4  A    between atoms: C10_12  and  C11_15 
REMARK    5  A    between atoms: C12_16  and  C13_17 
REMARK    6  A    between atoms: C16_21  and  C17_22 
REMARK    7  A    between atoms: C17_22  and  C19_25 
REMARK    8  A    between atoms: C19_25  and  C20_26 
ROOT
HETATM    1  C3  UNL     1      -0.230   0.919  -0.394  1.00  0.00     0.172 C 
HETATM    2  C4  UNL     1      -1.315  -0.121  -0.789  1.00  0.00     0.041 C 
HETATM    3  C5  UNL     1      -2.610   0.407  -0.345  1.00  0.00    -0.011 C 
HETATM    4  C6  UNL     1      -3.770   0.231  -1.338  1.00  0.00     0.010 C 
HETATM    5  C7  UNL     1      -3.053   0.071   1.048  1.00  0.00     0.005 C 
HETATM    6  C8  UNL     1      -1.939  -0.305   1.971  1.00  0.00     0.009 C 
HETATM    7  C9  UNL     1      -0.689  -0.734   1.319  1.00  0.00     0.042 C 
HETATM    8  C10 UNL     1       0.180   0.492   0.976  1.00  0.00     0.094 C 
HETATM    9  C19 UNL     1      -0.802  -1.358  -0.031  1.00  0.00     0.067 C 
ENDROOT
BRANCH   1  10
HETATM   10  O2  UNL     1      -0.713   2.223  -0.344  1.00  0.00    -0.313 OA
BRANCH  10  11
HETATM   11  C2  UNL     1      -0.303   3.254  -1.149  1.00  0.00     0.255 C 
HETATM   12  C1  UNL     1      -0.842   4.636  -1.067  1.00  0.00     0.126 C 
HETATM   13  O1  UNL     1       0.578   2.983  -1.993  1.00  0.00    -0.266 OA
ENDBRANCH  10  11
ENDBRANCH   1  10
BRANCH   8  14
HETATM   14  O3  UNL     1      -0.035   1.420   1.966  1.00  0.00    -0.386 OA
ATOM     15  H3  UNL     1       0.226   1.148   2.838  1.00  0.00     0.210 HD
ENDBRANCH   8  14
BRANCH   8  16
HETATM   16  C11 UNL     1       1.585  -0.047   1.058  1.00  0.00     0.041 A 
HETATM   17  C12 UNL     1       2.651   0.503   0.211  1.00  0.00     0.063 A 
HETATM   18  C15 UNL     1       2.881  -0.838  -0.493  1.00  0.00     0.020 A 
HETATM   19  C16 UNL     1       1.716  -1.362   0.332  1.00  0.00     0.032 A 
BRANCH  17  20
HETATM   20  C13 UNL     1       3.912   0.893   0.894  1.00  0.00     0.127 C 
HETATM   21  C14 UNL     1       5.013   1.452   0.080  1.00  0.00     0.091 C 
HETATM   22  O4  UNL     1       4.070   0.769   2.087  1.00  0.00    -0.298 OA
ENDBRANCH  17  20
BRANCH  19  23
HETATM   23  C17 UNL     1       0.573  -1.719  -0.527  1.00  0.00     0.102 A 
HETATM   24  C18 UNL     1       0.816  -2.912  -1.411  1.00  0.00     0.208 A 
HETATM   25  O5  UNL     1       0.647  -1.640  -1.916  1.00  0.00    -0.373 OA
ENDBRANCH  19  23
ENDBRANCH   8  16
BRANCH   9  26
HETATM   26  C20 UNL     1      -1.648  -2.517  -0.173  1.00  0.00     0.135 C 
HETATM   27  C21 UNL     1      -1.434  -3.811   0.571  1.00  0.00     0.091 C 
HETATM   28  O6  UNL     1      -2.602  -2.521  -0.918  1.00  0.00    -0.297 OA
ENDBRANCH   9  26
TORSDOF 8
