REMARK  4 active torsions:
REMARK  status: ('A' for Active; 'I' for Inactive)
REMARK    1  A    between atoms: N2_7  and  C6_8 
REMARK    2  A    between atoms: C10_13  and  C11_14 
REMARK    3  A    between atoms: C12_15  and  C13_16 
REMARK    4  A    between atoms: C19_24  and  O3_25 
ROOT
HETATM    1  N1  UNL     1       4.020   3.418  -1.308  1.00  0.00    -0.195 NA
HETATM    2  C1  UNL     1       4.042   2.266  -1.207  1.00  0.00     0.095 C 
HETATM    3  C2  UNL     1       4.066   0.788  -1.105  1.00  0.00     0.329 C 
HETATM    4  C3  UNL     1       5.215   0.372  -0.264  1.00  0.00     0.053 C 
HETATM    5  C4  UNL     1       4.636  -0.113   1.018  1.00  0.00     0.033 C 
HETATM    6  C5  UNL     1       3.160   0.162   0.861  1.00  0.00     0.275 C 
HETATM    7  N2  UNL     1       2.828   0.419  -0.455  1.00  0.00     0.118 N 
ENDROOT
BRANCH   7   8
HETATM    8  C6  UNL     1       2.155  -0.519  -1.251  1.00  0.00     0.301 C 
HETATM    9  C7  UNL     1       2.886  -1.807  -1.441  1.00  0.00     0.161 C 
HETATM   10  O1  UNL     1       3.876  -2.060  -2.104  1.00  0.00    -0.296 OA
HETATM   11  C8  UNL     1       2.189  -2.860  -0.638  1.00  0.00     0.081 C 
HETATM   12  C9  UNL     1       0.909  -2.275  -0.145  1.00  0.00     0.018 C 
HETATM   13  C10 UNL     1       0.811  -0.967  -0.872  1.00  0.00     0.049 C 
BRANCH  13  14
HETATM   14  C11 UNL     1      -0.039   0.024  -0.191  1.00  0.00    -0.023 C 
HETATM   15  C12 UNL     1      -1.120   0.570  -0.717  1.00  0.00    -0.024 C 
BRANCH  15  16
HETATM   16  C13 UNL     1      -1.985   1.557  -0.067  1.00  0.00     0.024 C 
HETATM   17  C14 UNL     1      -1.485   1.826   1.329  1.00  0.00     0.083 C 
HETATM   18  S1  UNL     1      -1.863   0.485   2.475  1.00  0.00    -0.168 SA
HETATM   19  C15 UNL     1      -3.124  -0.634   1.885  1.00  0.00     0.079 C 
HETATM   20  C16 UNL     1      -3.516  -0.386   0.448  1.00  0.00     0.009 C 
HETATM   21  C17 UNL     1      -5.012  -0.629   0.240  1.00  0.00     0.087 C 
HETATM   22  C20 UNL     1      -3.404   1.060   0.066  1.00  0.00     0.035 C 
HETATM   23  C18 UNL     1      -5.242   0.108  -1.036  1.00  0.00     0.156 C 
HETATM   24  O2  UNL     1      -6.174  -0.060  -1.809  1.00  0.00    -0.295 OA
HETATM   25  C19 UNL     1      -4.152   1.100  -1.244  1.00  0.00     0.192 C 
BRANCH  25  26
HETATM   26  O3  UNL     1      -4.740   2.354  -1.359  1.00  0.00    -0.388 OA
ATOM     27  H3  UNL     1      -4.044   2.987  -1.492  1.00  0.00     0.210 HD
ENDBRANCH  25  26
ENDBRANCH  15  16
ENDBRANCH  13  14
ENDBRANCH   7   8
TORSDOF 4
