REMARK  3 active torsions:
REMARK  status: ('A' for Active; 'I' for Inactive)
REMARK    1  A    between atoms: C4_5  and  O1_6 
REMARK    2  A    between atoms: C9_13  and  C10_14 
REMARK    3  A    between atoms: N3_18  and  C13_19 
ROOT
HETATM    1  C1  UNL     1      -1.473  -1.999   1.130  1.00  0.00     0.279 C 
HETATM    2  N1  UNL     1      -1.567  -0.559   1.092  1.00  0.00    -0.044 N 
HETATM    3  C2  UNL     1      -0.684  -0.021   2.108  1.00  0.00     0.279 C 
HETATM    4  C3  UNL     1      -2.921  -0.266   1.604  1.00  0.00     0.274 C 
HETATM    5  C4  UNL     1      -3.464   1.045   1.154  1.00  0.00     0.150 C 
HETATM    6  C5  UNL     1      -3.564   1.167  -0.343  1.00  0.00     0.036 C 
HETATM    7  C6  UNL     1      -4.920   0.952  -0.892  1.00  0.00     0.019 C 
HETATM    8  C7  UNL     1      -5.247  -0.493  -0.994  1.00  0.00     0.075 C 
HETATM    9  S1  UNL     1      -3.584  -1.233  -1.251  1.00  0.00    -0.157 SA
HETATM   10  C8  UNL     1      -2.603   0.242  -1.001  1.00  0.00     0.113 C 
HETATM   11  C9  UNL     1      -1.342   0.017  -0.169  1.00  0.00     0.142 C 
ENDROOT
BRANCH  11  12
HETATM   12  C10 UNL     1      -0.261  -0.443  -1.067  1.00  0.00     0.120 C 
HETATM   13  N2  UNL     1       1.071  -0.388  -0.801  1.00  0.00    -0.385 N 
HETATM   14  C11 UNL     1       1.877  -1.088   0.067  1.00  0.00     0.142 C 
HETATM   15  C17 UNL     1       1.865  -0.094  -2.013  1.00  0.00     0.142 C 
HETATM   16  C12 UNL     1       2.889  -0.081   0.665  1.00  0.00     0.145 C 
HETATM   17  N3  UNL     1       3.688   0.350  -0.464  1.00  0.00    -0.358 N 
HETATM   18  C16 UNL     1       3.080   0.708  -1.711  1.00  0.00     0.145 C 
BRANCH  17  19
HETATM   19  C13 UNL     1       5.115   0.400  -0.269  1.00  0.00     0.146 A 
HETATM   20  N4  UNL     1       6.013  -0.555  -0.467  1.00  0.00    -0.346 N 
HETATM   21  C14 UNL     1       7.263  -0.326  -0.239  1.00  0.00     0.097 A 
ATOM     22  H4  UNL     1       5.716  -1.472  -0.800  1.00  0.00     0.167 HD
HETATM   23  C15 UNL     1       7.617   0.920   0.209  1.00  0.00     0.070 A 
HETATM   24  S2  UNL     1       6.095   1.699   0.273  1.00  0.00    -0.065 SA
ENDBRANCH  17  19
ENDBRANCH  11  12
BRANCH   5  25
HETATM   25  O1  UNL     1      -2.651   2.059   1.651  1.00  0.00    -0.393 OA
ATOM     26  H1  UNL     1      -2.998   2.896   1.364  1.00  0.00     0.210 HD
ENDBRANCH   5  25
TORSDOF 3
