REMARK  5 active torsions:
REMARK  status: ('A' for Active; 'I' for Inactive)
REMARK    1  A    between atoms: C2_2  and  C4_4 
REMARK    2  A    between atoms: C15_17  and  O2_18 
REMARK    3  A    between atoms: C16_20  and  C17_21 
REMARK    4  A    between atoms: C17_21  and  O3_22 
REMARK    5  A    between atoms: O3_22  and  C18_23 
ROOT
HETATM    1  C4  UNL     1      -2.932  -1.674  -0.471  1.00  0.00     0.152 C 
HETATM    2  C5  UNL     1      -2.543  -2.060   0.965  1.00  0.00     0.071 C 
HETATM    3  C6  UNL     1      -1.224  -1.270   1.032  1.00  0.00     0.154 C 
HETATM    4  O1  UNL     1      -0.312  -1.989   0.315  1.00  0.00    -0.375 OA
HETATM    5  C7  UNL     1       0.725  -1.302  -0.223  1.00  0.00     0.160 C 
HETATM    6  C8  UNL     1       2.037  -1.931   0.126  1.00  0.00     0.071 C 
HETATM    7  C9  UNL     1       3.161  -0.964   0.283  1.00  0.00     0.225 C 
HETATM    8  C10 UNL     1       4.484  -1.691  -0.000  1.00  0.00     0.036 C 
HETATM    9  C11 UNL     1       5.564  -0.795   0.521  1.00  0.00     0.004 C 
HETATM   10  C12 UNL     1       5.463   0.619   0.077  1.00  0.00     0.030 C 
HETATM   11  C13 UNL     1       4.097   1.127  -0.191  1.00  0.00     0.273 C 
HETATM   12  N1  UNL     1       3.133   0.154  -0.591  1.00  0.00     0.096 N 
HETATM   13  C14 UNL     1       1.857   0.787  -0.737  1.00  0.00     0.313 C 
HETATM   14  C15 UNL     1       0.776   0.160   0.119  1.00  0.00     0.118 C 
HETATM   15  C16 UNL     1      -0.552   0.766  -0.279  1.00  0.00     0.080 C 
HETATM   16  C20 UNL     1      -1.684  -0.000   0.347  1.00  0.00     0.160 C 
HETATM   17  O5  UNL     1      -2.675  -0.335  -0.540  1.00  0.00    -0.373 OA
ENDROOT
BRANCH  15  18
HETATM   18  C17 UNL     1      -0.656   2.212   0.166  1.00  0.00     0.189 C 
BRANCH  18  19
HETATM   19  O3  UNL     1      -1.901   2.771  -0.211  1.00  0.00    -0.321 OA
BRANCH  19  20
HETATM   20  C18 UNL     1      -2.213   4.082   0.094  1.00  0.00     0.254 C 
HETATM   21  C19 UNL     1      -3.475   4.739  -0.256  1.00  0.00     0.126 C 
HETATM   22  O4  UNL     1      -1.337   4.749   0.721  1.00  0.00    -0.266 OA
ENDBRANCH  19  20
ENDBRANCH  18  19
ENDBRANCH  15  18
BRANCH  14  23
HETATM   23  O2  UNL     1       0.999   0.374   1.472  1.00  0.00    -0.385 OA
ATOM     24  H2  UNL     1       1.031   1.298   1.688  1.00  0.00     0.210 HD
ENDBRANCH  14  23
BRANCH   1  25
HETATM   25  C2  UNL     1      -4.307  -2.067  -0.754  1.00  0.00    -0.064 C 
HETATM   26  C1  UNL     1      -4.571  -2.915  -1.734  1.00  0.00     0.016 C 
HETATM   27  C3  UNL     1      -5.435  -1.530   0.045  1.00  0.00     0.045 C 
ENDBRANCH   1  25
TORSDOF 5
