REMARK  9 active torsions:
REMARK  status: ('A' for Active; 'I' for Inactive)
REMARK    1  A    between atoms: C2_2  and  O1_3 
REMARK    2  A    between atoms: O1_3  and  C3_4 
REMARK       I    between atoms: C3_4  and  N1_6 
REMARK    3  A    between atoms: N2_9  and  C6_10 
REMARK    4  A    between atoms: C6_10  and  C7_11 
REMARK    5  A    between atoms: C7_11  and  O3_12 
REMARK    6  A    between atoms: C7_11  and  C8_14 
REMARK    7  A    between atoms: C8_14  and  O4_15 
REMARK    8  A    between atoms: C8_14  and  C9_17 
REMARK    9  A    between atoms: C9_17  and  C10_19 
ROOT
HETATM    1  C7  UNL     1       0.180   1.128  -0.376  1.00  0.00     0.192 C 
ENDROOT
BRANCH   1   2
HETATM    2  C6  UNL     1       0.866   0.603   0.839  1.00  0.00     0.092 C 
BRANCH   2   3
HETATM    3  N2  UNL     1       2.216   0.232   0.682  1.00  0.00    -0.388 N 
HETATM    4  C5  UNL     1       2.818  -0.360   1.821  1.00  0.00     0.142 C 
HETATM    5  C4  UNL     1       4.255   0.097   1.933  1.00  0.00     0.148 C 
HETATM    6  N1  UNL     1       4.913  -0.024   0.629  1.00  0.00    -0.325 N 
HETATM    7  C3  UNL     1       6.184  -0.650   0.539  1.00  0.00     0.362 C 
HETATM    8  C19 UNL     1       4.258   0.493  -0.547  1.00  0.00     0.148 C 
HETATM    9  O2  UNL     1       6.766  -1.107   1.581  1.00  0.00    -0.238 OA
HETATM   10  C18 UNL     1       2.791   0.040  -0.568  1.00  0.00     0.142 C 
BRANCH   7  11
HETATM   11  O1  UNL     1       6.869  -0.809  -0.646  1.00  0.00    -0.304 OA
BRANCH  11  12
HETATM   12  C2  UNL     1       8.142  -1.446  -0.686  1.00  0.00     0.176 C 
HETATM   13  C1  UNL     1       9.168  -0.748   0.145  1.00  0.00     0.034 C 
ENDBRANCH  11  12
ENDBRANCH   7  11
ENDBRANCH   2   3
ENDBRANCH   1   2
BRANCH   1  14
HETATM   14  O3  UNL     1       0.059   0.262  -1.435  1.00  0.00    -0.387 OA
ATOM     15  H3  UNL     1      -0.378   0.597  -2.209  1.00  0.00     0.210 HD
ENDBRANCH   1  14
BRANCH   1  16
HETATM   16  C8  UNL     1      -1.114   1.867  -0.081  1.00  0.00     0.225 C 
BRANCH  16  17
HETATM   17  O4  UNL     1      -1.471   2.642  -1.196  1.00  0.00    -0.385 OA
ATOM     18  H4  UNL     1      -2.280   3.104  -1.012  1.00  0.00     0.210 HD
ENDBRANCH  16  17
BRANCH  16  19
HETATM   19  C9  UNL     1      -2.237   0.956   0.259  1.00  0.00     0.180 C 
HETATM   20  O5  UNL     1      -2.145   0.187   1.232  1.00  0.00    -0.290 OA
BRANCH  19  21
HETATM   21  C10 UNL     1      -3.430   0.974  -0.549  1.00  0.00     0.056 C 
HETATM   22  C11 UNL     1      -4.511   0.248  -0.407  1.00  0.00    -0.076 C 
HETATM   23  C12 UNL     1      -5.618   0.474  -1.403  1.00  0.00     0.034 C 
HETATM   24  C17 UNL     1      -4.609  -0.730   0.670  1.00  0.00     0.034 C 
HETATM   25  C13 UNL     1      -6.232  -0.893  -1.668  1.00  0.00     0.008 C 
HETATM   26  C14 UNL     1      -6.836  -1.339  -0.376  1.00  0.00    -0.018 C 
HETATM   27  C15 UNL     1      -7.994  -0.401  -0.058  1.00  0.00     0.010 C 
HETATM   28  C16 UNL     1      -5.904  -1.471   0.768  1.00  0.00     0.008 C 
ENDBRANCH  19  21
ENDBRANCH  16  19
ENDBRANCH   1  16
TORSDOF 9
