REMARK  6 active torsions:
REMARK  status: ('A' for Active; 'I' for Inactive)
REMARK    1  A    between atoms: C1_2  and  O2_3 
REMARK       I    between atoms: C1_2  and  N1_11 
REMARK    2  A    between atoms: O2_3  and  C2_4 
REMARK    3  A    between atoms: C2_4  and  C3_5 
REMARK    4  A    between atoms: N2_17  and  C11_18 
REMARK    5  A    between atoms: C11_18  and  O6_19 
REMARK    6  A    between atoms: C11_18  and  C12_21 
ROOT
HETATM    1  O1  UNL     1      -1.704  -2.216  -0.015  1.00  0.00    -0.238 OA
HETATM    2  C1  UNL     1      -1.739  -0.964  -0.205  1.00  0.00     0.362 C 
HETATM    3  N1  UNL     1      -0.571  -0.165  -0.059  1.00  0.00    -0.323 N 
HETATM    4  C8  UNL     1      -0.534   1.272  -0.259  1.00  0.00     0.163 C 
HETATM    5  C9  UNL     1       0.610   1.672   0.611  1.00  0.00     0.176 C 
HETATM    6  O4  UNL     1       0.470   1.270   1.967  1.00  0.00    -0.295 OA
HETATM    7  C10 UNL     1       1.773   1.028   2.384  1.00  0.00     0.365 C 
HETATM    8  O5  UNL     1       2.269   1.012   3.545  1.00  0.00    -0.238 OA
HETATM    9  N2  UNL     1       2.598   0.767   1.211  1.00  0.00    -0.292 N 
HETATM   10  C18 UNL     1       1.653   0.609   0.165  1.00  0.00     0.141 C 
HETATM   11  C19 UNL     1       0.762  -0.607   0.305  1.00  0.00     0.156 C 
ENDROOT
BRANCH   2  12
HETATM   12  O2  UNL     1      -2.969  -0.434  -0.558  1.00  0.00    -0.304 OA
BRANCH  12  13
HETATM   13  C2  UNL     1      -4.132  -1.258  -0.700  1.00  0.00     0.185 C 
BRANCH  13  14
HETATM   14  C3  UNL     1      -5.274  -0.336  -1.091  1.00  0.00     0.014 C 
HETATM   15  C4  UNL     1      -6.539  -1.181  -1.253  1.00  0.00     0.033 C 
HETATM   16  C5  UNL     1      -7.186  -1.209   0.133  1.00  0.00     0.168 C 
HETATM   17  O3  UNL     1      -7.854  -0.009   0.289  1.00  0.00    -0.391 OA
HETATM   18  C6  UNL     1      -7.043   1.060  -0.004  1.00  0.00     0.168 C 
HETATM   19  C7  UNL     1      -5.565   0.693  -0.032  1.00  0.00     0.033 C 
ENDBRANCH  13  14
ENDBRANCH  12  13
ENDBRANCH   2  12
BRANCH   9  20
HETATM   20  C11 UNL     1       4.030   0.729   1.185  1.00  0.00     0.229 C 
BRANCH  20  21
HETATM   21  O6  UNL     1       4.563   1.771   0.396  1.00  0.00    -0.376 OA
ATOM     22  H6  UNL     1       5.513   1.746   0.379  1.00  0.00     0.212 HD
ENDBRANCH  20  21
BRANCH  20  23
HETATM   23  C12 UNL     1       4.681  -0.554   0.835  1.00  0.00     0.035 C 
HETATM   24  C13 UNL     1       6.215  -0.370   0.910  1.00  0.00     0.014 C 
HETATM   25  C14 UNL     1       6.532   0.362  -0.351  1.00  0.00    -0.010 A 
HETATM   26  C15 UNL     1       6.925  -0.477  -1.528  1.00  0.00     0.010 A 
HETATM   27  C16 UNL     1       5.509  -0.058  -1.375  1.00  0.00    -0.010 A 
HETATM   28  C17 UNL     1       4.553  -0.956  -0.606  1.00  0.00     0.014 C 
ENDBRANCH  20  23
ENDBRANCH   9  20
TORSDOF 6
