REMARK  7 active torsions:
REMARK  status: ('A' for Active; 'I' for Inactive)
REMARK       I    between atoms: N2_5  and  C4_6 
REMARK    1  A    between atoms: C4_6  and  C5_8 
REMARK    2  A    between atoms: C5_8  and  N3_9 
REMARK    3  A    between atoms: C5_8  and  C12_23 
REMARK    4  A    between atoms: N3_9  and  C6_12 
REMARK    5  A    between atoms: C6_12  and  C7_13 
REMARK       I    between atoms: C7_13  and  N4_15 
REMARK    6  A    between atoms: N4_15  and  C8_17 
REMARK    7  A    between atoms: C8_17  and  C9_18 
ROOT
HETATM    1  C5  UNL     1      -0.527  -0.947  -0.628  1.00  0.00     0.281 C 
ENDROOT
BRANCH   1   2
HETATM    2  C4  UNL     1      -1.117  -0.040   0.356  1.00  0.00     0.251 C 
HETATM    3  N2  UNL     1      -2.395   0.571   0.286  1.00  0.00    -0.347 N 
HETATM    4  C3  UNL     1      -2.884   1.430   1.381  1.00  0.00     0.156 C 
HETATM    5  C17 UNL     1      -3.321   0.465  -0.812  1.00  0.00     0.156 C 
HETATM    6  C2  UNL     1      -4.083   2.218   0.971  1.00  0.00     0.291 C 
HETATM    7  N1  UNL     1      -3.826   2.835  -0.306  1.00  0.00     0.087 N 
HETATM    8  C1  UNL     1      -4.857   3.795  -0.650  1.00  0.00     0.310 C 
HETATM    9  C18 UNL     1      -3.639   1.859  -1.363  1.00  0.00     0.291 C 
HETATM   10  O1  UNL     1      -0.434   0.257   1.406  1.00  0.00    -0.271 OA
ENDBRANCH   1   2
BRANCH   1  11
HETATM   11  N3  UNL     1       0.930  -0.785  -0.708  1.00  0.00    -0.054 N 
ATOM     12  H32 UNL     1       1.372  -1.000   0.186  1.00  0.00     0.278 HD
ATOM     13  H31 UNL     1       1.349  -1.519  -1.279  1.00  0.00     0.278 HD
BRANCH  11  14
HETATM   14  C6  UNL     1       1.315   0.511  -1.173  1.00  0.00     0.335 C 
BRANCH  14  15
HETATM   15  C7  UNL     1       2.787   0.628  -1.098  1.00  0.00     0.243 C 
HETATM   16  O2  UNL     1       3.297   1.688  -1.496  1.00  0.00    -0.272 OA
HETATM   17  N4  UNL     1       3.558  -0.432  -0.591  1.00  0.00    -0.355 N 
ATOM     18  H4  UNL     1       3.033  -1.258  -0.306  1.00  0.00     0.162 HD
BRANCH  17  19
HETATM   19  C8  UNL     1       4.966  -0.515  -0.420  1.00  0.00     0.183 C 
BRANCH  19  20
HETATM   20  C9  UNL     1       5.544   0.473   0.548  1.00  0.00     0.277 C 
HETATM   21  O3  UNL     1       4.948   0.285   1.800  1.00  0.00    -0.358 OA
HETATM   22  C10 UNL     1       5.292   1.425   2.513  1.00  0.00     0.197 C 
HETATM   23  C11 UNL     1       5.646   2.442   1.470  1.00  0.00     0.197 C 
HETATM   24  O4  UNL     1       5.321   1.783   0.276  1.00  0.00    -0.358 OA
ENDBRANCH  19  20
ENDBRANCH  17  19
ENDBRANCH  14  15
ENDBRANCH  11  14
ENDBRANCH   1  11
BRANCH   1  25
HETATM   25  C12 UNL     1      -0.728  -2.399  -0.408  1.00  0.00     0.026 C 
HETATM   26  C13 UNL     1      -0.206  -2.983   0.855  1.00  0.00     0.007 C 
HETATM   27  C14 UNL     1      -1.124  -4.158   1.222  1.00  0.00     0.000 C 
HETATM   28  C15 UNL     1      -1.924  -4.354  -0.058  1.00  0.00     0.000 C 
HETATM   29  C16 UNL     1      -2.160  -2.875  -0.425  1.00  0.00     0.007 C 
ENDBRANCH   1  25
TORSDOF 7
