REMARK  9 active torsions:
REMARK  status: ('A' for Active; 'I' for Inactive)
REMARK    1  A    between atoms: S1_2  and  O2_4 
REMARK    2  A    between atoms: O2_4  and  C2_5 
REMARK    3  A    between atoms: C3_6  and  N1_7 
REMARK       I    between atoms: N1_7  and  C4_9 
REMARK    4  A    between atoms: C4_9  and  C5_11 
REMARK    5  A    between atoms: C5_11  and  N2_12 
REMARK    6  A    between atoms: C9_16  and  N3_17 
REMARK    7  A    between atoms: N3_17  and  N4_19 
REMARK    8  A    between atoms: N4_19  and  N5_20 
REMARK    9  A    between atoms: C10_23  and  O4_24 
ROOT
HETATM    1  C2  UNL     1      -1.619  -0.827  -0.687  1.00  0.00     0.400 C 
HETATM    2  C3  UNL     1      -0.715  -0.028   0.226  1.00  0.00     0.172 C 
HETATM    3  C9  UNL     1      -1.320  -0.041   1.598  1.00  0.00     0.172 C 
HETATM    4  C10 UNL     1      -2.732   0.423   1.611  1.00  0.00     0.179 C 
HETATM    5  C11 UNL     1      -3.584  -0.092   0.507  1.00  0.00     0.257 C 
HETATM    6  C12 UNL     1      -4.704   0.897   0.190  1.00  0.00     0.040 C 
HETATM    7  C13 UNL     1      -4.454   1.390  -1.215  1.00  0.00     0.033 C 
HETATM    8  C14 UNL     1      -3.024   0.968  -1.480  1.00  0.00     0.276 C 
HETATM    9  N6  UNL     1      -2.936  -0.265  -0.744  1.00  0.00     0.128 N 
ENDROOT
BRANCH   2  10
HETATM   10  N1  UNL     1       0.584  -0.613   0.287  1.00  0.00    -0.348 N 
HETATM   11  C4  UNL     1       1.781   0.082  -0.034  1.00  0.00     0.244 C 
HETATM   12  O3  UNL     1       1.713   1.303  -0.401  1.00  0.00    -0.272 OA
ATOM     13  H1  UNL     1       0.658  -1.588   0.578  1.00  0.00     0.163 HD
BRANCH  11  14
HETATM   14  C5  UNL     1       3.118  -0.526   0.031  1.00  0.00     0.338 C 
BRANCH  14  15
HETATM   15  N2  UNL     1       4.168   0.387  -0.343  1.00  0.00    -0.070 N 
HETATM   16  C6  UNL     1       4.109   0.599  -1.773  1.00  0.00     0.272 C 
HETATM   17  C7  UNL     1       5.461  -0.255  -0.068  1.00  0.00     0.272 C 
HETATM   18  C8  UNL     1       4.158   1.619   0.392  1.00  0.00     0.272 C 
ENDBRANCH  14  15
ENDBRANCH  11  14
ENDBRANCH   2  10
BRANCH   1  19
HETATM   19  O2  UNL     1      -1.730  -2.095  -0.130  1.00  0.00    -0.257 OA
BRANCH  19  20
HETATM   20  S1  UNL     1      -1.128  -3.065  -1.481  1.00  0.00     0.150 S 
HETATM   21  C1  UNL     1      -0.979  -3.069  -2.729  1.00  0.00     0.160 C 
HETATM   22  O1  UNL     1      -0.892  -3.919  -0.176  1.00  0.00    -0.229 OA
ENDBRANCH  19  20
ENDBRANCH   1  19
BRANCH   3  23
HETATM   23  N3  UNL     1      -1.136  -1.326   2.269  1.00  0.00    -0.243 N 
ATOM     24  H3  UNL     1      -1.198  -2.190   1.731  1.00  0.00     0.197 HD
BRANCH  23  25
HETATM   25  N4  UNL     1      -0.904  -1.377   3.490  1.00  0.00    -0.248 NA
BRANCH  25  26
HETATM   26  N5  UNL     1      -0.821  -1.344   4.722  1.00  0.00    -0.261 N 
ATOM     27  H52 UNL     1      -1.712  -0.848   4.694  1.00  0.00     0.193 HD
ATOM     28  H51 UNL     1      -0.631  -1.386   5.723  1.00  0.00     0.193 HD
ENDBRANCH  25  26
ENDBRANCH  23  25
ENDBRANCH   3  23
BRANCH   4  29
HETATM   29  O4  UNL     1      -3.308  -0.005   2.828  1.00  0.00    -0.391 OA
ATOM     30  H4  UNL     1      -4.210   0.292   2.836  1.00  0.00     0.210 HD
ENDBRANCH   4  29
TORSDOF 9
