REMARK  8 active torsions:
REMARK  status: ('A' for Active; 'I' for Inactive)
REMARK       I    between atoms: N1_7  and  C7_8 
REMARK    1  A    between atoms: C7_8  and  C8_10 
REMARK    2  A    between atoms: C8_10  and  O2_11 
REMARK    3  A    between atoms: C8_10  and  C9_13 
REMARK    4  A    between atoms: C9_13  and  N2_14 
REMARK    5  A    between atoms: N2_14  and  C10_16 
REMARK    6  A    between atoms: C10_16  and  C11_17 
REMARK    7  A    between atoms: C10_16  and  C16_24 
REMARK    8  A    between atoms: C11_17  and  N3_18 
ROOT
HETATM    1  C1  UNL     1       5.638  -1.598  -0.908  1.00  0.00     0.014 C 
HETATM    2  C2  UNL     1       5.301  -0.611  -0.300  1.00  0.00    -0.092 C 
HETATM    3  C3  UNL     1       4.866   0.582   0.430  1.00  0.00     0.166 C 
HETATM    4  C4  UNL     1       6.142   1.409   0.627  1.00  0.00     0.040 C 
HETATM    5  C5  UNL     1       5.651   2.807   0.336  1.00  0.00     0.023 C 
HETATM    6  C6  UNL     1       4.739   2.528  -0.875  1.00  0.00     0.127 C 
HETATM    7  N1  UNL     1       3.969   1.396  -0.351  1.00  0.00    -0.335 N 
HETATM    8  C7  UNL     1       2.605   1.176  -0.575  1.00  0.00     0.251 C 
HETATM    9  O1  UNL     1       1.997   2.027  -1.321  1.00  0.00    -0.270 OA
ENDROOT
BRANCH   8  10
HETATM   10  C8  UNL     1       1.763   0.088  -0.066  1.00  0.00     0.227 C 
BRANCH  10  11
HETATM   11  O2  UNL     1       2.446  -0.773   0.774  1.00  0.00    -0.385 OA
ATOM     12  H2  UNL     1       1.901  -1.478   1.104  1.00  0.00     0.210 HD
ENDBRANCH  10  11
BRANCH  10  13
HETATM   13  C9  UNL     1       0.554   0.725   0.595  1.00  0.00     0.156 C 
BRANCH  13  14
HETATM   14  N2  UNL     1      -0.411  -0.240   1.036  1.00  0.00    -0.406 N 
ATOM     15  H2  UNL     1      -0.594  -0.403   2.026  1.00  0.00     0.154 HD
BRANCH  14  16
HETATM   16  C10 UNL     1      -1.093  -0.951   0.030  1.00  0.00     0.173 C 
BRANCH  16  17
HETATM   17  C11 UNL     1      -1.975  -0.211  -0.896  1.00  0.00     0.304 C 
BRANCH  17  18
HETATM   18  N3  UNL     1      -3.093   0.483  -0.371  1.00  0.00     0.095 N 
HETATM   19  C12 UNL     1      -3.884   1.125  -1.427  1.00  0.00     0.298 C 
HETATM   20  C13 UNL     1      -3.835   2.624  -1.370  1.00  0.00     0.198 C 
HETATM   21  O3  UNL     1      -4.347   3.124  -0.173  1.00  0.00    -0.388 OA
HETATM   22  C14 UNL     1      -4.192   2.201   0.864  1.00  0.00     0.198 C 
HETATM   23  C15 UNL     1      -2.859   1.486   0.622  1.00  0.00     0.298 C 
ENDBRANCH  17  18
ENDBRANCH  16  17
BRANCH  16  24
HETATM   24  C16 UNL     1      -1.838  -2.077   0.719  1.00  0.00     0.099 C 
HETATM   25  N4  UNL     1      -1.905  -2.288   1.982  1.00  0.00    -0.377 N 
HETATM   26  C17 UNL     1      -2.684  -3.430   2.335  1.00  0.00     0.141 C 
ATOM     27  H4  UNL     1      -1.444  -1.694   2.671  1.00  0.00     0.160 HD
HETATM   28  C18 UNL     1      -3.491  -3.671   1.066  1.00  0.00     0.143 C 
HETATM   29  N5  UNL     1      -2.593  -3.099   0.085  1.00  0.00    -0.372 N 
HETATM   30  C19 UNL     1      -2.525  -3.542  -1.282  1.00  0.00     0.150 C 
ENDBRANCH  16  24
ENDBRANCH  14  16
ENDBRANCH  13  14
ENDBRANCH  10  13
ENDBRANCH   8  10
TORSDOF 8
