REMARK  9 active torsions:
REMARK  status: ('A' for Active; 'I' for Inactive)
REMARK    1  A    between atoms: C3_3  and  O1_4 
REMARK    2  A    between atoms: C4_6  and  C5_7 
REMARK    3  A    between atoms: C5_7  and  O3_9 
REMARK    4  A    between atoms: O3_9  and  C6_10 
REMARK    5  A    between atoms: C7_11  and  N1_12 
REMARK    6  A    between atoms: N1_12  and  N2_14 
REMARK    7  A    between atoms: N2_14  and  N3_15 
REMARK    8  A    between atoms: C10_20  and  O4_21 
REMARK    9  A    between atoms: C18_31  and  O6_32 
ROOT
HETATM    1  C1  UNL     1       3.796   2.164  -1.050  1.00  0.00     0.105 C 
HETATM    2  C2  UNL     1       4.581   1.426  -0.468  1.00  0.00    -0.124 C 
HETATM    3  C3  UNL     1       5.514   0.583   0.192  1.00  0.00     0.112 C 
HETATM    4  C4  UNL     1       5.103  -0.372   0.971  1.00  0.00     0.127 C 
ENDROOT
BRANCH   3   5
HETATM    5  O1  UNL     1       6.864   0.787  -0.000  1.00  0.00    -0.353 OA
ATOM      6  H1  UNL     1       7.488   0.223   0.442  1.00  0.00     0.218 HD
ENDBRANCH   3   5
BRANCH   4   7
HETATM    7  C5  UNL     1       3.719  -0.698   1.262  1.00  0.00     0.286 C 
HETATM    8  O2  UNL     1       3.441  -1.652   2.037  1.00  0.00    -0.260 OA
BRANCH   7   9
HETATM    9  O3  UNL     1       2.625  -0.030   0.747  1.00  0.00    -0.305 OA
BRANCH   9  10
HETATM   10  C6  UNL     1       1.274  -0.396   1.070  1.00  0.00     0.220 C 
HETATM   11  C7  UNL     1       0.669   0.778   1.803  1.00  0.00     0.150 C 
HETATM   12  C8  UNL     1      -0.143   1.542   0.788  1.00  0.00     0.049 C 
HETATM   13  C9  UNL     1      -0.540   0.482  -0.184  1.00  0.00     0.054 C 
HETATM   14  C10 UNL     1      -1.183   0.917  -1.443  1.00  0.00     0.141 C 
HETATM   15  C18 UNL     1       0.455  -0.611  -0.179  1.00  0.00     0.202 C 
HETATM   16  C19 UNL     1      -1.804  -0.270   0.110  1.00  0.00     0.046 C 
HETATM   17  C11 UNL     1      -2.538   0.510  -0.912  1.00  0.00    -0.009 C 
HETATM   18  C12 UNL     1      -3.341   1.666  -0.306  1.00  0.00     0.018 C 
HETATM   19  C13 UNL     1      -3.363  -0.424  -1.722  1.00  0.00     0.016 C 
HETATM   20  C14 UNL     1      -3.790  -1.684  -0.938  1.00  0.00     0.037 C 
HETATM   21  C15 UNL     1      -2.566  -2.422  -0.499  1.00  0.00    -0.060 C 
HETATM   22  C16 UNL     1      -2.585  -3.651  -0.094  1.00  0.00     0.017 C 
HETATM   23  C17 UNL     1      -1.400  -1.588  -0.590  1.00  0.00     0.159 C 
HETATM   24  O5  UNL     1      -0.243  -1.835   0.028  1.00  0.00    -0.342 OA
BRANCH  11  25
HETATM   25  N1  UNL     1       1.682   1.564   2.442  1.00  0.00    -0.245 N 
ATOM     26  H1  UNL     1       2.492   1.845   1.890  1.00  0.00     0.197 HD
BRANCH  25  27
HETATM   27  N2  UNL     1       1.632   1.914   3.602  1.00  0.00    -0.248 NA
BRANCH  27  28
HETATM   28  N3  UNL     1       1.281   2.472   4.643  1.00  0.00    -0.261 N 
ATOM     29  H32 UNL     1       0.502   2.980   4.223  1.00  0.00     0.193 HD
ATOM     30  H31 UNL     1       1.239   2.766   5.619  1.00  0.00     0.193 HD
ENDBRANCH  27  28
ENDBRANCH  25  27
ENDBRANCH  11  25
BRANCH  14  31
HETATM   31  O4  UNL     1      -1.148   2.326  -1.542  1.00  0.00    -0.394 OA
ATOM     32  H4  UNL     1      -1.561   2.605  -2.351  1.00  0.00     0.210 HD
ENDBRANCH  14  31
BRANCH  15  33
HETATM   33  O6  UNL     1       1.251  -0.689  -1.308  1.00  0.00    -0.362 OA
ATOM     34  H6  UNL     1       0.735  -0.824  -2.094  1.00  0.00     0.213 HD
ENDBRANCH  15  33
ENDBRANCH   9  10
ENDBRANCH   7   9
ENDBRANCH   4   7
TORSDOF 9
