REMARK  6 active torsions:
REMARK  status: ('A' for Active; 'I' for Inactive)
REMARK    1  A    between atoms: C2_2  and  C4_4 
REMARK    2  A    between atoms: C15_16  and  O2_17 
REMARK    3  A    between atoms: C18_22  and  O4_23 
REMARK    4  A    between atoms: C19_25  and  C20_26 
REMARK    5  A    between atoms: C20_26  and  O5_27 
REMARK    6  A    between atoms: O5_27  and  C21_28 
ROOT
HETATM    1  C4  UNL     1      -0.419  -1.856  -0.364  1.00  0.00    -0.069 C 
HETATM    2  C5  UNL     1       0.593  -1.357   0.652  1.00  0.00     0.048 C 
HETATM    3  C6  UNL     1       1.047  -0.072   0.009  1.00  0.00     0.005 C 
HETATM    4  C7  UNL     1       0.533  -0.118  -1.349  1.00  0.00     0.023 C 
HETATM    5  C8  UNL     1      -0.901  -0.658  -1.097  1.00  0.00     0.025 C 
HETATM    6  C9  UNL     1      -1.770   0.354  -0.576  1.00  0.00     0.055 C 
HETATM    7  C10 UNL     1      -1.137   1.724  -0.263  1.00  0.00     0.132 C 
HETATM    8  C11 UNL     1      -2.183   2.823  -0.221  1.00  0.00     0.067 C 
HETATM    9  C12 UNL     1      -3.568   2.389   0.051  1.00  0.00     0.162 A 
HETATM   10  O1  UNL     1      -3.841   2.164   1.399  1.00  0.00    -0.367 OA
HETATM   11  C13 UNL     1      -3.919   1.093   0.372  1.00  0.00     0.110 A 
HETATM   12  C14 UNL     1      -5.329   0.590   0.162  1.00  0.00     0.051 C 
HETATM   13  C15 UNL     1      -2.784   0.062   0.481  1.00  0.00     0.162 C 
HETATM   14  O3  UNL     1      -0.350   1.728   0.838  1.00  0.00    -0.371 OA
HETATM   15  C16 UNL     1       0.818   1.096   0.861  1.00  0.00     0.092 C 
HETATM   16  C17 UNL     1       1.193   0.767   2.323  1.00  0.00     0.050 C 
HETATM   17  C18 UNL     1       2.059   1.707   0.253  1.00  0.00     0.160 C 
HETATM   18  C19 UNL     1       2.521   0.244   0.051  1.00  0.00     0.053 C 
ENDROOT
BRANCH  18  19
HETATM   19  C20 UNL     1       3.240   0.130  -1.249  1.00  0.00     0.186 C 
BRANCH  19  20
HETATM   20  O5  UNL     1       4.606   0.426  -1.188  1.00  0.00    -0.321 OA
BRANCH  20  21
HETATM   21  C21 UNL     1       5.487  -0.299  -0.437  1.00  0.00     0.254 C 
HETATM   22  C22 UNL     1       6.922   0.075  -0.414  1.00  0.00     0.126 C 
HETATM   23  O6  UNL     1       5.097  -1.275   0.231  1.00  0.00    -0.266 OA
ENDBRANCH  20  21
ENDBRANCH  19  20
ENDBRANCH  18  19
BRANCH  17  24
HETATM   24  O4  UNL     1       1.933   2.416  -0.905  1.00  0.00    -0.392 OA
ATOM     25  H4  UNL     1       2.713   2.800  -1.287  1.00  0.00     0.210 HD
ENDBRANCH  17  24
BRANCH   1  26
HETATM   26  C2  UNL     1      -1.290  -2.921   0.013  1.00  0.00    -0.069 C 
HETATM   27  C1  UNL     1      -1.438  -3.271   1.266  1.00  0.00     0.018 C 
HETATM   28  C3  UNL     1      -2.059  -3.667  -1.010  1.00  0.00     0.047 C 
ENDBRANCH   1  26
BRANCH  13  29
HETATM   29  O2  UNL     1      -2.345   0.163   1.775  1.00  0.00    -0.392 OA
ATOM     30  H2  UNL     1      -2.990  -0.023   2.447  1.00  0.00     0.210 HD
ENDBRANCH  13  29
TORSDOF 6
