REMARK  4 active torsions:
REMARK  status: ('A' for Active; 'I' for Inactive)
REMARK    1  A    between atoms: C2_2  and  C3_3 
REMARK    2  A    between atoms: C6_6  and  O1_7 
REMARK    3  A    between atoms: C16_22  and  O6_23 
REMARK    4  A    between atoms: C16_22  and  C17_25 
ROOT
HETATM    1  C3  UNL     1      -2.269   2.777  -0.907  1.00  0.00     0.040 C 
HETATM    2  C4  UNL     1      -3.443   1.975  -0.456  1.00  0.00     0.014 C 
HETATM    3  C5  UNL     1      -2.936   0.559  -0.315  1.00  0.00     0.042 C 
HETATM    4  C6  UNL     1      -1.454   0.697   0.077  1.00  0.00     0.094 C 
HETATM    5  C7  UNL     1      -1.072   1.864  -0.780  1.00  0.00     0.174 C 
HETATM    6  O2  UNL     1      -0.013   2.635  -0.329  1.00  0.00    -0.310 OA
HETATM    7  C8  UNL     1       1.244   2.375   0.163  1.00  0.00     0.291 C 
HETATM    8  O3  UNL     1       2.063   3.301  -0.083  1.00  0.00    -0.262 OA
HETATM    9  C9  UNL     1       1.769   1.223   0.909  1.00  0.00     0.255 C 
HETATM   10  O4  UNL     1       3.154   1.469   1.090  1.00  0.00    -0.338 OA
HETATM   11  C10 UNL     1       3.831   0.596   0.282  1.00  0.00     0.158 C 
HETATM   12  C11 UNL     1       4.527  -0.492   1.084  1.00  0.00     0.078 C 
HETATM   13  C12 UNL     1       4.882   1.292  -0.574  1.00  0.00     0.078 C 
HETATM   14  O5  UNL     1       2.925   0.013  -0.566  1.00  0.00    -0.345 OA
HETATM   15  C13 UNL     1       1.729  -0.055   0.209  1.00  0.00     0.198 C 
HETATM   16  C14 UNL     1       0.675  -0.404  -0.736  1.00  0.00     0.264 C 
HETATM   17  C15 UNL     1      -0.738  -0.555  -0.289  1.00  0.00     0.095 C 
HETATM   18  C16 UNL     1      -0.691  -1.649   0.680  1.00  0.00     0.096 C 
HETATM   19  C20 UNL     1       0.371  -2.565   0.044  1.00  0.00     0.311 C 
HETATM   20  N1  UNL     1       0.966  -1.830  -1.025  1.00  0.00     0.095 N 
HETATM   21  C21 UNL     1       0.644  -2.214  -2.342  1.00  0.00     0.310 C 
ENDROOT
BRANCH  18  22
HETATM   22  O6  UNL     1      -0.254  -1.172   1.913  1.00  0.00    -0.387 OA
ATOM     23  H6  UNL     1      -0.223  -1.883   2.543  1.00  0.00     0.210 HD
ENDBRANCH  18  22
BRANCH  18  24
HETATM   24  C17 UNL     1      -1.883  -2.475   0.931  1.00  0.00     0.014 C 
HETATM   25  C18 UNL     1      -1.490  -3.524   1.988  1.00  0.00     0.012 C 
HETATM   26  C19 UNL     1      -2.465  -3.203  -0.218  1.00  0.00     0.012 C 
ENDBRANCH  18  24
BRANCH   4  27
HETATM   27  O1  UNL     1      -1.442   0.907   1.425  1.00  0.00    -0.387 OA
ATOM     28  H1  UNL     1      -0.527   0.992   1.667  1.00  0.00     0.210 HD
ENDBRANCH   4  27
BRANCH   1  29
HETATM   29  C2  UNL     1      -2.091   4.015  -0.082  1.00  0.00    -0.030 C 
HETATM   30  C1  UNL     1      -2.092   5.196  -0.626  1.00  0.00     0.007 C 
ENDBRANCH   1  29
TORSDOF 4
