REMARK  3 active torsions:
REMARK  status: ('A' for Active; 'I' for Inactive)
REMARK    1  A    between atoms: O1_2  and  C2_3 
REMARK    2  A    between atoms: C12_18  and  C13_19 
REMARK    3  A    between atoms: C13_19  and  N4_20 
ROOT
HETATM    1  C2  UNL     1      -1.461   2.216   1.418  1.00  0.00     0.158 C 
HETATM    2  C3  UNL     1      -2.387   1.265   0.678  1.00  0.00     0.099 C 
HETATM    3  C4  UNL     1      -1.402   0.126   0.371  1.00  0.00     0.244 C 
HETATM    4  N1  UNL     1      -1.178  -0.604   1.597  1.00  0.00    -0.346 N 
ATOM      5  H1  UNL     1      -0.936  -0.169   2.487  1.00  0.00     0.163 HD
HETATM    6  C5  UNL     1      -1.321  -1.870   1.427  1.00  0.00     0.091 C 
HETATM    7  N2  UNL     1      -1.164  -2.832   2.448  1.00  0.00    -0.088 NA
HETATM    8  C6  UNL     1      -1.676  -2.169   0.000  1.00  0.00     0.087 C 
HETATM    9  C7  UNL     1      -2.082  -0.808  -0.551  1.00  0.00     0.025 C 
HETATM   10  C8  UNL     1      -3.602  -0.738  -0.391  1.00  0.00     0.040 C 
HETATM   11  C9  UNL     1      -4.286  -1.656  -1.370  1.00  0.00     0.168 C 
HETATM   12  O2  UNL     1      -3.949  -1.431  -2.681  1.00  0.00    -0.391 OA
HETATM   13  C10 UNL     1      -3.032  -0.419  -2.834  1.00  0.00     0.168 C 
HETATM   14  C11 UNL     1      -1.779  -0.646  -1.998  1.00  0.00     0.040 C 
HETATM   15  N3  UNL     1      -0.285   0.838  -0.126  1.00  0.00     0.131 N 
HETATM   16  C12 UNL     1       1.003   0.185   0.027  1.00  0.00     0.244 C 
HETATM   17  C18 UNL     1       1.575   0.670   1.305  1.00  0.00     0.040 C 
HETATM   18  C19 UNL     1       0.958   2.035   1.526  1.00  0.00     0.041 C 
HETATM   19  C20 UNL     1      -0.200   2.092   0.575  1.00  0.00     0.255 C 
ENDROOT
BRANCH   1  20
HETATM   20  O1  UNL     1      -1.949   3.496   1.472  1.00  0.00    -0.388 OA
HETATM   21  C1  UNL     1      -2.113   3.858   2.807  1.00  0.00     0.202 C 
ENDBRANCH   1  20
BRANCH  16  22
HETATM   22  C13 UNL     1       1.854   0.418  -1.193  1.00  0.00     0.161 C 
BRANCH  22  23
HETATM   23  N4  UNL     1       3.148  -0.178  -1.157  1.00  0.00    -0.348 N 
HETATM   24  C14 UNL     1       4.413   0.458  -1.106  1.00  0.00     0.186 C 
HETATM   25  N5  UNL     1       4.684   1.793  -0.629  1.00  0.00    -0.064 NA
HETATM   26  N6  UNL     1       5.328  -0.327  -1.561  1.00  0.00    -0.363 N 
HETATM   27  C15 UNL     1       4.747  -1.578  -1.967  1.00  0.00     0.147 C 
ATOM     28  H6  UNL     1       6.319  -0.095  -1.624  1.00  0.00     0.162 HD
HETATM   29  C16 UNL     1       3.461  -1.583  -1.175  1.00  0.00     0.100 C 
HETATM   30  C17 UNL     1       3.822  -2.104   0.208  1.00  0.00     0.034 C 
ENDBRANCH  22  23
ENDBRANCH  16  22
TORSDOF 3
