REMARK  7 active torsions:
REMARK  status: ('A' for Active; 'I' for Inactive)
REMARK    1  A    between atoms: C5_5  and  C6_6 
REMARK    2  A    between atoms: C6_6  and  N1_7 
REMARK    3  A    between atoms: N1_7  and  N2_9 
REMARK       I    between atoms: N2_9  and  C7_11 
REMARK    4  A    between atoms: C7_11  and  C8_13 
REMARK    5  A    between atoms: C15_21  and  O2_22 
REMARK    6  A    between atoms: C15_21  and  N4_24 
REMARK    7  A    between atoms: C20_31  and  O5_32 
ROOT
HETATM    1  C6  UNL     1      -1.370  -1.596   0.641  1.00  0.00     0.105 C 
HETATM    2  C15 UNL     1      -2.376  -2.615   0.772  1.00  0.00     0.165 C 
ENDROOT
BRANCH   1   3
HETATM    3  C5  UNL     1      -1.632  -0.206   0.315  1.00  0.00     0.181 C 
HETATM    4  C4  UNL     1      -2.333   0.588   1.406  1.00  0.00     0.052 C 
HETATM    5  C2  UNL     1      -2.160   1.985   0.782  1.00  0.00     0.005 C 
HETATM    6  C1  UNL     1      -3.198   2.201  -0.271  1.00  0.00     0.020 C 
HETATM    7  C3  UNL     1      -2.282   3.049   1.846  1.00  0.00     0.020 C 
HETATM    8  C20 UNL     1      -0.771   1.856   0.232  1.00  0.00     0.265 C 
HETATM    9  O4  UNL     1      -0.463   0.538   0.078  1.00  0.00    -0.349 OA
BRANCH   8  10
HETATM   10  O5  UNL     1      -0.581   2.609  -0.923  1.00  0.00    -0.370 OA
ATOM     11  H5  UNL     1       0.299   2.527  -1.271  1.00  0.00     0.212 HD
ENDBRANCH   8  10
ENDBRANCH   1   3
BRANCH   1  12
HETATM   12  N1  UNL     1      -0.163  -1.976   0.902  1.00  0.00    -0.295 N 
ATOM     13  H1  UNL     1      -0.102  -2.970   1.120  1.00  0.00     0.187 HD
BRANCH  12  14
HETATM   14  N2  UNL     1       1.026  -1.361   0.951  1.00  0.00    -0.269 N 
HETATM   15  C7  UNL     1       1.962  -1.256  -0.121  1.00  0.00     0.240 C 
HETATM   16  O1  UNL     1       1.626  -1.789  -1.219  1.00  0.00    -0.271 OA
ATOM     17  H2  UNL     1       1.287  -0.928   1.837  1.00  0.00     0.190 HD
BRANCH  15  18
HETATM   18  C8  UNL     1       3.265  -0.589  -0.042  1.00  0.00     0.082 C 
HETATM   19  C9  UNL     1       3.997  -0.538  -1.342  1.00  0.00     0.042 C 
HETATM   20  C10 UNL     1       4.320   0.873  -1.781  1.00  0.00     0.237 C 
HETATM   21  N3  UNL     1       5.125   1.577  -0.825  1.00  0.00    -0.075 N 
HETATM   22  C11 UNL     1       5.130   2.995  -1.213  1.00  0.00     0.272 C 
HETATM   23  C12 UNL     1       6.514   1.159  -0.823  1.00  0.00     0.272 C 
HETATM   24  C13 UNL     1       4.619   1.428   0.525  1.00  0.00     0.237 C 
HETATM   25  C14 UNL     1       3.237   0.792   0.558  1.00  0.00     0.042 C 
ENDBRANCH  15  18
ENDBRANCH  12  14
ENDBRANCH   1  12
BRANCH   2  26
HETATM   26  O2  UNL     1      -1.878  -3.751   1.224  1.00  0.00    -0.345 OA
ATOM     27  H2  UNL     1      -2.543  -4.424   1.311  1.00  0.00     0.219 HD
ENDBRANCH   2  26
BRANCH   2  28
HETATM   28  N4  UNL     1      -3.728  -2.677   0.531  1.00  0.00    -0.356 N 
HETATM   29  C16 UNL     1      -4.615  -1.712  -0.049  1.00  0.00     0.151 C 
HETATM   30  C17 UNL     1      -5.719  -2.545  -0.737  1.00  0.00     0.187 C 
HETATM   31  O3  UNL     1      -5.220  -3.678  -1.318  1.00  0.00    -0.388 OA
HETATM   32  C18 UNL     1      -4.806  -4.626  -0.379  1.00  0.00     0.187 C 
HETATM   33  C19 UNL     1      -4.448  -3.928   0.937  1.00  0.00     0.151 C 
ENDBRANCH   2  28
TORSDOF 7
