REMARK  10 active torsions:
REMARK  status: ('A' for Active; 'I' for Inactive)
REMARK    1  A    between atoms: C2_2  and  N1_3 
REMARK    2  A    between atoms: C2_2  and  N3_27 
REMARK    3  A    between atoms: N1_3  and  C3_4 
REMARK    4  A    between atoms: C3_4  and  O1_5 
REMARK    5  A    between atoms: C3_4  and  C4_7 
REMARK    6  A    between atoms: C4_7  and  C5_8 
REMARK    7  A    between atoms: C6_10  and  C7_11 
REMARK    8  A    between atoms: C13_19  and  O4_20 
REMARK    9  A    between atoms: C15_23  and  C16_24 
REMARK   10  A    between atoms: C16_24  and  O5_25 
ROOT
HETATM    1  C4  UNL     1      -0.266  -1.559   0.954  1.00  0.00     0.080 A 
HETATM    2  C14 UNL     1      -0.884  -1.900   2.281  1.00  0.00     0.031 A 
HETATM    3  C15 UNL     1      -0.676  -2.950   1.186  1.00  0.00     0.031 A 
ENDROOT
BRANCH   1   4
HETATM    4  C3  UNL     1       1.197  -1.279   1.078  1.00  0.00     0.204 C 
BRANCH   4   5
HETATM    5  N1  UNL     1       1.959  -0.281   0.692  1.00  0.00    -0.371 NA
BRANCH   5   6
HETATM    6  C2  UNL     1       2.655   0.626   0.337  1.00  0.00     0.152 C 
HETATM    7  C1  UNL     1       2.611   1.932   1.135  1.00  0.00     0.106 C 
BRANCH   6   8
HETATM    8  N3  UNL     1       3.553   0.591  -0.803  1.00  0.00    -0.356 N 
HETATM    9  C17 UNL     1       4.144  -0.624  -1.301  1.00  0.00     0.151 C 
HETATM   10  C18 UNL     1       5.481  -0.208  -1.918  1.00  0.00     0.187 C 
HETATM   11  O6  UNL     1       5.307   0.631  -2.987  1.00  0.00    -0.388 OA
HETATM   12  C19 UNL     1       4.410   1.651  -2.829  1.00  0.00     0.187 C 
HETATM   13  C20 UNL     1       3.860   1.836  -1.457  1.00  0.00     0.151 C 
ENDBRANCH   6   8
ENDBRANCH   5   6
ENDBRANCH   4   5
BRANCH   4  14
HETATM   14  O1  UNL     1       1.807  -2.263   1.719  1.00  0.00    -0.338 OA
ATOM     15  H1  UNL     1       1.256  -2.985   1.998  1.00  0.00     0.220 HD
ENDBRANCH   4  14
ENDBRANCH   1   4
BRANCH   1  16
HETATM   16  C5  UNL     1      -1.074  -0.572   0.155  1.00  0.00     0.126 C 
HETATM   17  O2  UNL     1      -2.488  -0.900   0.314  1.00  0.00    -0.351 OA
HETATM   18  C6  UNL     1      -2.840   0.411   0.377  1.00  0.00     0.169 C 
HETATM   19  C10 UNL     1      -2.822   0.975  -1.016  1.00  0.00     0.238 C 
HETATM   20  C13 UNL     1      -1.405   0.703   0.860  1.00  0.00     0.199 C 
HETATM   21  O3  UNL     1      -3.761   1.501  -1.604  1.00  0.00    -0.276 OA
HETATM   22  N2  UNL     1      -1.560   0.850  -1.643  1.00  0.00    -0.240 NA
HETATM   23  C11 UNL     1      -0.206   0.457  -2.159  1.00  0.00     0.122 A 
HETATM   24  C12 UNL     1      -0.858  -0.474  -1.307  1.00  0.00     0.118 A 
BRANCH  18  25
HETATM   25  C7  UNL     1      -3.936   0.837   1.251  1.00  0.00     0.024 C 
HETATM   26  C8  UNL     1      -5.201   0.149   0.844  1.00  0.00     0.013 C 
HETATM   27  C9  UNL     1      -4.076   2.336   1.321  1.00  0.00     0.013 C 
ENDBRANCH  18  25
BRANCH  20  28
HETATM   28  O4  UNL     1      -1.384   0.732   2.223  1.00  0.00    -0.389 OA
ATOM     29  H4  UNL     1      -1.594   1.543   2.671  1.00  0.00     0.210 HD
ENDBRANCH  20  28
ENDBRANCH   1  16
BRANCH   3  30
HETATM   30  C16 UNL     1      -1.928  -3.616   0.781  1.00  0.00     0.170 C 
BRANCH  30  31
HETATM   31  O5  UNL     1      -2.180  -3.668  -0.586  1.00  0.00    -0.400 OA
ATOM     32  H5  UNL     1      -2.986  -4.097  -0.847  1.00  0.00     0.209 HD
ENDBRANCH  30  31
ENDBRANCH   3  30
TORSDOF 10
