REMARK  9 active torsions:
REMARK  status: ('A' for Active; 'I' for Inactive)
REMARK    1  A    between atoms: O1_2  and  C2_3 
REMARK    2  A    between atoms: C2_3  and  C3_4 
REMARK    3  A    between atoms: C3_4  and  N1_6 
REMARK    4  A    between atoms: N1_6  and  C4_8 
REMARK    5  A    between atoms: C4_8  and  C5_12 
REMARK    6  A    between atoms: C5_12  and  C6_13 
REMARK    7  A    between atoms: C6_13  and  S2_14 
REMARK    8  A    between atoms: S2_14  and  C7_15 
REMARK    9  A    between atoms: C7_15  and  N3_17 
ROOT
HETATM    1  C5  UNL     1      -1.614   0.174  -0.634  1.00  0.00     0.086 C 
ENDROOT
BRANCH   1   2
HETATM    2  C4  UNL     1      -3.017   0.619  -0.657  1.00  0.00     0.076 C 
HETATM    3  N2  UNL     1      -3.360   1.650  -1.311  1.00  0.00    -0.389 N 
ATOM      4  H22 UNL     1      -4.332   1.958  -1.327  1.00  0.00     0.157 HD
ATOM      5  H21 UNL     1      -2.660   2.181  -1.829  1.00  0.00     0.157 HD
BRANCH   2   6
HETATM    6  N1  UNL     1      -3.988  -0.117   0.062  1.00  0.00    -0.339 N 
ATOM      7  H1  UNL     1      -3.882  -0.242   1.069  1.00  0.00     0.168 HD
BRANCH   6   8
HETATM    8  C3  UNL     1      -5.096  -0.678  -0.594  1.00  0.00     0.102 C 
HETATM    9  S1  UNL     1      -5.235  -0.456  -2.217  1.00  0.00    -0.063 SA
BRANCH   8  10
HETATM   10  C2  UNL     1      -6.101  -1.445   0.175  1.00  0.00     0.236 C 
BRANCH  10  11
HETATM   11  O1  UNL     1      -6.730  -0.726   1.160  1.00  0.00    -0.389 OA
HETATM   12  C1  UNL     1      -7.419   0.375   0.698  1.00  0.00     0.202 C 
ENDBRANCH  10  11
ENDBRANCH   8  10
ENDBRANCH   6   8
ENDBRANCH   2   6
ENDBRANCH   1   2
BRANCH   1  13
HETATM   13  C6  UNL     1      -1.164   0.212   0.817  1.00  0.00     0.089 C 
BRANCH  13  14
HETATM   14  S2  UNL     1       0.541  -0.310   0.987  1.00  0.00    -0.100 SA
BRANCH  14  15
HETATM   15  C7  UNL     1       1.699   0.810   0.248  1.00  0.00     0.136 C 
HETATM   16  S3  UNL     1       1.157   2.157  -0.467  1.00  0.00    -0.053 SA
BRANCH  15  17
HETATM   17  N3  UNL     1       3.069   0.532   0.286  1.00  0.00    -0.363 N 
HETATM   18  C8  UNL     1       4.006   1.444  -0.317  1.00  0.00     0.154 C 
HETATM   19  C9  UNL     1       5.396   0.899  -0.018  1.00  0.00     0.291 C 
HETATM   20  N4  UNL     1       5.501  -0.442  -0.512  1.00  0.00     0.087 N 
HETATM   21  C10 UNL     1       6.861  -0.909  -0.207  1.00  0.00     0.310 C 
HETATM   22  C11 UNL     1       4.507  -1.348  -0.029  1.00  0.00     0.291 C 
HETATM   23  C12 UNL     1       3.581  -0.657   0.921  1.00  0.00     0.154 C 
ENDBRANCH  15  17
ENDBRANCH  14  15
ENDBRANCH  13  14
ENDBRANCH   1  13
TORSDOF 9
