REMARK  6 active torsions:
REMARK  status: ('A' for Active; 'I' for Inactive)
REMARK    1  A    between atoms: N1_1  and  C1_4 
REMARK    2  A    between atoms: C3_9  and  C4_10 
REMARK       I    between atoms: C4_10  and  N4_12 
REMARK    3  A    between atoms: N4_12  and  N5_14 
REMARK    4  A    between atoms: C5_16  and  C6_17 
REMARK    5  A    between atoms: N8_23  and  O2_24 
REMARK    6  A    between atoms: C8_28  and  N10_29 
ROOT
HETATM    1  C4  UNL     1      -0.153  -0.106  -0.413  1.00  0.00     0.290 C 
HETATM    2  O1  UNL     1       0.356   0.540  -1.363  1.00  0.00    -0.264 OA
HETATM    3  N4  UNL     1       0.696  -0.848   0.430  1.00  0.00    -0.265 N 
ATOM      4  H4  UNL     1       0.304  -1.380   1.207  1.00  0.00     0.190 HD
ENDROOT
BRANCH   1   5
HETATM    5  C3  UNL     1      -1.598  -0.063  -0.222  1.00  0.00     0.145 A 
HETATM    6  C2  UNL     1      -2.370   0.683  -1.083  1.00  0.00     0.150 A 
HETATM    7  N2  UNL     1      -3.697   0.694  -0.869  1.00  0.00    -0.326 N 
HETATM    8  N3  UNL     1      -1.751   1.394  -2.138  1.00  0.00    -0.080 NA
HETATM    9  C1  UNL     1      -4.244   0.013   0.132  1.00  0.00     0.151 A 
ATOM     10  H2  UNL     1      -4.297   1.237  -1.489  1.00  0.00     0.168 HD
HETATM   11  C8  UNL     1      -3.461  -0.738   0.999  1.00  0.00     0.218 A 
HETATM   12  N9  UNL     1      -2.115  -0.761   0.798  1.00  0.00    -0.327 N 
ATOM     13  H9  UNL     1      -1.509  -1.302   1.415  1.00  0.00     0.168 HD
BRANCH   9  14
HETATM   14  N1  UNL     1      -5.512   0.005   0.362  1.00  0.00    -0.382 N 
ATOM     15  H12 UNL     1      -6.087   0.557  -0.275  1.00  0.00     0.157 HD
ATOM     16  H11 UNL     1      -5.932  -0.518   1.131  1.00  0.00     0.157 HD
ENDBRANCH   9  14
BRANCH  11  17
HETATM   17  N10 UNL     1      -4.051  -1.459   2.061  1.00  0.00    -0.094 N 
HETATM   18  O3  UNL     1      -3.496  -2.475   2.494  1.00  0.00    -0.530 OA
HETATM   19  O4  UNL     1      -5.225  -1.041   2.608  1.00  0.00    -0.530 OA
ENDBRANCH  11  17
ENDBRANCH   1   5
BRANCH   3  20
HETATM   20  N5  UNL     1       2.061  -0.857   0.207  1.00  0.00    -0.305 N 
HETATM   21  C5  UNL     1       2.758   0.160   0.544  1.00  0.00     0.159 C 
ATOM     22  H5  UNL     1       2.507  -1.668  -0.222  1.00  0.00     0.186 HD
BRANCH  21  23
HETATM   23  C6  UNL     1       4.189   0.152   0.311  1.00  0.00     0.169 A 
HETATM   24  N6  UNL     1       4.874  -0.851  -0.241  1.00  0.00    -0.333 N 
HETATM   25  C7  UNL     1       6.167  -0.494  -0.291  1.00  0.00     0.201 A 
ATOM     26  H6  UNL     1       4.483  -1.735  -0.568  1.00  0.00     0.168 HD
HETATM   27  N7  UNL     1       6.275   0.745   0.239  1.00  0.00    -0.268 N 
HETATM   28  N8  UNL     1       5.076   1.135   0.603  1.00  0.00    -0.144 N 
ATOM     29  H7  UNL     1       7.136   1.282   0.338  1.00  0.00     0.190 HD
BRANCH  28  30
HETATM   30  O2  UNL     1       4.730   2.330   1.186  1.00  0.00    -0.266 OA
ATOM     31  H2  UNL     1       5.351   3.019   1.391  1.00  0.00     0.247 HD
ENDBRANCH  28  30
ENDBRANCH  21  23
ENDBRANCH   3  20
TORSDOF 6
