REMARK  8 active torsions:
REMARK  status: ('A' for Active; 'I' for Inactive)
REMARK    1  A    between atoms: N1_2  and  N2_4 
REMARK    2  A    between atoms: N3_6  and  O1_7 
REMARK    3  A    between atoms: N3_6  and  N4_9 
REMARK       I    between atoms: N4_9  and  C2_11 
REMARK       I    between atoms: C2_11  and  N6_15 
REMARK    4  A    between atoms: N6_15  and  C3_17 
REMARK    5  A    between atoms: C3_17  and  C4_18 
REMARK    6  A    between atoms: C7_21  and  C8_22 
REMARK    7  A    between atoms: N7_24  and  N8_26 
REMARK    8  A    between atoms: N8_26  and  C10_28 
ROOT
HETATM    1  C4  UNL     1       2.054   0.200   0.827  1.00  0.00    -0.040 A 
HETATM    2  C5  UNL     1       1.515   0.480  -0.405  1.00  0.00     0.010 A 
HETATM    3  C6  UNL     1       0.153   0.744  -0.577  1.00  0.00     0.014 A 
HETATM    4  C7  UNL     1      -0.694   0.726   0.518  1.00  0.00    -0.013 A 
HETATM    5  C14 UNL     1      -0.170   0.447   1.755  1.00  0.00     0.014 A 
HETATM    6  C15 UNL     1       1.173   0.193   1.891  1.00  0.00     0.010 A 
ENDROOT
BRANCH   1   7
HETATM    7  C3  UNL     1       3.467  -0.088   1.102  1.00  0.00     0.176 C 
BRANCH   7   8
HETATM    8  N6  UNL     1       4.344  -0.079  -0.014  1.00  0.00    -0.221 N 
HETATM    9  C2  UNL     1       5.730  -0.360   0.251  1.00  0.00     0.689 C 
HETATM   10  N4  UNL     1       6.370  -1.525  -0.254  1.00  0.00    -0.089 N 
HETATM   11  N5  UNL     1       6.456   0.444   0.968  1.00  0.00    -0.233 N 
ATOM     12  H4  UNL     1       6.929  -2.081   0.393  1.00  0.00     0.210 HD
ATOM     13  H52 UNL     1       7.439   0.245   1.156  1.00  0.00     0.174 HD
ATOM     14  H51 UNL     1       5.997   1.280   1.330  1.00  0.00     0.174 HD
ATOM     15  H6  UNL     1       4.008   0.117  -0.957  1.00  0.00     0.178 HD
BRANCH  10  16
HETATM   16  N3  UNL     1       6.282  -1.953  -1.572  1.00  0.00    -0.065 N 
HETATM   17  N2  UNL     1       6.758  -1.295  -2.532  1.00  0.00    -0.201 N 
ATOM     18  H2  UNL     1       6.643  -1.691  -3.465  1.00  0.00     0.212 HD
BRANCH  17  19
HETATM   19  N1  UNL     1       7.420  -0.089  -2.444  1.00  0.00    -0.304 N 
HETATM   20  C1  UNL     1       8.656  -0.047  -2.094  1.00  0.00     0.140 C 
ATOM     21  H1  UNL     1       6.925   0.777  -2.658  1.00  0.00     0.186 HD
ENDBRANCH  17  19
BRANCH  16  22
HETATM   22  O1  UNL     1       5.652  -3.135  -1.827  1.00  0.00    -0.252 OA
ATOM     23  H1  UNL     1       5.292  -3.632  -1.102  1.00  0.00     0.248 HD
ENDBRANCH  16  22
ENDBRANCH  10  16
ENDBRANCH   7   8
ENDBRANCH   1   7
BRANCH   4  24
HETATM   24  C8  UNL     1      -2.114   0.992   0.390  1.00  0.00     0.032 C 
HETATM   25  C9  UNL     1      -2.664   1.292  -0.951  1.00  0.00     0.070 C 
HETATM   26  N7  UNL     1      -2.856   0.963   1.435  1.00  0.00    -0.290 N 
ATOM     27  H7  UNL     1      -2.403   0.749   2.323  1.00  0.00     0.187 HD
BRANCH  26  28
HETATM   28  N8  UNL     1      -4.219   1.197   1.460  1.00  0.00    -0.132 N 
ATOM     29  H8  UNL     1      -4.557   2.036   1.932  1.00  0.00     0.205 HD
BRANCH  28  30
HETATM   30  C10 UNL     1      -5.184   0.320   0.856  1.00  0.00     0.688 C 
HETATM   31  N9  UNL     1      -5.007  -0.952   0.832  1.00  0.00    -0.225 N 
HETATM   32  C11 UNL     1      -5.904  -1.922   0.256  1.00  0.00     0.139 C 
ATOM     33  H9  UNL     1      -4.153  -1.309   1.260  1.00  0.00     0.177 HD
HETATM   34  C12 UNL     1      -7.069  -1.347  -0.475  1.00  0.00     0.040 C 
HETATM   35  C13 UNL     1      -7.511  -0.012   0.103  1.00  0.00     0.139 C 
HETATM   36  N10 UNL     1      -6.362   0.852   0.268  1.00  0.00    -0.225 N 
ATOM     37  H10 UNL     1      -6.398   1.826  -0.033  1.00  0.00     0.177 HD
ENDBRANCH  28  30
ENDBRANCH  26  28
ENDBRANCH   4  24
TORSDOF 8
