REMARK  6 active torsions:
REMARK  status: ('A' for Active; 'I' for Inactive)
REMARK       I    between atoms: C1_4  and  N3_6 
REMARK    1  A    between atoms: N3_6  and  C2_8 
REMARK    2  A    between atoms: C3_11  and  C4_12 
REMARK    3  A    between atoms: C4_12  and  C5_13 
REMARK    4  A    between atoms: C8_16  and  N6_17 
REMARK    5  A    between atoms: C16_26  and  C17_27 
REMARK    6  A    between atoms: C17_27  and  N7_28 
ROOT
HETATM    1  C2  UNL     1      -3.945  -0.012   0.947  1.00  0.00     0.225 C 
HETATM    2  N4  UNL     1      -2.774  -0.589   1.576  1.00  0.00    -0.118 NA
HETATM    3  N5  UNL     1      -1.858   0.391   1.890  1.00  0.00    -0.114 NA
HETATM    4  C3  UNL     1      -1.948   1.516   1.010  1.00  0.00     0.235 C 
HETATM    5  O1  UNL     1      -2.219   1.093  -0.278  1.00  0.00    -0.358 OA
HETATM    6  C16 UNL     1      -3.497   0.557  -0.380  1.00  0.00     0.189 C 
ENDROOT
BRANCH   4   7
HETATM    7  C4  UNL     1      -0.801   2.471   1.089  1.00  0.00     0.089 C 
BRANCH   7   8
HETATM    8  C5  UNL     1       0.512   1.905   0.774  1.00  0.00    -0.054 A 
HETATM    9  C6  UNL     1       1.002   1.900  -0.523  1.00  0.00     0.009 A 
HETATM   10  C7  UNL     1       2.233   1.376  -0.837  1.00  0.00     0.030 A 
HETATM   11  C8  UNL     1       3.050   0.825   0.129  1.00  0.00     0.030 A 
HETATM   12  C14 UNL     1       2.596   0.816   1.410  1.00  0.00     0.030 A 
HETATM   13  C15 UNL     1       1.340   1.351   1.727  1.00  0.00     0.009 A 
BRANCH  11  14
HETATM   14  N6  UNL     1       4.299   0.292  -0.222  1.00  0.00    -0.381 N 
HETATM   15  C9  UNL     1       4.675   0.200  -1.645  1.00  0.00     0.123 C 
HETATM   16  C10 UNL     1       5.843  -0.756  -1.742  1.00  0.00     0.020 C 
HETATM   17  C11 UNL     1       5.650  -1.995  -0.903  1.00  0.00     0.003 C 
HETATM   18  C12 UNL     1       5.508  -1.680   0.553  1.00  0.00     0.020 C 
HETATM   19  C13 UNL     1       5.292  -0.188   0.709  1.00  0.00     0.123 C 
ENDBRANCH  11  14
ENDBRANCH   7   8
ENDBRANCH   4   7
BRANCH   6  20
HETATM   20  C17 UNL     1      -3.390  -0.563  -1.414  1.00  0.00     0.265 C 
BRANCH  20  21
HETATM   21  N7  UNL     1      -2.453  -1.573  -1.004  1.00  0.00    -0.077 N 
ATOM     22  H73 UNL     1      -1.539  -1.171  -0.794  1.00  0.00     0.274 HD
ATOM     23  H72 UNL     1      -2.681  -1.939  -0.080  1.00  0.00     0.274 HD
ATOM     24  H71 UNL     1      -2.382  -2.321  -1.694  1.00  0.00     0.274 HD
ENDBRANCH  20  21
ENDBRANCH   6  20
BRANCH   1  25
HETATM   25  N3  UNL     1      -5.007  -0.991   0.801  1.00  0.00    -0.343 N 
HETATM   26  C1  UNL     1      -6.237  -0.600   0.210  1.00  0.00     0.183 C 
HETATM   27  N1  UNL     1      -6.576   0.644   0.209  1.00  0.00    -0.374 N 
HETATM   28  N2  UNL     1      -7.124  -1.533  -0.387  1.00  0.00    -0.064 NA
ATOM     29  H12 UNL     1      -7.460   0.925  -0.216  1.00  0.00     0.158 HD
ATOM     30  H11 UNL     1      -5.938   1.315   0.638  1.00  0.00     0.158 HD
ATOM     31  H3  UNL     1      -4.871  -1.950   1.120  1.00  0.00     0.164 HD
ENDBRANCH   1  25
TORSDOF 6
