REMARK  10 active torsions:
REMARK  status: ('A' for Active; 'I' for Inactive)
REMARK    1  A    between atoms: C2_2  and  C4_4 
REMARK    2  A    between atoms: C4_4  and  C5_5 
REMARK    3  A    between atoms: C5_5  and  C6_6 
REMARK    4  A    between atoms: C6_6  and  C7_7 
REMARK    5  A    between atoms: C8_8  and  O1_9 
REMARK    6  A    between atoms: C9_11  and  O2_12 
REMARK    7  A    between atoms: C13_17  and  S1_18 
REMARK    8  A    between atoms: S1_18  and  C14_19 
REMARK    9  A    between atoms: C15_23  and  N2_24 
REMARK   10  A    between atoms: C16_28  and  O3_29 
ROOT
HETATM    1  C7  UNL     1      -0.491  -1.086  -0.388  1.00  0.00     0.031 C 
HETATM    2  C8  UNL     1      -0.828  -2.318  -1.146  1.00  0.00     0.152 C 
HETATM    3  C9  UNL     1       0.105  -3.498  -0.849  1.00  0.00     0.147 C 
HETATM    4  C10 UNL     1       1.485  -2.956  -0.728  1.00  0.00     0.039 C 
HETATM    5  C11 UNL     1       1.544  -2.220   0.601  1.00  0.00    -0.002 C 
HETATM    6  C12 UNL     1       1.603  -3.256   1.697  1.00  0.00     0.011 C 
HETATM    7  C13 UNL     1       0.403  -1.250   0.792  1.00  0.00     0.061 C 
ENDROOT
BRANCH   7   8
HETATM    8  S1  UNL     1       1.199   0.348   1.203  1.00  0.00    -0.103 SA
BRANCH   8   9
HETATM    9  C14 UNL     1       2.341   0.843  -0.115  1.00  0.00     0.450 C 
HETATM   10  N1  UNL     1       2.230   2.245  -0.405  1.00  0.00    -0.004 N 
HETATM   11  C15 UNL     1       3.214   2.877   0.418  1.00  0.00     0.439 C 
ATOM     12  H12 UNL     1       2.317   2.469  -1.396  1.00  0.00     0.283 HD
ATOM     13  H11 UNL     1       1.289   2.618  -0.282  1.00  0.00     0.283 HD
HETATM   14  C16 UNL     1       4.270   1.852   0.671  1.00  0.00     0.380 C 
HETATM   15  N3  UNL     1       3.704   0.631   0.221  1.00  0.00    -0.007 N 
ATOM     16  H32 UNL     1       3.823  -0.123   0.897  1.00  0.00     0.283 HD
ATOM     17  H31 UNL     1       4.233   0.220  -0.548  1.00  0.00     0.283 HD
BRANCH  11  18
HETATM   18  N2  UNL     1       3.834   3.972  -0.324  1.00  0.00    -0.046 N 
ATOM     19  H23 UNL     1       4.217   3.665  -1.218  1.00  0.00     0.277 HD
ATOM     20  H22 UNL     1       3.146   4.635  -0.682  1.00  0.00     0.277 HD
ATOM     21  H21 UNL     1       4.536   4.423   0.263  1.00  0.00     0.277 HD
ENDBRANCH  11  18
BRANCH  14  22
HETATM   22  O3  UNL     1       5.441   2.081  -0.052  1.00  0.00    -0.367 OA
ATOM     23  H3  UNL     1       6.113   1.429   0.109  1.00  0.00     0.212 HD
ENDBRANCH  14  22
ENDBRANCH   8   9
ENDBRANCH   7   8
BRANCH   1  24
HETATM   24  C6  UNL     1      -1.752  -0.409   0.032  1.00  0.00     0.008 C 
BRANCH  24  25
HETATM   25  C5  UNL     1      -2.663   0.042  -1.053  1.00  0.00     0.001 C 
BRANCH  25  26
HETATM   26  C4  UNL     1      -3.920   0.687  -0.532  1.00  0.00     0.004 C 
BRANCH  26  27
HETATM   27  C2  UNL     1      -3.690   1.894   0.328  1.00  0.00    -0.023 C 
HETATM   28  C1  UNL     1      -5.083   2.377   0.758  1.00  0.00     0.009 C 
HETATM   29  C3  UNL     1      -2.931   3.000  -0.324  1.00  0.00     0.009 C 
ENDBRANCH  26  27
ENDBRANCH  25  26
ENDBRANCH  24  25
ENDBRANCH   1  24
BRANCH   2  30
HETATM   30  O1  UNL     1      -2.099  -2.852  -0.818  1.00  0.00    -0.393 OA
ATOM     31  H1  UNL     1      -2.315  -3.640  -1.303  1.00  0.00     0.210 HD
ENDBRANCH   2  30
BRANCH   3  32
HETATM   32  O2  UNL     1      -0.057  -4.461  -1.817  1.00  0.00    -0.393 OA
ATOM     33  H2  UNL     1       0.521  -5.192  -1.633  1.00  0.00     0.210 HD
ENDBRANCH   3  32
TORSDOF 10
