REMARK  8 active torsions:
REMARK  status: ('A' for Active; 'I' for Inactive)
REMARK    1  A    between atoms: O1_1  and  C1_3 
REMARK    2  A    between atoms: C1_3  and  C2_4 
REMARK    3  A    between atoms: C3_6  and  S1_7 
REMARK    4  A    between atoms: S1_7  and  S2_8 
REMARK    5  A    between atoms: S2_8  and  C4_9 
REMARK    6  A    between atoms: C10_15  and  O3_16 
REMARK    7  A    between atoms: C11_18  and  O4_19 
REMARK    8  A    between atoms: C12_21  and  O5_22 
ROOT
HETATM    1  C2  UNL     1      -3.494  -0.827   0.771  1.00  0.00     0.178 C 
HETATM    2  O2  UNL     1      -2.316  -0.515   1.408  1.00  0.00    -0.362 OA
HETATM    3  C3  UNL     1      -1.338   0.019   0.596  1.00  0.00     0.225 C 
HETATM    4  C10 UNL     1      -1.815   1.165  -0.256  1.00  0.00     0.189 C 
HETATM    5  C11 UNL     1      -3.070   0.859  -1.023  1.00  0.00     0.181 C 
HETATM    6  C12 UNL     1      -4.069   0.294  -0.049  1.00  0.00     0.180 C 
ENDROOT
BRANCH   3   7
HETATM    7  S1  UNL     1      -0.078   0.708   1.725  1.00  0.00    -0.062 SA
BRANCH   7   8
HETATM    8  S2  UNL     1       1.354   1.700   0.486  1.00  0.00    -0.090 SA
BRANCH   8   9
HETATM    9  C4  UNL     1       2.805   0.635   0.428  1.00  0.00     0.058 C 
HETATM   10  C5  UNL     1       3.867   1.229  -0.489  1.00  0.00     0.016 C 
HETATM   11  C6  UNL     1       5.184   0.631  -0.006  1.00  0.00     0.001 C 
HETATM   12  C7  UNL     1       4.993  -0.868   0.061  1.00  0.00     0.000 C 
HETATM   13  C8  UNL     1       3.759  -1.336  -0.660  1.00  0.00     0.001 C 
HETATM   14  C9  UNL     1       2.508  -0.756  -0.055  1.00  0.00     0.016 C 
ENDBRANCH   8   9
ENDBRANCH   7   8
ENDBRANCH   3   7
BRANCH   4  15
HETATM   15  O3  UNL     1      -0.792   1.559  -1.099  1.00  0.00    -0.389 OA
ATOM     16  H3  UNL     1      -1.093   2.282  -1.637  1.00  0.00     0.210 HD
ENDBRANCH   4  15
BRANCH   1  17
HETATM   17  C1  UNL     1      -3.423  -2.059  -0.088  1.00  0.00     0.198 C 
BRANCH  17  18
HETATM   18  O1  UNL     1      -4.712  -2.259  -0.609  1.00  0.00    -0.398 OA
ATOM     19  H1  UNL     1      -4.667  -3.037  -1.152  1.00  0.00     0.209 HD
ENDBRANCH  17  18
ENDBRANCH   1  17
BRANCH   5  20
HETATM   20  O4  UNL     1      -3.585   2.085  -1.471  1.00  0.00    -0.390 OA
ATOM     21  H4  UNL     1      -4.379   1.891  -1.956  1.00  0.00     0.210 HD
ENDBRANCH   5  20
BRANCH   6  22
HETATM   22  O5  UNL     1      -4.527   1.302   0.792  1.00  0.00    -0.390 OA
ATOM     23  H5  UNL     1      -4.890   2.010   0.274  1.00  0.00     0.210 HD
ENDBRANCH   6  22
TORSDOF 8
