REMARK  7 active torsions:
REMARK  status: ('A' for Active; 'I' for Inactive)
REMARK    1  A    between atoms: O1_1  and  C1_3 
REMARK    2  A    between atoms: C1_3  and  O2_4 
REMARK    3  A    between atoms: O2_4  and  C2_5 
REMARK    4  A    between atoms: C3_6  and  O3_7 
REMARK    5  A    between atoms: C6_12  and  C7_13 
REMARK    6  A    between atoms: C7_13  and  C8_14 
REMARK    7  A    between atoms: C8_14  and  C9_15 
ROOT
HETATM    1  C2  UNL     1      -3.206   0.231   0.554  1.00  0.00     0.184 C 
HETATM    2  C3  UNL     1      -2.932   1.579   1.213  1.00  0.00     0.152 C 
HETATM    3  C4  UNL     1      -1.506   1.465   1.727  1.00  0.00     0.069 C 
HETATM    4  C5  UNL     1      -0.867   0.667   0.608  1.00  0.00     0.156 C 
HETATM    5  O4  UNL     1       0.328   0.098   0.959  1.00  0.00    -0.376 OA
HETATM    6  C6  UNL     1       0.592  -0.947   0.076  1.00  0.00     0.146 C 
HETATM    7  C12 UNL     1      -0.299  -0.912  -1.143  1.00  0.00     0.200 C 
HETATM    8  O6  UNL     1      -1.650  -1.004  -0.822  1.00  0.00    -0.378 OA
HETATM    9  C13 UNL     1      -1.875  -0.452   0.429  1.00  0.00     0.182 C 
ENDROOT
BRANCH   6  10
HETATM   10  C7  UNL     1       2.016  -0.742  -0.416  1.00  0.00     0.041 C 
BRANCH  10  11
HETATM   11  C8  UNL     1       2.945  -0.781   0.804  1.00  0.00     0.069 C 
BRANCH  11  12
HETATM   12  C9  UNL     1       4.351  -0.585   0.381  1.00  0.00     0.071 A 
HETATM   13  C10 UNL     1       4.995   0.624   0.275  1.00  0.00     0.123 A 
HETATM   14  N1  UNL     1       6.256   0.333  -0.141  1.00  0.00    -0.335 N 
HETATM   15  C11 UNL     1       6.305  -1.007  -0.262  1.00  0.00     0.219 A 
ATOM     16  H1  UNL     1       7.011   0.994  -0.324  1.00  0.00     0.168 HD
HETATM   17  S1  UNL     1       7.612  -1.853  -0.736  1.00  0.00    -0.033 SA
HETATM   18  O5  UNL     1       5.163  -1.538   0.052  1.00  0.00    -0.287 OA
ENDBRANCH  11  12
ENDBRANCH  10  11
ENDBRANCH   6  10
BRANCH   2  19
HETATM   19  O3  UNL     1      -2.913   2.530   0.185  1.00  0.00    -0.393 OA
ATOM     20  H3  UNL     1      -2.742   3.370   0.595  1.00  0.00     0.210 HD
ENDBRANCH   2  19
BRANCH   1  21
HETATM   21  O2  UNL     1      -3.889   0.351  -0.623  1.00  0.00    -0.357 OA
BRANCH  21  22
HETATM   22  C1  UNL     1      -5.120  -0.293  -0.515  1.00  0.00     0.335 C 
BRANCH  22  23
HETATM   23  O1  UNL     1      -5.881  -0.225  -1.655  1.00  0.00    -0.377 OA
ATOM     24  H1  UNL     1      -6.720  -0.664  -1.581  1.00  0.00     0.212 HD
ENDBRANCH  22  23
ENDBRANCH  21  22
ENDBRANCH   1  21
TORSDOF 7
