REMARK  10 active torsions:
REMARK  status: ('A' for Active; 'I' for Inactive)
REMARK    1  A    between atoms: N1_1  and  C1_4 
REMARK    2  A    between atoms: C5_11  and  N4_12 
REMARK    3  A    between atoms: N4_12  and  C6_14 
REMARK    4  A    between atoms: C6_14  and  C7_15 
REMARK    5  A    between atoms: C7_15  and  N5_16 
REMARK    6  A    between atoms: N5_16  and  C8_18 
REMARK    7  A    between atoms: C10_24  and  S1_25 
REMARK    8  A    between atoms: S1_25  and  C11_27 
REMARK    9  A    between atoms: C11_27  and  C12_28 
REMARK   10  A    between atoms: C12_28  and  N8_29 
ROOT
HETATM    1  N4  UNL     1      -1.258  -3.248   0.240  1.00  0.00    -0.224 N 
ATOM      2  H4  UNL     1      -1.308  -4.196   0.613  1.00  0.00     0.177 HD
ENDROOT
BRANCH   1   3
HETATM    3  C5  UNL     1      -2.294  -2.499   0.261  1.00  0.00     0.681 A 
HETATM    4  N3  UNL     1      -2.353  -1.250  -0.194  1.00  0.00    -0.189 N 
HETATM    5  C4  UNL     1      -3.494  -0.512  -0.139  1.00  0.00     0.094 A 
ATOM      6  H3  UNL     1      -1.515  -0.832  -0.597  1.00  0.00     0.184 HD
HETATM    7  C3  UNL     1      -3.328   0.751  -0.665  1.00  0.00     0.078 C 
HETATM    8  C14 UNL     1      -4.621  -1.086   0.407  1.00  0.00     0.129 A 
HETATM    9  C2  UNL     1      -4.218   1.832  -0.628  1.00  0.00     0.077 C 
HETATM   10  N2  UNL     1      -2.112   1.018  -1.335  1.00  0.00    -0.100 NA
HETATM   11  C1  UNL     1      -5.558   1.804  -0.307  1.00  0.00     0.103 C 
HETATM   12  N10 UNL     1      -6.245   0.757   0.199  1.00  0.00    -0.309 N 
HETATM   13  C15 UNL     1      -5.857  -0.479   0.538  1.00  0.00     0.265 C 
ATOM     14  H10 UNL     1      -7.237   0.941   0.350  1.00  0.00     0.170 HD
HETATM   15  O3  UNL     1      -6.730  -1.214   1.056  1.00  0.00    -0.267 OA
HETATM   16  C13 UNL     1      -4.585  -2.388   0.888  1.00  0.00     0.277 A 
HETATM   17  N9  UNL     1      -3.419  -3.057   0.800  1.00  0.00    -0.155 N 
HETATM   18  O2  UNL     1      -5.627  -2.870   1.374  1.00  0.00    -0.266 OA
ATOM     19  H9  UNL     1      -3.374  -4.015   1.148  1.00  0.00     0.187 HD
BRANCH  11  20
HETATM   20  N1  UNL     1      -6.256   2.893  -0.504  1.00  0.00    -0.385 N 
ATOM     21  H12 UNL     1      -5.737   3.684  -0.886  1.00  0.00     0.157 HD
ATOM     22  H11 UNL     1      -7.248   2.872  -0.266  1.00  0.00     0.157 HD
ENDBRANCH  11  20
ENDBRANCH   1   3
BRANCH   1  23
HETATM   23  C6  UNL     1      -0.021  -2.757  -0.308  1.00  0.00     0.157 C 
BRANCH  23  24
HETATM   24  C7  UNL     1       0.684  -1.971   0.799  1.00  0.00     0.141 C 
BRANCH  24  25
HETATM   25  N5  UNL     1       1.928  -1.445   0.338  1.00  0.00    -0.372 N 
ATOM     26  H5  UNL     1       2.701  -2.089   0.171  1.00  0.00     0.161 HD
BRANCH  25  27
HETATM   27  C8  UNL     1       2.109  -0.207   0.128  1.00  0.00     0.136 A 
HETATM   28  N6  UNL     1       1.199   0.766   0.298  1.00  0.00    -0.285 N 
HETATM   29  N7  UNL     1       1.730   1.951  -0.016  1.00  0.00    -0.309 N 
ATOM     30  H6  UNL     1       0.242   0.621   0.620  1.00  0.00     0.188 HD
HETATM   31  C9  UNL     1       3.003   1.759  -0.398  1.00  0.00     0.132 A 
ATOM     32  H7  UNL     1       1.250   2.850   0.027  1.00  0.00     0.186 HD
HETATM   33  C10 UNL     1       3.287   0.416  -0.323  1.00  0.00     0.093 A 
BRANCH  33  34
HETATM   34  S1  UNL     1       4.708  -0.490  -0.681  1.00  0.00     0.056 S 
HETATM   35  O1  UNL     1       4.816  -0.770  -2.319  1.00  0.00    -0.253 OA
BRANCH  34  36
HETATM   36  C11 UNL     1       6.205   0.107  -0.048  1.00  0.00     0.141 C 
BRANCH  36  37
HETATM   37  C12 UNL     1       6.628   1.471  -0.479  1.00  0.00     0.242 C 
BRANCH  37  38
HETATM   38  N8  UNL     1       7.928   1.731   0.176  1.00  0.00    -0.079 N 
ATOM     39  H83 UNL     1       7.900   1.617   1.189  1.00  0.00     0.274 HD
ATOM     40  H82 UNL     1       8.627   1.012  -0.012  1.00  0.00     0.274 HD
ATOM     41  H81 UNL     1       8.217   2.664  -0.119  1.00  0.00     0.274 HD
ENDBRANCH  37  38
ENDBRANCH  36  37
ENDBRANCH  34  36
ENDBRANCH  33  34
ENDBRANCH  25  27
ENDBRANCH  24  25
ENDBRANCH  23  24
ENDBRANCH   1  23
TORSDOF 10
