REMARK  11 active torsions:
REMARK  status: ('A' for Active; 'I' for Inactive)
REMARK    1  A    between atoms: C2_2  and  C5_5 
REMARK    2  A    between atoms: C8_8  and  C9_9 
REMARK    3  A    between atoms: C9_9  and  C10_10 
REMARK    4  A    between atoms: C10_10  and  N1_11 
REMARK    5  A    between atoms: C10_10  and  C16_38 
REMARK    6  A    between atoms: C12_16  and  N3_17 
REMARK    7  A    between atoms: C13_22  and  N5_23 
REMARK       I    between atoms: N5_23  and  C14_25 
REMARK    8  A    between atoms: C14_25  and  C15_27 
REMARK    9  A    between atoms: C15_27  and  N6_28 
REMARK   10  A    between atoms: C15_27  and  N7_32 
REMARK       I    between atoms: C16_38  and  N9_40 
REMARK   11  A    between atoms: N9_40  and  N10_42 
ROOT
HETATM    1  N1  UNL     1       1.379  -1.996  -0.150  1.00  0.00    -0.208 N 
ATOM      2  H1  UNL     1       1.442  -2.987   0.081  1.00  0.00     0.179 HD
HETATM    3  C11 UNL     1       2.421  -1.432   0.107  1.00  0.00     0.708 A 
HETATM    4  N2  UNL     1       3.421  -2.210   0.640  1.00  0.00    -0.022 N 
ATOM      5  H2  UNL     1       3.248  -3.207   0.771  1.00  0.00     0.203 HD
HETATM    6  C12 UNL     1       4.604  -1.718   0.992  1.00  0.00     0.705 A 
HETATM    7  N4  UNL     1       4.839  -0.385   0.817  1.00  0.00    -0.021 N 
ATOM      8  H4  UNL     1       5.743   0.004   1.085  1.00  0.00     0.203 HD
HETATM    9  C13 UNL     1       3.896   0.427   0.296  1.00  0.00     0.714 A 
HETATM   10  N8  UNL     1       2.700  -0.141  -0.044  1.00  0.00    -0.021 N 
ATOM     11  H8  UNL     1       1.978   0.462  -0.437  1.00  0.00     0.203 HD
ENDROOT
BRANCH   1  12
HETATM   12  C10 UNL     1       0.069  -1.680  -0.689  1.00  0.00     0.218 C 
BRANCH  12  13
HETATM   13  C9  UNL     1      -0.671  -0.869   0.270  1.00  0.00     0.038 C 
BRANCH  13  14
HETATM   14  C8  UNL     1      -1.992  -0.320   0.068  1.00  0.00     0.030 A 
HETATM   15  C7  UNL     1      -2.748  -0.331  -1.054  1.00  0.00     0.030 A 
HETATM   16  C6  UNL     1      -4.034   0.243  -1.109  1.00  0.00     0.011 A 
HETATM   17  C5  UNL     1      -4.567   0.850   0.006  1.00  0.00    -0.035 A 
HETATM   18  C17 UNL     1      -3.782   0.849   1.132  1.00  0.00     0.096 A 
HETATM   19  N11 UNL     1      -2.578   0.303   1.165  1.00  0.00    -0.366 N 
ATOM     20  H11 UNL     1      -2.053   0.341   2.039  1.00  0.00     0.165 HD
BRANCH  17  21
HETATM   21  C2  UNL     1      -5.885   1.495   0.093  1.00  0.00    -0.023 C 
HETATM   22  C1  UNL     1      -5.732   3.028   0.264  1.00  0.00     0.019 C 
HETATM   23  C3  UNL     1      -6.702   1.040   1.279  1.00  0.00     0.019 C 
HETATM   24  C4  UNL     1      -6.747   1.324  -1.134  1.00  0.00     0.019 C 
ENDBRANCH  17  21
ENDBRANCH  13  14
ENDBRANCH  12  13
BRANCH  12  25
HETATM   25  C16 UNL     1      -0.583  -3.045  -0.853  1.00  0.00     0.262 C 
HETATM   26  O2  UNL     1      -1.728  -3.240  -1.261  1.00  0.00    -0.269 OA
HETATM   27  N9  UNL     1       0.166  -4.212  -0.523  1.00  0.00    -0.275 N 
ATOM     28  H9  UNL     1       1.120  -4.110  -0.177  1.00  0.00     0.189 HD
BRANCH  27  29
HETATM   29  N10 UNL     1      -0.377  -5.497  -0.662  1.00  0.00    -0.343 N 
ATOM     30 2H10 UNL     1      -1.332  -5.581  -1.009  1.00  0.00     0.176 HD
ATOM     31 1H10 UNL     1       0.159  -6.332  -0.426  1.00  0.00     0.176 HD
ENDBRANCH  27  29
ENDBRANCH  12  25
ENDBRANCH   1  12
BRANCH   6  32
HETATM   32  N3  UNL     1       5.560  -2.443   1.488  1.00  0.00    -0.234 N 
ATOM     33  H32 UNL     1       5.384  -3.439   1.619  1.00  0.00     0.174 HD
ATOM     34  H31 UNL     1       6.468  -2.065   1.758  1.00  0.00     0.174 HD
ENDBRANCH   6  32
BRANCH   9  35
HETATM   35  N5  UNL     1       4.105   1.679   0.134  1.00  0.00    -0.155 N 
HETATM   36  C14 UNL     1       5.320   2.304   0.477  1.00  0.00     0.294 C 
HETATM   37  O1  UNL     1       5.382   3.050   1.486  1.00  0.00    -0.268 OA
ATOM     38  H5  UNL     1       3.358   2.250  -0.261  1.00  0.00     0.187 HD
BRANCH  36  39
HETATM   39  C15 UNL     1       6.571   2.130  -0.304  1.00  0.00     0.469 C 
BRANCH  39  40
HETATM   40  N6  UNL     1       6.706   3.188  -1.316  1.00  0.00    -0.042 N 
ATOM     41  H63 UNL     1       5.887   3.238  -1.922  1.00  0.00     0.277 HD
ATOM     42  H62 UNL     1       6.647   4.118  -0.900  1.00  0.00     0.277 HD
ATOM     43  H61 UNL     1       7.565   3.068  -1.852  1.00  0.00     0.277 HD
ENDBRANCH  39  40
BRANCH  39  44
HETATM   44  N7  UNL     1       7.752   2.224   0.532  1.00  0.00    -0.042 N 
ATOM     45  H73 UNL     1       7.763   3.097   1.059  1.00  0.00     0.277 HD
ATOM     46  H72 UNL     1       7.707   1.566   1.310  1.00  0.00     0.277 HD
ATOM     47  H71 UNL     1       8.611   2.104  -0.004  1.00  0.00     0.277 HD
ENDBRANCH  39  44
ENDBRANCH  36  39
ENDBRANCH   9  35
TORSDOF 11
