REMARK  9 active torsions:
REMARK  status: ('A' for Active; 'I' for Inactive)
REMARK    1  A    between atoms: C2_2  and  N1_3 
REMARK       I    between atoms: N1_3  and  C3_5 
REMARK       I    between atoms: C3_5  and  N3_10 
REMARK    2  A    between atoms: N2_6  and  O1_8 
REMARK    3  A    between atoms: N3_10  and  C4_12 
REMARK    4  A    between atoms: C4_12  and  C5_13 
REMARK    5  A    between atoms: C5_13  and  C6_14 
REMARK    6  A    between atoms: C6_14  and  N4_15 
REMARK       I    between atoms: N4_15  and  C7_17 
REMARK       I    between atoms: C7_17  and  N7_23 
REMARK    7  A    between atoms: N5_18  and  N6_20 
REMARK    8  A    between atoms: N7_23  and  N8_25 
REMARK    9  A    between atoms: N8_25  and  C8_27 
ROOT
HETATM    1  N4  UNL     1      -0.557   0.386   0.324  1.00  0.00    -0.224 N 
ATOM      2  H4  UNL     1      -0.488   0.262   1.334  1.00  0.00     0.177 HD
HETATM    3  C7  UNL     1       0.451   1.098  -0.413  1.00  0.00     0.706 C 
HETATM    4  N5  UNL     1       0.370   2.382  -0.403  1.00  0.00    -0.138 N 
ATOM      5  H5  UNL     1       1.071   2.916  -0.917  1.00  0.00     0.205 HD
HETATM    6  N7  UNL     1       1.468   0.390  -1.104  1.00  0.00    -0.129 N 
ATOM      7  H7  UNL     1       1.585   0.557  -2.103  1.00  0.00     0.205 HD
ENDROOT
BRANCH   1   8
HETATM    8  C6  UNL     1      -1.663  -0.142  -0.420  1.00  0.00     0.140 C 
BRANCH   8   9
HETATM    9  C5  UNL     1      -2.603  -0.853   0.511  1.00  0.00     0.040 C 
BRANCH   9  10
HETATM   10  C4  UNL     1      -3.132   0.092   1.537  1.00  0.00     0.139 C 
BRANCH  10  11
HETATM   11  N3  UNL     1      -3.841   1.160   0.880  1.00  0.00    -0.225 N 
HETATM   12  C3  UNL     1      -5.049   0.923   0.211  1.00  0.00     0.693 C 
HETATM   13  N1  UNL     1      -5.819  -0.260   0.497  1.00  0.00    -0.225 N 
HETATM   14  N2  UNL     1      -5.506   1.731  -0.661  1.00  0.00    -0.099 N 
ATOM     15  H1  UNL     1      -5.416  -0.985   1.091  1.00  0.00     0.177 HD
ATOM     16  H2  UNL     1      -6.393   1.482  -1.100  1.00  0.00     0.213 HD
ATOM     17  H3  UNL     1      -3.457   2.105   0.902  1.00  0.00     0.177 HD
BRANCH  13  18
HETATM   18  C2  UNL     1      -7.148  -0.444  -0.038  1.00  0.00     0.134 C 
HETATM   19  C1  UNL     1      -7.707  -1.770   0.422  1.00  0.00     0.027 C 
ENDBRANCH  13  18
BRANCH  14  20
HETATM   20  O1  UNL     1      -4.929   2.887  -1.061  1.00  0.00    -0.276 OA
ATOM     21  H1  UNL     1      -5.270   3.490  -1.711  1.00  0.00     0.245 HD
ENDBRANCH  14  20
ENDBRANCH  10  11
ENDBRANCH   9  10
ENDBRANCH   8   9
ENDBRANCH   1   8
BRANCH   4  22
HETATM   22  N6  UNL     1      -0.624   3.077   0.273  1.00  0.00    -0.331 N 
ATOM     23  H62 UNL     1      -1.316   2.527   0.782  1.00  0.00     0.177 HD
ATOM     24  H61 UNL     1      -0.688   4.095   0.281  1.00  0.00     0.177 HD
ENDBRANCH   4  22
BRANCH   6  25
HETATM   25  N8  UNL     1       2.320  -0.529  -0.474  1.00  0.00    -0.265 N 
ATOM     26  H8  UNL     1       1.934  -1.362  -0.029  1.00  0.00     0.189 HD
BRANCH  25  27
HETATM   27  C8  UNL     1       3.615  -0.314  -0.458  1.00  0.00     0.166 A 
HETATM   28  N9  UNL     1       4.565  -1.070   0.088  1.00  0.00    -0.320 N 
HETATM   29  C9  UNL     1       5.808  -0.672  -0.009  1.00  0.00     0.136 A 
ATOM     30  H9  UNL     1       4.330  -1.938   0.570  1.00  0.00     0.169 HD
HETATM   31  C10 UNL     1       6.057   0.500  -0.668  1.00  0.00     0.120 A 
HETATM   32  N11 UNL     1       6.928  -1.303   0.482  1.00  0.00    -0.288 N 
HETATM   33  S1  UNL     1       4.481   0.992  -1.128  1.00  0.00    -0.043 SA
HETATM   34  C11 UNL     1       7.350   1.025  -0.834  1.00  0.00     0.270 A 
HETATM   35  O2  UNL     1       7.429   2.097  -1.453  1.00  0.00    -0.266 OA
HETATM   36  N10 UNL     1       8.423   0.369  -0.334  1.00  0.00    -0.274 N 
HETATM   37  C12 UNL     1       8.138  -0.767   0.300  1.00  0.00     0.330 A 
ATOM     38  H10 UNL     1       9.376   0.718  -0.435  1.00  0.00     0.173 HD
HETATM   39  O3  UNL     1       9.139  -1.397   0.777  1.00  0.00    -0.246 OA
HETATM   40  C13 UNL     1       6.819  -2.561   1.206  1.00  0.00     0.163 C 
ENDBRANCH  25  27
ENDBRANCH   6  25
TORSDOF 9
