REMARK  8 active torsions:
REMARK  status: ('A' for Active; 'I' for Inactive)
REMARK    1  A    between atoms: C8_19  and  N6_20 
REMARK       I    between atoms: N6_20  and  C9_22 
REMARK    2  A    between atoms: C9_22  and  C10_24 
REMARK    3  A    between atoms: C10_24  and  N7_25 
REMARK    4  A    between atoms: C10_24  and  C11_29 
REMARK    5  A    between atoms: C11_29  and  C12_30 
REMARK    6  A    between atoms: C12_30  and  C13_31 
REMARK    7  A    between atoms: C13_31  and  N8_32 
REMARK       I    between atoms: N8_32  and  C14_34 
REMARK    8  A    between atoms: N11_39  and  O2_40 
ROOT
HETATM    1  C1  UNL     1      -2.418   2.560   0.639  1.00  0.00     0.177 C 
HETATM    2  N1  UNL     1      -3.557   1.693   0.511  1.00  0.00    -0.169 N 
HETATM    3  C2  UNL     1      -3.477   0.349   0.759  1.00  0.00     0.168 A 
HETATM    4  C3  UNL     1      -4.573  -0.502   0.612  1.00  0.00     0.089 A 
HETATM    5  C4  UNL     1      -5.786  -0.002   0.209  1.00  0.00     0.152 A 
HETATM    6  N2  UNL     1      -6.922  -0.835   0.049  1.00  0.00    -0.081 NA
HETATM    7  N3  UNL     1      -5.852   1.296  -0.025  1.00  0.00    -0.177 N 
ATOM      8  H3  UNL     1      -6.740   1.698  -0.326  1.00  0.00     0.185 HD
HETATM    9  C5  UNL     1      -4.785   2.109   0.120  1.00  0.00     0.680 A 
HETATM   10  N4  UNL     1      -5.025   3.347  -0.131  1.00  0.00    -0.234 N 
ATOM     11  H41 UNL     1      -5.950   3.660  -0.426  1.00  0.00     0.174 HD
ATOM     12  H42 UNL     1      -4.218   3.962  -0.021  1.00  0.00     0.174 HD
HETATM   13  S1  UNL     1      -4.667  -2.280   0.877  1.00  0.00    -0.117 SA
HETATM   14  C6  UNL     1      -3.175  -3.086   0.189  1.00  0.00     0.135 C 
HETATM   15  C7  UNL     1      -2.090  -2.087  -0.022  1.00  0.00     0.034 C 
HETATM   16  N5  UNL     1      -1.690  -2.024  -1.233  1.00  0.00    -0.402 N 
ATOM     17  H51 UNL     1      -0.947  -1.340  -1.377  1.00  0.00     0.155 HD
ATOM     18  H52 UNL     1      -2.155  -2.653  -1.887  1.00  0.00     0.155 HD
HETATM   19  C8  UNL     1      -1.423  -1.185   0.915  1.00  0.00     0.263 C 
HETATM   20  N11 UNL     1      -2.158   0.032   1.188  1.00  0.00    -0.213 N 
ENDROOT
BRANCH  19  21
HETATM   21  N6  UNL     1      -0.036  -0.930   0.621  1.00  0.00    -0.331 N 
HETATM   22  C9  UNL     1       1.062  -1.280   1.412  1.00  0.00     0.250 C 
HETATM   23  O1  UNL     1       0.917  -1.879   2.506  1.00  0.00    -0.271 OA
ATOM     24  H6  UNL     1       0.165  -0.445  -0.253  1.00  0.00     0.165 HD
BRANCH  22  25
HETATM   25  C10 UNL     1       2.445  -0.954   0.987  1.00  0.00     0.274 C 
BRANCH  25  26
HETATM   26  N7  UNL     1       3.430  -1.397   1.946  1.00  0.00    -0.067 N 
ATOM     27  H73 UNL     1       3.233  -1.026   2.875  1.00  0.00     0.275 HD
ATOM     28  H72 UNL     1       3.330  -2.393   2.144  1.00  0.00     0.275 HD
ATOM     29  H71 UNL     1       4.381  -1.173   1.654  1.00  0.00     0.275 HD
ENDBRANCH  25  26
BRANCH  25  30
HETATM   30  C11 UNL     1       2.513   0.528   0.745  1.00  0.00     0.044 C 
BRANCH  30  31
HETATM   31  C12 UNL     1       3.857   1.014   0.308  1.00  0.00     0.022 C 
BRANCH  31  32
HETATM   32  C13 UNL     1       4.301   0.365  -0.991  1.00  0.00     0.122 C 
BRANCH  32  33
HETATM   33  N8  UNL     1       5.614   0.880  -1.362  1.00  0.00    -0.365 N 
HETATM   34  C14 UNL     1       6.266   0.436  -2.542  1.00  0.00     0.181 C 
HETATM   35  N9  UNL     1       5.940   0.808  -3.727  1.00  0.00    -0.374 N 
HETATM   36  N10 UNL     1       7.358  -0.484  -2.399  1.00  0.00    -0.064 NA
ATOM     37  H92 UNL     1       5.164   1.462  -3.829  1.00  0.00     0.158 HD
ATOM     38  H91 UNL     1       6.409   0.489  -4.575  1.00  0.00     0.158 HD
ATOM     39  H8  UNL     1       6.070   1.569  -0.765  1.00  0.00     0.162 HD
ENDBRANCH  32  33
ENDBRANCH  31  32
ENDBRANCH  30  31
ENDBRANCH  25  30
ENDBRANCH  22  25
ENDBRANCH  19  21
BRANCH  20  40
HETATM   40  O2  UNL     1      -1.615   1.004   1.917  1.00  0.00    -0.283 OA
ATOM     41  H2  UNL     1      -0.734   0.792   2.203  1.00  0.00     0.245 HD
ENDBRANCH  20  40
TORSDOF 8
