REMARK  11 active torsions:
REMARK  status: ('A' for Active; 'I' for Inactive)
REMARK    1  A    between atoms: N1_2  and  C2_4 
REMARK    2  A    between atoms: C3_7  and  N3_8 
REMARK    3  A    between atoms: C4_13  and  N5_14 
REMARK    4  A    between atoms: N5_14  and  C5_16 
REMARK    5  A    between atoms: C5_16  and  C6_17 
REMARK    6  A    between atoms: C6_17  and  C7_18 
REMARK    7  A    between atoms: C7_18  and  N6_19 
REMARK    8  A    between atoms: C9_24  and  C10_25 
REMARK    9  A    between atoms: C15_32  and  C16_33 
REMARK   10  A    between atoms: C17_36  and  N10_37 
REMARK   11  A    between atoms: N11_40  and  N12_41 
ROOT
HETATM    1  N6  UNL     1      -0.537  -0.391   0.059  1.00  0.00    -0.203 N 
ATOM      2  H6  UNL     1      -0.539  -1.190  -0.575  1.00  0.00     0.183 HD
HETATM    3  C8  UNL     1      -1.705  -0.119   0.409  1.00  0.00     0.705 A 
HETATM    4  N7  UNL     1      -2.735  -0.897  -0.091  1.00  0.00    -0.186 N 
ATOM      5  H7  UNL     1      -2.503  -1.661  -0.726  1.00  0.00     0.184 HD
HETATM    6  C9  UNL     1      -4.021  -0.695   0.219  1.00  0.00     0.095 A 
HETATM    7  C15 UNL     1      -4.390   0.320   1.066  1.00  0.00     0.104 A 
HETATM    8  C17 UNL     1      -3.342   1.094   1.562  1.00  0.00     0.156 A 
HETATM    9  N11 UNL     1      -2.058   0.873   1.238  1.00  0.00    -0.076 N 
ENDROOT
BRANCH   1  10
HETATM   10  C7  UNL     1       0.758   0.051   0.261  1.00  0.00     0.080 C 
BRANCH  10  11
HETATM   11  C6  UNL     1       1.168   1.083  -0.779  1.00  0.00     0.065 C 
BRANCH  11  12
HETATM   12  C5  UNL     1       2.564   1.581  -0.582  1.00  0.00     0.143 C 
BRANCH  12  13
HETATM   13  N5  UNL     1       3.551   0.523  -0.657  1.00  0.00    -0.225 N 
ATOM     14  H5  UNL     1       3.258  -0.435  -0.847  1.00  0.00     0.177 HD
BRANCH  13  15
HETATM   15  C4  UNL     1       4.800   0.792  -0.484  1.00  0.00     0.707 A 
HETATM   16  N4  UNL     1       5.258   2.032  -0.230  1.00  0.00    -0.022 N 
HETATM   17  C3  UNL     1       6.564   2.299  -0.052  1.00  0.00     0.705 A 
ATOM     18  H4  UNL     1       4.588   2.799  -0.170  1.00  0.00     0.203 HD
HETATM   19  N2  UNL     1       7.476   1.316  -0.122  1.00  0.00    -0.022 N 
HETATM   20  C2  UNL     1       7.041   0.070  -0.375  1.00  0.00     0.706 A 
ATOM     21  H2  UNL     1       8.468   1.509   0.013  1.00  0.00     0.203 HD
HETATM   22  N13 UNL     1       5.714  -0.192  -0.555  1.00  0.00    -0.022 N 
ATOM     23  H13 UNL     1       5.411  -1.147  -0.746  1.00  0.00     0.203 HD
BRANCH  17  24
HETATM   24  N3  UNL     1       6.984   3.496   0.191  1.00  0.00    -0.234 N 
ATOM     25  H32 UNL     1       7.975   3.699   0.326  1.00  0.00     0.174 HD
ATOM     26  H31 UNL     1       6.291   4.243   0.244  1.00  0.00     0.174 HD
ENDBRANCH  17  24
BRANCH  20  27
HETATM   27  N1  UNL     1       7.919  -0.871  -0.442  1.00  0.00    -0.229 N 
HETATM   28  C1  UNL     1       7.470  -2.222  -0.713  1.00  0.00     0.165 C 
ATOM     29  H1  UNL     1       8.910  -0.669  -0.307  1.00  0.00     0.177 HD
ENDBRANCH  20  27
ENDBRANCH  13  15
ENDBRANCH  12  13
ENDBRANCH  11  12
ENDBRANCH  10  11
ENDBRANCH   1  10
BRANCH   9  30
HETATM   30  N12 UNL     1      -1.073   1.729   1.805  1.00  0.00    -0.322 N 
ATOM     31 2H12 UNL     1      -0.097   1.561   1.559  1.00  0.00     0.178 HD
ATOM     32 1H12 UNL     1      -1.342   2.484   2.436  1.00  0.00     0.178 HD
ENDBRANCH   9  30
BRANCH   6  33
HETATM   33  C10 UNL     1      -5.063  -1.584  -0.335  1.00  0.00     0.060 A 
HETATM   34  C11 UNL     1      -4.737  -2.617  -1.173  1.00  0.00     0.032 A 
HETATM   35  C12 UNL     1      -5.719  -3.452  -1.692  1.00  0.00     0.004 A 
HETATM   36  C13 UNL     1      -7.028  -3.228  -1.354  1.00  0.00     0.017 A 
HETATM   37  C14 UNL     1      -7.329  -2.182  -0.510  1.00  0.00     0.088 A 
HETATM   38  N8  UNL     1      -6.350  -1.405  -0.035  1.00  0.00    -0.364 N 
ATOM     39  H8  UNL     1      -6.600  -0.637   0.588  1.00  0.00     0.165 HD
ENDBRANCH   6  33
BRANCH   8  40
HETATM   40  N10 UNL     1      -3.655   2.059   2.365  1.00  0.00    -0.383 N 
ATOM     41 2H10 UNL     1      -4.631   2.227   2.611  1.00  0.00     0.157 HD
ATOM     42 1H10 UNL     1      -2.888   2.625   2.728  1.00  0.00     0.157 HD
ENDBRANCH   8  40
BRANCH   7  43
HETATM   43  C16 UNL     1      -5.753   0.643   1.427  1.00  0.00     0.271 C 
HETATM   44  N9  UNL     1      -6.289   0.184   2.660  1.00  0.00    -0.057 NA
HETATM   45  O1  UNL     1      -6.542   1.336   0.697  1.00  0.00    -0.271 OA
ENDBRANCH   7  43
TORSDOF 11
