REMARK  14 active torsions:
REMARK  status: ('A' for Active; 'I' for Inactive)
REMARK    1  A    between atoms: C2_2  and  C3_3 
REMARK    2  A    between atoms: C6_6  and  O1_7 
REMARK    3  A    between atoms: C11_13  and  O2_14 
REMARK    4  A    between atoms: C11_13  and  C12_16 
REMARK    5  A    between atoms: C12_16  and  C13_17 
REMARK    6  A    between atoms: N1_23  and  C19_25 
REMARK    7  A    between atoms: C19_25  and  C20_26 
REMARK    8  A    between atoms: C26_32  and  O4_33 
REMARK    9  A    between atoms: O4_33  and  C27_34 
REMARK   10  A    between atoms: C28_35  and  O5_36 
REMARK   11  A    between atoms: C29_38  and  O6_39 
REMARK   12  A    between atoms: C30_41  and  O7_42 
REMARK   13  A    between atoms: O7_42  and  S1_43 
REMARK   14  A    between atoms: C31_47  and  O11_48 
ROOT
HETATM    1  C3  UNL     1       0.746   1.629  -3.384  1.00  0.00    -0.022 C 
HETATM    2  C4  UNL     1       0.826   1.111  -4.818  1.00  0.00     0.019 C 
HETATM    3  C5  UNL     1      -0.698   1.841  -3.015  1.00  0.00     0.048 C 
HETATM    4  C6  UNL     1      -1.112   0.643  -2.193  1.00  0.00     0.167 C 
HETATM    5  C7  UNL     1      -0.496   0.745  -0.833  1.00  0.00     0.243 C 
HETATM    6  C8  UNL     1      -0.821   2.105  -0.211  1.00  0.00     0.055 C 
HETATM    7  C9  UNL     1      -2.258   2.409  -0.168  1.00  0.00     0.009 C 
HETATM    8  C10 UNL     1      -2.889   1.318   0.659  1.00  0.00     0.080 C 
HETATM    9  C11 UNL     1      -2.315  -0.026   0.619  1.00  0.00     0.293 C 
HETATM   10  N1  UNL     1      -1.010  -0.260   0.108  1.00  0.00     0.086 N 
HETATM   11  O3  UNL     1      -0.247   0.100   1.228  1.00  0.00    -0.056 OA
HETATM   12  C26 UNL     1       0.986   0.774  -1.012  1.00  0.00     0.171 C 
HETATM   13  C32 UNL     1       1.364   0.583  -2.520  1.00  0.00     0.048 C 
ENDROOT
BRANCH   4  14
HETATM   14  O1  UNL     1      -2.465   0.547  -2.275  1.00  0.00    -0.392 OA
ATOM     15  H1  UNL     1      -2.725  -0.206  -1.758  1.00  0.00     0.210 HD
ENDBRANCH   4  14
BRANCH  10  16
HETATM   16  C19 UNL     1      -0.591  -1.534  -0.245  1.00  0.00     0.290 C 
BRANCH  16  17
HETATM   17  C20 UNL     1      -1.406  -2.710  -0.487  1.00  0.00    -0.004 A 
HETATM   18  C21 UNL     1      -2.019  -3.001  -1.698  1.00  0.00     0.013 A 
HETATM   19  C22 UNL     1      -2.766  -4.109  -1.957  1.00  0.00     0.001 A 
HETATM   20  C23 UNL     1      -2.958  -5.041  -0.981  1.00  0.00     0.000 A 
HETATM   21  C24 UNL     1      -2.381  -4.829   0.257  1.00  0.00     0.001 A 
HETATM   22  C25 UNL     1      -1.644  -3.698   0.453  1.00  0.00     0.013 A 
ENDBRANCH  16  17
ENDBRANCH  10  16
BRANCH  12  23
HETATM   23  O4  UNL     1       1.806  -0.034  -0.347  1.00  0.00    -0.372 OA
BRANCH  23  24
HETATM   24  C27 UNL     1       2.983   0.386   0.155  1.00  0.00     0.184 C 
HETATM   25  C28 UNL     1       4.221  -0.231  -0.418  1.00  0.00     0.181 C 
HETATM   26  C29 UNL     1       5.248   0.659   0.316  1.00  0.00     0.182 C 
HETATM   27  C30 UNL     1       4.722   0.443   1.750  1.00  0.00     0.207 C 
HETATM   28  C31 UNL     1       3.229   0.354   1.619  1.00  0.00     0.182 C 
BRANCH  25  29
HETATM   29  O5  UNL     1       4.501  -1.504   0.048  1.00  0.00    -0.390 OA
ATOM     30  H5  UNL     1       5.287  -1.895  -0.316  1.00  0.00     0.210 HD
ENDBRANCH  25  29
BRANCH  26  31
HETATM   31  O6  UNL     1       5.040   1.972  -0.027  1.00  0.00    -0.390 OA
ATOM     32  H6  UNL     1       5.672   2.519   0.424  1.00  0.00     0.210 HD
ENDBRANCH  26  31
BRANCH  27  33
HETATM   33  O7  UNL     1       5.300  -0.687   2.266  1.00  0.00    -0.246 OA
BRANCH  33  34
HETATM   34  S1  UNL     1       6.169  -0.280   3.640  1.00  0.00     0.252 S 
HETATM   35  O8  UNL     1       5.277   0.142   4.772  1.00  0.00    -0.572 OA
HETATM   36  O9  UNL     1       6.996  -1.479   4.069  1.00  0.00    -0.572 OA
HETATM   37  O10 UNL     1       7.254   0.965   3.341  1.00  0.00    -0.572 OA
ENDBRANCH  33  34
ENDBRANCH  27  33
BRANCH  28  38
HETATM   38  O11 UNL     1       2.636   1.506   2.200  1.00  0.00    -0.390 OA
ATOM     39  H11 UNL     1       2.793   1.486   3.137  1.00  0.00     0.210 HD
ENDBRANCH  28  38
ENDBRANCH  23  24
ENDBRANCH  12  23
BRANCH   9  40
HETATM   40  O2  UNL     1      -3.316  -0.868   0.060  1.00  0.00    -0.357 OA
ATOM     41  H2  UNL     1      -2.943  -1.741   0.034  1.00  0.00     0.213 HD
ENDBRANCH   9  40
BRANCH   9  42
HETATM   42  C12 UNL     1      -2.335  -0.511   2.085  1.00  0.00     0.117 C 
BRANCH  42  43
HETATM   43  C13 UNL     1      -3.684  -0.572   2.668  1.00  0.00    -0.053 A 
HETATM   44  C14 UNL     1      -4.530  -1.664   2.412  1.00  0.00     0.007 A 
HETATM   45  C15 UNL     1      -5.781  -1.749   2.980  1.00  0.00     0.001 A 
HETATM   46  C16 UNL     1      -6.262  -0.771   3.826  1.00  0.00     0.000 A 
HETATM   47  C17 UNL     1      -5.460   0.295   4.088  1.00  0.00     0.001 A 
HETATM   48  C18 UNL     1      -4.209   0.379   3.519  1.00  0.00     0.007 A 
ENDBRANCH  42  43
ENDBRANCH   9  42
BRANCH   1  49
HETATM   49  C2  UNL     1       1.519   2.920  -3.379  1.00  0.00    -0.028 C 
HETATM   50  C1  UNL     1       2.753   2.957  -3.810  1.00  0.00     0.007 C 
ENDBRANCH   1  49
TORSDOF 14
