REMARK  12 active torsions:
REMARK  status: ('A' for Active; 'I' for Inactive)
REMARK    1  A    between atoms: C1_2  and  N2_4 
REMARK    2  A    between atoms: N2_4  and  N3_6 
REMARK    3  A    between atoms: N3_6  and  C2_7 
REMARK    4  A    between atoms: C2_7  and  C3_8 
REMARK    5  A    between atoms: C9_16  and  N5_17 
REMARK    6  A    between atoms: N5_17  and  C10_19 
REMARK    7  A    between atoms: C15_24  and  C16_25 
REMARK    8  A    between atoms: C19_28  and  S2_29 
REMARK    9  A    between atoms: S2_29  and  N6_32 
REMARK   10  A    between atoms: N6_32  and  C20_34 
REMARK   11  A    between atoms: C20_34  and  C21_35 
REMARK   12  A    between atoms: C21_35  and  N7_36 
ROOT
HETATM    1  C10 UNL     1      -2.752  -0.707  -1.339  1.00  0.00     0.063 A 
HETATM    2  C11 UNL     1      -2.122  -0.879  -2.565  1.00  0.00     0.032 A 
HETATM    3  C12 UNL     1      -0.766  -0.712  -2.729  1.00  0.00     0.003 A 
HETATM    4  C13 UNL     1       0.013  -0.363  -1.654  1.00  0.00     0.016 A 
HETATM    5  C14 UNL     1      -0.582  -0.187  -0.416  1.00  0.00     0.023 A 
HETATM    6  C15 UNL     1      -0.091   0.136   0.829  1.00  0.00     0.070 A 
HETATM    7  N8  UNL     1      -1.162   0.139   1.654  1.00  0.00    -0.299 N 
ATOM      8  H8  UNL     1      -1.106   0.344   2.652  1.00  0.00     0.187 HD
HETATM    9  N9  UNL     1      -2.279  -0.150   1.035  1.00  0.00    -0.297 N 
ATOM     10  H9  UNL     1      -3.213  -0.208   1.440  1.00  0.00     0.187 HD
HETATM   11  C28 UNL     1      -1.928  -0.358  -0.270  1.00  0.00     0.087 A 
ENDROOT
BRANCH   1  12
HETATM   12  N5  UNL     1      -4.131  -0.824  -1.119  1.00  0.00    -0.339 N 
ATOM     13  H5  UNL     1      -4.471  -1.569  -0.511  1.00  0.00     0.167 HD
BRANCH  12  14
HETATM   14  C9  UNL     1      -4.993  -0.014  -1.665  1.00  0.00     0.121 A 
HETATM   15  C8  UNL     1      -4.644   1.014  -2.494  1.00  0.00     0.137 A 
HETATM   16  N4  UNL     1      -5.578   1.821  -3.043  1.00  0.00    -0.360 N 
HETATM   17  C7  UNL     1      -6.873   1.610  -2.766  1.00  0.00     0.060 A 
ATOM     18  H4  UNL     1      -5.301   2.583  -3.662  1.00  0.00     0.165 HD
HETATM   19  C6  UNL     1      -7.849   2.380  -3.357  1.00  0.00     0.032 A 
HETATM   20  C29 UNL     1      -7.254   0.559  -1.900  1.00  0.00     0.073 A 
HETATM   21  C5  UNL     1      -9.183   2.175  -3.147  1.00  0.00     0.003 A 
HETATM   22  C4  UNL     1      -9.573   1.169  -2.310  1.00  0.00     0.016 A 
HETATM   23  C3  UNL     1      -8.579   0.364  -1.683  1.00  0.00     0.024 A 
HETATM   24  N10 UNL     1      -6.317  -0.232  -1.376  1.00  0.00    -0.339 N 
ATOM     25  H10 UNL     1      -6.584  -1.000  -0.760  1.00  0.00     0.167 HD
BRANCH  23  26
HETATM   26  C2  UNL     1      -9.099  -0.489  -0.584  1.00  0.00     0.222 C 
BRANCH  26  27
HETATM   27  N3  UNL     1      -8.516  -0.963   0.331  1.00  0.00    -0.336 NA
BRANCH  27  28
HETATM   28  N2  UNL     1      -7.879  -1.496   1.354  1.00  0.00    -0.212 N 
ATOM     29  H2  UNL     1      -6.970  -1.109   1.608  1.00  0.00     0.204 HD
BRANCH  28  30
HETATM   30  C1  UNL     1      -8.394  -2.597   2.137  1.00  0.00     0.210 C 
HETATM   31  N1  UNL     1      -9.644  -3.156   1.823  1.00  0.00    -0.068 NA
HETATM   32  S1  UNL     1      -7.495  -3.165   3.361  1.00  0.00    -0.042 SA
ENDBRANCH  28  30
ENDBRANCH  27  28
ENDBRANCH  26  27
ENDBRANCH  23  26
ENDBRANCH  12  14
ENDBRANCH   1  12
BRANCH   6  33
HETATM   33  C16 UNL     1       1.292   0.448   1.226  1.00  0.00    -0.007 A 
HETATM   34  C17 UNL     1       1.465   1.517   2.113  1.00  0.00     0.015 A 
HETATM   35  C18 UNL     1       2.717   1.896   2.540  1.00  0.00     0.026 A 
HETATM   36  C19 UNL     1       3.850   1.198   2.076  1.00  0.00     0.079 A 
HETATM   37  C26 UNL     1       3.643   0.169   1.219  1.00  0.00     0.026 A 
HETATM   38  C27 UNL     1       2.377  -0.236   0.774  1.00  0.00     0.015 A 
BRANCH  36  39
HETATM   39  S2  UNL     1       5.361   1.726   2.652  1.00  0.00     0.258 S 
HETATM   40  O1  UNL     1       5.604   3.172   2.191  1.00  0.00    -0.201 OA
HETATM   41  O2  UNL     1       5.357   1.843   4.187  1.00  0.00    -0.201 OA
BRANCH  39  42
HETATM   42  N6  UNL     1       6.742   0.846   2.257  1.00  0.00    -0.314 N 
ATOM     43  H6  UNL     1       7.495   1.270   1.715  1.00  0.00     0.172 HD
BRANCH  42  44
HETATM   44  C20 UNL     1       6.832  -0.507   2.699  1.00  0.00     0.152 C 
BRANCH  44  45
HETATM   45  C21 UNL     1       8.194  -1.012   2.190  1.00  0.00     0.142 C 
BRANCH  45  46
HETATM   46  N7  UNL     1       8.254  -0.890   0.801  1.00  0.00    -0.388 N 
HETATM   47  C22 UNL     1       7.476  -1.689  -0.044  1.00  0.00     0.084 C 
HETATM   48  C23 UNL     1       7.417  -1.010  -1.411  1.00  0.00     0.212 C 
HETATM   49  O3  UNL     1       8.668  -0.829  -1.948  1.00  0.00    -0.385 OA
HETATM   50  C24 UNL     1       9.575  -0.229  -1.112  1.00  0.00     0.187 C 
HETATM   51  C25 UNL     1       9.020   0.159   0.230  1.00  0.00     0.148 C 
ENDBRANCH  45  46
ENDBRANCH  44  45
ENDBRANCH  42  44
ENDBRANCH  39  42
ENDBRANCH  36  39
ENDBRANCH   6  33
TORSDOF 12
