REMARK  15 active torsions:
REMARK  status: ('A' for Active; 'I' for Inactive)
REMARK    1  A    between atoms: N1_1  and  C1_4 
REMARK    2  A    between atoms: C3_6  and  C4_7 
REMARK    3  A    between atoms: C4_7  and  O1_8 
REMARK    4  A    between atoms: C4_7  and  C5_10 
REMARK    5  A    between atoms: C5_10  and  O2_11 
REMARK    6  A    between atoms: C5_10  and  N2_13 
REMARK    7  A    between atoms: N2_13  and  C6_15 
REMARK    8  A    between atoms: C7_17  and  O4_18 
REMARK    9  A    between atoms: O4_18  and  C8_19 
REMARK   10  A    between atoms: C9_23  and  O5_24 
REMARK   11  A    between atoms: C10_26  and  O6_27 
REMARK   12  A    between atoms: O6_27  and  C11_28 
REMARK   13  A    between atoms: C14_34  and  N6_35 
REMARK   14  A    between atoms: C15_38  and  N7_39 
REMARK   15  A    between atoms: C17_44  and  N8_45 
ROOT
HETATM    1  C6  UNL     1      -2.261  -0.149  -0.516  1.00  0.00     0.252 C 
HETATM    2  O3  UNL     1      -1.155   0.027   0.351  1.00  0.00    -0.333 OA
HETATM    3  C7  UNL     1      -0.269  -0.964   0.076  1.00  0.00     0.295 C 
HETATM    4  C15 UNL     1      -0.722  -2.281   0.703  1.00  0.00     0.240 C 
HETATM    5  C16 UNL     1      -2.114  -2.553   0.187  1.00  0.00     0.075 C 
HETATM    6  C17 UNL     1      -2.438  -1.577  -0.894  1.00  0.00     0.233 C 
ENDROOT
BRANCH   3   7
HETATM    7  O4  UNL     1       1.051  -0.662   0.484  1.00  0.00    -0.324 OA
BRANCH   7   8
HETATM    8  C8  UNL     1       1.852  -0.858  -0.585  1.00  0.00     0.360 C 
HETATM    9  N3  UNL     1       2.963  -1.842  -0.347  1.00  0.00    -0.017 N 
HETATM   10  C9  UNL     1       3.502  -1.267  -1.540  1.00  0.00     0.355 C 
ATOM     11  H32 UNL     1       3.483  -1.892   0.529  1.00  0.00     0.283 HD
ATOM     12  H31 UNL     1       2.804  -2.843  -0.236  1.00  0.00     0.283 HD
HETATM   13  C10 UNL     1       2.925   0.075  -0.980  1.00  0.00     0.243 C 
BRANCH  10  14
HETATM   14  O5  UNL     1       4.786  -1.274  -1.883  1.00  0.00    -0.368 OA
ATOM     15  H5  UNL     1       5.144  -0.892  -2.676  1.00  0.00     0.212 HD
ENDBRANCH  10  14
BRANCH  13  16
HETATM   16  O6  UNL     1       3.708   0.686  -0.084  1.00  0.00    -0.314 OA
BRANCH  16  17
HETATM   17  C11 UNL     1       5.035   1.007  -0.127  1.00  0.00     0.223 A 
HETATM   18  O7  UNL     1       5.491   2.123  -0.723  1.00  0.00    -0.269 OA
HETATM   19  C12 UNL     1       6.777   2.223  -0.631  1.00  0.00     0.186 A 
HETATM   20  N4  UNL     1       7.577   3.299  -1.165  1.00  0.00    -0.072 NA
HETATM   21  C13 UNL     1       7.281   1.151   0.053  1.00  0.00     0.132 A 
HETATM   22  N5  UNL     1       8.631   0.862   0.373  1.00  0.00    -0.095 NA
HETATM   23  C14 UNL     1       6.152   0.366   0.381  1.00  0.00     0.189 A 
BRANCH  23  24
HETATM   24  N6  UNL     1       6.267  -0.761   1.194  1.00  0.00    -0.108 N 
HETATM   25  O8  UNL     1       6.336  -1.910   0.813  1.00  0.00    -0.532 OA
HETATM   26  O9  UNL     1       6.343  -0.550   2.566  1.00  0.00    -0.532 OA
ENDBRANCH  23  24
ENDBRANCH  16  17
ENDBRANCH  13  16
ENDBRANCH   7   8
ENDBRANCH   3   7
BRANCH   4  27
HETATM   27  N7  UNL     1      -0.656  -2.130   2.139  1.00  0.00    -0.070 N 
ATOM     28  H73 UNL     1       0.264  -1.832   2.464  1.00  0.00     0.274 HD
ATOM     29  H72 UNL     1      -1.186  -1.327   2.478  1.00  0.00     0.274 HD
ATOM     30  H71 UNL     1      -0.959  -3.010   2.558  1.00  0.00     0.274 HD
ENDBRANCH   4  27
BRANCH   1  31
HETATM   31  N2  UNL     1      -3.413   0.544  -0.054  1.00  0.00    -0.367 N 
ATOM     32  H2  UNL     1      -3.788   1.328  -0.588  1.00  0.00     0.158 HD
BRANCH  31  33
HETATM   33  C5  UNL     1      -4.032   0.144   1.141  1.00  0.00     0.251 C 
BRANCH  33  34
HETATM   34  C4  UNL     1      -4.765   1.386   1.708  1.00  0.00     0.225 C 
BRANCH  34  35
HETATM   35  C3  UNL     1      -5.791   1.711   0.653  1.00  0.00     0.113 A 
HETATM   36  C2  UNL     1      -6.966   2.407   0.890  1.00  0.00     0.087 A 
HETATM   37  C1  UNL     1      -7.605   2.484  -0.331  1.00  0.00     0.121 A 
HETATM   38  N9  UNL     1      -6.819   1.850  -1.242  1.00  0.00    -0.245 N 
HETATM   39  O10 UNL     1      -5.776   1.422  -0.604  1.00  0.00    -0.238 OA
ATOM     40  H9  UNL     1      -7.013   1.734  -2.237  1.00  0.00     0.196 HD
BRANCH  37  41
HETATM   41  N1  UNL     1      -8.736   3.031  -0.633  1.00  0.00    -0.384 N 
ATOM     42  H12 UNL     1      -9.325   3.506   0.050  1.00  0.00     0.157 HD
ATOM     43  H11 UNL     1      -9.208   3.088  -1.535  1.00  0.00     0.157 HD
ENDBRANCH  37  41
ENDBRANCH  34  35
BRANCH  34  44
HETATM   44  O1  UNL     1      -5.526   0.995   2.831  1.00  0.00    -0.384 OA
ATOM     45  H1  UNL     1      -4.879   0.790   3.496  1.00  0.00     0.210 HD
ENDBRANCH  34  44
ENDBRANCH  33  34
BRANCH  33  46
HETATM   46  O2  UNL     1      -5.073  -0.787   1.015  1.00  0.00    -0.374 OA
ATOM     47  H2  UNL     1      -4.624  -1.548   0.667  1.00  0.00     0.212 HD
ENDBRANCH  33  46
ENDBRANCH  31  33
ENDBRANCH   1  31
BRANCH   6  48
HETATM   48  N8  UNL     1      -3.802  -1.808  -1.404  1.00  0.00    -0.071 N 
ATOM     49  H83 UNL     1      -4.513  -1.500  -0.741  1.00  0.00     0.274 HD
ATOM     50  H82 UNL     1      -4.031  -1.180  -2.174  1.00  0.00     0.274 HD
ATOM     51  H81 UNL     1      -3.923  -2.787  -1.663  1.00  0.00     0.274 HD
ENDBRANCH   6  48
TORSDOF 15
