REMARK  19 active torsions:
REMARK  status: ('A' for Active; 'I' for Inactive)
REMARK    1  A    between atoms: N1_1  and  C1_4 
REMARK    2  A    between atoms: C2_9  and  C3_10 
REMARK    3  A    between atoms: C3_10  and  C4_11 
REMARK    4  A    between atoms: C3_10  and  N6_35 
REMARK       I    between atoms: N4_12  and  C5_14 
REMARK    5  A    between atoms: C5_14  and  C6_16 
REMARK    6  A    between atoms: C7_17  and  O2_18 
REMARK    7  A    between atoms: C8_20  and  O3_21 
REMARK    8  A    between atoms: N5_23  and  C9_24 
REMARK    9  A    between atoms: C9_24  and  O4_25 
REMARK   10  A    between atoms: C9_24  and  C10_27 
REMARK   11  A    between atoms: C10_27  and  O5_28 
REMARK   12  A    between atoms: C10_27  and  O6_30 
REMARK   13  A    between atoms: C11_32  and  O7_33 
REMARK   14  A    between atoms: N6_35  and  C12_37 
REMARK   15  A    between atoms: C12_37  and  C13_38 
REMARK   16  A    between atoms: N9_43  and  C14_44 
REMARK   17  A    between atoms: C14_44  and  C15_45 
REMARK   18  A    between atoms: C15_45  and  O8_46 
REMARK   19  A    between atoms: C15_45  and  O9_48 
ROOT
HETATM    1  C3  UNL     1      -0.830  -1.462   0.687  1.00  0.00     0.171 C 
ENDROOT
BRANCH   1   2
HETATM    2  C2  UNL     1      -1.041  -2.913   0.542  1.00  0.00     0.095 A 
HETATM    3  N3  UNL     1      -1.358  -3.631   1.648  1.00  0.00    -0.285 N 
HETATM    4  N2  UNL     1      -1.537  -4.928   1.567  1.00  0.00    -0.132 N 
ATOM      5  H3  UNL     1      -1.458  -3.160   2.547  1.00  0.00     0.187 HD
HETATM    6  C1  UNL     1      -1.410  -5.564   0.406  1.00  0.00     0.691 A 
ATOM      7  H2  UNL     1      -1.777  -5.456   2.406  1.00  0.00     0.205 HD
HETATM    8  N12 UNL     1      -1.095  -4.875  -0.713  1.00  0.00    -0.176 N 
HETATM    9  C16 UNL     1      -0.898  -3.526  -0.684  1.00  0.00     0.158 A 
ATOM     10  H12 UNL     1      -1.003  -5.374  -1.598  1.00  0.00     0.185 HD
HETATM   11  N11 UNL     1      -0.583  -2.756  -1.818  1.00  0.00    -0.080 NA
BRANCH   6  12
HETATM   12  N1  UNL     1      -1.580  -6.818   0.290  1.00  0.00    -0.233 N 
ATOM     13  H12 UNL     1      -1.818  -7.338   1.135  1.00  0.00     0.174 HD
ATOM     14  H11 UNL     1      -1.483  -7.306  -0.600  1.00  0.00     0.174 HD
ENDBRANCH   6  12
ENDBRANCH   1   2
BRANCH   1  15
HETATM   15  C4  UNL     1       0.419  -1.002  -0.009  1.00  0.00     0.095 C 
HETATM   16  N4  UNL     1       1.596  -1.511   0.268  1.00  0.00    -0.334 N 
HETATM   17  C5  UNL     1       2.714  -0.988  -0.450  1.00  0.00     0.262 C 
ATOM     18  H4  UNL     1       1.707  -2.247   0.965  1.00  0.00     0.168 HD
HETATM   19  O1  UNL     1       2.781  -1.306  -1.647  1.00  0.00    -0.267 OA
BRANCH  17  20
HETATM   20  C6  UNL     1       3.674  -0.128   0.242  1.00  0.00     0.121 A 
HETATM   21  C7  UNL     1       3.734   0.267   1.548  1.00  0.00     0.137 A 
HETATM   22  C8  UNL     1       4.790   1.131   1.664  1.00  0.00     0.185 A 
HETATM   23  N5  UNL     1       5.421   1.306   0.451  1.00  0.00    -0.248 N 
HETATM   24  C11 UNL     1       4.736   0.538  -0.402  1.00  0.00     0.169 A 
BRANCH  21  25
HETATM   25  O2  UNL     1       2.892  -0.119   2.591  1.00  0.00    -0.356 OA
ATOM     26  H2  UNL     1       2.934   0.156   3.499  1.00  0.00     0.218 HD
ENDBRANCH  21  25
BRANCH  22  27
HETATM   27  O3  UNL     1       5.127   1.720   2.886  1.00  0.00    -0.344 OA
ATOM     28  H3  UNL     1       5.860   2.319   2.966  1.00  0.00     0.219 HD
ENDBRANCH  22  27
BRANCH  23  29
HETATM   29  C9  UNL     1       6.510   2.184   0.315  1.00  0.00     0.182 C 
BRANCH  29  30
HETATM   30  O4  UNL     1       6.871   2.851   1.384  1.00  0.00    -0.345 OA
ATOM     31  H4  UNL     1       7.607   3.444   1.292  1.00  0.00     0.219 HD
ENDBRANCH  29  30
BRANCH  29  32
HETATM   32  C10 UNL     1       7.335   2.498  -0.844  1.00  0.00     0.331 C 
BRANCH  32  33
HETATM   33  O5  UNL     1       7.231   1.643  -1.897  1.00  0.00    -0.364 OA
ATOM     34  H5  UNL     1       7.769   1.848  -2.653  1.00  0.00     0.213 HD
ENDBRANCH  32  33
BRANCH  32  35
HETATM   35  O6  UNL     1       8.703   2.519  -0.440  1.00  0.00    -0.364 OA
ATOM     36  H6  UNL     1       9.241   2.724  -1.196  1.00  0.00     0.213 HD
ENDBRANCH  32  35
ENDBRANCH  29  32
ENDBRANCH  23  29
BRANCH  24  37
HETATM   37  O7  UNL     1       4.998   0.385  -1.746  1.00  0.00    -0.345 OA
ATOM     38  H7  UNL     1       5.714   0.834  -2.180  1.00  0.00     0.219 HD
ENDBRANCH  24  37
ENDBRANCH  17  20
ENDBRANCH   1  15
BRANCH   1  39
HETATM   39  N6  UNL     1      -1.886  -0.622   0.264  1.00  0.00    -0.401 N 
ATOM     40  H6  UNL     1      -1.980  -0.378  -0.722  1.00  0.00     0.154 HD
BRANCH  39  41
HETATM   41  C12 UNL     1      -2.817  -0.117   1.213  1.00  0.00     0.194 C 
BRANCH  41  42
HETATM   42  C13 UNL     1      -3.696   0.879   0.512  1.00  0.00     0.130 A 
HETATM   43  N7  UNL     1      -3.624   1.212  -0.791  1.00  0.00    -0.271 N 
HETATM   44  N8  UNL     1      -4.538   2.118  -1.008  1.00  0.00    -0.224 N 
ATOM     45  H7  UNL     1      -2.976   0.828  -1.479  1.00  0.00     0.190 HD
HETATM   46  N9  UNL     1      -5.206   2.389   0.114  1.00  0.00    -0.214 N 
ATOM     47  H8  UNL     1      -4.717   2.558  -1.911  1.00  0.00     0.210 HD
HETATM   48  N10 UNL     1      -4.670   1.609   1.053  1.00  0.00    -0.268 N 
ATOM     49  H10 UNL     1      -4.960   1.576   2.030  1.00  0.00     0.190 HD
BRANCH  46  50
HETATM   50  C14 UNL     1      -6.270   3.336   0.289  1.00  0.00     0.231 C 
BRANCH  50  51
HETATM   51  C15 UNL     1      -7.616   2.691   0.020  1.00  0.00     0.275 C 
BRANCH  51  52
HETATM   52  O8  UNL     1      -8.641   3.617   0.189  1.00  0.00    -0.370 OA
ATOM     53  H8  UNL     1      -9.484   3.213   0.020  1.00  0.00     0.212 HD
ENDBRANCH  51  52
BRANCH  51  54
HETATM   54  O9  UNL     1      -7.757   1.620   0.903  1.00  0.00    -0.370 OA
ATOM     55  H9  UNL     1      -8.600   1.216   0.734  1.00  0.00     0.212 HD
ENDBRANCH  51  54
ENDBRANCH  50  51
ENDBRANCH  46  50
ENDBRANCH  41  42
ENDBRANCH  39  41
ENDBRANCH   1  39
TORSDOF 19
