REMARK  12 active torsions:
REMARK  status: ('A' for Active; 'I' for Inactive)
REMARK       I    between atoms: C2_2  and  N1_4 
REMARK    1  A    between atoms: N1_4  and  C3_6 
REMARK    2  A    between atoms: C4_8  and  C5_9 
REMARK    3  A    between atoms: C5_9  and  O3_10 
REMARK    4  A    between atoms: O3_10  and  C6_11 
REMARK    5  A    between atoms: C7_13  and  C8_14 
REMARK    6  A    between atoms: N2_15  and  O5_17 
REMARK    7  A    between atoms: O5_17  and  C9_18 
REMARK    8  A    between atoms: C10_22  and  N6_23 
REMARK       I    between atoms: C11_25  and  N8_27 
REMARK    9  A    between atoms: N8_27  and  N9_29 
REMARK   10  A    between atoms: C12_35  and  O7_36 
REMARK   11  A    between atoms: C13_38  and  O8_39 
REMARK   12  A    between atoms: C16_44  and  O10_45 
ROOT
HETATM    1  C6  UNL     1      -1.187  -0.999   0.638  1.00  0.00     0.296 C 
HETATM    2  O4  UNL     1      -0.441  -0.896  -0.504  1.00  0.00    -0.330 OA
HETATM    3  C7  UNL     1      -0.019   0.353  -0.857  1.00  0.00     0.263 C 
HETATM    4  N10 UNL     1      -0.577   1.428  -0.109  1.00  0.00    -0.365 N 
ATOM      5  H10 UNL     1      -1.043   2.220  -0.552  1.00  0.00     0.158 HD
HETATM    6  C12 UNL     1      -0.435   1.315   1.306  1.00  0.00     0.249 C 
HETATM    7  C13 UNL     1      -0.764  -0.072   1.749  1.00  0.00     0.221 C 
ENDROOT
BRANCH   3   8
HETATM    8  C8  UNL     1       1.474   0.340  -0.858  1.00  0.00     0.140 C 
HETATM    9  N2  UNL     1       2.137  -0.255   0.081  1.00  0.00    -0.273 N 
ATOM     10  H2  UNL     1       1.606  -0.714   0.821  1.00  0.00     0.193 HD
BRANCH   9  11
HETATM   11  O5  UNL     1       3.484  -0.308   0.145  1.00  0.00    -0.229 OA
BRANCH  11  12
HETATM   12  C9  UNL     1       4.231  -1.298  -0.525  1.00  0.00     0.406 C 
HETATM   13  N3  UNL     1       4.935  -2.148   0.417  1.00  0.00    -0.068 NA
HETATM   14  N4  UNL     1       6.072  -1.551   0.937  1.00  0.00    -0.031 NA
HETATM   15  N5  UNL     1       6.261  -0.249   0.510  1.00  0.00    -0.077 NA
HETATM   16  C10 UNL     1       6.211  -0.162  -0.930  1.00  0.00     0.344 C 
HETATM   17  O6  UNL     1       5.092  -0.759  -1.478  1.00  0.00    -0.304 OA
BRANCH  16  18
HETATM   18  N6  UNL     1       6.339   1.217  -1.345  1.00  0.00    -0.322 N 
HETATM   19  C11 UNL     1       7.464   1.848  -1.354  1.00  0.00     0.205 C 
HETATM   20  N7  UNL     1       7.472   3.203  -1.782  1.00  0.00    -0.062 NA
HETATM   21  N8  UNL     1       8.696   1.265  -0.961  1.00  0.00    -0.280 N 
ATOM     22  H8  UNL     1       9.280   0.844  -1.684  1.00  0.00     0.189 HD
ATOM     23  H6  UNL     1       5.500   1.714  -1.645  1.00  0.00     0.166 HD
BRANCH  21  24
HETATM   24  N9  UNL     1       9.155   1.233   0.349  1.00  0.00    -0.343 N 
ATOM     25  H92 UNL     1       8.559   1.658   1.059  1.00  0.00     0.176 HD
ATOM     26  H91 UNL     1      10.041   0.814   0.632  1.00  0.00     0.176 HD
ENDBRANCH  21  24
ENDBRANCH  16  18
ENDBRANCH  11  12
ENDBRANCH   9  11
ENDBRANCH   3   8
BRANCH   1  27
HETATM   27  O3  UNL     1      -2.552  -0.894   0.426  1.00  0.00    -0.352 OA
BRANCH  27  28
HETATM   28  C5  UNL     1      -3.225  -2.070   0.767  1.00  0.00     0.236 C 
BRANCH  28  29
HETATM   29  C4  UNL     1      -4.689  -1.934   0.530  1.00  0.00     0.083 A 
HETATM   30  O2  UNL     1      -5.178  -0.859   0.077  1.00  0.00    -0.293 OA
HETATM   31  C3  UNL     1      -6.487  -0.635  -0.172  1.00  0.00     0.188 A 
HETATM   32  C16 UNL     1      -7.317  -1.670   0.097  1.00  0.00     0.168 A 
HETATM   33  C15 UNL     1      -6.835  -2.883   0.600  1.00  0.00     0.211 A 
HETATM   34  C14 UNL     1      -5.496  -3.035   0.827  1.00  0.00     0.092 A 
HETATM   35  O9  UNL     1      -7.647  -3.823   0.837  1.00  0.00    -0.285 OA
BRANCH  31  36
HETATM   36  N1  UNL     1      -6.825   0.646  -0.682  1.00  0.00    -0.305 N 
HETATM   37  C2  UNL     1      -8.047   1.163  -1.025  1.00  0.00     0.219 C 
HETATM   38  C1  UNL     1      -8.046   2.605  -1.549  1.00  0.00     0.117 C 
HETATM   39  O1  UNL     1      -9.149   0.653  -0.980  1.00  0.00    -0.274 OA
ATOM     40  H1  UNL     1      -6.036   1.280  -0.813  1.00  0.00     0.171 HD
ENDBRANCH  31  36
BRANCH  32  41
HETATM   41  O10 UNL     1      -8.665  -1.553  -0.118  1.00  0.00    -0.354 OA
ATOM     42  H10 UNL     1      -9.247  -2.279   0.071  1.00  0.00     0.218 HD
ENDBRANCH  32  41
ENDBRANCH  28  29
ENDBRANCH  27  28
ENDBRANCH   1  27
BRANCH   6  43
HETATM   43  O7  UNL     1      -1.352   2.218   1.894  1.00  0.00    -0.374 OA
ATOM     44  H7  UNL     1      -1.257   2.143   2.836  1.00  0.00     0.212 HD
ENDBRANCH   6  43
BRANCH   7  45
HETATM   45  O8  UNL     1      -1.839  -0.049   2.668  1.00  0.00    -0.386 OA
ATOM     46  H8  UNL     1      -1.572   0.535   3.368  1.00  0.00     0.210 HD
ENDBRANCH   7  45
TORSDOF 12
