REMARK  17 active torsions:
REMARK  status: ('A' for Active; 'I' for Inactive)
REMARK    1  A    between atoms: N1_1  and  O1_4 
REMARK    2  A    between atoms: O1_4  and  C1_5 
REMARK    3  A    between atoms: C1_5  and  C2_7 
REMARK    4  A    between atoms: C5_13  and  C6_14 
REMARK    5  A    between atoms: C6_14  and  O4_15 
REMARK    6  A    between atoms: C6_14  and  N3_17 
REMARK    7  A    between atoms: C7_21  and  C8_22 
REMARK    8  A    between atoms: C8_22  and  N6_23 
REMARK    9  A    between atoms: N6_23  and  C9_26 
REMARK   10  A    between atoms: C9_26  and  O5_27 
REMARK   11  A    between atoms: C9_26  and  C10_29 
REMARK   12  A    between atoms: C10_29  and  O6_30 
REMARK   13  A    between atoms: C10_29  and  N7_32 
REMARK       I    between atoms: N7_32  and  C11_34 
REMARK       I    between atoms: C11_34  and  N8_35 
REMARK       I    between atoms: C11_34  and  N9_39 
REMARK   14  A    between atoms: C12_43  and  O7_44 
REMARK   15  A    between atoms: N10_47  and  O8_49 
REMARK   16  A    between atoms: C15_52  and  O9_53 
REMARK   17  A    between atoms: C16_55  and  O10_56 
ROOT
HETATM    1  N3  UNL     1      -0.113  -1.238   0.301  1.00  0.00    -0.220 N 
HETATM    2  N4  UNL     1      -0.575  -2.208   1.093  1.00  0.00    -0.015 NA
HETATM    3  N5  UNL     1      -1.849  -1.930   1.445  1.00  0.00    -0.282 N 
ATOM      4  H5  UNL     1      -2.427  -2.522   2.042  1.00  0.00     0.184 HD
HETATM    5  C7  UNL     1      -2.246  -0.786   0.911  1.00  0.00     0.101 A 
HETATM    6  C12 UNL     1      -1.114  -0.358   0.185  1.00  0.00     0.184 A 
ENDROOT
BRANCH   1   7
HETATM    7  C6  UNL     1       1.106  -1.165  -0.455  1.00  0.00     0.280 C 
BRANCH   7   8
HETATM    8  C5  UNL     1       2.312  -0.718   0.176  1.00  0.00     0.043 A 
HETATM    9  C4  UNL     1       2.401  -0.299   1.488  1.00  0.00     0.158 A 
HETATM   10  O3  UNL     1       3.549   0.139   1.985  1.00  0.00    -0.304 OA
HETATM   11  C3  UNL     1       4.654   0.220   1.339  1.00  0.00     0.163 A 
HETATM   12  N2  UNL     1       5.821   0.690   1.867  1.00  0.00    -0.329 N 
HETATM   13  C14 UNL     1       4.666  -0.201   0.006  1.00  0.00     0.081 A 
HETATM   14  C2  UNL     1       6.937   0.762   1.174  1.00  0.00     0.148 A 
ATOM     15  H2  UNL     1       5.829   0.998   2.839  1.00  0.00     0.168 HD
HETATM   16  C16 UNL     1       6.984   0.341  -0.172  1.00  0.00     0.133 A 
HETATM   17  C15 UNL     1       5.838  -0.144  -0.748  1.00  0.00     0.118 A 
HETATM   18  C13 UNL     1       3.488  -0.660  -0.574  1.00  0.00     0.084 A 
HETATM   19  N10 UNL     1       3.555  -0.851  -1.849  1.00  0.00    -0.268 N 
ATOM     20  H10 UNL     1       4.506  -0.777  -2.210  1.00  0.00     0.194 HD
BRANCH  14  21
HETATM   21  C1  UNL     1       8.174   1.392   1.664  1.00  0.00     0.334 C 
HETATM   22  O2  UNL     1       8.362   1.830   2.802  1.00  0.00    -0.256 OA
BRANCH  21  23
HETATM   23  O1  UNL     1       9.290   1.556   0.787  1.00  0.00    -0.201 OA
BRANCH  23  24
HETATM   24  N1  UNL     1      10.462   2.138   1.133  1.00  0.00    -0.302 N 
ATOM     25  H12 UNL     1      10.537   2.478   2.092  1.00  0.00     0.184 HD
ATOM     26  H11 UNL     1      11.259   2.255   0.507  1.00  0.00     0.184 HD
ENDBRANCH  23  24
ENDBRANCH  21  23
ENDBRANCH  14  21
BRANCH  16  27
HETATM   27  O10 UNL     1       8.157   0.410  -0.893  1.00  0.00    -0.356 OA
ATOM     28  H10 UNL     1       8.189   0.127  -1.799  1.00  0.00     0.218 HD
ENDBRANCH  16  27
BRANCH  17  29
HETATM   29  O9  UNL     1       5.770  -0.588  -2.056  1.00  0.00    -0.357 OA
ATOM     30  H9  UNL     1       6.568  -0.549  -2.570  1.00  0.00     0.217 HD
ENDBRANCH  17  29
BRANCH  19  31
HETATM   31  O8  UNL     1       2.672  -1.120  -2.788  1.00  0.00    -0.289 OA
ATOM     32  H8  UNL     1       2.721  -1.261  -3.726  1.00  0.00     0.244 HD
ENDBRANCH  19  31
ENDBRANCH   7   8
BRANCH   7  33
HETATM   33  O4  UNL     1       1.334  -2.441  -1.048  1.00  0.00    -0.371 OA
ATOM     34  H4  UNL     1       0.534  -2.737  -1.466  1.00  0.00     0.212 HD
ENDBRANCH   7  33
ENDBRANCH   1   7
BRANCH   6  35
HETATM   35  O7  UNL     1      -1.122   0.877  -0.553  1.00  0.00    -0.344 OA
ATOM     36  H7  UNL     1      -1.833   1.502  -0.635  1.00  0.00     0.219 HD
ENDBRANCH   6  35
BRANCH   5  37
HETATM   37  C8  UNL     1      -3.456   0.061   0.970  1.00  0.00     0.298 C 
BRANCH  37  38
HETATM   38  N6  UNL     1      -4.575  -0.670   0.341  1.00  0.00    -0.039 N 
ATOM     39  H62 UNL     1      -4.257  -1.553  -0.058  1.00  0.00     0.280 HD
ATOM     40  H61 UNL     1      -5.219  -1.030   1.046  1.00  0.00     0.280 HD
BRANCH  38  41
HETATM   41  C9  UNL     1      -5.274   0.120  -0.642  1.00  0.00     0.367 C 
BRANCH  41  42
HETATM   42  O5  UNL     1      -4.852   1.354  -0.763  1.00  0.00    -0.366 OA
ATOM     43  H5  UNL     1      -5.313   1.875  -1.411  1.00  0.00     0.212 HD
ENDBRANCH  41  42
BRANCH  41  44
HETATM   44  C10 UNL     1      -6.345  -0.256  -1.516  1.00  0.00     0.273 C 
BRANCH  44  45
HETATM   45  O6  UNL     1      -6.695   0.857  -2.373  1.00  0.00    -0.373 OA
ATOM     46  H6  UNL     1      -7.405   0.608  -2.953  1.00  0.00     0.212 HD
ENDBRANCH  44  45
BRANCH  44  47
HETATM   47  N7  UNL     1      -7.535  -0.838  -1.057  1.00  0.00    -0.345 N 
HETATM   48  C11 UNL     1      -8.335  -0.057  -0.178  1.00  0.00     0.478 C 
HETATM   49  N8  UNL     1      -7.776   0.015   1.170  1.00  0.00    -0.033 N 
HETATM   50  N9  UNL     1      -8.382   1.346  -0.613  1.00  0.00    -0.033 N 
ATOM     51  H83 UNL     1      -7.614  -0.917   1.551  1.00  0.00     0.278 HD
ATOM     52  H82 UNL     1      -6.814   0.353   1.151  1.00  0.00     0.278 HD
ATOM     53  H81 UNL     1      -8.350   0.575   1.800  1.00  0.00     0.278 HD
ATOM     54  H93 UNL     1      -7.446   1.738  -0.718  1.00  0.00     0.278 HD
ATOM     55  H92 UNL     1      -8.695   1.429  -1.580  1.00  0.00     0.278 HD
ATOM     56  H91 UNL     1      -8.956   1.906   0.017  1.00  0.00     0.278 HD
ATOM     57  H7  UNL     1      -7.814  -1.777  -1.340  1.00  0.00     0.159 HD
ENDBRANCH  44  47
ENDBRANCH  41  44
ENDBRANCH  38  41
ENDBRANCH  37  38
ENDBRANCH   5  37
TORSDOF 17
