REMARK  13 active torsions:
REMARK  status: ('A' for Active; 'I' for Inactive)
REMARK    1  A    between atoms: C2_2  and  C3_3 
REMARK    2  A    between atoms: C3_3  and  C4_4 
REMARK    3  A    between atoms: C4_4  and  N1_5 
REMARK    4  A    between atoms: N1_5  and  C5_7 
REMARK    5  A    between atoms: C5_7  and  N2_9 
REMARK    6  A    between atoms: N2_9  and  C6_11 
REMARK    7  A    between atoms: C6_11  and  C7_12 
REMARK    8  A    between atoms: C7_12  and  C8_13 
REMARK    9  A    between atoms: C8_13  and  N3_14 
REMARK   10  A    between atoms: N3_14  and  C9_16 
REMARK   11  A    between atoms: C10_19  and  N5_20 
REMARK   12  A    between atoms: N7_27  and  C13_28 
REMARK   13  A    between atoms: C14_29  and  O1_30 
ROOT
HETATM    1  C9  UNL     1      -1.646  -0.506  -0.498  1.00  0.00     0.681 A 
HETATM    2  N4  UNL     1      -1.509   0.194  -1.632  1.00  0.00    -0.176 N 
ATOM      3  H4  UNL     1      -0.572   0.453  -1.940  1.00  0.00     0.186 HD
HETATM    4  C10 UNL     1      -2.565   0.569  -2.381  1.00  0.00     0.130 A 
HETATM    5  C11 UNL     1      -3.850   0.230  -1.986  1.00  0.00     0.071 A 
HETATM    6  C12 UNL     1      -5.113   0.449  -2.500  1.00  0.00     0.126 A 
HETATM    7  N6  UNL     1      -5.951  -0.143  -1.629  1.00  0.00    -0.306 N 
ATOM      8  H6  UNL     1      -6.966  -0.160  -1.725  1.00  0.00     0.186 HD
HETATM    9  N7  UNL     1      -5.283  -0.699  -0.633  1.00  0.00    -0.262 N 
HETATM   10  C17 UNL     1      -3.946  -0.487  -0.818  1.00  0.00     0.153 A 
HETATM   11  N8  UNL     1      -2.898  -0.857  -0.078  1.00  0.00    -0.174 N 
ATOM     12  H8  UNL     1      -3.029  -1.390   0.782  1.00  0.00     0.186 HD
ENDROOT
BRANCH   1  13
HETATM   13  N3  UNL     1      -0.683  -0.893   0.253  1.00  0.00    -0.226 N 
ATOM     14  H3  UNL     1      -0.947  -1.418   1.087  1.00  0.00     0.177 HD
BRANCH  13  15
HETATM   15  C8  UNL     1       0.719  -0.676   0.062  1.00  0.00     0.139 C 
BRANCH  15  16
HETATM   16  C7  UNL     1       1.107   0.696   0.549  1.00  0.00     0.040 C 
BRANCH  16  17
HETATM   17  C6  UNL     1       2.618   0.900   0.368  1.00  0.00     0.123 C 
BRANCH  17  18
HETATM   18  N2  UNL     1       3.008   2.198   0.807  1.00  0.00    -0.367 N 
ATOM     19  H2  UNL     1       2.246   2.802   1.116  1.00  0.00     0.161 HD
BRANCH  18  20
HETATM   20  C5  UNL     1       4.289   2.765   0.875  1.00  0.00     0.167 C 
HETATM   21  S1  UNL     1       4.389   4.343   1.432  1.00  0.00    -0.041 SA
BRANCH  20  22
HETATM   22  N1  UNL     1       5.519   2.183   0.537  1.00  0.00    -0.367 N 
ATOM     23  H1  UNL     1       6.340   2.777   0.652  1.00  0.00     0.161 HD
BRANCH  22  24
HETATM   24  C4  UNL     1       5.767   0.859   0.051  1.00  0.00     0.122 C 
BRANCH  24  25
HETATM   25  C3  UNL     1       7.249   0.684  -0.239  1.00  0.00     0.019 C 
BRANCH  25  26
HETATM   26  C2  UNL     1       7.547  -0.711  -0.743  1.00  0.00    -0.003 C 
HETATM   27  C1  UNL     1       7.142  -1.716   0.310  1.00  0.00     0.005 C 
ENDBRANCH  25  26
ENDBRANCH  24  25
ENDBRANCH  22  24
ENDBRANCH  20  22
ENDBRANCH  18  20
ENDBRANCH  17  18
ENDBRANCH  16  17
ENDBRANCH  15  16
ENDBRANCH  13  15
ENDBRANCH   1  13
BRANCH   4  28
HETATM   28  N5  UNL     1      -2.429   1.243  -3.470  1.00  0.00    -0.384 N 
ATOM     29  H52 UNL     1      -1.484   1.492  -3.761  1.00  0.00     0.157 HD
ATOM     30  H51 UNL     1      -3.228   1.527  -4.037  1.00  0.00     0.157 HD
ENDBRANCH   4  28
BRANCH   9  31
HETATM   31  C13 UNL     1      -5.821  -1.420   0.485  1.00  0.00     0.211 C 
HETATM   32  C14 UNL     1      -7.331  -1.465   0.409  1.00  0.00     0.154 C 
HETATM   33  C15 UNL     1      -7.321  -1.390   1.930  1.00  0.00     0.115 C 
HETATM   34  C16 UNL     1      -5.953  -0.702   1.790  1.00  0.00     0.270 C 
HETATM   35  F1  UNL     1      -5.140  -1.182   2.810  1.00  0.00    -0.204 F 
HETATM   36  F2  UNL     1      -6.078   0.648   1.710  1.00  0.00    -0.204 F 
BRANCH  32  37
HETATM   37  O1  UNL     1      -7.902  -0.296  -0.095  1.00  0.00    -0.393 OA
ATOM     38  H1  UNL     1      -8.850  -0.324  -0.143  1.00  0.00     0.210 HD
ENDBRANCH  32  37
ENDBRANCH   9  31
TORSDOF 13
