REMARK  10 active torsions:
REMARK  status: ('A' for Active; 'I' for Inactive)
REMARK    1  A    between atoms: O1_2  and  C2_3 
REMARK    2  A    between atoms: C5_9  and  C6_10 
REMARK    3  A    between atoms: C6_10  and  N2_11 
REMARK    4  A    between atoms: N2_11  and  C7_13 
REMARK    5  A    between atoms: C8_16  and  N4_17 
REMARK    6  A    between atoms: C9_22  and  C10_23 
REMARK    7  A    between atoms: C12_27  and  S1_28 
REMARK    8  A    between atoms: S1_28  and  C13_29 
REMARK    9  A    between atoms: C13_29  and  C14_30 
REMARK   10  A    between atoms: C14_30  and  N7_31 
ROOT
HETATM    1  C7  UNL     1      -2.408  -0.561   0.461  1.00  0.00     0.158 A 
HETATM    2  N3  UNL     1      -2.751  -1.639   1.192  1.00  0.00    -0.174 N 
ATOM      3  H3  UNL     1      -3.725  -1.736   1.479  1.00  0.00     0.186 HD
HETATM    4  C8  UNL     1      -1.884  -2.591   1.564  1.00  0.00     0.678 A 
HETATM    5  N5  UNL     1      -0.594  -2.496   1.206  1.00  0.00    -0.186 N 
ATOM      6  H5  UNL     1       0.071  -3.217   1.485  1.00  0.00     0.184 HD
HETATM    7  C9  UNL     1      -0.182  -1.433   0.469  1.00  0.00     0.119 A 
HETATM    8  C16 UNL     1      -1.071  -0.454   0.085  1.00  0.00     0.190 A 
HETATM    9  F2  UNL     1      -0.660   0.596  -0.645  1.00  0.00    -0.200 F 
ENDROOT
BRANCH   7  10
HETATM   10  C10 UNL     1       1.238  -1.353   0.091  1.00  0.00     0.080 A 
HETATM   11  C11 UNL     1       2.242  -2.236   0.393  1.00  0.00     0.122 A 
HETATM   12  N6  UNL     1       3.412  -1.791  -0.147  1.00  0.00    -0.344 N 
HETATM   13  C12 UNL     1       3.123  -0.648  -0.771  1.00  0.00     0.144 A 
ATOM     14  H6  UNL     1       4.325  -2.242  -0.086  1.00  0.00     0.167 HD
HETATM   15  N10 UNL     1       1.807  -0.381  -0.629  1.00  0.00    -0.334 N 
ATOM     16  H10 UNL     1       1.324   0.433  -1.010  1.00  0.00     0.168 HD
BRANCH  13  17
HETATM   17  S1  UNL     1       4.255   0.406  -1.661  1.00  0.00    -0.092 SA
BRANCH  17  18
HETATM   18  C13 UNL     1       5.950  -0.180  -1.605  1.00  0.00     0.102 C 
BRANCH  18  19
HETATM   19  C14 UNL     1       6.527  -0.072  -0.219  1.00  0.00     0.132 C 
BRANCH  19  20
HETATM   20  N7  UNL     1       6.534   1.301   0.257  1.00  0.00    -0.366 N 
HETATM   21  C15 UNL     1       7.617   1.885   0.648  1.00  0.00     0.196 C 
HETATM   22  N8  UNL     1       8.854   1.218   0.633  1.00  0.00    -0.067 NA
HETATM   23  N9  UNL     1       7.542   3.219   1.096  1.00  0.00    -0.067 NA
ATOM     24  H7  UNL     1       5.656   1.819   0.283  1.00  0.00     0.161 HD
ENDBRANCH  19  20
ENDBRANCH  18  19
ENDBRANCH  17  18
ENDBRANCH  13  17
ENDBRANCH   7  10
BRANCH   4  25
HETATM   25  N4  UNL     1      -2.267  -3.600   2.263  1.00  0.00    -0.234 N 
ATOM     26  H42 UNL     1      -3.247  -3.672   2.535  1.00  0.00     0.174 HD
ATOM     27  H41 UNL     1      -1.607  -4.324   2.546  1.00  0.00     0.174 HD
ENDBRANCH   4  25
BRANCH   1  28
HETATM   28  N2  UNL     1      -3.260   0.356   0.106  1.00  0.00    -0.369 N 
ATOM     29  H2  UNL     1      -2.980   1.165  -0.448  1.00  0.00     0.161 HD
BRANCH  28  30
HETATM   30  C6  UNL     1      -4.630   0.164   0.542  1.00  0.00     0.167 C 
BRANCH  30  31
HETATM   31  C5  UNL     1      -5.487   1.262  -0.007  1.00  0.00     0.050 A 
HETATM   32  C2  UNL     1      -6.832   1.448   0.169  1.00  0.00     0.152 A 
HETATM   33  N1  UNL     1      -7.217   2.567  -0.500  1.00  0.00    -0.343 N 
HETATM   34  C3  UNL     1      -6.137   3.103  -1.104  1.00  0.00     0.133 A 
ATOM     35  H1  UNL     1      -8.166   2.940  -0.539  1.00  0.00     0.167 HD
HETATM   36  C4  UNL     1      -5.049   2.304  -0.808  1.00  0.00     0.143 A 
HETATM   37  F1  UNL     1      -3.783   2.521  -1.238  1.00  0.00    -0.204 F 
BRANCH  32  38
HETATM   38  O1  UNL     1      -7.641   0.611   0.915  1.00  0.00    -0.340 OA
HETATM   39  C1  UNL     1      -8.378  -0.422   0.331  1.00  0.00     0.211 C 
ENDBRANCH  32  38
ENDBRANCH  30  31
ENDBRANCH  28  30
ENDBRANCH   1  28
TORSDOF 10
