REMARK  5 active torsions:
REMARK  status: ('A' for Active; 'I' for Inactive)
REMARK    1  A    between atoms: C2_2  and  C3_3 
REMARK    2  A    between atoms: C3_3  and  C4_4 
REMARK    3  A    between atoms: C4_4  and  C5_5 
REMARK    4  A    between atoms: C9_16  and  N3_17 
REMARK    5  A    between atoms: C10_21  and  O1_23 
ROOT
HETATM    1  C1  UNL     1      -0.509   1.188  -1.162  1.00  0.00     0.078 C 
HETATM    2  C2  UNL     1      -0.366  -0.012  -0.218  1.00  0.00     0.225 C 
HETATM    3  N2  UNL     1      -0.995  -1.180  -0.762  1.00  0.00    -0.011 N 
ATOM      4  H21 UNL     1      -0.640  -2.026  -0.317  1.00  0.00     0.283 HD
ATOM      5  H22 UNL     1      -0.682  -1.351  -1.718  1.00  0.00     0.283 HD
HETATM    6  C9  UNL     1      -2.416  -1.127  -0.694  1.00  0.00     0.419 C 
HETATM    7  C10 UNL     1      -2.955  -0.627   0.622  1.00  0.00     0.129 C 
HETATM    8  C11 UNL     1      -3.671   0.704   0.482  1.00  0.00     0.052 C 
HETATM    9  C12 UNL     1      -1.794  -0.435   1.566  1.00  0.00     0.212 C 
HETATM   10  O2  UNL     1      -0.873   0.400   0.990  1.00  0.00    -0.351 OA
ENDROOT
BRANCH   2  11
HETATM   11  C3  UNL     1       1.152  -0.254  -0.109  1.00  0.00     0.074 C 
BRANCH  11  12
HETATM   12  C4  UNL     1       1.784   1.000   0.455  1.00  0.00     0.063 C 
BRANCH  12  13
HETATM   13  C5  UNL     1       3.261   0.797   0.574  1.00  0.00     0.033 A 
HETATM   14  N1  UNL     1       3.964   0.555   1.691  1.00  0.00    -0.366 N 
HETATM   15  C6  UNL     1       5.280   0.430   1.396  1.00  0.00     0.113 A 
ATOM     16  H1  UNL     1       3.565   0.477   2.627  1.00  0.00     0.165 HD
HETATM   17  C7  UNL     1       5.451   0.596   0.036  1.00  0.00     0.073 A 
HETATM   18 CL1  UNL     1       6.956   0.533  -0.885  1.00  0.00    -0.081 Cl
HETATM   19  C8  UNL     1       4.179   0.825  -0.461  1.00  0.00     0.079 A 
HETATM   20 CL2  UNL     1       3.798   1.106  -2.145  1.00  0.00    -0.080 Cl
ENDBRANCH  12  13
ENDBRANCH  11  12
ENDBRANCH   2  11
BRANCH   6  21
HETATM   21  N3  UNL     1      -3.012  -2.428  -0.938  1.00  0.00    -0.047 N 
ATOM     22  H33 UNL     1      -2.696  -2.822  -1.824  1.00  0.00     0.276 HD
ATOM     23  H32 UNL     1      -2.635  -3.135  -0.306  1.00  0.00     0.276 HD
ATOM     24  H31 UNL     1      -4.030  -2.390  -0.889  1.00  0.00     0.276 HD
ENDBRANCH   6  21
BRANCH   7  25
HETATM   25  O1  UNL     1      -3.887  -1.525   1.179  1.00  0.00    -0.384 OA
ATOM     26  H1  UNL     1      -4.227  -1.210   2.008  1.00  0.00     0.210 HD
ENDBRANCH   7  25
TORSDOF 5
