REMARK  4 active torsions:
REMARK  status: ('A' for Active; 'I' for Inactive)
REMARK    1  A    between atoms: C2_2  and  N1_3 
REMARK    2  A    between atoms: N1_3  and  C3_4 
REMARK    3  A    between atoms: N1_3  and  C5_6 
REMARK    4  A    between atoms: C9_16  and  N4_17 
ROOT
HETATM    1  C5  UNL     1      -0.188  -0.790  -0.438  1.00  0.00     0.086 A 
HETATM    2  C6  UNL     1      -0.136  -2.020  -1.155  1.00  0.00     0.132 A 
HETATM    3 CL1  UNL     1      -1.643  -2.786  -1.690  1.00  0.00    -0.062 Cl
HETATM    4  N2  UNL     1       1.026  -2.612  -1.423  1.00  0.00    -0.334 N 
ATOM      5  H2  UNL     1       1.005  -3.492  -1.939  1.00  0.00     0.168 HD
HETATM    6  C7  UNL     1       2.208  -2.132  -1.063  1.00  0.00     0.133 A 
HETATM    7 CL2  UNL     1       3.741  -2.888  -1.399  1.00  0.00    -0.062 Cl
HETATM    8  C8  UNL     1       2.217  -0.929  -0.362  1.00  0.00     0.104 A 
HETATM    9  N3  UNL     1       3.386  -0.393   0.022  1.00  0.00    -0.188 N 
ATOM     10  H3  UNL     1       4.254  -0.881  -0.202  1.00  0.00     0.184 HD
HETATM   11  C9  UNL     1       3.443   0.770   0.694  1.00  0.00     0.678 A 
HETATM   12  N5  UNL     1       2.339   1.427   1.002  1.00  0.00    -0.176 N 
ATOM     13  H5  UNL     1       2.390   2.308   1.513  1.00  0.00     0.186 HD
HETATM   14  C10 UNL     1       1.119   0.911   0.627  1.00  0.00     0.129 A 
HETATM   15  N6  UNL     1       0.158   1.568   0.913  1.00  0.00    -0.384 N 
ATOM     16  H61 UNL     1      -0.746   1.186   0.635  1.00  0.00     0.157 HD
ATOM     17  H62 UNL     1       0.230   2.448   1.423  1.00  0.00     0.157 HD
HETATM   18  C11 UNL     1       1.021  -0.287  -0.067  1.00  0.00     0.068 A 
ENDROOT
BRANCH   1  19
HETATM   19  N1  UNL     1      -1.466  -0.310  -0.186  1.00  0.00    -0.378 N 
BRANCH  19  20
HETATM   20  C2  UNL     1      -2.267   0.596  -0.960  1.00  0.00     0.118 C 
HETATM   21  C1  UNL     1      -1.689   1.166  -2.198  1.00  0.00     0.026 C 
ENDBRANCH  19  20
BRANCH  19  22
HETATM   22  C3  UNL     1      -2.184  -0.939   0.920  1.00  0.00     0.118 C 
HETATM   23  C4  UNL     1      -2.688  -0.118   2.023  1.00  0.00     0.026 C 
ENDBRANCH  19  22
ENDBRANCH   1  19
BRANCH  11  24
HETATM   24  N4  UNL     1       4.591   1.277   1.059  1.00  0.00    -0.234 N 
ATOM     25  H42 UNL     1       5.443   0.770   0.821  1.00  0.00     0.174 HD
ATOM     26  H41 UNL     1       4.634   2.159   1.569  1.00  0.00     0.174 HD
ENDBRANCH  11  24
TORSDOF 4
