REMARK  12 active torsions:
REMARK  status: ('A' for Active; 'I' for Inactive)
REMARK    1  A    between atoms: N1_1  and  C1_5 
REMARK    2  A    between atoms: C3_7  and  N2_8 
REMARK    3  A    between atoms: C5_13  and  N3_14 
REMARK       I    between atoms: N3_14  and  C6_16 
REMARK    4  A    between atoms: C6_16  and  C7_18 
REMARK    5  A    between atoms: C7_18  and  N4_19 
REMARK    6  A    between atoms: C7_18  and  C8_23 
REMARK    7  A    between atoms: C8_23  and  C9_24 
REMARK    8  A    between atoms: C9_24  and  O2_25 
REMARK    9  A    between atoms: C9_24  and  C10_27 
REMARK   10  A    between atoms: C12_32  and  N6_33 
REMARK   11  A    between atoms: C14_38  and  N7_39 
REMARK   12  A    between atoms: C15_43  and  N8_44 
ROOT
HETATM    1  C7  UNL     1       0.886  -0.894  -0.923  1.00  0.00     0.277 C 
ENDROOT
BRANCH   1   2
HETATM    2  C6  UNL     1      -0.454  -1.315  -0.400  1.00  0.00     0.248 C 
HETATM    3  N3  UNL     1      -1.597  -0.544  -0.622  1.00  0.00    -0.353 N 
ATOM      4  H3  UNL     1      -1.469   0.315  -1.156  1.00  0.00     0.163 HD
HETATM    5  O1  UNL     1      -0.417  -2.393   0.230  1.00  0.00    -0.271 OA
BRANCH   3   6
HETATM    6  C5  UNL     1      -2.948  -0.833  -0.175  1.00  0.00     0.116 C 
HETATM    7  C4  UNL     1      -3.883  -1.135  -1.276  1.00  0.00     0.060 C 
HETATM    8  C3  UNL     1      -5.303  -0.806  -1.204  1.00  0.00     0.187 C 
HETATM    9  C2  UNL     1      -5.941  -0.707   0.145  1.00  0.00     0.065 C 
HETATM   10  C1  UNL     1      -5.701   0.584   0.846  1.00  0.00     0.187 C 
HETATM   11  C16 UNL     1      -4.319   1.163   0.590  1.00  0.00     0.067 C 
HETATM   12  C15 UNL     1      -3.327   0.103   0.889  1.00  0.00     0.208 C 
BRANCH   8  13
HETATM   13  N2  UNL     1      -5.646   0.364  -2.041  1.00  0.00    -0.075 N 
ATOM     14  H23 UNL     1      -6.655   0.493  -2.111  1.00  0.00     0.274 HD
ATOM     15  H22 UNL     1      -5.409   1.241  -1.577  1.00  0.00     0.274 HD
ATOM     16  H21 UNL     1      -5.211   0.296  -2.961  1.00  0.00     0.274 HD
ENDBRANCH   8  13
BRANCH  10  17
HETATM   17  N1  UNL     1      -6.712   1.581   0.605  1.00  0.00    -0.075 N 
ATOM     18  H13 UNL     1      -6.831   1.735  -0.396  1.00  0.00     0.274 HD
ATOM     19  H12 UNL     1      -7.636   1.216   0.835  1.00  0.00     0.274 HD
ATOM     20  H11 UNL     1      -6.548   2.466   1.085  1.00  0.00     0.274 HD
ENDBRANCH  10  17
BRANCH  12  21
HETATM   21  N8  UNL     1      -3.806  -0.553   2.126  1.00  0.00    -0.073 N 
ATOM     22  H83 UNL     1      -4.575  -1.190   1.919  1.00  0.00     0.274 HD
ATOM     23  H82 UNL     1      -3.116  -1.222   2.467  1.00  0.00     0.274 HD
ATOM     24  H81 UNL     1      -4.070   0.098   2.866  1.00  0.00     0.274 HD
ENDBRANCH  12  21
ENDBRANCH   3   6
ENDBRANCH   1   2
BRANCH   1  25
HETATM   25  N4  UNL     1       1.835  -1.899  -0.513  1.00  0.00    -0.066 N 
ATOM     26  H43 UNL     1       1.832  -2.065   0.493  1.00  0.00     0.275 HD
ATOM     27  H42 UNL     1       1.570  -2.841  -0.802  1.00  0.00     0.275 HD
ATOM     28  H41 UNL     1       2.747  -1.612  -0.869  1.00  0.00     0.275 HD
ENDBRANCH   1  25
BRANCH   1  29
HETATM   29  C8  UNL     1       1.315   0.436  -0.485  1.00  0.00     0.076 C 
BRANCH  29  30
HETATM   30  C9  UNL     1       2.639   0.835  -1.043  1.00  0.00     0.153 C 
BRANCH  30  31
HETATM   31  O2  UNL     1       2.685   0.859  -2.443  1.00  0.00    -0.393 OA
ATOM     32  H2  UNL     1       3.529   1.113  -2.798  1.00  0.00     0.210 HD
ENDBRANCH  30  31
BRANCH  30  33
HETATM   33  C10 UNL     1       3.825   0.145  -0.495  1.00  0.00     0.244 C 
HETATM   34  N5  UNL     1       3.723   0.116   0.969  1.00  0.00    -0.065 N 
HETATM   35  C11 UNL     1       4.769  -0.704   1.568  1.00  0.00     0.265 C 
ATOM     36  H52 UNL     1       3.720   1.058   1.360  1.00  0.00     0.277 HD
ATOM     37  H51 UNL     1       2.796  -0.185   1.271  1.00  0.00     0.277 HD
HETATM   38  C12 UNL     1       6.134  -0.303   1.043  1.00  0.00     0.211 C 
HETATM   39  C13 UNL     1       5.947   1.092   0.462  1.00  0.00     0.069 C 
HETATM   40  C14 UNL     1       5.094   0.939  -0.777  1.00  0.00     0.218 C 
BRANCH  38  41
HETATM   41  N6  UNL     1       7.150  -0.298   2.054  1.00  0.00    -0.073 N 
ATOM     42  H63 UNL     1       6.876   0.292   2.840  1.00  0.00     0.274 HD
ATOM     43  H62 UNL     1       7.194  -1.200   2.528  1.00  0.00     0.274 HD
ATOM     44  H61 UNL     1       8.068  -0.028   1.701  1.00  0.00     0.274 HD
ENDBRANCH  38  41
BRANCH  40  45
HETATM   45  N7  UNL     1       4.855   2.242  -1.310  1.00  0.00    -0.073 N 
ATOM     46  H73 UNL     1       4.274   2.186  -2.146  1.00  0.00     0.274 HD
ATOM     47  H72 UNL     1       4.230   2.770  -0.701  1.00  0.00     0.274 HD
ATOM     48  H71 UNL     1       5.705   2.774  -1.499  1.00  0.00     0.274 HD
ENDBRANCH  40  45
ENDBRANCH  30  33
ENDBRANCH  29  30
ENDBRANCH   1  29
TORSDOF 12
