REMARK  3 active torsions:
REMARK  status: ('A' for Active; 'I' for Inactive)
REMARK       I    between atoms: N3_4  and  C2_6 
REMARK       I    between atoms: C2_6  and  N4_8 
REMARK    1  A    between atoms: N4_8  and  C3_10 
REMARK    2  A    between atoms: C10_17  and  N5_18 
REMARK    3  A    between atoms: N5_18  and  C11_21 
ROOT
HETATM    1  C3  UNL     1       0.620  -0.126   0.068  1.00  0.00     0.037 C 
HETATM    2  C4  UNL     1       0.319  -0.223   1.535  1.00  0.00     0.036 C 
HETATM    3  C5  UNL     1      -0.841  -1.198   1.770  1.00  0.00    -0.009 C 
HETATM    4  C6  UNL     1      -0.513  -2.543   1.172  1.00  0.00     0.009 C 
HETATM    5  C7  UNL     1      -0.370  -2.353  -0.315  1.00  0.00    -0.009 C 
HETATM    6  C8  UNL     1       0.844  -1.498  -0.555  1.00  0.00     0.036 C 
HETATM    7  C9  UNL     1      -1.593  -1.744  -0.942  1.00  0.00     0.043 C 
HETATM    8  C10 UNL     1      -1.851  -0.366  -0.312  1.00  0.00     0.129 C 
HETATM    9  C14 UNL     1      -2.066  -0.590   1.150  1.00  0.00     0.043 C 
HETATM   10  C15 UNL     1      -0.610   0.443  -0.611  1.00  0.00     0.070 C 
ENDROOT
BRANCH   1  11
HETATM   11  N4  UNL     1       1.743   0.742  -0.182  1.00  0.00    -0.333 N 
HETATM   12  C2  UNL     1       3.053   0.551   0.294  1.00  0.00     0.322 C 
HETATM   13  N3  UNL     1       4.056   1.488  -0.030  1.00  0.00    -0.285 N 
HETATM   14  O1  UNL     1       3.310  -0.448   1.000  1.00  0.00    -0.247 OA
HETATM   15  C1  UNL     1       5.302   1.249  -0.140  1.00  0.00     0.204 C 
ATOM     16  H3  UNL     1       3.755   2.449  -0.192  1.00  0.00     0.172 HD
HETATM   17  N1  UNL     1       5.784  -0.057   0.070  1.00  0.00    -0.066 NA
HETATM   18  N2  UNL     1       6.203   2.279  -0.470  1.00  0.00    -0.066 NA
ATOM     19  H4  UNL     1       1.573   1.568  -0.755  1.00  0.00     0.165 HD
ENDBRANCH   1  11
BRANCH   8  20
HETATM   20  N5  UNL     1      -2.958   0.285  -0.964  1.00  0.00    -0.062 N 
ATOM     21  H52 UNL     1      -2.735   0.467  -1.943  1.00  0.00     0.278 HD
ATOM     22  H51 UNL     1      -3.734  -0.367  -1.078  1.00  0.00     0.278 HD
BRANCH  20  23
HETATM   23  C11 UNL     1      -3.406   1.482  -0.327  1.00  0.00     0.187 A 
HETATM   24  C12 UNL     1      -4.463   2.259  -1.055  1.00  0.00     0.035 A 
HETATM   25  C13 UNL     1      -4.796   1.580   0.209  1.00  0.00     0.035 A 
ENDBRANCH  20  23
ENDBRANCH   8  20
TORSDOF 3
