REMARK  4 active torsions:
REMARK  status: ('A' for Active; 'I' for Inactive)
REMARK    1  A    between atoms: C2_2  and  N1_4 
REMARK       I    between atoms: N1_4  and  C4_5 
REMARK       I    between atoms: C4_5  and  N2_7 
REMARK    2  A    between atoms: N2_7  and  N3_9 
REMARK       I    between atoms: N3_9  and  C5_11 
REMARK       I    between atoms: C5_11  and  N4_13 
REMARK    3  A    between atoms: N4_13  and  C6_15 
REMARK    4  A    between atoms: C6_15  and  C7_16 
REMARK       I    between atoms: C7_16  and  N5_18 
ROOT
HETATM    1  N3  UNL     1       1.839   1.115   0.879  1.00  0.00    -0.247 N 
ATOM      2  H3  UNL     1       1.788   2.019   0.410  1.00  0.00     0.192 HD
HETATM    3  C5  UNL     1       0.561   0.645   1.223  1.00  0.00     0.339 C 
HETATM    4  O2  UNL     1       0.402  -0.338   1.894  1.00  0.00    -0.245 OA
HETATM    5  N4  UNL     1      -0.495   1.446   0.675  1.00  0.00    -0.312 N 
ATOM      6  H4  UNL     1      -0.176   2.255   0.142  1.00  0.00     0.170 HD
ENDROOT
BRANCH   1   7
HETATM    7  N2  UNL     1       3.129   0.693   1.001  1.00  0.00    -0.236 N 
HETATM    8  C4  UNL     1       3.608   0.084  -0.263  1.00  0.00     0.407 C 
HETATM    9  N1  UNL     1       4.912  -0.242  -0.542  1.00  0.00    -0.391 NA
HETATM   10  O1  UNL     1       2.614  -0.074  -1.070  1.00  0.00    -0.229 OA
ATOM     11  H2  UNL     1       3.690   0.784   1.848  1.00  0.00     0.193 HD
BRANCH   9  12
HETATM   12  C2  UNL     1       6.202  -0.570  -0.830  1.00  0.00     0.160 C 
HETATM   13  C1  UNL     1       7.193   0.555  -0.970  1.00  0.00     0.047 C 
HETATM   14  C3  UNL     1       6.401  -1.467  -2.093  1.00  0.00     0.047 C 
ENDBRANCH   9  12
ENDBRANCH   1   7
BRANCH   5  15
HETATM   15  C6  UNL     1      -1.874   1.313   0.743  1.00  0.00     0.167 C 
BRANCH  15  16
HETATM   16  C7  UNL     1      -2.495   0.017   0.305  1.00  0.00     0.259 C 
HETATM   17  O3  UNL     1      -1.690  -0.899   0.090  1.00  0.00    -0.267 OA
HETATM   18  N5  UNL     1      -3.863  -0.046   0.204  1.00  0.00    -0.343 N 
HETATM   19  C8  UNL     1      -4.806   1.039   0.038  1.00  0.00     0.127 C 
HETATM   20  C11 UNL     1      -4.654  -1.260   0.341  1.00  0.00     0.083 C 
HETATM   21  C9  UNL     1      -5.683   0.425  -1.059  1.00  0.00     0.022 C 
HETATM   22  C10 UNL     1      -5.766  -1.067  -0.647  1.00  0.00     0.026 C 
HETATM   23  C12 UNL     1      -5.183  -1.351   1.785  1.00  0.00     0.032 C 
ENDBRANCH  15  16
ENDBRANCH   5  15
TORSDOF 4
