REMARK  2 active torsions:
REMARK  status: ('A' for Active; 'I' for Inactive)
REMARK    1  A    between atoms: C3_4  and  C4_5 
REMARK       I    between atoms: N2_11  and  C8_12 
REMARK       I    between atoms: C8_12  and  N4_18 
REMARK    2  A    between atoms: N3_13  and  C9_15 
REMARK       I    between atoms: N4_18  and  C12_20 
ROOT
HETATM    1  C1  UNL     1       1.961   2.598  -2.039  1.00  0.00     0.224 C 
HETATM    2  N1  UNL     1       1.801   1.576  -1.522  1.00  0.00    -0.444 NA
HETATM    3  C2  UNL     1       1.625   0.331  -0.878  1.00  0.00     0.293 C 
HETATM    4  C3  UNL     1       2.885  -0.114  -0.215  1.00  0.00     0.143 C 
HETATM    5  C5  UNL     1       2.555  -1.012   0.957  1.00  0.00     0.022 C 
HETATM    6  C6  UNL     1       2.015  -0.094   2.058  1.00  0.00     0.022 C 
HETATM    7  C7  UNL     1       0.946   0.803   1.484  1.00  0.00     0.145 C 
HETATM    8  N2  UNL     1       0.591   0.431   0.130  1.00  0.00    -0.184 N 
HETATM    9  C8  UNL     1      -0.774   0.170  -0.183  1.00  0.00     0.681 C 
HETATM   10  N3  UNL     1      -1.312  -0.852   0.343  1.00  0.00    -0.222 N 
ATOM     11  H3  UNL     1      -0.729  -1.420   0.958  1.00  0.00     0.178 HD
HETATM   12  N4  UNL     1      -1.426   1.073  -1.059  1.00  0.00    -0.164 N 
ATOM     13  H4  UNL     1      -1.456   0.859  -2.056  1.00  0.00     0.187 HD
HETATM   14  C12 UNL     1      -2.038   2.266  -0.594  1.00  0.00     0.200 C 
HETATM   15  N5  UNL     1      -2.345   2.319   0.657  1.00  0.00    -0.373 N 
ATOM     16  H51 UNL     1      -2.785   3.176   0.991  1.00  0.00     0.158 HD
ATOM     17  H52 UNL     1      -2.135   1.510   1.242  1.00  0.00     0.158 HD
HETATM   18  N6  UNL     1      -2.326   3.376  -1.397  1.00  0.00    -0.063 NA
ENDROOT
BRANCH   4  19
HETATM   19  C4  UNL     1       3.830  -0.788  -1.131  1.00  0.00     0.181 C 
HETATM   20  O1  UNL     1       3.622  -0.981  -2.341  1.00  0.00    -0.648 OA
HETATM   21  O2  UNL     1       5.030  -1.235  -0.594  1.00  0.00    -0.648 OA
ENDBRANCH   4  19
BRANCH  10  22
HETATM   22  C9  UNL     1      -2.675  -1.280   0.148  1.00  0.00     0.091 C 
HETATM   23  C10 UNL     1      -2.665  -2.172  -1.085  1.00  0.00     0.032 C 
HETATM   24  C11 UNL     1      -3.043  -2.170   1.320  1.00  0.00     0.032 C 
ENDBRANCH  10  22
TORSDOF 2
