REMARK  3 active torsions:
REMARK  status: ('A' for Active; 'I' for Inactive)
REMARK    1  A    between atoms: C2_2  and  C3_3 
REMARK    2  A    between atoms: C14_22  and  C15_23 
REMARK    3  A    between atoms: C15_23  and  N5_24 
REMARK       I    between atoms: N5_24  and  C16_26 
ROOT
HETATM    1  C3  UNL     1      -0.788   1.410   0.693  1.00  0.00     0.015 A 
HETATM    2  N1  UNL     1      -1.041   0.437  -0.083  1.00  0.00    -0.327 N 
HETATM    3  C4  UNL     1       0.201   0.064  -0.716  1.00  0.00     0.497 A 
HETATM    4  N2  UNL     1       0.483  -1.345  -0.669  1.00  0.00    -0.028 N 
ATOM      5  H21 UNL     1       0.982  -1.592   0.186  1.00  0.00     0.281 HD
ATOM      6  H22 UNL     1       1.195  -1.601  -1.353  1.00  0.00     0.281 HD
HETATM    7  C5  UNL     1      -0.707  -2.151  -0.829  1.00  0.00     0.239 C 
HETATM    8  C6  UNL     1      -1.876  -1.362  -1.342  1.00  0.00     0.059 C 
HETATM    9  C7  UNL     1      -2.258  -0.235  -0.359  1.00  0.00     0.037 C 
HETATM   10  C8  UNL     1      -3.308   0.528  -1.082  1.00  0.00     0.031 C 
HETATM   11  C9  UNL     1      -4.416  -0.430  -1.547  1.00  0.00     0.002 C 
HETATM   12  C10 UNL     1      -4.952  -1.229  -0.406  1.00  0.00     0.000 C 
HETATM   13  C11 UNL     1      -3.940  -1.898   0.457  1.00  0.00     0.002 C 
HETATM   14  C12 UNL     1      -2.904  -0.873   0.859  1.00  0.00     0.031 C 
HETATM   15  N3  UNL     1       1.217   0.916  -0.327  1.00  0.00     0.038 N 
HETATM   16  C13 UNL     1       1.790   1.795  -1.374  1.00  0.00     0.478 C 
HETATM   17  N4  UNL     1       2.829   2.029  -0.351  1.00  0.00    -0.019 N 
ATOM     18  H41 UNL     1       2.791   2.802   0.313  1.00  0.00     0.281 HD
ATOM     19  H42 UNL     1       3.769   2.354  -0.577  1.00  0.00     0.281 HD
HETATM   20  C14 UNL     1       2.526   0.625   0.024  1.00  0.00     0.413 C 
HETATM   21  C17 UNL     1       0.657   1.789   0.680  1.00  0.00     0.299 A 
ENDROOT
BRANCH  20  22
HETATM   22  C15 UNL     1       3.462  -0.244  -0.690  1.00  0.00     0.185 C 
BRANCH  22  23
HETATM   23  N5  UNL     1       4.731  -0.237   0.055  1.00  0.00    -0.361 N 
HETATM   24  C16 UNL     1       5.852  -0.967  -0.351  1.00  0.00     0.181 C 
HETATM   25  N6  UNL     1       5.738  -2.192  -0.690  1.00  0.00    -0.374 N 
HETATM   26  N7  UNL     1       7.118  -0.350  -0.388  1.00  0.00    -0.064 NA
ATOM     27  H62 UNL     1       4.821  -2.639  -0.663  1.00  0.00     0.158 HD
ATOM     28  H61 UNL     1       6.556  -2.725  -0.986  1.00  0.00     0.158 HD
ATOM     29  H5  UNL     1       4.795   0.325   0.904  1.00  0.00     0.162 HD
ENDBRANCH  22  23
ENDBRANCH  20  22
BRANCH   1  30
HETATM   30  C2  UNL     1      -1.685   2.193   1.591  1.00  0.00     0.050 C 
HETATM   31  C1  UNL     1      -1.242   2.054   3.042  1.00  0.00     0.011 C 
ENDBRANCH   1  30
TORSDOF 3
