REMARK  6 active torsions:
REMARK  status: ('A' for Active; 'I' for Inactive)
REMARK       I    between atoms: N2_6  and  C4_8 
REMARK       I    between atoms: N5_13  and  C5_14 
REMARK    1  A    between atoms: C5_14  and  C6_16 
REMARK    2  A    between atoms: C6_16  and  C7_17 
REMARK    3  A    between atoms: C8_22  and  C9_23 
REMARK    4  A    between atoms: C10_24  and  C11_25 
REMARK    5  A    between atoms: C12_26  and  C13_27 
REMARK    6  A    between atoms: C13_27  and  N8_28 
ROOT
HETATM    1  C1  UNL     1      -1.373   2.754  -2.300  1.00  0.00     0.036 C 
HETATM    2  C2  UNL     1      -2.003   1.678  -1.484  1.00  0.00     0.131 C 
HETATM    3  N1  UNL     1      -3.327   2.008  -0.998  1.00  0.00    -0.218 N 
ATOM      4  H1  UNL     1      -4.007   2.642  -1.417  1.00  0.00     0.178 HD
HETATM    5  C3  UNL     1      -3.466   1.233   0.218  1.00  0.00     0.687 C 
HETATM    6  N2  UNL     1      -4.553   1.096   0.893  1.00  0.00    -0.164 N 
ATOM      7  H2  UNL     1      -4.531   0.524   1.737  1.00  0.00     0.187 HD
HETATM    8  C4  UNL     1      -5.766   1.694   0.526  1.00  0.00     0.200 C 
HETATM    9  N3  UNL     1      -6.726   0.976   0.073  1.00  0.00    -0.373 N 
ATOM     10  H31 UNL     1      -7.609   1.411  -0.194  1.00  0.00     0.158 HD
ATOM     11  H32 UNL     1      -6.601  -0.032  -0.018  1.00  0.00     0.158 HD
HETATM   12  N4  UNL     1      -5.940   3.098   0.653  1.00  0.00    -0.063 NA
HETATM   13  N5  UNL     1      -2.203   0.650   0.549  1.00  0.00    -0.133 N 
HETATM   14  C5  UNL     1      -2.003  -0.459   1.376  1.00  0.00     0.246 C 
HETATM   15  O1  UNL     1      -0.784  -0.821   1.551  1.00  0.00    -0.272 OA
HETATM   16  C8  UNL     1      -1.257   1.462  -0.155  1.00  0.00     0.214 C 
ENDROOT
BRANCH  16  17
HETATM   17  C9  UNL     1       0.003   0.822  -0.355  1.00  0.00    -0.064 C 
HETATM   18  C10 UNL     1       1.096   0.294  -0.547  1.00  0.00    -0.013 C 
BRANCH  18  19
HETATM   19  C11 UNL     1       2.366  -0.297  -0.752  1.00  0.00    -0.013 C 
HETATM   20  C12 UNL     1       3.460  -0.785  -0.925  1.00  0.00    -0.065 C 
BRANCH  20  21
HETATM   21  C13 UNL     1       4.791  -1.354  -1.149  1.00  0.00     0.330 C 
BRANCH  21  22
HETATM   22  N8  UNL     1       5.622  -0.973  -0.054  1.00  0.00    -0.069 N 
HETATM   23  C14 UNL     1       5.191   0.189   0.657  1.00  0.00     0.272 C 
HETATM   24  C15 UNL     1       6.951  -0.681  -0.603  1.00  0.00     0.272 C 
HETATM   25  C16 UNL     1       5.823  -2.118   0.847  1.00  0.00     0.272 C 
ENDBRANCH  21  22
ENDBRANCH  20  21
ENDBRANCH  18  19
ENDBRANCH  16  17
BRANCH  14  26
HETATM   26  C6  UNL     1      -2.993  -1.271   2.074  1.00  0.00     0.176 C 
BRANCH  26  27
HETATM   27  C7  UNL     1      -3.331  -2.500   1.274  1.00  0.00     0.095 C 
HETATM   28  N6  UNL     1      -3.136  -3.678   1.756  1.00  0.00    -0.391 N 
ATOM     29  H62 UNL     1      -2.746  -3.736   2.697  1.00  0.00     0.157 HD
ATOM     30  H61 UNL     1      -3.365  -4.511   1.214  1.00  0.00     0.157 HD
HETATM   31  N7  UNL     1      -3.875  -2.419  -0.037  1.00  0.00    -0.088 NA
ENDBRANCH  26  27
ENDBRANCH  14  26
TORSDOF 6
