REMARK  3 active torsions:
REMARK  status: ('A' for Active; 'I' for Inactive)
REMARK       I    between atoms: N1_2  and  C2_4 
REMARK       I    between atoms: C2_4  and  N6_23 
REMARK       I    between atoms: N2_5  and  C3_7 
REMARK       I    between atoms: C3_7  and  N3_9 
REMARK    1  A    between atoms: N3_9  and  C4_11 
REMARK    2  A    between atoms: C7_14  and  C9_16 
REMARK    3  A    between atoms: C9_16  and  N4_17 
REMARK       I    between atoms: N4_17  and  C10_19 
ROOT
HETATM    1  C1  UNL     1       4.612   2.844   2.008  1.00  0.00     0.165 C 
HETATM    2  N1  UNL     1       4.630   2.370   0.642  1.00  0.00    -0.230 N 
ATOM      3  H1  UNL     1       5.452   2.550   0.066  1.00  0.00     0.177 HD
HETATM    4  C2  UNL     1       3.532   1.658   0.078  1.00  0.00     0.680 C 
HETATM    5  N2  UNL     1       2.365   2.199   0.056  1.00  0.00    -0.142 N 
ATOM      6  H2  UNL     1       2.226   3.133   0.441  1.00  0.00     0.189 HD
HETATM    7  C3  UNL     1       1.282   1.496  -0.501  1.00  0.00     0.334 C 
HETATM    8  O1  UNL     1       1.286   1.243  -1.726  1.00  0.00    -0.246 OA
HETATM    9  N3  UNL     1       0.209   1.088   0.330  1.00  0.00    -0.338 N 
ATOM     10  H3  UNL     1       0.218   1.301   1.327  1.00  0.00     0.164 HD
HETATM   11  N6  UNL     1       3.679   0.355  -0.469  1.00  0.00    -0.212 N 
HETATM   12  C12 UNL     1       4.328   0.165  -1.750  1.00  0.00     0.185 C 
HETATM   13  C13 UNL     1       5.447  -0.774  -1.527  1.00  0.00     0.075 C 
HETATM   14  N7  UNL     1       5.360  -1.646  -0.613  1.00  0.00    -0.399 N 
ATOM     15  H7  UNL     1       6.163  -2.266  -0.505  1.00  0.00     0.158 HD
HETATM   16  C14 UNL     1       4.282  -1.863   0.276  1.00  0.00     0.139 C 
HETATM   17  C15 UNL     1       3.195  -0.824   0.216  1.00  0.00     0.161 C 
ENDROOT
BRANCH   9  18
HETATM   18  C4  UNL     1      -0.890   0.372  -0.249  1.00  0.00     0.087 C 
HETATM   19  C5  UNL     1      -1.172  -0.894   0.493  1.00  0.00     0.026 C 
HETATM   20  C6  UNL     1      -2.655  -0.977   0.726  1.00  0.00     0.013 C 
HETATM   21  C7  UNL     1      -3.212   0.041  -0.211  1.00  0.00    -0.026 C 
HETATM   22  C8  UNL     1      -3.176  -0.495  -1.613  1.00  0.00     0.017 C 
HETATM   23  C11 UNL     1      -2.199   1.162  -0.117  1.00  0.00     0.036 C 
BRANCH  21  24
HETATM   24  C9  UNL     1      -4.596   0.508   0.187  1.00  0.00     0.133 C 
BRANCH  24  25
HETATM   25  N4  UNL     1      -5.513  -0.609   0.207  1.00  0.00    -0.345 N 
HETATM   26  C10 UNL     1      -6.864  -0.411   0.552  1.00  0.00     0.328 C 
HETATM   27  N5  UNL     1      -7.767  -1.497   0.573  1.00  0.00    -0.040 NA
HETATM   28  O2  UNL     1      -7.287   0.728   0.844  1.00  0.00    -0.251 OA
ATOM     29  H4  UNL     1      -5.181  -1.544  -0.030  1.00  0.00     0.163 HD
ENDBRANCH  24  25
ENDBRANCH  21  24
ENDBRANCH   9  18
TORSDOF 3
