REMARK  7 active torsions:
REMARK  status: ('A' for Active; 'I' for Inactive)
REMARK    1  A    between atoms: C3_4  and  N2_5 
REMARK    2  A    between atoms: N2_5  and  C4_7 
REMARK    3  A    between atoms: C4_7  and  C5_11 
REMARK    4  A    between atoms: C5_11  and  N4_12 
REMARK    5  A    between atoms: C5_11  and  N5_16 
REMARK       I    between atoms: N5_16  and  C6_18 
REMARK       I    between atoms: C6_18  and  N6_20 
REMARK    6  A    between atoms: N6_20  and  N7_22 
REMARK    7  A    between atoms: C7_27  and  N9_28 
ROOT
HETATM    1  C4  UNL     1       1.422  -0.934   0.791  1.00  0.00     0.122 C 
HETATM    2  N3  UNL     1       1.585  -1.909  -0.030  1.00  0.00    -0.386 N 
ATOM      3  H31 UNL     1       2.515  -2.125  -0.389  1.00  0.00     0.157 HD
ATOM      4  H32 UNL     1       0.746  -2.420  -0.303  1.00  0.00     0.157 HD
ENDROOT
BRANCH   1   5
HETATM    5  N2  UNL     1       0.147  -0.638   1.283  1.00  0.00    -0.366 N 
ATOM      6  H2  UNL     1      -0.153  -1.273   2.023  1.00  0.00     0.161 HD
BRANCH   5   7
HETATM    7  C3  UNL     1      -0.804   0.337   0.981  1.00  0.00     0.154 C 
HETATM    8  C2  UNL     1      -0.086   1.686   1.053  1.00  0.00     0.085 C 
HETATM    9  N1  UNL     1       0.129   2.112  -0.126  1.00  0.00    -0.393 N 
HETATM   10  C1  UNL     1       0.780   3.347  -0.457  1.00  0.00     0.148 C 
HETATM   11  C14 UNL     1      -0.361   1.176  -1.130  1.00  0.00     0.157 C 
HETATM   12  C7  UNL     1      -1.447   0.494  -0.316  1.00  0.00     0.235 C 
BRANCH  12  13
HETATM   13  N9  UNL     1      -2.198  -0.485  -0.955  1.00  0.00    -0.063 N 
HETATM   14  C8  UNL     1      -1.486  -1.198  -2.022  1.00  0.00     0.273 C 
HETATM   15  C9  UNL     1      -2.712  -1.486  -0.085  1.00  0.00     0.237 C 
HETATM   16  C10 UNL     1      -3.958  -1.168   0.662  1.00  0.00     0.028 C 
HETATM   17  C11 UNL     1      -5.048  -0.538  -0.168  1.00  0.00     0.003 C 
HETATM   18  C12 UNL     1      -4.406   0.657  -0.850  1.00  0.00     0.028 C 
HETATM   19  C13 UNL     1      -3.299   0.160  -1.691  1.00  0.00     0.237 C 
ENDBRANCH  12  13
ENDBRANCH   5   7
ENDBRANCH   1   5
BRANCH   1  20
HETATM   20  C5  UNL     1       2.643  -0.190   1.188  1.00  0.00     0.353 C 
BRANCH  20  21
HETATM   21  N4  UNL     1       2.835  -0.218   2.632  1.00  0.00    -0.051 N 
ATOM     22  H43 UNL     1       2.011   0.125   3.126  1.00  0.00     0.277 HD
ATOM     23  H42 UNL     1       2.846  -1.173   2.989  1.00  0.00     0.277 HD
ATOM     24  H41 UNL     1       3.674   0.293   2.905  1.00  0.00     0.277 HD
ENDBRANCH  20  21
BRANCH  20  25
HETATM   25  N5  UNL     1       3.847  -0.845   0.646  1.00  0.00    -0.308 N 
HETATM   26  C6  UNL     1       4.743  -0.214  -0.225  1.00  0.00     0.337 C 
HETATM   27  O1  UNL     1       4.523   0.972  -0.572  1.00  0.00    -0.245 OA
HETATM   28  N6  UNL     1       5.864  -0.902  -0.697  1.00  0.00    -0.237 N 
ATOM     29  H6  UNL     1       6.031  -1.866  -0.407  1.00  0.00     0.193 HD
ATOM     30  H5  UNL     1       4.037  -1.809   0.920  1.00  0.00     0.166 HD
BRANCH  28  31
HETATM   31  N7  UNL     1       6.767  -0.262  -1.576  1.00  0.00    -0.245 N 
HETATM   32  N8  UNL     1       7.503  -0.967  -2.330  1.00  0.00    -0.331 N 
ATOM     33  H82 UNL     1       7.432  -1.984  -2.290  1.00  0.00     0.178 HD
ATOM     34  H81 UNL     1       8.155  -0.505  -2.964  1.00  0.00     0.178 HD
ATOM     35  H7  UNL     1       6.826   0.756  -1.603  1.00  0.00     0.208 HD
ENDBRANCH  28  31
ENDBRANCH  20  25
ENDBRANCH   1  20
TORSDOF 7
