REMARK  6 active torsions:
REMARK  status: ('A' for Active; 'I' for Inactive)
REMARK    1  A    between atoms: C2_2  and  N1_4 
REMARK    2  A    between atoms: C4_6  and  O1_7 
REMARK    3  A    between atoms: C4_6  and  N2_9 
REMARK       I    between atoms: C5_11  and  N3_12 
REMARK       I    between atoms: C5_11  and  N6_19 
REMARK    4  A    between atoms: N3_12  and  N4_14 
REMARK       I    between atoms: N6_19  and  C6_21 
REMARK       I    between atoms: N8_23  and  C7_25 
REMARK    5  A    between atoms: C7_25  and  C8_27 
REMARK    6  A    between atoms: C8_27  and  N9_28 
ROOT
HETATM    1  N2  UNL     1       2.963  -0.263   1.036  1.00  0.00    -0.154 N 
ATOM      2  H2  UNL     1       3.289  -0.122   1.992  1.00  0.00     0.188 HD
HETATM    3  C5  UNL     1       1.709  -0.224   0.794  1.00  0.00     0.703 C 
HETATM    4  N3  UNL     1       0.853   0.023   1.925  1.00  0.00    -0.118 N 
ATOM      5  H3  UNL     1       0.269  -0.722   2.305  1.00  0.00     0.207 HD
HETATM    6  N6  UNL     1       1.119  -0.405  -0.477  1.00  0.00    -0.162 N 
ATOM      7  H6  UNL     1       1.422  -1.166  -1.084  1.00  0.00     0.187 HD
HETATM    8  C6  UNL     1       0.102   0.485  -0.895  1.00  0.00     0.209 C 
HETATM    9  N7  UNL     1       0.442   1.759  -1.425  1.00  0.00    -0.063 NA
HETATM   10  N8  UNL     1      -1.125   0.132  -0.791  1.00  0.00    -0.299 N 
ATOM     11  H8  UNL     1      -1.860   0.772  -1.092  1.00  0.00     0.171 HD
HETATM   12  C7  UNL     1      -1.470  -1.122  -0.269  1.00  0.00     0.252 C 
HETATM   13  O2  UNL     1      -0.719  -2.110  -0.404  1.00  0.00    -0.271 OA
ENDROOT
BRANCH   1  14
HETATM   14  C4  UNL     1       3.903  -0.494   0.022  1.00  0.00     0.231 C 
HETATM   15  N1  UNL     1       4.997   0.206   0.065  1.00  0.00    -0.352 N 
ATOM     16  H1  UNL     1       5.096   0.873   0.830  1.00  0.00     0.163 HD
BRANCH  15  17
HETATM   17  C2  UNL     1       6.072   0.119  -0.870  1.00  0.00     0.076 C 
HETATM   18  C1  UNL     1       6.825  -1.177  -0.601  1.00  0.00     0.032 C 
HETATM   19  C3  UNL     1       5.677   0.236  -2.310  1.00  0.00     0.032 C 
ENDBRANCH  15  17
BRANCH  14  20
HETATM   20  O1  UNL     1       3.793  -1.391  -1.022  1.00  0.00    -0.332 OA
ATOM     21  H1  UNL     1       2.993  -1.903  -1.053  1.00  0.00     0.220 HD
ENDBRANCH  14  20
ENDBRANCH   1  14
BRANCH   4  22
HETATM   22  N4  UNL     1       0.836   1.295   2.491  1.00  0.00    -0.235 N 
HETATM   23  N5  UNL     1       1.883   2.003   2.401  1.00  0.00    -0.330 N 
ATOM     24  H52 UNL     1       2.707   1.637   1.924  1.00  0.00     0.178 HD
ATOM     25  H51 UNL     1       1.871   2.935   2.816  1.00  0.00     0.178 HD
ATOM     26  H4  UNL     1       0.004   1.647   2.965  1.00  0.00     0.208 HD
ENDBRANCH   4  22
BRANCH  12  27
HETATM   27  C8  UNL     1      -2.740  -1.301   0.462  1.00  0.00     0.374 C 
BRANCH  27  28
HETATM   28  N9  UNL     1      -3.460  -0.054   0.461  1.00  0.00     0.097 N 
HETATM   29  C9  UNL     1      -3.945   0.251  -0.836  1.00  0.00     0.273 C 
HETATM   30  C10 UNL     1      -5.431  -0.065  -0.877  1.00  0.00     0.030 C 
HETATM   31  C11 UNL     1      -6.139   0.928   0.011  1.00  0.00     0.003 C 
HETATM   32  C12 UNL     1      -5.461   1.052   1.354  1.00  0.00     0.030 C 
HETATM   33  C13 UNL     1      -4.364   0.028   1.547  1.00  0.00     0.273 C 
ENDBRANCH  27  28
ENDBRANCH  12  27
TORSDOF 6
