REMARK  3 active torsions:
REMARK  status: ('A' for Active; 'I' for Inactive)
REMARK    1  A    between atoms: O1_1  and  C1_3 
REMARK    2  A    between atoms: C7_11  and  O3_12 
REMARK    3  A    between atoms: C10_16  and  O4_17 
ROOT
HETATM    1  C1  UNL     1       1.302  -0.467  -1.027  1.00  0.00     0.188 C 
HETATM    2  C2  UNL     1      -0.045  -1.047  -1.250  1.00  0.00     0.195 A 
HETATM    3  O2  UNL     1      -0.942  -0.066  -1.711  1.00  0.00    -0.370 OA
HETATM    4  C3  UNL     1      -1.679  -0.226  -0.563  1.00  0.00     0.177 A 
HETATM    5  C4  UNL     1      -1.850   0.967   0.279  1.00  0.00     0.090 C 
HETATM    6 BR1  UNL     1      -2.810   0.363   1.881  1.00  0.00    -0.088 Br
HETATM    7  C5  UNL     1      -0.710   1.762   0.680  1.00  0.00     0.022 C 
HETATM    8  C6  UNL     1       0.550   1.681  -0.104  1.00  0.00     0.046 C 
HETATM    9  C7  UNL     1       1.340   0.426   0.180  1.00  0.00     0.104 C 
HETATM   10  C8  UNL     1       0.841  -0.275   1.407  1.00  0.00     0.012 C 
HETATM   11  C9  UNL     1      -0.193  -1.088   1.240  1.00  0.00     0.015 C 
HETATM   12  C10 UNL     1      -0.843  -1.323  -0.033  1.00  0.00     0.131 A 
ENDROOT
BRANCH   1  13
HETATM   13  O1  UNL     1       2.245  -1.485  -0.906  1.00  0.00    -0.390 OA
ATOM     14  H1  UNL     1       3.108  -1.114  -0.763  1.00  0.00     0.210 HD
ENDBRANCH   1  13
BRANCH   9  15
HETATM   15  O3  UNL     1       2.697   0.705   0.433  1.00  0.00    -0.383 OA
ATOM     16  H3  UNL     1       2.721   1.270   1.196  1.00  0.00     0.211 HD
ENDBRANCH   9  15
BRANCH  12  17
HETATM   17  O4  UNL     1      -1.420  -2.612  -0.118  1.00  0.00    -0.380 OA
ATOM     18  H4  UNL     1      -1.932  -2.789   0.663  1.00  0.00     0.211 HD
ENDBRANCH  12  17
TORSDOF 3
