REMARK  1 active torsions:
REMARK  status: ('A' for Active; 'I' for Inactive)
REMARK    1  A    between atoms: C3_3  and  N1_4 
ROOT
HETATM    1  C1  UNL     1       5.445   1.719   0.825  1.00  0.00     0.014 C 
HETATM    2  C2  UNL     1       4.778   0.946   0.167  1.00  0.00    -0.098 C 
HETATM    3  C3  UNL     1       3.990   0.033  -0.632  1.00  0.00     0.216 C 
ENDROOT
BRANCH   3   4
HETATM    4  N1  UNL     1       2.785  -0.323   0.055  1.00  0.00    -0.360 N 
HETATM    5  C4  UNL     1       1.817   0.683   0.237  1.00  0.00     0.061 C 
HETATM    6  C5  UNL     1       1.951   1.929  -0.560  1.00  0.00     0.046 C 
HETATM    7  C6  UNL     1       0.575   2.407  -1.056  1.00  0.00     0.032 C 
HETATM    8  C7  UNL     1      -0.417   2.421   0.087  1.00  0.00     0.232 C 
HETATM    9  N2  UNL     1      -1.526   1.585  -0.283  1.00  0.00    -0.074 N 
HETATM   10  C8  UNL     1      -2.791   2.074   0.217  1.00  0.00     0.259 C 
ATOM     11  H22 UNL     1      -1.561   1.451  -1.294  1.00  0.00     0.277 HD
ATOM     12  H21 UNL     1      -1.368   0.620   0.007  1.00  0.00     0.277 HD
HETATM   13  C9  UNL     1      -3.612   0.908   0.775  1.00  0.00     0.259 C 
HETATM   14  N3  UNL     1      -4.072   0.037  -0.264  1.00  0.00    -0.072 N 
HETATM   15  C10 UNL     1      -3.173  -1.040  -0.578  1.00  0.00     0.258 C 
ATOM     16  H32 UNL     1      -4.998  -0.327  -0.039  1.00  0.00     0.277 HD
ATOM     17  H31 UNL     1      -4.294   0.572  -1.104  1.00  0.00     0.277 HD
HETATM   18  C11 UNL     1      -2.708  -1.808   0.630  1.00  0.00     0.195 C 
HETATM   19  O1  UNL     1      -2.137  -3.018   0.185  1.00  0.00    -0.388 OA
HETATM   20  C12 UNL     1      -0.885  -3.208   0.776  1.00  0.00     0.195 C 
HETATM   21  C13 UNL     1       0.238  -2.822  -0.143  1.00  0.00     0.260 C 
HETATM   22  N4  UNL     1       1.344  -2.178   0.567  1.00  0.00    -0.057 N 
HETATM   23  C14 UNL     1       2.254  -1.598  -0.378  1.00  0.00     0.357 C 
ATOM     24  H42 UNL     1       1.016  -1.497   1.252  1.00  0.00     0.279 HD
ATOM     25  H41 UNL     1       1.813  -2.818   1.208  1.00  0.00     0.279 HD
ENDBRANCH   3   4
TORSDOF 1
