REMARK  2 active torsions:
REMARK  status: ('A' for Active; 'I' for Inactive)
REMARK    1  A    between atoms: N2_5  and  C4_6 
REMARK    2  A    between atoms: C4_6  and  O1_7 
ROOT
HETATM    1  C4  UNL     1      -0.665  -0.187  -0.235  1.00  0.00     0.355 C 
HETATM    2  N3  UNL     1      -1.483   0.972  -0.540  1.00  0.00    -0.322 N 
ATOM      3  H3  UNL     1      -1.069   1.855  -0.839  1.00  0.00     0.165 HD
HETATM    4  C5  UNL     1      -2.891   0.816  -0.401  1.00  0.00     0.074 C 
HETATM    5  N4  UNL     1      -3.721   1.744  -0.723  1.00  0.00    -0.389 N 
ATOM      6  H41 UNL     1      -4.730   1.632  -0.623  1.00  0.00     0.157 HD
ATOM      7  H42 UNL     1      -3.407   2.640  -1.096  1.00  0.00     0.157 HD
HETATM    8  C6  UNL     1      -3.353  -0.502   0.147  1.00  0.00     0.077 C 
HETATM    9  C7  UNL     1      -2.509  -0.898   1.317  1.00  0.00     0.030 C 
HETATM   10  C8  UNL     1      -1.051  -0.778   1.115  1.00  0.00     0.147 C 
HETATM   11 BR1  UNL     1      -0.341   0.481   2.433  1.00  0.00    -0.084 Br
ENDROOT
BRANCH   1  12
HETATM   12  N2  UNL     1       0.689   0.256  -0.085  1.00  0.00     0.175 N 
HETATM   13  C3  UNL     1       1.242   0.855  -1.277  1.00  0.00     0.311 C 
HETATM   14  C2  UNL     1       2.714   0.951  -0.848  1.00  0.00     0.304 C 
HETATM   15  N1  UNL     1       2.917  -0.369  -0.284  1.00  0.00     0.114 N 
HETATM   16  C1  UNL     1       3.881  -0.363   0.800  1.00  0.00     0.312 C 
HETATM   17  C9  UNL     1       1.614  -0.832   0.161  1.00  0.00     0.548 C 
ENDBRANCH   1  12
BRANCH   1  18
HETATM   18  O1  UNL     1      -0.787  -1.134  -1.255  1.00  0.00    -0.346 OA
ATOM     19  H1  UNL     1      -1.685  -1.428  -1.354  1.00  0.00     0.214 HD
ENDBRANCH   1  18
TORSDOF 2
