REMARK  10 active torsions:
REMARK  status: ('A' for Active; 'I' for Inactive)
REMARK    1  A    between atoms: C2_2  and  O2_4 
REMARK    2  A    between atoms: O2_4  and  C3_5 
REMARK    3  A    between atoms: C3_5  and  C4_6 
REMARK    4  A    between atoms: C4_6  and  N1_7 
REMARK       I    between atoms: N1_7  and  C5_9 
REMARK    5  A    between atoms: C5_9  and  C6_11 
REMARK    6  A    between atoms: C8_13  and  N2_14 
REMARK       I    between atoms: N2_14  and  C9_16 
REMARK    7  A    between atoms: C9_16  and  C10_18 
REMARK    8  A    between atoms: C10_18  and  C11_20 
REMARK    9  A    between atoms: C15_24  and  C16_25 
REMARK       I    between atoms: C16_25  and  N3_27 
REMARK       I    between atoms: N4_31  and  C20_32 
REMARK   10  A    between atoms: C22_36  and  C23_37 
ROOT
HETATM    1  C6  UNL     1       1.225  -0.554   0.244  1.00  0.00     0.119 C 
HETATM    2  C7  UNL     1       0.208  -0.004   1.220  1.00  0.00     0.049 C 
HETATM    3  C8  UNL     1      -1.029   0.569   0.520  1.00  0.00     0.106 C 
HETATM    4  C15 UNL     1      -0.776   1.832   1.246  1.00  0.00     0.124 C 
HETATM    5  C19 UNL     1       0.620   1.421   1.543  1.00  0.00     0.111 C 
HETATM    6  N4  UNL     1       1.731   1.697   0.713  1.00  0.00    -0.318 N 
HETATM    7  C20 UNL     1       2.632   2.780   0.805  1.00  0.00     0.325 C 
HETATM    8  O6  UNL     1       2.548   3.612   1.718  1.00  0.00    -0.256 OA
HETATM    9  C21 UNL     1       3.668   2.943  -0.160  1.00  0.00     0.162 C 
HETATM   10  N5  UNL     1       4.518   3.093  -0.947  1.00  0.00    -0.186 NA
HETATM   11  C22 UNL     1       1.952   0.638  -0.289  1.00  0.00     0.203 C 
ENDROOT
BRANCH  11  12
HETATM   12  C23 UNL     1       1.575   1.006  -1.645  1.00  0.00     0.197 C 
HETATM   13  O7  UNL     1       1.591   0.121  -2.569  1.00  0.00    -0.646 OA
HETATM   14  O8  UNL     1       1.188   2.264  -2.052  1.00  0.00    -0.646 OA
ENDBRANCH  11  12
BRANCH   4  15
HETATM   15  C16 UNL     1      -1.056   3.130   0.648  1.00  0.00     0.227 C 
HETATM   16  O5  UNL     1      -0.588   4.132   1.329  1.00  0.00    -0.273 OA
HETATM   17  N3  UNL     1      -1.741   3.484  -0.524  1.00  0.00    -0.360 N 
HETATM   18  C17 UNL     1      -2.383   2.626  -1.479  1.00  0.00     0.152 C 
HETATM   19  C18 UNL     1      -1.823   4.934  -0.841  1.00  0.00     0.152 C 
ENDBRANCH   4  15
BRANCH   1  20
HETATM   20  C5  UNL     1       2.190  -1.462   0.912  1.00  0.00     0.225 C 
HETATM   21  N1  UNL     1       3.044  -1.048   1.962  1.00  0.00    -0.359 N 
ATOM     22  H1  UNL     1       2.975  -0.074   2.258  1.00  0.00     0.162 HD
HETATM   23  O3  UNL     1       2.247  -2.652   0.523  1.00  0.00    -0.273 OA
BRANCH  21  24
HETATM   24  C4  UNL     1       3.994  -1.867   2.645  1.00  0.00     0.149 C 
BRANCH  24  25
HETATM   25  C3  UNL     1       5.040  -2.418   1.734  1.00  0.00     0.198 C 
BRANCH  25  26
HETATM   26  O2  UNL     1       5.724  -1.310   1.140  1.00  0.00    -0.320 OA
BRANCH  26  27
HETATM   27  C2  UNL     1       6.765  -1.529   0.233  1.00  0.00     0.254 C 
HETATM   28  C1  UNL     1       7.476  -0.383  -0.384  1.00  0.00     0.126 C 
HETATM   29  O1  UNL     1       7.057  -2.725  -0.024  1.00  0.00    -0.266 OA
ENDBRANCH  26  27
ENDBRANCH  25  26
ENDBRANCH  24  25
ENDBRANCH  21  24
ENDBRANCH   1  20
BRANCH   3  30
HETATM   30  N2  UNL     1      -2.233  -0.172   0.887  1.00  0.00    -0.354 N 
HETATM   31  C9  UNL     1      -2.978  -0.966  -0.022  1.00  0.00     0.233 C 
HETATM   32  O4  UNL     1      -2.536  -1.003  -1.208  1.00  0.00    -0.272 OA
ATOM     33  H2  UNL     1      -2.557  -0.115   1.853  1.00  0.00     0.162 HD
BRANCH  31  34
HETATM   34  C10 UNL     1      -4.181  -1.686   0.414  1.00  0.00     0.157 C 
HETATM   35 BR1  UNL     1      -5.446  -0.359   1.102  1.00  0.00    -0.080 Br
BRANCH  34  36
HETATM   36  C11 UNL     1      -4.890  -2.419  -0.676  1.00  0.00    -0.030 C 
HETATM   37  C12 UNL     1      -4.095  -3.466  -1.370  1.00  0.00     0.016 C 
HETATM   38  C13 UNL     1      -6.101  -3.110  -0.046  1.00  0.00     0.016 C 
HETATM   39  C14 UNL     1      -5.457  -1.466  -1.716  1.00  0.00     0.016 C 
ENDBRANCH  34  36
ENDBRANCH  31  34
ENDBRANCH   3  30
TORSDOF 10
