REMARK  8 active torsions:
REMARK  status: ('A' for Active; 'I' for Inactive)
REMARK    1  A    between atoms: C5_8  and  C6_9 
REMARK       I    between atoms: C6_9  and  N2_11 
REMARK    2  A    between atoms: N2_11  and  C7_13 
REMARK    3  A    between atoms: C7_13  and  C8_14 
REMARK    4  A    between atoms: C7_13  and  C10_18 
REMARK    5  A    between atoms: C8_14  and  C9_15 
REMARK    6  A    between atoms: C10_18  and  S1_19 
REMARK       I    between atoms: N3_25  and  C14_27 
REMARK    7  A    between atoms: C14_27  and  C15_29 
REMARK    8  A    between atoms: C22_37  and  C23_38 
ROOT
HETATM    1  C1  UNL     1       2.029   3.845   0.634  1.00  0.00     0.315 C 
HETATM    2  N1  UNL     1       1.431   2.547   0.647  1.00  0.00     0.140 N 
HETATM    3  C2  UNL     1       0.084   2.667   0.165  1.00  0.00     0.409 C 
HETATM    4  O1  UNL     1       0.094   3.176  -1.147  1.00  0.00    -0.338 OA
HETATM    5  C3  UNL     1       0.462   2.060  -1.907  1.00  0.00     0.221 C 
HETATM    6  C4  UNL     1       1.883   1.722  -1.517  1.00  0.00     0.200 C 
HETATM    7  O2  UNL     1       2.722   1.641  -2.366  1.00  0.00    -0.292 OA
HETATM    8  C5  UNL     1       2.105   1.516  -0.060  1.00  0.00     0.388 C 
HETATM    9  C12 UNL     1      -0.519   1.007  -1.402  1.00  0.00     0.169 C 
HETATM   10 CL1  UNL     1       0.073  -0.619  -1.689  1.00  0.00    -0.115 Cl
HETATM   11  C13 UNL     1      -0.649   1.389   0.017  1.00  0.00     0.070 C 
HETATM   12  N3  UNL     1      -1.249   0.808   0.981  1.00  0.00    -0.328 N 
ATOM     13  H3  UNL     1      -1.200   1.271   1.888  1.00  0.00     0.168 HD
HETATM   14  C14 UNL     1      -1.973  -0.403   0.936  1.00  0.00     0.228 C 
HETATM   15  O7  UNL     1      -1.487  -1.368   1.567  1.00  0.00    -0.273 OA
ENDROOT
BRANCH  14  16
HETATM   16  C15 UNL     1      -3.204  -0.518   0.200  1.00  0.00     0.112 C 
HETATM   17  C16 UNL     1      -4.270   0.505   0.528  1.00  0.00     0.055 C 
HETATM   18  C17 UNL     1      -5.482  -0.036  -0.252  1.00  0.00     0.123 C 
HETATM   19  C18 UNL     1      -5.514   0.804  -1.545  1.00  0.00     0.046 C 
HETATM   20  C19 UNL     1      -6.768   0.242   0.448  1.00  0.00     0.046 C 
HETATM   21  N4  UNL     1      -5.176  -1.406  -0.509  1.00  0.00    -0.061 N 
HETATM   22  C20 UNL     1      -4.883  -1.543  -1.942  1.00  0.00     0.273 C 
HETATM   23  C21 UNL     1      -6.251  -2.344  -0.298  1.00  0.00     0.273 C 
HETATM   24  C22 UNL     1      -3.964  -1.771   0.189  1.00  0.00     0.213 C 
BRANCH  24  25
HETATM   25  C23 UNL     1      -4.181  -2.520   1.445  1.00  0.00     0.120 C 
HETATM   26  S2  UNL     1      -5.039  -1.664   2.762  1.00  0.00    -0.096 SA
ENDBRANCH  24  25
ENDBRANCH  14  16
BRANCH   8  27
HETATM   27  C6  UNL     1       3.498   1.279   0.305  1.00  0.00     0.259 C 
HETATM   28  O3  UNL     1       3.988   1.897   1.285  1.00  0.00    -0.271 OA
HETATM   29  N2  UNL     1       4.375   0.391  -0.366  1.00  0.00    -0.353 N 
ATOM     30  H2  UNL     1       4.017  -0.131  -1.166  1.00  0.00     0.163 HD
BRANCH  29  31
HETATM   31  C7  UNL     1       5.761   0.186   0.030  1.00  0.00     0.106 C 
BRANCH  31  32
HETATM   32  C8  UNL     1       5.971  -1.178   0.622  1.00  0.00     0.139 C 
BRANCH  32  33
HETATM   33  C9  UNL     1       5.633  -2.315  -0.250  1.00  0.00     0.174 C 
HETATM   34  O4  UNL     1       4.517  -2.372  -0.895  1.00  0.00    -0.648 OA
HETATM   35  O5  UNL     1       6.431  -3.433  -0.493  1.00  0.00    -0.648 OA
ENDBRANCH  32  33
ENDBRANCH  31  32
BRANCH  31  36
HETATM   36  C10 UNL     1       6.698   0.495  -1.101  1.00  0.00     0.134 C 
BRANCH  36  37
HETATM   37  S1  UNL     1       8.387   0.434  -0.845  1.00  0.00     0.012 S 
HETATM   38  C11 UNL     1       9.209  -0.981  -0.363  1.00  0.00     0.127 C 
HETATM   39  O6  UNL     1       9.240   1.367  -1.917  1.00  0.00    -0.258 OA
ENDBRANCH  36  37
ENDBRANCH  31  36
ENDBRANCH  29  31
ENDBRANCH   8  27
TORSDOF 8
