REMARK  9 active torsions:
REMARK  status: ('A' for Active; 'I' for Inactive)
REMARK    1  A    between atoms: O1_2  and  C2_3 
REMARK    2  A    between atoms: C2_3  and  C3_5 
REMARK    3  A    between atoms: C3_5  and  C4_6 
REMARK    4  A    between atoms: C3_5  and  N1_10 
REMARK    5  A    between atoms: C4_6  and  C5_7 
REMARK    6  A    between atoms: C5_7  and  C6_8 
REMARK       I    between atoms: N1_10  and  C7_12 
REMARK       I    between atoms: C7_12  and  N2_14 
REMARK    7  A    between atoms: C11_18  and  C13_20 
REMARK       I    between atoms: C13_20  and  N3_22 
REMARK    8  A    between atoms: C14_23  and  C15_24 
REMARK       I    between atoms: C15_24  and  N4_26 
REMARK    9  A    between atoms: C18_29  and  C19_30 
ROOT
HETATM    1  C13 UNL     1      -0.896  -0.875  -0.238  1.00  0.00     0.250 C 
HETATM    2  O4  UNL     1      -0.182  -0.071  -0.866  1.00  0.00    -0.270 OA
HETATM    3  N3  UNL     1      -2.284  -0.892  -0.472  1.00  0.00    -0.318 N 
HETATM    4  C14 UNL     1      -3.223  -0.170  -1.234  1.00  0.00     0.195 C 
HETATM    5  C21 UNL     1      -3.661  -1.145  -2.362  1.00  0.00     0.177 C 
HETATM    6  S1  UNL     1      -4.055  -2.519  -1.256  1.00  0.00     0.168 S 
HETATM    7  O8  UNL     1      -5.504  -2.527  -0.928  1.00  0.00    -0.226 OA
HETATM    8  O9  UNL     1      -3.535  -3.802  -1.778  1.00  0.00    -0.226 OA
HETATM    9  C22 UNL     1      -3.124  -1.945   0.178  1.00  0.00     0.207 C 
HETATM   10  C23 UNL     1      -3.983  -1.298   1.201  1.00  0.00     0.049 C 
ENDROOT
BRANCH   1  11
HETATM   11  C11 UNL     1      -0.209  -1.762   0.722  1.00  0.00     0.116 C 
HETATM   12  N2  UNL     1       1.248  -1.532   0.750  1.00  0.00    -0.312 N 
HETATM   13  C7  UNL     1       2.093  -0.422   0.993  1.00  0.00     0.320 C 
HETATM   14  C8  UNL     1       1.512  -2.915   0.441  1.00  0.00     0.089 C 
HETATM   15  N1  UNL     1       3.529  -0.517   0.986  1.00  0.00    -0.329 N 
HETATM   16  O3  UNL     1       1.612   0.723   1.232  1.00  0.00    -0.247 OA
ATOM     17  H1  UNL     1       3.958  -1.423   0.798  1.00  0.00     0.165 HD
HETATM   18  C9  UNL     1       2.421  -3.072  -0.776  1.00  0.00     0.032 C 
HETATM   19  C10 UNL     1       0.051  -3.110   0.154  1.00  0.00     0.066 C 
HETATM   20  C12 UNL     1      -0.692  -1.676   2.147  1.00  0.00     0.049 C 
BRANCH  15  21
HETATM   21  C3  UNL     1       4.370   0.593   1.229  1.00  0.00     0.186 C 
BRANCH  21  22
HETATM   22  C2  UNL     1       4.859   0.745   2.633  1.00  0.00     0.281 C 
HETATM   23  O2  UNL     1       4.510  -0.112   3.467  1.00  0.00    -0.263 OA
BRANCH  22  24
HETATM   24  O1  UNL     1       5.666   1.785   3.027  1.00  0.00    -0.325 OA
HETATM   25  C1  UNL     1       6.149   1.976   4.338  1.00  0.00     0.213 C 
ENDBRANCH  22  24
ENDBRANCH  21  22
BRANCH  21  26
HETATM   26  C4  UNL     1       5.474   0.854   0.271  1.00  0.00     0.037 C 
BRANCH  26  27
HETATM   27  C5  UNL     1       6.712   0.053   0.368  1.00  0.00     0.017 C 
BRANCH  27  28
HETATM   28  C6  UNL     1       6.543  -1.417   0.229  1.00  0.00     0.115 C 
HETATM   29 CL1  UNL     1       8.167  -2.210   0.270  1.00  0.00    -0.130 Cl
ENDBRANCH  27  28
ENDBRANCH  26  27
ENDBRANCH  21  26
ENDBRANCH  15  21
ENDBRANCH   1  11
BRANCH   4  30
HETATM   30  C15 UNL     1      -2.998   1.161  -1.708  1.00  0.00     0.244 C 
HETATM   31  O5  UNL     1      -1.927   1.797  -1.745  1.00  0.00    -0.271 OA
HETATM   32  N4  UNL     1      -4.128   1.907  -2.216  1.00  0.00    -0.344 N 
HETATM   33  C16 UNL     1      -5.528   1.626  -2.374  1.00  0.00     0.134 C 
HETATM   34  C20 UNL     1      -4.396   3.221  -2.772  1.00  0.00     0.108 A 
HETATM   35  C17 UNL     1      -5.853   3.087  -2.371  1.00  0.00     0.044 A 
HETATM   36  C18 UNL     1      -5.040   4.146  -1.798  1.00  0.00     0.117 A 
BRANCH  36  37
HETATM   37  C19 UNL     1      -5.272   5.529  -2.314  1.00  0.00     0.179 C 
HETATM   38  O6  UNL     1      -5.796   5.720  -3.451  1.00  0.00    -0.648 OA
HETATM   39  O7  UNL     1      -4.925   6.648  -1.576  1.00  0.00    -0.648 OA
ENDBRANCH  36  37
ENDBRANCH   4  30
TORSDOF 9
