REMARK  3 active torsions:
REMARK  status: ('A' for Active; 'I' for Inactive)
REMARK       I    between atoms: N1_2  and  C2_4 
REMARK       I    between atoms: C2_4  and  N2_6 
REMARK       I    between atoms: C3_8  and  N3_9 
REMARK       I    between atoms: C3_8  and  N4_17 
REMARK    1  A    between atoms: C4_11  and  C6_13 
REMARK    2  A    between atoms: C7_14  and  C8_15 
REMARK    3  A    between atoms: C12_21  and  C13_22 
ROOT
HETATM    1  C1  UNL     1       1.642   4.365  -0.466  1.00  0.00     0.151 C 
HETATM    2  N1  UNL     1       0.685   3.312  -0.692  1.00  0.00    -0.347 N 
ATOM      3  H1  UNL     1       0.349   3.117  -1.635  1.00  0.00     0.163 HD
HETATM    4  C2  UNL     1       0.217   2.554   0.399  1.00  0.00     0.334 C 
HETATM    5  O1  UNL     1       0.615   2.774   1.570  1.00  0.00    -0.247 OA
HETATM    6  N2  UNL     1      -0.724   1.518   0.182  1.00  0.00    -0.141 N 
ATOM      7  H2  UNL     1      -1.655   1.778  -0.144  1.00  0.00     0.189 HD
HETATM    8  C3  UNL     1      -0.478   0.266   0.371  1.00  0.00     0.685 C 
HETATM    9  N3  UNL     1       0.795  -0.104   0.818  1.00  0.00    -0.188 N 
ATOM     10  H3  UNL     1       0.928  -0.158   1.828  1.00  0.00     0.184 HD
HETATM   11  C4  UNL     1       1.802  -0.380   0.094  1.00  0.00     0.076 C 
HETATM   12  C5  UNL     1       1.655  -0.315  -1.384  1.00  0.00     0.079 C 
HETATM   13  N4  UNL     1      -1.533  -0.653   0.108  1.00  0.00    -0.203 N 
HETATM   14  C9  UNL     1      -1.416  -2.089  -0.140  1.00  0.00     0.142 C 
HETATM   15  C10 UNL     1      -2.273  -2.251  -1.363  1.00  0.00     0.023 C 
HETATM   16  C11 UNL     1      -3.443  -1.342  -1.075  1.00  0.00     0.038 C 
HETATM   17  C12 UNL     1      -2.957  -0.386   0.025  1.00  0.00     0.203 C 
ENDROOT
BRANCH  11  18
HETATM   18  C6  UNL     1       3.049  -0.744   0.704  1.00  0.00    -0.051 C 
HETATM   19  C7  UNL     1       4.100  -1.032   1.227  1.00  0.00    -0.069 C 
BRANCH  19  20
HETATM   20  C8  UNL     1       5.377  -1.404   1.868  1.00  0.00     0.316 C 
HETATM   21  F1  UNL     1       5.110  -2.093   3.018  1.00  0.00    -0.242 F 
ENDBRANCH  19  20
ENDBRANCH  11  18
BRANCH  17  22
HETATM   22  C13 UNL     1      -3.647  -0.655   1.297  1.00  0.00     0.197 C 
HETATM   23  O2  UNL     1      -3.083  -1.067   2.343  1.00  0.00    -0.646 OA
HETATM   24  O3  UNL     1      -5.017  -0.438   1.348  1.00  0.00    -0.646 OA
ENDBRANCH  17  22
TORSDOF 3
