REMARK  2 active torsions:
REMARK  status: ('A' for Active; 'I' for Inactive)
REMARK       I    between atoms: N1_2  and  C2_4 
REMARK    1  A    between atoms: C2_4  and  C3_6 
REMARK    2  A    between atoms: C7_11  and  C13_20 
ROOT
HETATM    1  C3  UNL     1       1.076  -0.317  -0.418  1.00  0.00     0.050 A 
HETATM    2  C4  UNL     1       0.361  -1.078  -1.471  1.00  0.00     0.026 C 
HETATM    3  C5  UNL     1      -1.102  -0.836  -1.177  1.00  0.00     0.006 C 
HETATM    4  C6  UNL     1      -1.321   0.639  -1.499  1.00  0.00     0.069 C 
HETATM    5 BR1  UNL     1      -0.163   1.195  -2.975  1.00  0.00    -0.090 Br
HETATM    6  C7  UNL     1      -0.836   1.367  -0.283  1.00  0.00     0.037 C 
HETATM    7  C8  UNL     1      -1.885   1.192   0.795  1.00  0.00     0.197 C 
HETATM    8  N2  UNL     1      -3.247   1.303   0.394  1.00  0.00    -0.070 N 
ATOM      9  H21 UNL     1      -3.454   1.805  -0.470  1.00  0.00     0.277 HD
ATOM     10  H22 UNL     1      -3.860   1.910   0.939  1.00  0.00     0.277 HD
HETATM   11  C9  UNL     1      -3.493  -0.117   0.429  1.00  0.00     0.239 C 
HETATM   12  C10 UNL     1      -2.152  -0.298   1.050  1.00  0.00     0.047 C 
HETATM   13  C11 UNL     1      -1.113  -1.065   0.325  1.00  0.00     0.004 C 
HETATM   14  C12 UNL     1       0.243  -0.523   0.799  1.00  0.00     0.014 A 
HETATM   15  C13 UNL     1       0.446   0.814   0.203  1.00  0.00     0.017 A 
ENDROOT
BRANCH   1  16
HETATM   16  C2  UNL     1       2.515  -0.534  -0.274  1.00  0.00     0.226 C 
HETATM   17  N1  UNL     1       3.247   0.103   0.753  1.00  0.00    -0.365 N 
HETATM   18  C1  UNL     1       4.674  -0.082   0.931  1.00  0.00     0.149 C 
ATOM     19  H1  UNL     1       2.750   0.719   1.397  1.00  0.00     0.161 HD
HETATM   20  O1  UNL     1       3.085  -1.317  -1.108  1.00  0.00    -0.273 OA
ENDBRANCH   1  16
TORSDOF 2
