REMARK  2 active torsions:
REMARK  status: ('A' for Active; 'I' for Inactive)
REMARK    1  A    between atoms: C2_2  and  C3_4 
REMARK    2  A    between atoms: C2_2  and  N2_11 
REMARK       I    between atoms: C3_4  and  N1_6 
ROOT
HETATM    1  C1  UNL     1      -0.085   1.857   0.372  1.00  0.00     0.098 C 
HETATM    2  C2  UNL     1      -0.246   0.315   0.382  1.00  0.00     0.362 C 
HETATM    3  F1  UNL     1      -0.036  -0.020   1.721  1.00  0.00    -0.198 F 
ENDROOT
BRANCH   2   4
HETATM    4  C3  UNL     1       0.811  -0.171  -0.491  1.00  0.00     0.290 C 
HETATM    5  O1  UNL     1       0.488  -0.735  -1.551  1.00  0.00    -0.267 OA
HETATM    6  N1  UNL     1       2.215  -0.021  -0.169  1.00  0.00    -0.348 N 
HETATM    7  C4  UNL     1       3.268  -0.507  -1.037  1.00  0.00     0.126 C 
HETATM    8  C7  UNL     1       2.868   0.574   0.946  1.00  0.00     0.126 C 
HETATM    9  C5  UNL     1       4.463  -0.769  -0.209  1.00  0.00     0.021 C 
HETATM   10  C6  UNL     1       4.152  -0.247   1.144  1.00  0.00     0.021 C 
ENDBRANCH   2   4
BRANCH   2  11
HETATM   11  N2  UNL     1      -1.593   0.037   0.103  1.00  0.00     0.058 N 
HETATM   12  C8  UNL     1      -1.970  -0.448  -1.186  1.00  0.00     0.266 C 
HETATM   13  C9  UNL     1      -3.489  -0.674  -0.978  1.00  0.00     0.038 C 
HETATM   14  C10 UNL     1      -3.574  -0.862   0.494  1.00  0.00     0.047 C 
HETATM   15  C11 UNL     1      -2.108  -1.126   0.881  1.00  0.00     0.272 C 
HETATM   16  C12 UNL     1      -3.644   0.531   1.083  1.00  0.00     0.184 C 
HETATM   17 BR1  UNL     1      -5.224   1.401   0.412  1.00  0.00    -0.071 Br
HETATM   18  N3  UNL     1      -2.427   1.101   0.523  1.00  0.00    -0.026 NA
ENDBRANCH   2  11
TORSDOF 2
