REMARK  2 active torsions:
REMARK  status: ('A' for Active; 'I' for Inactive)
REMARK    1  A    between atoms: C4_5  and  C5_6 
REMARK    2  A    between atoms: C5_6  and  O1_7 
ROOT
HETATM    1  C1  UNL     1      -0.866  -2.631   0.410  1.00  0.00     0.014 C 
HETATM    2  C2  UNL     1      -0.658  -1.251   0.950  1.00  0.00     0.040 C 
HETATM    3  C3  UNL     1      -2.012  -0.598   1.042  1.00  0.00     0.097 C 
HETATM    4 BR1  UNL     1      -3.350  -1.569   0.016  1.00  0.00    -0.088 Br
HETATM    5  C4  UNL     1      -1.762   0.760   0.481  1.00  0.00     0.229 C 
HETATM    6  N1  UNL     1      -0.678   0.667  -0.455  1.00  0.00    -0.053 N 
HETATM    7  C6  UNL     1      -1.093   0.509  -1.823  1.00  0.00     0.274 C 
HETATM    8  C7  UNL     1      -0.012   1.963  -0.406  1.00  0.00     0.274 C 
HETATM    9  C8  UNL     1       0.184  -0.375   0.021  1.00  0.00     0.165 C 
HETATM   10  C9  UNL     1       1.231   0.242   0.880  1.00  0.00     0.097 C 
HETATM   11  N2  UNL     1       2.475   0.170   0.741  1.00  0.00    -0.395 N 
HETATM   12  C10 UNL     1       3.398   0.828   1.664  1.00  0.00     0.148 C 
HETATM   13  C11 UNL     1       3.118  -0.549  -0.312  1.00  0.00     0.121 C 
HETATM   14  C12 UNL     1       2.186  -0.733  -1.461  1.00  0.00     0.022 C 
HETATM   15  C13 UNL     1       0.827  -1.238  -0.972  1.00  0.00     0.047 C 
ENDROOT
BRANCH   5  16
HETATM   16  C5  UNL     1      -3.042   1.279  -0.089  1.00  0.00     0.198 C 
BRANCH  16  17
HETATM   17  O1  UNL     1      -3.984   1.308   0.939  1.00  0.00    -0.399 OA
ATOM     18  H1  UNL     1      -4.798   1.638   0.577  1.00  0.00     0.209 HD
ENDBRANCH  16  17
ENDBRANCH   5  16
TORSDOF 2
