REMARK  2 active torsions:
REMARK  status: ('A' for Active; 'I' for Inactive)
REMARK    1  A    between atoms: C5_6  and  N2_7 
REMARK    2  A    between atoms: N2_7  and  C6_9 
ROOT
HETATM    1  C1  UNL     1      -0.809  -1.386  -0.518  1.00  0.00     0.274 C 
HETATM    2  N1  UNL     1      -0.728   0.043  -0.264  1.00  0.00    -0.054 N 
HETATM    3  C2  UNL     1      -1.987   0.531   0.215  1.00  0.00     0.274 C 
HETATM    4  C3  UNL     1      -0.153   0.826  -1.312  1.00  0.00     0.242 C 
HETATM    5  C4  UNL     1       0.626   1.591  -0.261  1.00  0.00     0.083 C 
HETATM    6  C5  UNL     1       0.415   0.344   0.557  1.00  0.00     0.291 C 
ENDROOT
BRANCH   6   7
HETATM    7  N2  UNL     1       1.534  -0.565   0.353  1.00  0.00    -0.340 N 
ATOM      8  H2  UNL     1       1.816  -0.794  -0.600  1.00  0.00     0.163 HD
BRANCH   7   9
HETATM    9  C6  UNL     1       2.245  -1.142   1.435  1.00  0.00     0.350 C 
HETATM   10  O1  UNL     1       1.883  -0.848   2.612  1.00  0.00    -0.284 OA
ENDBRANCH   7   9
ENDBRANCH   6   7
TORSDOF 2
