REMARK  0 active torsions:
REMARK  status: ('A' for Active; 'I' for Inactive)
ROOT
HETATM    1  C1  UNL     1      -2.197  -0.168  -0.069  1.00  0.00     0.272 C 
HETATM    2  N1  UNL     1      -0.784  -0.063  -0.006  1.00  0.00    -0.065 N 
HETATM    3  C2  UNL     1      -0.256   1.260   0.197  1.00  0.00     0.264 C 
HETATM    4  C3  UNL     1       1.231   1.270   0.275  1.00  0.00     0.260 C 
HETATM    5  N2  UNL     1       1.870   0.062  -0.126  1.00  0.00    -0.066 N 
ATOM      6  H21 UNL     1       2.713  -0.105   0.423  1.00  0.00     0.277 HD
ATOM      7  H22 UNL     1       2.291   0.160  -1.050  1.00  0.00     0.277 HD
HETATM    8  C4  UNL     1       0.989  -1.076  -0.078  1.00  0.00     0.237 C 
HETATM    9  C5  UNL     1      -0.108  -0.943   0.940  1.00  0.00     0.271 C 
HETATM   10  C6  UNL     1      -0.145  -0.788  -1.068  1.00  0.00     0.271 C 
ENDROOT
TORSDOF 0
