REMARK  3 active torsions:
REMARK  status: ('A' for Active; 'I' for Inactive)
REMARK    1  A    between atoms: C2_2  and  C3_3 
REMARK    2  A    between atoms: C4_4  and  C5_5 
REMARK    3  A    between atoms: C5_5  and  N1_6 
ROOT
HETATM    1  C3  UNL     1       1.567   0.109  -0.022  1.00  0.00    -0.078 C 
HETATM    2  C4  UNL     1       0.426   0.496   0.099  1.00  0.00    -0.072 C 
ENDROOT
BRANCH   2   3
HETATM    3  C5  UNL     1      -0.948   0.985   0.250  1.00  0.00     0.366 C 
BRANCH   3   4
HETATM    4  N1  UNL     1      -1.802  -0.189   0.238  1.00  0.00     0.102 N 
HETATM    5  C6  UNL     1      -1.624  -1.012  -0.963  1.00  0.00     0.303 A 
HETATM    6  C7  UNL     1      -2.864  -0.258  -0.740  1.00  0.00     0.303 A 
ENDBRANCH   3   4
ENDBRANCH   2   3
BRANCH   1   7
HETATM    7  C2  UNL     1       2.929  -0.329  -0.171  1.00  0.00     0.054 C 
HETATM    8  C1  UNL     1       3.964   0.431   0.111  1.00  0.00     0.020 C 
ENDBRANCH   1   7
TORSDOF 3
