REMARK  3 active torsions:
REMARK  status: ('A' for Active; 'I' for Inactive)
REMARK    1  A    between atoms: N1_2  and  C2_4 
REMARK    2  A    between atoms: C2_4  and  N2_6 
REMARK       I    between atoms: N3_9  and  C5_10 
REMARK       I    between atoms: C5_10  and  N4_12 
REMARK    3  A    between atoms: N4_12  and  N5_14 
ROOT
HETATM    1  N2  UNL     1       2.745  -0.313   0.042  1.00  0.00    -0.338 N 
HETATM    2  C3  UNL     1       2.178  -1.678   0.214  1.00  0.00     0.147 C 
HETATM    3  C4  UNL     1       0.766  -1.826  -0.157  1.00  0.00     0.147 C 
HETATM    4  N3  UNL     1      -0.060  -0.687   0.094  1.00  0.00    -0.328 N 
HETATM    5  C5  UNL     1      -1.442  -0.703  -0.160  1.00  0.00     0.342 C 
HETATM    6  O1  UNL     1      -1.886  -1.824  -0.637  1.00  0.00    -0.245 OA
HETATM    7  N4  UNL     1      -2.340   0.321   0.041  1.00  0.00    -0.168 N 
ATOM      8  H4  UNL     1      -1.958   1.187   0.421  1.00  0.00     0.198 HD
HETATM    9  C9  UNL     1       0.582   0.487   0.610  1.00  0.00     0.169 C 
HETATM   10  C10 UNL     1       1.798   0.661  -0.355  1.00  0.00     0.201 C 
HETATM   11 CL1  UNL     1       2.234   2.324  -0.493  1.00  0.00    -0.101 Cl
ENDROOT
BRANCH   7  12
HETATM   12  N5  UNL     1      -3.687   0.312  -0.210  1.00  0.00     0.004 N 
HETATM   13  C6  UNL     1      -4.229  -0.994  -0.416  1.00  0.00     0.301 C 
HETATM   14  C7  UNL     1      -4.029   1.169  -1.356  1.00  0.00     0.301 C 
HETATM   15  C8  UNL     1      -4.444   0.871   0.926  1.00  0.00     0.301 C 
ENDBRANCH   7  12
BRANCH   1  16
HETATM   16  C2  UNL     1       4.109  -0.174   0.277  1.00  0.00     0.170 C 
HETATM   17  S1  UNL     1       4.946  -1.567   0.721  1.00  0.00    -0.041 SA
BRANCH  16  18
HETATM   18  N1  UNL     1       4.882   0.999   0.184  1.00  0.00    -0.371 N 
HETATM   19  C1  UNL     1       6.325   0.921   0.483  1.00  0.00     0.148 C 
ATOM     20  H1  UNL     1       4.453   1.885  -0.085  1.00  0.00     0.161 HD
ENDBRANCH  16  18
ENDBRANCH   1  16
TORSDOF 3
