REMARK  1 active torsions:
REMARK  status: ('A' for Active; 'I' for Inactive)
REMARK    1  A    between atoms: N1_2  and  C2_3 
ROOT
HETATM    1  C1  UNL     1       0.531  -1.806   0.472  1.00  0.00     0.275 C 
HETATM    2  N1  UNL     1       0.370  -0.368   0.184  1.00  0.00    -0.039 N 
HETATM    3  C6  UNL     1       1.055  -0.119  -1.047  1.00  0.00     0.267 C 
HETATM    4  C7  UNL     1       2.528  -0.309  -0.934  1.00  0.00     0.260 C 
HETATM    5  N3  UNL     1       3.125   0.357   0.191  1.00  0.00    -0.072 N 
ATOM      6  H31 UNL     1       3.871   0.980  -0.117  1.00  0.00     0.277 HD
ATOM      7  H32 UNL     1       3.669  -0.301   0.749  1.00  0.00     0.277 HD
HETATM    8  C8  UNL     1       2.197   1.058   1.012  1.00  0.00     0.260 C 
HETATM    9  C9  UNL     1       0.935   0.328   1.314  1.00  0.00     0.267 C 
ENDROOT
BRANCH   2  10
HETATM   10  C2  UNL     1      -1.023  -0.125   0.136  1.00  0.00     0.387 C 
HETATM   11  C3  UNL     1      -1.451   1.243  -0.232  1.00  0.00     0.065 C 
HETATM   12  C4  UNL     1      -2.920   1.021  -0.620  1.00  0.00     0.031 C 
HETATM   13  C5  UNL     1      -3.124  -0.486  -0.491  1.00  0.00     0.235 C 
HETATM   14  N2  UNL     1      -1.758  -0.960  -0.779  1.00  0.00    -0.046 N 
ATOM     15  H22 UNL     1      -1.466  -0.921  -1.756  1.00  0.00     0.279 HD
ATOM     16  H21 UNL     1      -1.604  -1.965  -0.693  1.00  0.00     0.279 HD
ENDBRANCH   2  10
TORSDOF 1
