REMARK  1 active torsions:
REMARK  status: ('A' for Active; 'I' for Inactive)
REMARK    1  A    between atoms: N1_3  and  C3_5 
ROOT
HETATM    1  C1  UNL     1       3.595   1.498  -1.053  1.00  0.00     0.037 C 
HETATM    2  C2  UNL     1       2.716   0.667  -0.996  1.00  0.00    -0.005 C 
HETATM    3  N1  UNL     1       1.711  -0.306  -0.912  1.00  0.00    -0.345 N 
ATOM      4  H1  UNL     1       1.473  -0.876  -1.724  1.00  0.00     0.170 HD
ENDROOT
BRANCH   3   5
HETATM    5  C3  UNL     1       1.022  -0.489   0.333  1.00  0.00     0.104 C 
HETATM    6  C4  UNL     1      -0.025  -1.551   0.302  1.00  0.00     0.048 C 
HETATM    7  C5  UNL     1      -0.934  -1.468  -0.894  1.00  0.00     0.062 C 
HETATM    8  C9  UNL     1      -0.872  -1.210   1.512  1.00  0.00     0.017 C 
HETATM    9  N2  UNL     1      -1.003  -0.240  -1.529  1.00  0.00    -0.396 N 
HETATM   10  C6  UNL     1      -1.354   0.924  -0.874  1.00  0.00     0.090 A 
ATOM     11  H2  UNL     1      -0.785  -0.193  -2.524  1.00  0.00     0.159 HD
HETATM   12  C7  UNL     1      -1.676   0.958   0.517  1.00  0.00     0.019 A 
HETATM   13  C11 UNL     1      -0.349   1.590  -0.032  1.00  0.00     0.021 A 
HETATM   14  C8  UNL     1      -0.860   0.273   1.512  1.00  0.00    -0.001 C 
HETATM   15  C10 UNL     1       0.422   0.748   0.893  1.00  0.00     0.021 C 
ENDBRANCH   3   5
TORSDOF 1
