REMARK  6 active torsions:
REMARK  status: ('A' for Active; 'I' for Inactive)
REMARK    1  A    between atoms: C2_2  and  O1_3 
REMARK    2  A    between atoms: C2_2  and  C3_5 
REMARK    3  A    between atoms: C4_6  and  C5_7 
REMARK    4  A    between atoms: C6_8  and  C7_9 
REMARK    5  A    between atoms: C7_9  and  C8_10 
REMARK    6  A    between atoms: C8_10  and  O2_11 
ROOT
HETATM    1  C5  UNL     1       0.350  -0.398   0.389  1.00  0.00    -0.014 C 
HETATM    2  C6  UNL     1      -0.851  -0.497   0.329  1.00  0.00    -0.080 C 
ENDROOT
BRANCH   2   3
HETATM    3  C7  UNL     1      -2.301  -0.629   0.236  1.00  0.00     0.049 A 
HETATM    4  C9  UNL     1      -3.174   0.073   1.254  1.00  0.00     0.031 A 
HETATM    5  C10 UNL     1      -3.131   0.500  -0.184  1.00  0.00     0.006 A 
HETATM    6  C11 UNL     1      -2.566   1.856  -0.506  1.00  0.00     0.012 C 
BRANCH   3   7
HETATM    7  C8  UNL     1      -2.759  -2.003  -0.269  1.00  0.00     0.186 C 
BRANCH   7   8
HETATM    8  O2  UNL     1      -2.202  -2.157  -1.539  1.00  0.00    -0.399 OA
ATOM      9  H2  UNL     1      -2.486  -3.008  -1.852  1.00  0.00     0.209 HD
ENDBRANCH   7   8
ENDBRANCH   3   7
ENDBRANCH   2   3
BRANCH   1  10
HETATM   10  C4  UNL     1       1.759  -0.277   0.435  1.00  0.00    -0.012 C 
HETATM   11  C3  UNL     1       2.963  -0.173   0.454  1.00  0.00    -0.061 C 
BRANCH  11  12
HETATM   12  C2  UNL     1       4.438  -0.049   0.454  1.00  0.00     0.193 C 
HETATM   13  C1  UNL     1       4.802   0.458  -0.944  1.00  0.00     0.053 C 
BRANCH  12  14
HETATM   14  O1  UNL     1       4.818   0.904   1.373  1.00  0.00    -0.384 OA
ATOM     15  H1  UNL     1       4.592   0.589   2.240  1.00  0.00     0.211 HD
ENDBRANCH  12  14
ENDBRANCH  11  12
ENDBRANCH   1  10
TORSDOF 6
