REMARK  4 active torsions:
REMARK  status: ('A' for Active; 'I' for Inactive)
REMARK    1  A    between atoms: C4_6  and  C5_7 
REMARK    2  A    between atoms: C6_8  and  C7_9 
REMARK    3  A    between atoms: C7_9  and  C8_10 
REMARK    4  A    between atoms: C8_10  and  O2_11 
ROOT
HETATM    1  O1  UNL     1      -2.941   1.163  -1.835  1.00  0.00    -0.062 OA
HETATM    2  N1  UNL     1      -2.540   0.409  -0.804  1.00  0.00     0.045 N 
HETATM    3  C1  UNL     1      -3.119   0.786   0.490  1.00  0.00     0.317 C 
HETATM    4  C2  UNL     1      -1.765   0.467   1.102  1.00  0.00     0.082 C 
HETATM    5  C3  UNL     1      -1.230   0.796  -0.255  1.00  0.00     0.301 C 
HETATM    6  C4  UNL     1      -0.342  -0.253  -0.887  1.00  0.00     0.306 C 
HETATM    7  N2  UNL     1      -1.127  -1.440  -0.780  1.00  0.00    -0.026 N 
ATOM      8  H21 UNL     1      -1.016  -1.936   0.104  1.00  0.00     0.281 HD
ATOM      9  H22 UNL     1      -0.812  -2.205  -1.377  1.00  0.00     0.281 HD
HETATM   10  C9  UNL     1      -2.475  -0.999  -1.046  1.00  0.00     0.544 C 
ENDROOT
BRANCH   6  11
HETATM   11  C5  UNL     1       0.914  -0.429  -0.175  1.00  0.00    -0.070 C 
HETATM   12  C6  UNL     1       1.967  -0.570   0.398  1.00  0.00    -0.102 C 
BRANCH  12  13
HETATM   13  C7  UNL     1       3.255  -0.742   1.071  1.00  0.00     0.119 C 
BRANCH  13  14
HETATM   14  C8  UNL     1       4.322   0.141   0.409  1.00  0.00     0.176 C 
BRANCH  14  15
HETATM   15  O2  UNL     1       3.860   1.471   0.540  1.00  0.00    -0.400 OA
ATOM     16  H2  UNL     1       4.520   2.017   0.130  1.00  0.00     0.209 HD
ENDBRANCH  14  15
ENDBRANCH  13  14
ENDBRANCH  12  13
ENDBRANCH   6  11
TORSDOF 4
