REMARK  2 active torsions:
REMARK  status: ('A' for Active; 'I' for Inactive)
REMARK    1  A    between atoms: C10_10  and  O1_11 
REMARK    2  A    between atoms: C11_13  and  O2_14 
ROOT
HETATM    1  C1  UNL     1       2.617   1.311  -0.453  1.00  0.00     0.017 C 
HETATM    2  C2  UNL     1       1.479   0.427  -0.072  1.00  0.00    -0.019 A 
HETATM    3  C3  UNL     1       1.220   0.065   1.314  1.00  0.00     0.008 A 
HETATM    4  C4  UNL     1       0.448  -1.258   1.331  1.00  0.00     0.012 C 
HETATM    5  C5  UNL     1       0.150  -1.548  -0.087  1.00  0.00     0.003 C 
HETATM    6  C6  UNL     1      -1.194  -1.255  -0.641  1.00  0.00     0.023 C 
HETATM    7  C7  UNL     1      -0.486  -0.381  -1.698  1.00  0.00     0.019 C 
HETATM    8  C8  UNL     1       0.612  -0.305  -0.825  1.00  0.00    -0.016 A 
HETATM    9  C9  UNL     1       0.256   0.770   0.280  1.00  0.00     0.010 A 
HETATM   10  C10 UNL     1      -1.082   0.795   0.685  1.00  0.00     0.157 C 
HETATM   11  C11 UNL     1      -2.015  -0.286   0.150  1.00  0.00     0.152 C 
ENDROOT
BRANCH  10  12
HETATM   12  O1  UNL     1      -1.661   2.068   0.427  1.00  0.00    -0.392 OA
ATOM     13  H1  UNL     1      -2.570   2.085   0.702  1.00  0.00     0.210 HD
ENDBRANCH  10  12
BRANCH  11  14
HETATM   14  O2  UNL     1      -2.887   0.341  -0.771  1.00  0.00    -0.393 OA
ATOM     15  H2  UNL     1      -3.408   0.956  -0.269  1.00  0.00     0.210 HD
ENDBRANCH  11  14
TORSDOF 2
