REMARK  3 active torsions:
REMARK  status: ('A' for Active; 'I' for Inactive)
REMARK    1  A    between atoms: C3_6  and  C4_7 
REMARK    2  A    between atoms: C4_7  and  C5_8 
REMARK    3  A    between atoms: C5_8  and  O1_9 
ROOT
HETATM    1  C1  UNL     1      -0.675   2.513   0.917  1.00  0.00     0.040 C 
HETATM    2  C2  UNL     1      -0.861   1.032   0.791  1.00  0.00     0.189 A 
HETATM    3  N1  UNL     1       0.150   0.197   1.365  1.00  0.00    -0.061 N 
ATOM      4  H11 UNL     1      -0.110  -0.414   2.139  1.00  0.00     0.278 HD
ATOM      5  H12 UNL     1       0.887   0.639   1.915  1.00  0.00     0.278 HD
HETATM    6  C3  UNL     1       0.517  -0.425   0.073  1.00  0.00     0.133 A 
HETATM    7  C6  UNL     1       0.201  -1.895   0.135  1.00  0.00     0.039 C 
HETATM    8  C7  UNL     1      -1.133  -2.354  -0.227  1.00  0.00     0.002 C 
HETATM    9  C8  UNL     1      -2.203  -1.321  -0.353  1.00  0.00     0.001 C 
HETATM   10  C9  UNL     1      -1.671  -0.205  -1.174  1.00  0.00     0.009 C 
HETATM   11  C10 UNL     1      -0.453   0.443  -0.569  1.00  0.00     0.052 A 
ENDROOT
BRANCH   6  12
HETATM   12  C4  UNL     1       1.980  -0.285  -0.127  1.00  0.00     0.065 C 
BRANCH  12  13
HETATM   13  C5  UNL     1       2.625   1.013  -0.180  1.00  0.00     0.166 C 
BRANCH  13  14
HETATM   14  O1  UNL     1       2.223   1.872  -1.192  1.00  0.00    -0.401 OA
ATOM     15  H1  UNL     1       2.645   2.722  -1.227  1.00  0.00     0.209 HD
ENDBRANCH  13  14
ENDBRANCH  12  13
ENDBRANCH   6  12
TORSDOF 3
