REMARK  3 active torsions:
REMARK  status: ('A' for Active; 'I' for Inactive)
REMARK    1  A    between atoms: O1_1  and  C1_3 
REMARK    2  A    between atoms: C1_3  and  C2_4 
REMARK    3  A    between atoms: C9_12  and  O2_13 
ROOT
HETATM    1  C2  UNL     1      -1.652   0.041  -0.781  1.00  0.00     0.066 C 
HETATM    2  C3  UNL     1      -0.544   0.977  -0.422  1.00  0.00     0.246 C 
HETATM    3  N1  UNL     1       0.557   0.172   0.061  1.00  0.00    -0.064 N 
HETATM    4  C4  UNL     1       1.373   0.997   0.903  1.00  0.00     0.237 C 
HETATM    5  C5  UNL     1       2.669   0.245   0.977  1.00  0.00     0.029 C 
HETATM    6  C6  UNL     1       2.842  -0.199  -0.477  1.00  0.00     0.029 C 
HETATM    7  C7  UNL     1       1.408  -0.329  -0.965  1.00  0.00     0.237 C 
HETATM    8  C8  UNL     1      -0.125  -0.885   0.762  1.00  0.00     0.269 C 
HETATM    9  C9  UNL     1      -1.166  -1.303  -0.278  1.00  0.00     0.152 C 
ENDROOT
BRANCH   1  10
HETATM   10  C1  UNL     1      -2.916   0.364   0.006  1.00  0.00     0.173 C 
BRANCH  10  11
HETATM   11  O1  UNL     1      -3.270   1.667  -0.316  1.00  0.00    -0.400 OA
ATOM     12  H1  UNL     1      -4.058   1.868   0.175  1.00  0.00     0.209 HD
ENDBRANCH  10  11
ENDBRANCH   1  10
BRANCH   9  13
HETATM   13  O2  UNL     1      -2.185  -2.045   0.267  1.00  0.00    -0.393 OA
ATOM     14  H2  UNL     1      -1.880  -2.888   0.582  1.00  0.00     0.210 HD
ENDBRANCH   9  13
TORSDOF 3
