REMARK  4 active torsions:
REMARK  status: ('A' for Active; 'I' for Inactive)
REMARK    1  A    between atoms: C3_3  and  C4_4 
REMARK    2  A    between atoms: C5_5  and  N1_6 
REMARK       I    between atoms: N1_6  and  C6_8 
REMARK       I    between atoms: C6_8  and  N2_10 
REMARK    3  A    between atoms: N3_13  and  C9_14 
REMARK    4  A    between atoms: C9_14  and  C10_18 
ROOT
HETATM    1  C1  UNL     1       8.410   0.848  -0.350  1.00  0.00     0.113 C 
HETATM    2  C2  UNL     1       6.979   0.509  -0.355  1.00  0.00    -0.097 C 
HETATM    3  C3  UNL     1       5.802   0.250  -0.351  1.00  0.00    -0.014 C 
ENDROOT
BRANCH   3   4
HETATM    4  C4  UNL     1       4.410  -0.040  -0.326  1.00  0.00     0.008 C 
HETATM    5  C5  UNL     1       3.221  -0.281  -0.285  1.00  0.00     0.028 C 
BRANCH   5   6
HETATM    6  N1  UNL     1       1.841  -0.547  -0.218  1.00  0.00    -0.267 N 
HETATM    7  C6  UNL     1       0.997   0.338   0.508  1.00  0.00     0.330 C 
HETATM    8  O1  UNL     1       1.479   1.356   1.090  1.00  0.00    -0.246 OA
HETATM    9  N2  UNL     1      -0.387   0.058   0.567  1.00  0.00    -0.330 N 
HETATM   10  C7  UNL     1      -0.868  -1.119  -0.115  1.00  0.00     0.147 C 
HETATM   11  C12 UNL     1      -1.234   0.963   1.302  1.00  0.00     0.147 C 
HETATM   12  C8  UNL     1      -2.329  -1.406   0.113  1.00  0.00     0.144 C 
HETATM   13  N3  UNL     1      -3.038  -0.149   0.064  1.00  0.00    -0.367 N 
HETATM   14  C11 UNL     1      -2.639   1.026   0.780  1.00  0.00     0.144 C 
ATOM     15  H1  UNL     1       1.450  -1.365  -0.685  1.00  0.00     0.181 HD
BRANCH  13  16
HETATM   16  C9  UNL     1      -4.202  -0.076  -0.743  1.00  0.00     0.083 C 
HETATM   17  N4  UNL     1      -4.149   0.576  -1.831  1.00  0.00    -0.388 N 
ATOM     18  H42 UNL     1      -3.313   1.055  -2.166  1.00  0.00     0.157 HD
ATOM     19  H41 UNL     1      -4.986   0.629  -2.411  1.00  0.00     0.157 HD
BRANCH  16  20
HETATM   20  C10 UNL     1      -5.418  -0.773  -0.256  1.00  0.00     0.161 C 
HETATM   21 BR1  UNL     1      -5.920  -0.032   1.453  1.00  0.00    -0.088 Br
ENDBRANCH  16  20
ENDBRANCH  13  16
ENDBRANCH   5   6
ENDBRANCH   3   4
TORSDOF 4
