REMARK  2 active torsions:
REMARK  status: ('A' for Active; 'I' for Inactive)
REMARK       I    between atoms: C2_2  and  N1_4 
REMARK       I    between atoms: C3_6  and  N2_7 
REMARK       I    between atoms: C3_6  and  N3_13 
REMARK    1  A    between atoms: N2_7  and  C4_9 
REMARK    2  A    between atoms: C9_16  and  N4_17 
ROOT
HETATM    1  C1  UNL     1       3.650   2.898  -1.881  1.00  0.00     0.118 C 
HETATM    2  C2  UNL     1       3.256   1.466  -2.044  1.00  0.00     0.231 C 
HETATM    3  O1  UNL     1       4.167   0.668  -2.361  1.00  0.00    -0.273 OA
HETATM    4  N1  UNL     1       1.915   1.116  -1.834  1.00  0.00    -0.160 N 
ATOM      5  H1  UNL     1       1.199   1.731  -2.220  1.00  0.00     0.187 HD
HETATM    6  C3  UNL     1       1.526   0.079  -1.192  1.00  0.00     0.680 C 
HETATM    7  N2  UNL     1       2.500  -0.797  -0.642  1.00  0.00    -0.204 N 
ATOM      8  H2  UNL     1       2.961  -1.459  -1.266  1.00  0.00     0.179 HD
HETATM    9  N3  UNL     1       0.166  -0.252  -0.995  1.00  0.00    -0.216 N 
HETATM   10  C7  UNL     1      -0.365  -1.562  -1.402  1.00  0.00     0.143 C 
HETATM   11  C8  UNL     1      -1.874  -1.435  -1.154  1.00  0.00     0.055 C 
HETATM   12  C9  UNL     1      -1.859  -0.504   0.040  1.00  0.00     0.210 C 
HETATM   13  C14 UNL     1      -0.899   0.551  -0.405  1.00  0.00     0.174 C 
ENDROOT
BRANCH   7  14
HETATM   14  C4  UNL     1       2.870  -0.799   0.748  1.00  0.00     0.117 C 
HETATM   15  C5  UNL     1       3.427   0.532   1.210  1.00  0.00     0.056 C 
HETATM   16  C6  UNL     1       4.013  -1.809   0.916  1.00  0.00     0.056 C 
HETATM   17 CL1  UNL     1       1.578  -1.293   1.831  1.00  0.00    -0.096 Cl
ENDBRANCH   7  14
BRANCH  12  18
HETATM   18  N4  UNL     1      -3.159  -0.018   0.382  1.00  0.00    -0.065 N 
HETATM   19  C10 UNL     1      -4.050   0.257  -0.715  1.00  0.00     0.273 C 
HETATM   20  C11 UNL     1      -3.085   0.996   1.407  1.00  0.00     0.239 C 
HETATM   21  C12 UNL     1      -4.191   0.298   2.206  1.00  0.00     0.056 C 
HETATM   22  C13 UNL     1      -3.791  -0.889   1.361  1.00  0.00     0.239 C 
ENDBRANCH  12  18
TORSDOF 2
