REMARK  2 active torsions:
REMARK  status: ('A' for Active; 'I' for Inactive)
REMARK    1  A    between atoms: O1_1  and  C1_3 
REMARK    2  A    between atoms: C4_6  and  N1_7 
ROOT
HETATM    1  C1  UNL     1      -2.978  -0.459  -0.159  1.00  0.00     0.144 C 
HETATM    2  C2  UNL     1      -2.372   0.853  -0.434  1.00  0.00     0.037 C 
HETATM    3  C3  UNL     1      -0.922   0.997  -0.229  1.00  0.00     0.068 C 
HETATM    4  C4  UNL     1      -0.125  -0.268  -0.146  1.00  0.00     0.419 C 
HETATM    5  N2  UNL     1      -0.827  -1.144   0.810  1.00  0.00    -0.041 N 
ATOM      6  H21 UNL     1      -0.981  -0.705   1.717  1.00  0.00     0.279 HD
ATOM      7  H22 UNL     1      -0.253  -1.921   1.138  1.00  0.00     0.279 HD
HETATM    8  C9  UNL     1      -2.033  -1.566   0.180  1.00  0.00     0.266 C 
ENDROOT
BRANCH   4   9
HETATM    9  N1  UNL     1       1.143   0.023   0.456  1.00  0.00     0.119 N 
HETATM   10  C5  UNL     1       2.105  -1.037   0.388  1.00  0.00     0.275 C 
HETATM   11  C6  UNL     1       3.280  -0.462  -0.420  1.00  0.00     0.032 C 
HETATM   12  C7  UNL     1       3.274   0.971   0.132  1.00  0.00     0.032 C 
HETATM   13  C8  UNL     1       1.762   1.245   0.073  1.00  0.00     0.275 C 
ENDBRANCH   4   9
BRANCH   1  14
HETATM   14  O1  UNL     1      -3.928  -0.399   0.891  1.00  0.00    -0.394 OA
ATOM     15  H1  UNL     1      -4.319  -1.246   1.069  1.00  0.00     0.210 HD
ENDBRANCH   1  14
TORSDOF 2
