REMARK  2 active torsions:
REMARK  status: ('A' for Active; 'I' for Inactive)
REMARK    1  A    between atoms: C7_8  and  O1_9 
REMARK    2  A    between atoms: C8_11  and  O2_12 
ROOT
HETATM    1  C1  UNL     1       0.148   1.456   1.386  1.00  0.00     0.273 C 
HETATM    2  N1  UNL     1       0.112   0.631   0.211  1.00  0.00    -0.062 N 
HETATM    3  C2  UNL     1      -0.897   1.169  -0.682  1.00  0.00     0.237 C 
HETATM    4  C3  UNL     1      -2.299   0.853  -0.220  1.00  0.00     0.028 C 
HETATM    5  C4  UNL     1      -2.468  -0.644  -0.302  1.00  0.00     0.004 C 
HETATM    6  C5  UNL     1      -1.187  -1.399  -0.289  1.00  0.00     0.036 C 
HETATM    7  C6  UNL     1      -0.076  -0.755   0.460  1.00  0.00     0.221 C 
HETATM    8  C7  UNL     1       1.214  -1.473   0.092  1.00  0.00     0.179 C 
HETATM    9  C8  UNL     1       2.236  -0.342   0.060  1.00  0.00     0.175 C 
HETATM   10  C9  UNL     1       1.392   0.778  -0.493  1.00  0.00     0.271 C 
ENDROOT
BRANCH   8  11
HETATM   11  O1  UNL     1       1.134  -1.940  -1.240  1.00  0.00    -0.391 OA
ATOM     12  H1  UNL     1       1.939  -2.388  -1.470  1.00  0.00     0.210 HD
ENDBRANCH   8  11
BRANCH   9  13
HETATM   13  O2  UNL     1       2.766  -0.074   1.299  1.00  0.00    -0.391 OA
ATOM     14  H2  UNL     1       3.403   0.631   1.279  1.00  0.00     0.210 HD
ENDBRANCH   9  13
TORSDOF 2
