REMARK  1 active torsions:
REMARK  status: ('A' for Active; 'I' for Inactive)
REMARK    1  A    between atoms: C2_2  and  C4_4 
ROOT
HETATM    1  C4  UNL     1      -0.188  -0.382   0.523  1.00  0.00     0.111 C 
HETATM    2  C5  UNL     1       0.433   0.279  -0.643  1.00  0.00     0.134 C 
HETATM    3  N1  UNL     1       1.806   0.551  -0.387  1.00  0.00    -0.196 NA
HETATM    4  C6  UNL     1       2.739  -0.194  -1.160  1.00  0.00     0.131 C 
HETATM    5  S1  UNL     1       1.999   0.335   1.319  1.00  0.00     0.298 S 
HETATM    6  O1  UNL     1       2.706  -0.939   1.642  1.00  0.00    -0.188 OA
HETATM    7  O2  UNL     1       2.624   1.532   1.941  1.00  0.00    -0.188 OA
HETATM    8  N2  UNL     1       0.299   0.220   1.732  1.00  0.00    -0.300 N 
ATOM      9  H2  UNL     1      -0.197   0.498   2.579  1.00  0.00     0.173 HD
ENDROOT
BRANCH   1  10
HETATM   10  C2  UNL     1      -1.691  -0.329   0.400  1.00  0.00     0.002 C 
HETATM   11  C1  UNL     1      -2.222   1.072   0.338  1.00  0.00     0.011 C 
HETATM   12  C3  UNL     1      -2.067  -1.104  -0.848  1.00  0.00     0.011 C 
ENDBRANCH   1  10
TORSDOF 1
