REMARK  11 active torsions:
REMARK  status: ('A' for Active; 'I' for Inactive)
REMARK    1  A    between atoms: C2_2  and  N1_3 
REMARK       I    between atoms: N1_3  and  C3_5 
REMARK    2  A    between atoms: C3_5  and  C4_7 
REMARK    3  A    between atoms: C4_7  and  C5_8 
REMARK    4  A    between atoms: C8_11  and  C9_12 
REMARK       I    between atoms: C9_12  and  N2_14 
REMARK    5  A    between atoms: C21_29  and  C22_30 
REMARK    6  A    between atoms: C22_30  and  C23_31 
REMARK    7  A    between atoms: C22_30  and  N5_34 
REMARK    8  A    between atoms: C28_37  and  C29_38 
REMARK    9  A    between atoms: C29_38  and  C30_39 
REMARK   10  A    between atoms: C30_39  and  C31_40 
REMARK   11  A    between atoms: C31_40  and  N6_41 
ROOT
HETATM    1  C9  UNL     1       1.510  -0.353   0.158  1.00  0.00     0.247 C 
HETATM    2  O2  UNL     1       0.783   0.238   1.001  1.00  0.00    -0.271 OA
HETATM    3  N2  UNL     1       0.903  -1.396  -0.542  1.00  0.00    -0.312 N 
HETATM    4  C10 UNL     1       2.037  -2.044  -1.376  1.00  0.00     0.167 C 
HETATM    5  C11 UNL     1       2.123  -3.366  -0.871  1.00  0.00    -0.048 C 
HETATM    6  C12 UNL     1       1.211  -4.251  -1.646  1.00  0.00     0.056 C 
HETATM    7  C13 UNL     1      -0.008  -4.696  -0.886  1.00  0.00     0.126 C 
HETATM    8  N3  UNL     1       0.088  -4.095   0.400  1.00  0.00    -0.387 N 
HETATM    9  C14 UNL     1       0.631  -4.847   1.431  1.00  0.00     0.064 C 
HETATM   10  C15 UNL     1       1.720  -5.827   1.212  1.00  0.00     0.102 C 
HETATM   11  C16 UNL     1       2.957  -5.294   0.507  1.00  0.00     0.024 A 
HETATM   12  N4  UNL     1       4.147  -5.867   0.695  1.00  0.00    -0.368 N 
ATOM     13  H4  UNL     1       4.321  -6.670   1.300  1.00  0.00     0.165 HD
HETATM   14  C17 UNL     1       5.081  -5.232  -0.028  1.00  0.00     0.089 A 
HETATM   15  C18 UNL     1       4.476  -4.205  -0.712  1.00  0.00     0.030 A 
HETATM   16  C19 UNL     1       3.176  -4.232  -0.394  1.00  0.00    -0.008 A 
HETATM   17  C20 UNL     1      -0.692  -2.934   0.619  1.00  0.00     0.181 C 
HETATM   18  C21 UNL     1      -0.436  -1.782  -0.428  1.00  0.00     0.055 C 
ENDROOT
BRANCH  18  19
HETATM   19  C22 UNL     1      -1.688  -1.114  -0.790  1.00  0.00     0.039 C 
BRANCH  19  20
HETATM   20  C23 UNL     1      -1.755  -0.794  -2.318  1.00  0.00     0.029 C 
HETATM   21  C24 UNL     1      -3.094  -0.191  -2.666  1.00  0.00     0.016 C 
HETATM   22  C25 UNL     1      -0.624   0.022  -2.836  1.00  0.00     0.016 C 
ENDBRANCH  19  20
BRANCH  19  23
HETATM   23  N5  UNL     1      -2.477  -0.281  -0.048  1.00  0.00    -0.362 N 
HETATM   24  C26 UNL     1      -2.291   0.982   0.438  1.00  0.00     0.064 C 
HETATM   25  C27 UNL     1      -3.483   1.888   0.589  1.00  0.00     0.049 C 
HETATM   26  C28 UNL     1      -4.803   1.254   0.677  1.00  0.00    -0.008 C 
HETATM   27  C33 UNL     1      -4.872  -0.213   0.476  1.00  0.00     0.025 C 
HETATM   28  C34 UNL     1      -3.555  -0.833   0.743  1.00  0.00     0.128 C 
BRANCH  26  29
HETATM   29  C29 UNL     1      -5.799   1.852  -0.333  1.00  0.00     0.006 C 
BRANCH  29  30
HETATM   30  C30 UNL     1      -6.004   3.326  -0.128  1.00  0.00     0.020 C 
BRANCH  30  31
HETATM   31  C31 UNL     1      -6.539   3.671   1.244  1.00  0.00     0.122 C 
BRANCH  31  32
HETATM   32  N6  UNL     1      -7.795   3.064   1.554  1.00  0.00    -0.367 N 
HETATM   33  C32 UNL     1      -8.926   3.298   0.994  1.00  0.00     0.196 C 
HETATM   34  N7  UNL     1      -9.115   4.223  -0.055  1.00  0.00    -0.067 NA
HETATM   35  N8  UNL     1     -10.090   2.579   1.450  1.00  0.00    -0.067 NA
ATOM     36  H6  UNL     1      -7.792   2.370   2.301  1.00  0.00     0.161 HD
ENDBRANCH  31  32
ENDBRANCH  30  31
ENDBRANCH  29  30
ENDBRANCH  26  29
ENDBRANCH  19  23
ENDBRANCH  18  19
BRANCH   1  37
HETATM   37  C8  UNL     1       2.866   0.213   0.099  1.00  0.00     0.177 C 
HETATM   38  C7  UNL     1       3.902  -0.477   0.942  1.00  0.00     0.036 C 
HETATM   39  C6  UNL     1       5.158   0.373   0.943  1.00  0.00     0.017 C 
HETATM   40  C5  UNL     1       4.988   1.464   1.940  1.00  0.00     0.086 C 
HETATM   41  C35 UNL     1       3.577   1.929   1.844  1.00  0.00     0.223 C 
HETATM   42  N9  UNL     1       2.775   1.552   0.781  1.00  0.00    -0.347 N 
HETATM   43  O3  UNL     1       3.148   2.671   2.756  1.00  0.00    -0.273 OA
ATOM     44  H9  UNL     1       2.083   2.219   0.440  1.00  0.00     0.163 HD
BRANCH  40  45
HETATM   45  C4  UNL     1       5.965   2.579   1.884  1.00  0.00     0.117 C 
BRANCH  45  46
HETATM   46  C3  UNL     1       6.017   3.339   0.636  1.00  0.00     0.218 C 
HETATM   47  N1  UNL     1       6.894   4.453   0.544  1.00  0.00    -0.361 N 
ATOM     48  H1  UNL     1       7.472   4.704   1.346  1.00  0.00     0.162 HD
HETATM   49  O1  UNL     1       5.322   3.070  -0.387  1.00  0.00    -0.274 OA
BRANCH  47  50
HETATM   50  C2  UNL     1       6.982   5.243  -0.676  1.00  0.00     0.118 C 
HETATM   51  C1  UNL     1       7.979   6.352  -0.471  1.00  0.00     0.026 C 
ENDBRANCH  47  50
ENDBRANCH  45  46
ENDBRANCH  40  45
ENDBRANCH   1  37
TORSDOF 11
