REMARK  13 active torsions:
REMARK  status: ('A' for Active; 'I' for Inactive)
REMARK    1  A    between atoms: C2_2  and  C3_3 
REMARK    2  A    between atoms: C3_3  and  C4_4 
REMARK    3  A    between atoms: C4_4  and  C5_5 
REMARK    4  A    between atoms: C5_5  and  C6_6 
REMARK    5  A    between atoms: C6_6  and  C7_7 
REMARK    6  A    between atoms: C8_10  and  O1_11 
REMARK    7  A    between atoms: C19_27  and  C20_28 
REMARK    8  A    between atoms: C20_28  and  C21_29 
REMARK    9  A    between atoms: N5_37  and  C26_38 
REMARK   10  A    between atoms: C26_38  and  C27_39 
REMARK   11  A    between atoms: C28_42  and  O6_43 
REMARK   12  A    between atoms: C29_45  and  C30_46 
REMARK   13  A    between atoms: C30_46  and  C31_47 
ROOT
HETATM    1  C7  UNL     1      -2.878   0.715  -0.440  1.00  0.00     0.175 C 
HETATM    2  N1  UNL     1      -1.844  -0.272  -0.363  1.00  0.00    -0.360 N 
ATOM      3  H1  UNL     1      -1.590  -0.527   0.591  1.00  0.00     0.162 HD
HETATM    4  C8  UNL     1      -1.118  -0.951  -1.335  1.00  0.00     0.139 C 
HETATM    5  C9  UNL     1      -1.466  -2.116  -2.163  1.00  0.00     0.325 C 
HETATM    6  N2  UNL     1      -0.669  -3.279  -1.799  1.00  0.00    -0.044 N 
HETATM    7  C10 UNL     1      -1.104  -4.381  -2.621  1.00  0.00     0.279 C 
HETATM    8  C11 UNL     1       0.724  -3.066  -2.053  1.00  0.00     0.199 C 
HETATM    9  C12 UNL     1       1.811  -3.136  -1.294  1.00  0.00     0.005 C 
HETATM   10  C13 UNL     1       2.074  -3.460   0.126  1.00  0.00     0.027 C 
HETATM   11  C14 UNL     1       1.252  -4.590   0.662  1.00  0.00     0.012 C 
HETATM   12  C15 UNL     1       0.042  -4.873  -0.189  1.00  0.00     0.029 C 
HETATM   13  C16 UNL     1      -0.797  -3.636  -0.421  1.00  0.00     0.243 C 
HETATM   14  C17 UNL     1       2.041  -2.276   1.052  1.00  0.00     0.131 C 
HETATM   15  N3  UNL     1       3.255  -2.107   1.821  1.00  0.00    -0.359 N 
ATOM     16  H3  UNL     1       3.676  -2.955   2.201  1.00  0.00     0.162 HD
HETATM   17  C18 UNL     1       3.920  -0.890   2.101  1.00  0.00     0.240 C 
HETATM   18  O2  UNL     1       4.035  -0.578   3.346  1.00  0.00    -0.271 OA
HETATM   19  C19 UNL     1       4.491   0.058   1.142  1.00  0.00     0.177 C 
HETATM   20  N4  UNL     1       3.650   0.211  -0.051  1.00  0.00    -0.346 N 
ATOM     21  H4  UNL     1       3.605  -0.596  -0.674  1.00  0.00     0.163 HD
HETATM   22  C24 UNL     1       2.908   1.321  -0.435  1.00  0.00     0.236 C 
HETATM   23  O3  UNL     1       3.072   1.830  -1.610  1.00  0.00    -0.272 OA
HETATM   24  C25 UNL     1       1.883   2.034   0.398  1.00  0.00     0.228 C 
HETATM   25  N5  UNL     1       1.600   3.350  -0.204  1.00  0.00    -0.345 N 
HETATM   26  C28 UNL     1       0.575   3.598  -1.124  1.00  0.00     0.137 C 
HETATM   27  C29 UNL     1      -0.805   3.158  -1.163  1.00  0.00     0.159 C 
HETATM   28  N6  UNL     1      -1.292   2.671   0.140  1.00  0.00    -0.347 N 
ATOM     29  H6  UNL     1      -0.724   2.882   0.960  1.00  0.00     0.163 HD
HETATM   30  C34 UNL     1      -2.463   1.947   0.344  1.00  0.00     0.241 C 
HETATM   31  O7  UNL     1      -3.262   2.340   1.262  1.00  0.00    -0.271 OA
ENDROOT
BRANCH   1  32
HETATM   32  C6  UNL     1      -4.149   0.180   0.158  1.00  0.00     0.035 C 
BRANCH  32  33
HETATM   33  C5  UNL     1      -4.709  -1.035  -0.485  1.00  0.00     0.002 C 
BRANCH  33  34
HETATM   34  C4  UNL     1      -6.000  -1.498   0.145  1.00  0.00     0.000 C 
BRANCH  34  35
HETATM   35  C3  UNL     1      -5.853  -1.855   1.607  1.00  0.00    -0.000 C 
BRANCH  35  36
HETATM   36  C2  UNL     1      -7.209  -2.302   2.168  1.00  0.00    -0.005 C 
HETATM   37  C1  UNL     1      -7.734  -3.516   1.408  1.00  0.00     0.005 C 
ENDBRANCH  35  36
ENDBRANCH  34  35
ENDBRANCH  33  34
ENDBRANCH  32  33
ENDBRANCH   1  32
BRANCH   4  38
HETATM   38  O1  UNL     1       0.089  -0.517  -1.586  1.00  0.00    -0.348 OA
ATOM     39  H1  UNL     1       0.585  -0.981  -2.250  1.00  0.00     0.219 HD
ENDBRANCH   4  38
BRANCH  27  40
HETATM   40  C30 UNL     1      -1.793   4.071  -1.784  1.00  0.00     0.037 C 
BRANCH  40  41
HETATM   41  C31 UNL     1      -2.073   5.389  -1.222  1.00  0.00    -0.020 C 
HETATM   42  C32 UNL     1      -1.014   6.411  -1.099  1.00  0.00     0.009 C 
HETATM   43  C33 UNL     1      -3.164   6.025  -2.128  1.00  0.00     0.009 C 
ENDBRANCH  40  41
ENDBRANCH  27  40
BRANCH  26  44
HETATM   44  O6  UNL     1       0.925   4.355  -2.126  1.00  0.00    -0.348 OA
ATOM     45  H6  UNL     1       0.229   4.523  -2.751  1.00  0.00     0.219 HD
ENDBRANCH  26  44
BRANCH  25  46
HETATM   46  C26 UNL     1       2.494   4.419   0.185  1.00  0.00     0.238 C 
BRANCH  46  47
HETATM   47  C27 UNL     1       2.069   5.160   1.372  1.00  0.00     0.191 C 
HETATM   48  O4  UNL     1       1.033   4.899   2.019  1.00  0.00    -0.647 OA
HETATM   49  O5  UNL     1       2.843   6.216   1.826  1.00  0.00    -0.647 OA
ENDBRANCH  46  47
ENDBRANCH  25  46
BRANCH  19  50
HETATM   50  C20 UNL     1       5.854  -0.270   0.611  1.00  0.00     0.038 C 
BRANCH  50  51
HETATM   51  C21 UNL     1       7.001  -0.358   1.520  1.00  0.00    -0.020 C 
HETATM   52  C22 UNL     1       8.242  -0.668   0.624  1.00  0.00     0.009 C 
HETATM   53  C23 UNL     1       6.912  -1.473   2.511  1.00  0.00     0.009 C 
ENDBRANCH  50  51
ENDBRANCH  19  50
TORSDOF 13
