REMARK  2 active torsions:
REMARK  status: ('A' for Active; 'I' for Inactive)
REMARK       I    between atoms: C1_4  and  N3_6 
REMARK    1  A    between atoms: N3_6  and  C2_8 
REMARK    2  A    between atoms: C9_15  and  C10_16 
ROOT
HETATM    1  C2  UNL     1       1.174  -0.391  -0.134  1.00  0.00     0.092 C 
HETATM    2  C3  UNL     1       0.408  -0.864   1.036  1.00  0.00     0.010 C 
HETATM    3  C4  UNL     1      -0.268  -2.180   0.621  1.00  0.00     0.011 C 
HETATM    4  C5  UNL     1      -1.218  -1.955  -0.525  1.00  0.00    -0.013 C 
HETATM    5  C6  UNL     1      -0.404  -1.467  -1.693  1.00  0.00     0.011 C 
HETATM    6  C7  UNL     1       0.237  -0.150  -1.299  1.00  0.00     0.010 C 
HETATM    7  C8  UNL     1      -0.825   0.847  -0.905  1.00  0.00     0.024 C 
HETATM    8  C9  UNL     1      -1.650   0.321   0.233  1.00  0.00     0.023 C 
HETATM    9  C11 UNL     1      -2.294  -0.960  -0.206  1.00  0.00     0.022 C 
HETATM   10  C12 UNL     1      -0.722   0.046   1.418  1.00  0.00     0.024 C 
ENDROOT
BRANCH   1  11
HETATM   11  N3  UNL     1       2.085   0.694   0.016  1.00  0.00    -0.359 N 
HETATM   12  C1  UNL     1       3.438   0.640   0.384  1.00  0.00     0.182 C 
HETATM   13  N1  UNL     1       3.889  -0.257   1.119  1.00  0.00    -0.374 N 
HETATM   14  N2  UNL     1       4.343   1.643  -0.099  1.00  0.00    -0.064 NA
ATOM     15  H12 UNL     1       4.873  -0.296   1.387  1.00  0.00     0.158 HD
ATOM     16  H11 UNL     1       3.246  -0.970   1.462  1.00  0.00     0.158 HD
ATOM     17  H3  UNL     1       1.708   1.624  -0.166  1.00  0.00     0.162 HD
ENDBRANCH   1  11
BRANCH   8  18
HETATM   18  C10 UNL     1      -2.634   1.327   0.636  1.00  0.00     0.134 A 
HETATM   19  N4  UNL     1      -3.692   1.455   1.454  1.00  0.00    -0.227 N 
HETATM   20  O1  UNL     1      -3.887   2.664   1.124  1.00  0.00    -0.154 OA
ATOM     21  H4  UNL     1      -4.162   0.819   2.098  1.00  0.00     0.198 HD
HETATM   22  N5  UNL     1      -2.870   2.637   0.328  1.00  0.00    -0.227 N 
ATOM     23  H5  UNL     1      -2.423   3.319  -0.284  1.00  0.00     0.198 HD
ENDBRANCH   8  18
TORSDOF 2
