REMARK  6 active torsions:
REMARK  status: ('A' for Active; 'I' for Inactive)
REMARK    1  A    between atoms: C2_2  and  C3_3 
REMARK    2  A    between atoms: C2_2  and  C11_17 
REMARK    3  A    between atoms: C5_5  and  O1_6 
REMARK    4  A    between atoms: C6_8  and  O2_9 
REMARK    5  A    between atoms: C7_11  and  O3_12 
REMARK    6  A    between atoms: C11_17  and  O4_20 
ROOT
HETATM    1  C3  UNL     1       0.576  -0.444  -0.665  1.00  0.00    -0.013 C 
HETATM    2  C4  UNL     1      -0.564  -0.333  -0.046  1.00  0.00    -0.042 C 
HETATM    3  C5  UNL     1      -0.880  -0.537   1.390  1.00  0.00     0.179 C 
HETATM    4  C6  UNL     1      -1.967   0.510   1.701  1.00  0.00     0.180 C 
HETATM    5  C7  UNL     1      -2.798   0.432   0.466  1.00  0.00     0.162 C 
HETATM    6  C8  UNL     1      -1.884   0.028  -0.664  1.00  0.00     0.007 C 
HETATM    7  C9  UNL     1      -1.794   1.136  -1.644  1.00  0.00     0.022 C 
HETATM    8  C10 UNL     1      -2.411  -1.219  -1.364  1.00  0.00     0.022 C 
ENDROOT
BRANCH   1   9
HETATM    9  C2  UNL     1       1.907  -0.789  -0.224  1.00  0.00     0.038 C 
HETATM   10  C1  UNL     1       2.127  -1.304   1.133  1.00  0.00     0.017 C 
BRANCH   9  11
HETATM   11  C11 UNL     1       2.856   0.374  -0.506  1.00  0.00     0.057 C 
HETATM   12  C12 UNL     1       2.631   0.912  -1.917  1.00  0.00     0.046 C 
HETATM   13  C13 UNL     1       2.668   1.478   0.491  1.00  0.00     0.046 C 
BRANCH  11  14
HETATM   14  O4  UNL     1       4.187  -0.043  -0.440  1.00  0.00    -0.390 OA
ATOM     15  H4  UNL     1       4.777   0.680  -0.615  1.00  0.00     0.210 HD
ENDBRANCH  11  14
ENDBRANCH   9  11
ENDBRANCH   1   9
BRANCH   3  16
HETATM   16  O1  UNL     1      -1.484  -1.770   1.615  1.00  0.00    -0.389 OA
ATOM     17  H1  UNL     1      -1.686  -1.901   2.534  1.00  0.00     0.210 HD
ENDBRANCH   3  16
BRANCH   4  18
HETATM   18  O2  UNL     1      -2.670   0.068   2.832  1.00  0.00    -0.390 OA
ATOM     19  H2  UNL     1      -3.340   0.713   3.024  1.00  0.00     0.210 HD
ENDBRANCH   4  18
BRANCH   5  20
HETATM   20  O3  UNL     1      -3.903  -0.404   0.589  1.00  0.00    -0.392 OA
ATOM     21  H3  UNL     1      -4.433  -0.454  -0.198  1.00  0.00     0.210 HD
ENDBRANCH   5  20
TORSDOF 6
