REMARK  3 active torsions:
REMARK  status: ('A' for Active; 'I' for Inactive)
REMARK    1  A    between atoms: N1_1  and  C1_5 
REMARK    2  A    between atoms: C5_12  and  N3_13 
REMARK    3  A    between atoms: N3_13  and  C6_15 
ROOT
HETATM    1  C1  UNL     1       2.686   1.024   0.167  1.00  0.00     0.216 C 
HETATM    2  C2  UNL     1       3.941   0.958  -0.681  1.00  0.00     0.055 C 
HETATM    3  C3  UNL     1       4.537  -0.434  -0.718  1.00  0.00     0.125 C 
HETATM    4  N2  UNL     1       3.467  -1.358  -1.021  1.00  0.00    -0.359 N 
ATOM      5  H2  UNL     1       3.674  -2.355  -1.087  1.00  0.00     0.162 HD
HETATM    6  C4  UNL     1       2.152  -0.918  -1.226  1.00  0.00     0.242 C 
HETATM    7  O1  UNL     1       1.436  -1.497  -2.076  1.00  0.00    -0.271 OA
HETATM    8  C5  UNL     1       1.549   0.257  -0.440  1.00  0.00     0.204 C 
ENDROOT
BRANCH   8   9
HETATM    9  N3  UNL     1       0.718  -0.277   0.562  1.00  0.00    -0.378 N 
ATOM     10  H3  UNL     1       1.116  -0.690   1.406  1.00  0.00     0.160 HD
BRANCH   9  11
HETATM   11  C6  UNL     1      -0.720  -0.226   0.366  1.00  0.00     0.006 C 
HETATM   12  C7  UNL     1      -1.173   1.126   0.516  1.00  0.00     0.020 C 
HETATM   13  C8  UNL     1      -2.565   1.579   0.671  1.00  0.00    -0.024 C 
HETATM   14  C9  UNL     1      -3.662   1.401  -0.272  1.00  0.00     0.038 C 
HETATM   15  C10 UNL     1      -4.345  -0.012  -0.288  1.00  0.00     0.083 C 
HETATM   16  C11 UNL     1      -3.304  -0.887   0.059  1.00  0.00    -0.182 C 
HETATM   17  C12 UNL     1      -2.548  -2.038   0.332  1.00  0.00     0.086 C 
HETATM   18  C13 UNL     1      -1.217  -1.472   0.937  1.00  0.00     0.067 C 
ENDBRANCH   9  11
ENDBRANCH   8   9
BRANCH   1  19
HETATM   19  N1  UNL     1       3.001   0.455   1.444  1.00  0.00    -0.072 N 
ATOM     20  H13 UNL     1       3.387  -0.487   1.376  1.00  0.00     0.274 HD
ATOM     21  H12 UNL     1       3.806   0.896   1.889  1.00  0.00     0.274 HD
ATOM     22  H11 UNL     1       2.157   0.499   2.015  1.00  0.00     0.274 HD
ENDBRANCH   1  19
TORSDOF 3
