REMARK  5 active torsions:
REMARK  status: ('A' for Active; 'I' for Inactive)
REMARK    1  A    between atoms: C4_4  and  O1_5 
REMARK    2  A    between atoms: C10_12  and  C11_13 
REMARK    3  A    between atoms: C14_16  and  O2_17 
REMARK    4  A    between atoms: O2_17  and  N1_18 
REMARK    5  A    between atoms: C15_21  and  O3_22 
ROOT
HETATM    1  C1  UNL     1       1.252  -3.018  -0.687  1.00  0.00     0.015 C 
HETATM    2  C2  UNL     1       1.665  -1.813  -0.371  1.00  0.00    -0.082 C 
HETATM    3  C3  UNL     1       3.061  -1.424  -0.653  1.00  0.00     0.065 C 
HETATM    4  C4  UNL     1       3.573  -0.297   0.162  1.00  0.00     0.122 C 
HETATM    5  C5  UNL     1       2.543   0.517   0.859  1.00  0.00     0.044 C 
HETATM    6  C6  UNL     1       1.203   0.509   0.164  1.00  0.00    -0.006 C 
HETATM    7  C7  UNL     1       1.392   0.983  -1.232  1.00  0.00     0.019 C 
HETATM    8  C8  UNL     1       0.673  -0.903   0.265  1.00  0.00     0.025 C 
HETATM    9  C9  UNL     1      -0.709  -1.061  -0.234  1.00  0.00     0.017 C 
HETATM   10  C10 UNL     1      -1.493   0.169  -0.443  1.00  0.00     0.024 C 
HETATM   11  C14 UNL     1      -1.143   1.354   0.363  1.00  0.00     0.185 C 
HETATM   12  C15 UNL     1       0.231   1.336   0.969  1.00  0.00     0.158 C 
ENDROOT
BRANCH  11  13
HETATM   13  O2  UNL     1      -1.214   2.531  -0.419  1.00  0.00    -0.279 OA
BRANCH  13  14
HETATM   14  N1  UNL     1      -2.073   3.425   0.061  1.00  0.00    -0.311 N 
ATOM     15  H12 UNL     1      -2.618   3.264   0.908  1.00  0.00     0.184 HD
ATOM     16  H11 UNL     1      -2.124   4.274  -0.503  1.00  0.00     0.184 HD
ENDBRANCH  13  14
ENDBRANCH  11  13
BRANCH  10  17
HETATM   17  C11 UNL     1      -3.004  -0.061  -0.280  1.00  0.00    -0.016 C 
HETATM   18  C12 UNL     1      -3.487  -1.088  -1.287  1.00  0.00     0.010 C 
HETATM   19  C13 UNL     1      -3.366  -0.543   1.078  1.00  0.00     0.010 C 
ENDBRANCH  10  17
BRANCH  12  20
HETATM   20  O3  UNL     1       0.717   2.618   1.186  1.00  0.00    -0.392 OA
ATOM     21  H3  UNL     1       0.105   3.139   1.693  1.00  0.00     0.210 HD
ENDBRANCH  12  20
BRANCH   4  22
HETATM   22  O1  UNL     1       4.522  -0.734   1.113  1.00  0.00    -0.395 OA
ATOM     23  H1  UNL     1       4.850  -0.012   1.635  1.00  0.00     0.210 HD
ENDBRANCH   4  22
TORSDOF 5
