REMARK  5 active torsions:
REMARK  status: ('A' for Active; 'I' for Inactive)
REMARK    1  A    between atoms: C2_2  and  O1_3 
REMARK    2  A    between atoms: C2_2  and  C3_5 
REMARK    3  A    between atoms: C10_12  and  O2_13 
REMARK    4  A    between atoms: C13_17  and  C14_18 
REMARK    5  A    between atoms: C14_18  and  O3_19 
ROOT
HETATM    1  C3  UNL     1      -1.658  -0.236  -0.073  1.00  0.00     0.019 C 
HETATM    2  C4  UNL     1      -1.471  -0.507   1.405  1.00  0.00     0.008 C 
HETATM    3  C5  UNL     1      -0.329  -1.465   1.630  1.00  0.00     0.010 C 
HETATM    4  C6  UNL     1       0.878  -1.214   0.781  1.00  0.00    -0.035 C 
HETATM    5  C7  UNL     1       1.873  -2.311   1.058  1.00  0.00     0.016 C 
HETATM    6  C8  UNL     1       0.485  -1.114  -0.647  1.00  0.00     0.002 C 
HETATM    7  C9  UNL     1       1.587  -0.968  -1.628  1.00  0.00     0.038 C 
HETATM    8  C10 UNL     1       2.332   0.290  -1.289  1.00  0.00     0.123 C 
HETATM    9  C11 UNL     1       1.976   0.910  -0.009  1.00  0.00     0.031 A 
HETATM   10  C12 UNL     1       1.411   0.152   1.068  1.00  0.00     0.013 A 
HETATM   11  C13 UNL     1       0.500   1.039   0.277  1.00  0.00    -0.003 A 
HETATM   12  C15 UNL     1      -0.343   0.193  -0.613  1.00  0.00     0.008 C 
ENDROOT
BRANCH   1  13
HETATM   13  C2  UNL     1      -2.846   0.590  -0.377  1.00  0.00     0.118 C 
HETATM   14  C1  UNL     1      -3.084   0.893  -1.809  1.00  0.00     0.040 C 
BRANCH  13  15
HETATM   15  O1  UNL     1      -3.989  -0.135   0.059  1.00  0.00    -0.396 OA
ATOM     16  H1  UNL     1      -3.837  -0.329   0.976  1.00  0.00     0.210 HD
ENDBRANCH  13  15
ENDBRANCH   1  13
BRANCH  11  17
HETATM   17  C14 UNL     1       0.117   2.387   0.769  1.00  0.00     0.175 C 
BRANCH  17  18
HETATM   18  O3  UNL     1       0.845   2.604   1.964  1.00  0.00    -0.400 OA
ATOM     19  H3  UNL     1       0.600   3.466   2.279  1.00  0.00     0.209 HD
ENDBRANCH  17  18
ENDBRANCH  11  17
BRANCH   8  20
HETATM   20  O2  UNL     1       3.690  -0.011  -1.292  1.00  0.00    -0.395 OA
ATOM     21  H2  UNL     1       4.162   0.785  -1.077  1.00  0.00     0.210 HD
ENDBRANCH   8  20
TORSDOF 5
