REMARK  3 active torsions:
REMARK  status: ('A' for Active; 'I' for Inactive)
REMARK    1  A    between atoms: C2_2  and  C3_3 
REMARK    2  A    between atoms: C8_8  and  O1_9 
REMARK    3  A    between atoms: C8_8  and  C9_11 
ROOT
HETATM    1  C3  UNL     1      -1.897  -0.683   0.616  1.00  0.00     0.047 C 
HETATM    2  C4  UNL     1      -3.147  -0.883  -0.127  1.00  0.00     0.012 C 
HETATM    3  C5  UNL     1      -3.270  -0.276  -1.478  1.00  0.00     0.001 C 
HETATM    4  C6  UNL     1      -1.975  -0.274  -2.265  1.00  0.00     0.003 C 
HETATM    5  C7  UNL     1      -0.942   0.284  -1.338  1.00  0.00     0.044 C 
HETATM    6  C8  UNL     1      -0.625  -0.772  -0.268  1.00  0.00     0.097 C 
ENDROOT
BRANCH   6   7
HETATM    7  O1  UNL     1      -0.765  -2.058  -0.753  1.00  0.00    -0.384 OA
ATOM      8  H1  UNL     1       0.014  -2.112  -1.294  1.00  0.00     0.211 HD
ENDBRANCH   6   7
BRANCH   6   9
HETATM    9  C9  UNL     1       0.491  -0.419   0.548  1.00  0.00     0.104 C 
HETATM   10  N1  UNL     1       1.842  -0.414   0.383  1.00  0.00    -0.335 N 
HETATM   11  C10 UNL     1       2.649   0.012   1.565  1.00  0.00     0.132 C 
HETATM   12  C13 UNL     1       2.643  -0.721  -0.720  1.00  0.00     0.173 C 
HETATM   13  C11 UNL     1       3.578   1.131   1.224  1.00  0.00     0.040 C 
HETATM   14  C12 UNL     1       4.223   1.047  -0.121  1.00  0.00     0.123 C 
HETATM   15  N2  UNL     1       3.946  -0.163  -0.843  1.00  0.00    -0.367 N 
ATOM     16  H2  UNL     1       4.658  -0.607  -1.423  1.00  0.00     0.161 HD
HETATM   17  S1  UNL     1       2.020  -1.712  -1.804  1.00  0.00    -0.041 SA
ENDBRANCH   6   9
BRANCH   1  18
HETATM   18  C2  UNL     1      -1.864   0.447   1.556  1.00  0.00    -0.029 C 
HETATM   19  C1  UNL     1      -2.726   1.443   1.571  1.00  0.00     0.007 C 
ENDBRANCH   1  18
TORSDOF 3
