REMARK  4 active torsions:
REMARK  status: ('A' for Active; 'I' for Inactive)
REMARK    1  A    between atoms: N1_2  and  C2_4 
REMARK    2  A    between atoms: C5_9  and  N3_10 
REMARK    3  A    between atoms: C6_13  and  C7_14 
REMARK    4  A    between atoms: C11_18  and  C12_19 
ROOT
HETATM    1  C7  UNL     1      -0.688  -0.814  -0.087  1.00  0.00    -0.021 A 
HETATM    2  C8  UNL     1      -1.141  -2.058  -0.495  1.00  0.00     0.012 A 
HETATM    3  C9  UNL     1      -2.459  -2.324  -0.775  1.00  0.00     0.002 A 
HETATM    4  C10 UNL     1      -3.356  -1.292  -0.638  1.00  0.00     0.015 A 
HETATM    5  C11 UNL     1      -2.944  -0.041  -0.235  1.00  0.00     0.011 A 
HETATM    6  C13 UNL     1      -1.614   0.216   0.045  1.00  0.00     0.027 A 
ENDROOT
BRANCH   1   7
HETATM    7  C6  UNL     1       0.729  -0.597   0.196  1.00  0.00     0.020 C 
HETATM    8  C5  UNL     1       1.357  -1.567   0.953  1.00  0.00     0.110 C 
HETATM    9  N2  UNL     1       2.673  -1.891   1.024  1.00  0.00    -0.352 N 
HETATM   10  C4  UNL     1       3.711  -1.088   0.697  1.00  0.00     0.092 C 
ATOM     11  H2  UNL     1       2.901  -2.828   1.355  1.00  0.00     0.166 HD
HETATM   12  C3  UNL     1       3.695   0.082  -0.071  1.00  0.00     0.046 C 
HETATM   13  C2  UNL     1       2.638   0.926  -0.339  1.00  0.00     0.029 C 
HETATM   14  C14 UNL     1       1.304   0.552  -0.319  1.00  0.00     0.045 C 
BRANCH   8  15
HETATM   15  N3  UNL     1       0.581  -2.250   1.688  1.00  0.00    -0.385 N 
ATOM     16  H32 UNL     1       1.045  -2.966   2.247  1.00  0.00     0.157 HD
ATOM     17  H31 UNL     1      -0.408  -2.006   1.635  1.00  0.00     0.157 HD
ENDBRANCH   8  15
BRANCH  13  18
HETATM   18  N1  UNL     1       2.923   2.144  -0.626  1.00  0.00    -0.394 N 
HETATM   19  C1  UNL     1       4.309   2.551  -0.651  1.00  0.00     0.146 C 
ATOM     20  H1  UNL     1       2.183   2.814  -0.833  1.00  0.00     0.159 HD
ENDBRANCH  13  18
ENDBRANCH   1   7
BRANCH   5  21
HETATM   21  C12 UNL     1      -3.928   1.033  -0.100  1.00  0.00     0.147 A 
HETATM   22  N4  UNL     1      -3.719   2.306   0.277  1.00  0.00    -0.268 N 
HETATM   23  N5  UNL     1      -4.888   2.917   0.257  1.00  0.00    -0.227 N 
ATOM     24  H4  UNL     1      -2.823   2.722   0.531  1.00  0.00     0.190 HD
HETATM   25  N6  UNL     1      -5.827   2.086  -0.116  1.00  0.00    -0.227 N 
ATOM     26  H5  UNL     1      -5.038   3.897   0.498  1.00  0.00     0.210 HD
HETATM   27  N7  UNL     1      -5.245   0.935  -0.335  1.00  0.00    -0.268 N 
ATOM     28  H6  UNL     1      -6.820   2.295  -0.217  1.00  0.00     0.210 HD
ATOM     29  H7  UNL     1      -5.723   0.087  -0.640  1.00  0.00     0.190 HD
ENDBRANCH   5  21
TORSDOF 4
