REMARK  3 active torsions:
REMARK  status: ('A' for Active; 'I' for Inactive)
REMARK    1  A    between atoms: O1_2  and  C2_3 
REMARK    2  A    between atoms: C5_6  and  N1_7 
REMARK    3  A    between atoms: C9_17  and  N4_18 
ROOT
HETATM    1  C2  UNL     1      -0.263  -0.942   0.444  1.00  0.00     0.096 A 
HETATM    2  C3  UNL     1      -1.396  -1.150  -0.340  1.00  0.00     0.056 A 
HETATM    3  C4  UNL     1      -2.276  -0.140  -0.644  1.00  0.00     0.037 A 
HETATM    4  C5  UNL     1      -3.407  -0.324  -1.420  1.00  0.00     0.112 A 
HETATM    5  N2  UNL     1      -4.256   0.698  -1.701  1.00  0.00    -0.338 N 
ATOM      6  H2  UNL     1      -5.086   0.549  -2.274  1.00  0.00     0.168 HD
HETATM    7  C6  UNL     1      -3.968   1.916  -1.199  1.00  0.00     0.182 A 
HETATM    8  N3  UNL     1      -2.867   2.100  -0.441  1.00  0.00    -0.351 N 
ATOM      9  H3  UNL     1      -2.682   3.035  -0.077  1.00  0.00     0.166 HD
HETATM   10  C7  UNL     1      -2.002   1.120  -0.140  1.00  0.00     0.049 A 
HETATM   11  C8  UNL     1      -0.879   1.322   0.637  1.00  0.00     0.063 A 
HETATM   12  C9  UNL     1       0.007   0.312   0.945  1.00  0.00     0.069 A 
ENDROOT
BRANCH  12  13
HETATM   13  N4  UNL     1       1.165   0.509   1.742  1.00  0.00    -0.340 N 
HETATM   14  C10 UNL     1       2.344   0.644   1.248  1.00  0.00     0.107 A 
HETATM   15  C11 UNL     1       3.468   0.834   2.016  1.00  0.00     0.065 A 
HETATM   16  N6  UNL     1       2.485   0.597  -0.083  1.00  0.00    -0.339 N 
HETATM   17  C12 UNL     1       4.714   0.974   1.426  1.00  0.00     0.092 A 
HETATM   18  N5  UNL     1       4.782   0.916   0.078  1.00  0.00    -0.362 N 
HETATM   19  C13 UNL     1       3.698   0.730  -0.694  1.00  0.00     0.181 A 
ATOM     20  H5  UNL     1       5.692   1.017  -0.371  1.00  0.00     0.165 HD
ATOM     21  H6  UNL     1       1.656   0.457  -0.661  1.00  0.00     0.168 HD
ATOM     22  H4  UNL     1       1.056   0.545   2.756  1.00  0.00     0.167 HD
ENDBRANCH  12  13
BRANCH   1  23
HETATM   23  O1  UNL     1       0.596  -1.988   0.726  1.00  0.00    -0.354 OA
HETATM   24  C1  UNL     1       0.334  -3.264   0.225  1.00  0.00     0.210 C 
ENDBRANCH   1  23
BRANCH   4  25
HETATM   25  N1  UNL     1      -3.617  -1.528  -1.869  1.00  0.00    -0.385 N 
ATOM     26  H12 UNL     1      -2.979  -2.296  -1.658  1.00  0.00     0.157 HD
ATOM     27  H11 UNL     1      -4.451  -1.664  -2.441  1.00  0.00     0.157 HD
ENDBRANCH   4  25
TORSDOF 3
