REMARK  4 active torsions:
REMARK  status: ('A' for Active; 'I' for Inactive)
REMARK    1  A    between atoms: N1_1  and  C1_4 
REMARK    2  A    between atoms: C2_7  and  N3_8 
REMARK    3  A    between atoms: N3_8  and  C3_10 
REMARK    4  A    between atoms: C10_19  and  C11_20 
ROOT
HETATM    1  C1  UNL     1       1.077  -0.594   0.428  1.00  0.00     0.128 A 
HETATM    2  N2  UNL     1      -0.197  -0.193   0.191  1.00  0.00    -0.176 N 
ATOM      3  H2  UNL     1      -0.960  -0.795   0.502  1.00  0.00     0.186 HD
HETATM    4  C2  UNL     1      -0.505   0.955  -0.431  1.00  0.00     0.684 A 
HETATM    5  N4  UNL     1       0.525   1.716  -0.824  1.00  0.00    -0.201 N 
ATOM      6  H4  UNL     1       0.330   2.596  -1.301  1.00  0.00     0.183 HD
HETATM    7  C9  UNL     1       1.793   1.368  -0.616  1.00  0.00     0.123 A 
HETATM    8  C10 UNL     1       2.134   0.171   0.033  1.00  0.00     0.052 A 
ENDROOT
BRANCH   8   9
HETATM    9  C11 UNL     1       3.533  -0.111   0.242  1.00  0.00     0.065 A 
HETATM   10  C12 UNL     1       4.009  -1.327   0.632  1.00  0.00     0.137 A 
HETATM   11  N5  UNL     1       5.371  -1.460   0.769  1.00  0.00    -0.309 N 
HETATM   12  N6  UNL     1       6.179  -0.454   0.532  1.00  0.00    -0.296 N 
ATOM     13  H5  UNL     1       5.760  -2.357   1.060  1.00  0.00     0.186 HD
HETATM   14  C13 UNL     1       5.722   0.742   0.148  1.00  0.00     0.197 A 
ATOM     15  H6  UNL     1       7.184  -0.588   0.644  1.00  0.00     0.187 HD
HETATM   16  N7  UNL     1       4.428   0.916   0.005  1.00  0.00    -0.349 N 
ATOM     17  H7  UNL     1       4.076   1.828  -0.287  1.00  0.00     0.166 HD
ENDBRANCH   8   9
BRANCH   1  18
HETATM   18  N1  UNL     1       1.219  -1.696   1.053  1.00  0.00    -0.384 N 
ATOM     19  H12 UNL     1       0.428  -2.268   1.349  1.00  0.00     0.157 HD
ATOM     20  H11 UNL     1       2.177  -1.998   1.231  1.00  0.00     0.157 HD
ENDBRANCH   1  18
BRANCH   4  21
HETATM   21  N3  UNL     1      -1.700   1.350  -0.664  1.00  0.00    -0.192 N 
ATOM     22  H3  UNL     1      -1.826   2.240  -1.145  1.00  0.00     0.184 HD
BRANCH  21  23
HETATM   23  C3  UNL     1      -2.859   0.624  -0.293  1.00  0.00     0.049 A 
HETATM   24  C4  UNL     1      -3.634   1.032   0.762  1.00  0.00     0.030 A 
HETATM   25  C5  UNL     1      -4.758   0.315   1.110  1.00  0.00     0.002 A 
HETATM   26  C6  UNL     1      -5.102  -0.813   0.396  1.00  0.00     0.000 A 
HETATM   27  C7  UNL     1      -4.312  -1.215  -0.667  1.00  0.00     0.002 A 
HETATM   28  C8  UNL     1      -3.191  -0.494  -1.009  1.00  0.00     0.030 A 
ENDBRANCH  21  23
ENDBRANCH   4  21
TORSDOF 4
