REMARK  4 active torsions:
REMARK  status: ('A' for Active; 'I' for Inactive)
REMARK    1  A    between atoms: C3_3  and  N1_4 
REMARK    2  A    between atoms: N1_4  and  C4_5 
REMARK    3  A    between atoms: C9_15  and  N4_16 
REMARK    4  A    between atoms: N4_16  and  C10_18 
ROOT
HETATM    1  C1  UNL     1       1.095   2.576   0.185  1.00  0.00     0.111 A 
HETATM    2  C2  UNL     1      -0.246   2.287   0.185  1.00  0.00     0.081 A 
HETATM    3  C3  UNL     1      -0.723   1.009  -0.140  1.00  0.00     0.189 A 
HETATM    4  N3  UNL     1       0.243   0.110  -0.445  1.00  0.00    -0.165 N 
ATOM      5  H3  UNL     1      -0.036  -0.840  -0.691  1.00  0.00     0.187 HD
HETATM    6  C9  UNL     1       1.550   0.411  -0.439  1.00  0.00     0.680 A 
HETATM    7  N6  UNL     1       1.997   1.636  -0.128  1.00  0.00    -0.202 N 
ATOM      8  H6  UNL     1       2.995   1.846  -0.130  1.00  0.00     0.183 HD
ENDROOT
BRANCH   3   9
HETATM    9  N1  UNL     1      -1.881   0.735  -0.147  1.00  0.00    -0.423 NA
BRANCH   9  10
HETATM   10  C4  UNL     1      -3.155   0.379  -0.170  1.00  0.00     0.191 C 
HETATM   11  C5  UNL     1      -3.492  -1.082  -0.463  1.00  0.00     0.043 C 
HETATM   12  C6  UNL     1      -4.990  -1.108  -0.695  1.00  0.00     0.030 C 
HETATM   13  C7  UNL     1      -5.643  -0.749   0.640  1.00  0.00     0.232 C 
HETATM   14  N2  UNL     1      -5.362   0.663   0.853  1.00  0.00    -0.072 N 
HETATM   15  C8  UNL     1      -3.931   0.817   1.078  1.00  0.00     0.271 C 
ATOM     16  H22 UNL     1      -5.705   1.250   0.093  1.00  0.00     0.277 HD
ATOM     17  H21 UNL     1      -5.923   1.066   1.604  1.00  0.00     0.277 HD
ENDBRANCH   9  10
ENDBRANCH   3   9
BRANCH   6  18
HETATM   18  N4  UNL     1       2.420  -0.472  -0.734  1.00  0.00    -0.220 N 
ATOM     19  H4  UNL     1       2.054  -1.395  -0.967  1.00  0.00     0.178 HD
BRANCH  18  20
HETATM   20  C10 UNL     1       3.821  -0.340  -0.780  1.00  0.00     0.126 C 
HETATM   21  C11 UNL     1       4.530  -0.288   0.522  1.00  0.00     0.055 C 
HETATM   22  C12 UNL     1       5.689  -1.286   0.396  1.00  0.00     0.234 C 
HETATM   23  N5  UNL     1       5.899  -1.280  -1.052  1.00  0.00    -0.073 N 
HETATM   24  C13 UNL     1       4.531  -1.447  -1.523  1.00  0.00     0.257 C 
ATOM     25  H52 UNL     1       6.396  -0.470  -1.422  1.00  0.00     0.277 HD
ATOM     26  H51 UNL     1       6.572  -1.962  -1.402  1.00  0.00     0.277 HD
ENDBRANCH  18  20
ENDBRANCH   6  18
TORSDOF 4
