REMARK  6 active torsions:
REMARK  status: ('A' for Active; 'I' for Inactive)
REMARK    1  A    between atoms: C6_6  and  C7_7 
REMARK    2  A    between atoms: C7_7  and  N1_8 
REMARK    3  A    between atoms: N1_8  and  C8_10 
REMARK    4  A    between atoms: C9_13  and  N3_14 
REMARK    5  A    between atoms: C11_19  and  N5_20 
REMARK    6  A    between atoms: N5_20  and  N6_22 
ROOT
HETATM    1  C1  UNL     1       7.694  -1.481  -0.172  1.00  0.00     0.018 C 
HETATM    2  C2  UNL     1       6.490  -1.460  -0.103  1.00  0.00    -0.078 C 
HETATM    3  C3  UNL     1       5.058  -1.413  -0.030  1.00  0.00     0.017 A 
HETATM    4  C4  UNL     1       4.288  -1.442  -1.172  1.00  0.00     0.021 A 
HETATM    5  C5  UNL     1       2.903  -1.398  -1.137  1.00  0.00     0.010 A 
HETATM    6  C6  UNL     1       2.231  -1.322   0.074  1.00  0.00    -0.040 A 
HETATM    7  C12 UNL     1       2.991  -1.293   1.217  1.00  0.00     0.010 A 
HETATM    8  C13 UNL     1       4.368  -1.336   1.181  1.00  0.00     0.021 A 
ENDROOT
BRANCH   6   9
HETATM    9  C7  UNL     1       0.746  -1.274   0.122  1.00  0.00     0.176 C 
BRANCH   9  10
HETATM   10  N1  UNL     1       0.377   0.139   0.072  1.00  0.00    -0.221 N 
ATOM     11  H1  UNL     1       1.113   0.845   0.057  1.00  0.00     0.178 HD
BRANCH  10  12
HETATM   12  C8  UNL     1      -0.846   0.514   0.047  1.00  0.00     0.707 A 
HETATM   13  N2  UNL     1      -1.848  -0.391   0.066  1.00  0.00    -0.022 N 
HETATM   14  C9  UNL     1      -3.111   0.066   0.037  1.00  0.00     0.706 A 
ATOM     15  H2  UNL     1      -1.652  -1.391   0.101  1.00  0.00     0.203 HD
HETATM   16  N4  UNL     1      -3.351   1.405  -0.009  1.00  0.00    -0.020 N 
HETATM   17  C11 UNL     1      -2.357   2.291  -0.028  1.00  0.00     0.725 A 
ATOM     18  H4  UNL     1      -4.315   1.738  -0.029  1.00  0.00     0.203 HD
HETATM   19  N7  UNL     1      -1.092   1.836   0.000  1.00  0.00    -0.020 N 
ATOM     20  H7  UNL     1      -0.315   2.496  -0.014  1.00  0.00     0.203 HD
BRANCH  14  21
HETATM   21  N3  UNL     1      -4.090  -0.777   0.055  1.00  0.00    -0.229 N 
HETATM   22  C10 UNL     1      -5.468  -0.394   0.028  1.00  0.00     0.165 C 
ATOM     23  H3  UNL     1      -3.868  -1.772   0.090  1.00  0.00     0.177 HD
ENDBRANCH  14  21
BRANCH  17  24
HETATM   24  N5  UNL     1      -2.585   3.563  -0.073  1.00  0.00    -0.138 N 
ATOM     25  H5  UNL     1      -1.789   4.201  -0.086  1.00  0.00     0.205 HD
BRANCH  24  26
HETATM   26  N6  UNL     1      -3.864   4.097  -0.104  1.00  0.00    -0.331 N 
ATOM     27  H62 UNL     1      -4.648   3.445  -0.090  1.00  0.00     0.177 HD
ATOM     28  H61 UNL     1      -4.044   5.100  -0.139  1.00  0.00     0.177 HD
ENDBRANCH  24  26
ENDBRANCH  17  24
ENDBRANCH  10  12
ENDBRANCH   9  10
ENDBRANCH   6   9
TORSDOF 6
