REMARK  3 active torsions:
REMARK  status: ('A' for Active; 'I' for Inactive)
REMARK    1  A    between atoms: S1_2  and  C2_3 
REMARK    2  A    between atoms: S1_2  and  C7_11 
REMARK    3  A    between atoms: C2_3  and  N1_4 
ROOT
HETATM    1  C7  UNL     1       1.188  -0.432   0.247  1.00  0.00     0.131 C 
HETATM    2  N3  UNL     1       1.634   0.615  -0.364  1.00  0.00    -0.365 N 
ATOM      3  H3  UNL     1       1.069   1.415  -0.650  1.00  0.00     0.162 HD
HETATM    4  C8  UNL     1       3.019   0.482  -0.574  1.00  0.00     0.109 C 
HETATM    5  C9  UNL     1       3.879   1.693  -0.383  1.00  0.00     0.054 C 
HETATM    6  C10 UNL     1       5.321   1.203  -0.581  1.00  0.00     0.234 C 
HETATM    7  N4  UNL     1       5.677   0.100   0.239  1.00  0.00    -0.073 N 
ATOM      8  H41 UNL     1       5.824   0.407   1.201  1.00  0.00     0.277 HD
ATOM      9  H42 UNL     1       6.618  -0.222   0.011  1.00  0.00     0.277 HD
HETATM   10  C11 UNL     1       4.737  -1.017   0.202  1.00  0.00     0.259 C 
HETATM   11  C12 UNL     1       3.411  -0.469   0.561  1.00  0.00     0.132 C 
HETATM   12  N5  UNL     1       2.284  -1.333   0.496  1.00  0.00    -0.363 N 
ATOM     13  H5  UNL     1       2.258  -2.347   0.601  1.00  0.00     0.162 HD
ENDROOT
BRANCH   1  14
HETATM   14  S1  UNL     1      -0.467  -0.769   0.743  1.00  0.00    -0.118 SA
HETATM   15  C1  UNL     1      -0.897  -2.392   0.172  1.00  0.00     0.093 C 
BRANCH  14  16
HETATM   16  C2  UNL     1      -1.585   0.403   0.099  1.00  0.00     0.132 C 
BRANCH  16  17
HETATM   17  N1  UNL     1      -2.930   0.279   0.407  1.00  0.00    -0.362 N 
HETATM   18  C3  UNL     1      -3.672  -0.853   0.053  1.00  0.00     0.083 C 
HETATM   19  C4  UNL     1      -5.173  -0.637   0.182  1.00  0.00     0.158 C 
HETATM   20  N2  UNL     1      -5.618   0.617  -0.328  1.00  0.00    -0.415 N 
HETATM   21  C5  UNL     1      -4.737   1.718  -0.127  1.00  0.00     0.134 C 
ATOM     22  H2  UNL     1      -6.512   0.720  -0.807  1.00  0.00     0.153 HD
HETATM   23  C6  UNL     1      -3.635   1.400   0.895  1.00  0.00     0.147 C 
ENDBRANCH  16  17
ENDBRANCH  14  16
ENDBRANCH   1  14
TORSDOF 3
