REMARK  5 active torsions:
REMARK  status: ('A' for Active; 'I' for Inactive)
REMARK    1  A    between atoms: N1_2  and  C2_5 
REMARK    2  A    between atoms: N2_7  and  C4_8 
REMARK    3  A    between atoms: C4_8  and  C5_9 
REMARK    4  A    between atoms: C5_9  and  C6_10 
REMARK    5  A    between atoms: C6_10  and  C7_11 
ROOT
HETATM    1  C2  UNL     1      -2.917   0.204  -0.810  1.00  0.00     0.219 C 
HETATM    2  C3  UNL     1      -1.848   1.032  -0.198  1.00  0.00     0.305 C 
HETATM    3  N2  UNL     1      -0.587   0.329  -0.270  1.00  0.00     0.090 N 
HETATM    4  C11 UNL     1      -0.831  -0.913  -0.965  1.00  0.00     0.279 C 
HETATM    5  C12 UNL     1      -2.295  -1.082  -1.204  1.00  0.00     0.042 C 
HETATM    6  C13 UNL     1      -2.794  -2.267  -0.417  1.00  0.00     0.014 C 
ENDROOT
BRANCH   3   7
HETATM    7  C4  UNL     1      -0.090   0.003   1.059  1.00  0.00     0.272 C 
BRANCH   7   8
HETATM    8  C5  UNL     1       1.347  -0.496   0.858  1.00  0.00     0.031 C 
BRANCH   8   9
HETATM    9  C6  UNL     1       2.105   0.661   0.233  1.00  0.00     0.011 C 
BRANCH   9  10
HETATM   10  C7  UNL     1       3.547   0.323  -0.043  1.00  0.00    -0.044 A 
HETATM   11  C8  UNL     1       4.350  -0.068   1.205  1.00  0.00     0.015 C 
HETATM   12  C9  UNL     1       4.226   1.252  -1.021  1.00  0.00     0.010 A 
HETATM   13  C10 UNL     1       3.985  -0.260  -1.325  1.00  0.00     0.010 A 
ENDBRANCH   9  10
ENDBRANCH   8   9
ENDBRANCH   7   8
ENDBRANCH   3   7
BRANCH   1  14
HETATM   14  N1  UNL     1      -3.995   0.102   0.154  1.00  0.00    -0.073 N 
HETATM   15  C1  UNL     1      -4.479   1.470   0.359  1.00  0.00     0.267 C 
ATOM     16  H12 UNL     1      -3.727  -0.369   1.018  1.00  0.00     0.277 HD
ATOM     17  H11 UNL     1      -4.727  -0.553  -0.121  1.00  0.00     0.277 HD
ENDBRANCH   1  14
TORSDOF 5
