REMARK  6 active torsions:
REMARK  status: ('A' for Active; 'I' for Inactive)
REMARK    1  A    between atoms: C3_3  and  C4_4 
REMARK    2  A    between atoms: C5_5  and  C6_6 
REMARK    3  A    between atoms: C7_7  and  C8_8 
REMARK    4  A    between atoms: C8_8  and  C9_9 
REMARK    5  A    between atoms: C9_9  and  C11_11 
REMARK    6  A    between atoms: C11_11  and  N1_12 
ROOT
HETATM    1  C1  UNL     1       3.869   1.015   1.143  1.00  0.00     0.112 C 
HETATM    2  C2  UNL     1       3.518  -0.036   0.185  1.00  0.00    -0.106 C 
HETATM    3  C3  UNL     1       3.240  -0.904  -0.627  1.00  0.00    -0.078 C 
ENDROOT
BRANCH   3   4
HETATM    4  C4  UNL     1       2.936  -1.936  -1.579  1.00  0.00     0.073 C 
HETATM    5  C5  UNL     1       1.707  -2.365  -1.742  1.00  0.00     0.073 C 
BRANCH   5   6
HETATM    6  C6  UNL     1       0.659  -1.765  -0.928  1.00  0.00    -0.078 C 
HETATM    7  C7  UNL     1      -0.222  -1.283  -0.260  1.00  0.00    -0.102 C 
BRANCH   7   8
HETATM    8  C8  UNL     1      -1.305  -0.720   0.551  1.00  0.00     0.100 C 
BRANCH   8   9
HETATM    9  C9  UNL     1      -1.804   0.555  -0.115  1.00  0.00     0.018 C 
HETATM   10  C10 UNL     1      -2.325   0.299  -1.495  1.00  0.00     0.012 C 
BRANCH   9  11
HETATM   11  C11 UNL     1      -2.867   1.129   0.803  1.00  0.00     0.234 C 
BRANCH  11  12
HETATM   12  N1  UNL     1      -2.255   1.404   2.091  1.00  0.00    -0.079 N 
ATOM     13  H13 UNL     1      -1.792   0.587   2.489  1.00  0.00     0.274 HD
ATOM     14  H12 UNL     1      -1.434   2.005   2.016  1.00  0.00     0.274 HD
ATOM     15  H11 UNL     1      -2.970   1.790   2.708  1.00  0.00     0.274 HD
ENDBRANCH  11  12
ENDBRANCH   9  11
ENDBRANCH   8   9
ENDBRANCH   7   8
ENDBRANCH   5   6
ENDBRANCH   3   4
TORSDOF 6
