REMARK  1 active torsions:
REMARK  status: ('A' for Active; 'I' for Inactive)
REMARK    1  A    between atoms: N1_6  and  C6_8 
ROOT
HETATM    1  C1  UNL     1       4.149  -0.176  -1.023  1.00  0.00     0.044 C 
HETATM    2  C2  UNL     1       2.905   0.047  -0.661  1.00  0.00     0.038 A 
HETATM    3  C3  UNL     1       1.966  -1.049  -0.460  1.00  0.00     0.034 A 
HETATM    4  C4  UNL     1       0.692  -0.834  -0.089  1.00  0.00     0.052 A 
HETATM    5  C5  UNL     1       0.183   0.517   0.131  1.00  0.00     0.116 A 
HETATM    6  N1  UNL     1      -1.037   0.763   0.488  1.00  0.00    -0.371 N 
ATOM      7  H1  UNL     1      -1.318   1.734   0.623  1.00  0.00     0.161 HD
HETATM    8  N2  UNL     1       1.102   1.585  -0.066  1.00  0.00    -0.285 N 
ATOM      9  H2  UNL     1       0.778   2.541   0.080  1.00  0.00     0.188 HD
HETATM   10  N3  UNL     1       2.434   1.379  -0.452  1.00  0.00    -0.300 N 
ATOM     11  H3  UNL     1       3.061   2.173  -0.582  1.00  0.00     0.187 HD
ENDROOT
BRANCH   6  12
HETATM   12  C6  UNL     1      -2.016  -0.272   0.704  1.00  0.00     0.075 C 
HETATM   13  C7  UNL     1      -2.684  -0.683  -0.599  1.00  0.00     0.031 C 
HETATM   14  C8  UNL     1      -3.107   0.352   1.581  1.00  0.00     0.031 C 
ENDBRANCH   6  12
TORSDOF 1
