REMARK  2 active torsions:
REMARK  status: ('A' for Active; 'I' for Inactive)
REMARK    1  A    between atoms: C4_4  and  C5_5 
REMARK    2  A    between atoms: C5_5  and  N1_6 
ROOT
HETATM    1  C1  UNL     1      -3.244   0.929  -0.681  1.00  0.00     0.017 A 
HETATM    2  C2  UNL     1      -2.749   0.894   0.608  1.00  0.00     0.003 A 
HETATM    3  C3  UNL     1      -1.639   0.159   0.969  1.00  0.00     0.027 A 
HETATM    4  C4  UNL     1      -0.999  -0.576  -0.029  1.00  0.00     0.027 A 
HETATM    5  N3  UNL     1      -1.477  -0.544  -1.287  1.00  0.00    -0.368 N 
ATOM      6  H3  UNL     1      -1.002  -1.084  -2.010  1.00  0.00     0.165 HD
HETATM    7  C9  UNL     1      -2.561   0.178  -1.620  1.00  0.00     0.088 A 
ENDROOT
BRANCH   4   8
HETATM    8  C5  UNL     1       0.193  -1.364   0.359  1.00  0.00     0.186 C 
BRANCH   8   9
HETATM    9  N1  UNL     1       1.420  -0.619   0.237  1.00  0.00    -0.346 N 
HETATM   10  C6  UNL     1       2.210  -0.545  -0.849  1.00  0.00     0.109 A 
HETATM   11  C7  UNL     1       3.290   0.261  -0.585  1.00  0.00     0.106 A 
HETATM   12  N2  UNL     1       3.151   0.681   0.682  1.00  0.00    -0.361 N 
HETATM   13  C8  UNL     1       2.025   0.145   1.162  1.00  0.00     0.182 A 
ATOM     14  H2  UNL     1       3.789   1.297   1.187  1.00  0.00     0.166 HD
ENDBRANCH   8   9
ENDBRANCH   4   8
TORSDOF 2
