REMARK  4 active torsions:
REMARK  status: ('A' for Active; 'I' for Inactive)
REMARK    1  A    between atoms: C3_3  and  C4_4 
REMARK    2  A    between atoms: N2_9  and  C7_10 
REMARK    3  A    between atoms: C7_10  and  C8_11 
REMARK    4  A    between atoms: C8_11  and  N3_12 
ROOT
HETATM    1  C1  UNL     1      -3.246  -2.197  -0.542  1.00  0.00     0.112 C 
HETATM    2  C2  UNL     1      -2.387  -1.015  -0.428  1.00  0.00    -0.103 C 
HETATM    3  C3  UNL     1      -1.660  -0.039  -0.318  1.00  0.00    -0.030 C 
ENDROOT
BRANCH   3   4
HETATM    4  C4  UNL     1      -0.797   1.101  -0.167  1.00  0.00     0.163 A 
HETATM    5  N1  UNL     1      -1.139   2.397   0.011  1.00  0.00    -0.344 N 
HETATM    6  C5  UNL     1      -0.049   3.160   0.109  1.00  0.00     0.107 A 
ATOM      7  H1  UNL     1      -2.097   2.743   0.063  1.00  0.00     0.167 HD
HETATM    8  C6  UNL     1       1.024   2.310  -0.012  1.00  0.00     0.110 A 
HETATM    9  N2  UNL     1       0.565   1.043  -0.182  1.00  0.00    -0.333 N 
BRANCH   9  10
HETATM   10  C7  UNL     1       1.400  -0.116  -0.344  1.00  0.00     0.158 C 
BRANCH  10  11
HETATM   11  C8  UNL     1       1.751  -0.781   0.955  1.00  0.00     0.249 C 
BRANCH  11  12
HETATM   12  N3  UNL     1       2.594  -1.932   0.637  1.00  0.00    -0.078 N 
ATOM     13  H33 UNL     1       2.165  -2.568  -0.034  1.00  0.00     0.274 HD
ATOM     14  H32 UNL     1       3.412  -1.686   0.080  1.00  0.00     0.274 HD
ATOM     15  H31 UNL     1       2.833  -2.384   1.520  1.00  0.00     0.274 HD
ENDBRANCH  11  12
ENDBRANCH  10  11
ENDBRANCH   9  10
ENDBRANCH   3   4
TORSDOF 4
