REMARK  10 active torsions:
REMARK  status: ('A' for Active; 'I' for Inactive)
REMARK    1  A    between atoms: C4_5  and  C5_6 
REMARK    2  A    between atoms: C5_6  and  N1_7 
REMARK    3  A    between atoms: N1_7  and  C6_9 
REMARK    4  A    between atoms: C6_9  and  N2_11 
REMARK       I    between atoms: N2_11  and  C7_13 
REMARK    5  A    between atoms: C7_13  and  C8_15 
REMARK    6  A    between atoms: C8_15  and  C9_16 
REMARK    7  A    between atoms: C9_16  and  C10_17 
REMARK    8  A    between atoms: C10_17  and  C11_18 
REMARK    9  A    between atoms: C11_18  and  C12_19 
REMARK   10  A    between atoms: C12_19  and  C13_20 
ROOT
HETATM    1  N2  UNL     1       2.220   1.559  -0.197  1.00  0.00    -0.304 N 
ATOM      2  H2  UNL     1       1.777   2.125  -0.921  1.00  0.00     0.171 HD
HETATM    3  C7  UNL     1       1.399   0.681   0.491  1.00  0.00     0.223 C 
HETATM    4  O1  UNL     1       1.721  -0.103   1.409  1.00  0.00    -0.273 OA
ENDROOT
BRANCH   1   5
HETATM    5  C6  UNL     1       3.587   1.752  -0.006  1.00  0.00     0.174 C 
HETATM    6  S1  UNL     1       4.411   2.866  -0.946  1.00  0.00    -0.041 SA
BRANCH   5   7
HETATM    7  N1  UNL     1       4.319   1.083   0.999  1.00  0.00    -0.366 N 
ATOM      8  H1  UNL     1       3.836   0.447   1.633  1.00  0.00     0.161 HD
BRANCH   7   9
HETATM    9  C5  UNL     1       5.756   1.288   1.145  1.00  0.00     0.130 C 
BRANCH   9  10
HETATM   10  C4  UNL     1       6.605   0.628   0.129  1.00  0.00     0.046 A 
HETATM   11  C2  UNL     1       6.639  -0.854  -0.020  1.00  0.00     0.105 A 
HETATM   12  C1  UNL     1       7.951  -1.470  -0.424  1.00  0.00     0.052 C 
HETATM   13  F1  UNL     1       5.870  -1.652   0.796  1.00  0.00    -0.243 F 
HETATM   14  C3  UNL     1       5.980  -0.004  -1.050  1.00  0.00     0.053 A 
ENDBRANCH   9  10
ENDBRANCH   7   9
ENDBRANCH   5   7
ENDBRANCH   1   5
BRANCH   3  15
HETATM   15  C8  UNL     1      -0.052   0.642   0.116  1.00  0.00     0.103 C 
BRANCH  15  16
HETATM   16  C9  UNL     1      -0.818  -0.360   0.948  1.00  0.00     0.009 C 
BRANCH  16  17
HETATM   17  C10 UNL     1      -2.280  -0.256   0.419  1.00  0.00     0.000 C 
BRANCH  17  18
HETATM   18  C11 UNL     1      -3.134  -1.205   1.169  1.00  0.00     0.000 C 
BRANCH  18  19
HETATM   19  C12 UNL     1      -4.551  -1.356   0.839  1.00  0.00     0.004 C 
BRANCH  19  20
HETATM   20  C13 UNL     1      -5.511  -0.251   0.929  1.00  0.00    -0.014 C 
HETATM   21  C14 UNL     1      -5.343   0.957   0.089  1.00  0.00     0.004 C 
HETATM   22  C15 UNL     1      -5.461   0.386  -1.310  1.00  0.00     0.000 C 
HETATM   23  C16 UNL     1      -6.667  -0.513  -1.163  1.00  0.00     0.000 C 
HETATM   24  C17 UNL     1      -6.854  -0.766   0.330  1.00  0.00     0.004 C 
ENDBRANCH  19  20
ENDBRANCH  18  19
ENDBRANCH  17  18
ENDBRANCH  16  17
ENDBRANCH  15  16
ENDBRANCH   3  15
TORSDOF 10
