REMARK  8 active torsions:
REMARK  status: ('A' for Active; 'I' for Inactive)
REMARK    1  A    between atoms: O1_2  and  C2_3 
REMARK    2  A    between atoms: C2_3  and  C3_4 
REMARK    3  A    between atoms: C3_4  and  O2_6 
REMARK    4  A    between atoms: O2_6  and  C4_7 
REMARK    5  A    between atoms: C4_7  and  C5_8 
REMARK    6  A    between atoms: C5_8  and  C6_9 
REMARK    7  A    between atoms: C6_9  and  N1_10 
REMARK       I    between atoms: N1_10  and  C7_12 
REMARK       I    between atoms: C7_12  and  N2_14 
REMARK    8  A    between atoms: N2_14  and  C8_16 
ROOT
HETATM    1  N1  UNL     1       0.817  -1.180  -1.425  1.00  0.00    -0.343 N 
ATOM      2  H1  UNL     1       0.661  -1.748  -2.258  1.00  0.00     0.164 HD
HETATM    3  C7  UNL     1      -0.295  -0.640  -0.735  1.00  0.00     0.316 C 
HETATM    4  O3  UNL     1      -0.060   0.055   0.284  1.00  0.00    -0.247 OA
HETATM    5  N2  UNL     1      -1.625  -0.882  -1.186  1.00  0.00    -0.334 N 
ATOM      6  H2  UNL     1      -1.756  -1.458  -2.017  1.00  0.00     0.165 HD
ENDROOT
BRANCH   1   7
HETATM    7  C6  UNL     1       2.147  -0.947  -0.980  1.00  0.00     0.126 C 
BRANCH   7   8
HETATM    8  C5  UNL     1       2.485  -1.438   0.389  1.00  0.00     0.046 C 
BRANCH   8   9
HETATM    9  C4  UNL     1       3.958  -1.073   0.626  1.00  0.00     0.173 C 
BRANCH   9  10
HETATM   10  O2  UNL     1       4.066   0.311   0.528  1.00  0.00    -0.355 OA
BRANCH  10  11
HETATM   11  C3  UNL     1       5.382   0.757   0.730  1.00  0.00     0.330 C 
HETATM   12  F1  UNL     1       5.442   1.548   1.845  1.00  0.00    -0.217 F 
BRANCH  11  13
HETATM   13  C2  UNL     1       5.933   1.417  -0.492  1.00  0.00     0.232 C 
BRANCH  13  14
HETATM   14  O1  UNL     1       7.201   1.871  -0.287  1.00  0.00    -0.391 OA
HETATM   15  C1  UNL     1       8.112   0.894   0.040  1.00  0.00     0.201 C 
ENDBRANCH  13  14
ENDBRANCH  11  13
ENDBRANCH  10  11
ENDBRANCH   9  10
ENDBRANCH   8   9
ENDBRANCH   7   8
ENDBRANCH   1   7
BRANCH   5  16
HETATM   16  C8  UNL     1      -2.778  -0.362  -0.537  1.00  0.00     0.035 C 
HETATM   17  C9  UNL     1      -2.760   1.128  -0.540  1.00  0.00     0.035 C 
HETATM   18  C10 UNL     1      -3.982   1.707   0.187  1.00  0.00    -0.012 C 
HETATM   19  C11 UNL     1      -5.187   1.292  -0.600  1.00  0.00     0.009 C 
HETATM   20  C15 UNL     1      -3.969   1.204   1.593  1.00  0.00     0.009 C 
HETATM   21  C12 UNL     1      -5.234  -0.223  -0.610  1.00  0.00    -0.012 C 
HETATM   22  C13 UNL     1      -5.376  -0.709   0.795  1.00  0.00     0.009 C 
HETATM   23  C17 UNL     1      -4.036  -0.784  -1.310  1.00  0.00     0.035 C 
HETATM   24  C14 UNL     1      -4.116  -0.312   1.552  1.00  0.00    -0.012 C 
HETATM   25  C16 UNL     1      -2.951  -0.949   0.850  1.00  0.00     0.035 C 
ENDBRANCH   5  16
TORSDOF 8
