REMARK  9 active torsions:
REMARK  status: ('A' for Active; 'I' for Inactive)
REMARK       I    between atoms: C1_2  and  N1_3 
REMARK    1  A    between atoms: C1_2  and  C8_12 
REMARK    2  A    between atoms: N1_3  and  C2_5 
REMARK    3  A    between atoms: C2_5  and  C3_6 
REMARK    4  A    between atoms: C3_6  and  C4_7 
REMARK    5  A    between atoms: C4_7  and  C5_8 
REMARK    6  A    between atoms: C5_8  and  C6_9 
REMARK    7  A    between atoms: C6_9  and  C7_10 
REMARK    8  A    between atoms: C10_14  and  C11_15 
REMARK    9  A    between atoms: C11_15  and  O2_16 
ROOT
HETATM    1  C8  UNL     1      -1.606   0.204   2.057  1.00  0.00     0.083 C 
HETATM    2  C9  UNL     1      -1.411   1.654   1.597  1.00  0.00     0.021 C 
HETATM    3  C10 UNL     1      -2.326   1.851   0.418  1.00  0.00     0.014 C 
HETATM    4  C12 UNL     1      -3.055   0.587   0.271  1.00  0.00    -0.004 C 
HETATM    5  C13 UNL     1      -3.380   0.146  -1.109  1.00  0.00     0.005 C 
HETATM    6  C14 UNL     1      -4.264  -1.070  -0.994  1.00  0.00     0.000 C 
HETATM    7  C15 UNL     1      -3.805  -2.097  -0.049  1.00  0.00     0.000 C 
HETATM    8  C16 UNL     1      -2.943  -1.683   1.070  1.00  0.00     0.006 C 
HETATM    9  C17 UNL     1      -2.101  -0.481   0.831  1.00  0.00     0.003 C 
ENDROOT
BRANCH   1  10
HETATM   10  C1  UNL     1      -0.333  -0.351   2.566  1.00  0.00     0.222 C 
HETATM   11  O1  UNL     1      -0.261  -0.753   3.751  1.00  0.00    -0.273 OA
HETATM   12  N1  UNL     1       0.814  -0.438   1.736  1.00  0.00    -0.361 N 
ATOM     13  H1  UNL     1       0.752  -0.109   0.772  1.00  0.00     0.162 HD
BRANCH  12  14
HETATM   14  C2  UNL     1       2.075  -0.980   2.214  1.00  0.00     0.122 C 
BRANCH  14  15
HETATM   15  C3  UNL     1       3.112  -0.944   1.112  1.00  0.00     0.020 C 
BRANCH  15  16
HETATM   16  C4  UNL     1       3.354   0.480   0.644  1.00  0.00     0.002 C 
BRANCH  16  17
HETATM   17  C5  UNL     1       4.389   0.530  -0.455  1.00  0.00     0.001 C 
BRANCH  17  18
HETATM   18  C6  UNL     1       3.949  -0.282  -1.665  1.00  0.00     0.015 C 
BRANCH  18  19
HETATM   19  C7  UNL     1       4.993  -0.222  -2.761  1.00  0.00     0.114 C 
HETATM   20 CL1  UNL     1       6.552  -0.881  -2.183  1.00  0.00    -0.130 Cl
ENDBRANCH  18  19
ENDBRANCH  17  18
ENDBRANCH  16  17
ENDBRANCH  15  16
ENDBRANCH  14  15
ENDBRANCH  12  14
ENDBRANCH   1  10
BRANCH   3  21
HETATM   21  C11 UNL     1      -1.622   2.344  -0.810  1.00  0.00     0.169 C 
BRANCH  21  22
HETATM   22  O2  UNL     1      -0.638   1.495  -1.258  1.00  0.00    -0.400 OA
ATOM     23  H2  UNL     1      -0.192   1.807  -2.036  1.00  0.00     0.209 HD
ENDBRANCH  21  22
ENDBRANCH   3  21
TORSDOF 9
