REMARK  8 active torsions:
REMARK  status: ('A' for Active; 'I' for Inactive)
REMARK       I    between atoms: C2_2  and  N1_4 
REMARK    1  A    between atoms: N1_4  and  C3_6 
REMARK    2  A    between atoms: C3_6  and  C4_7 
REMARK    3  A    between atoms: C4_7  and  C5_8 
REMARK    4  A    between atoms: C5_8  and  C6_9 
REMARK    5  A    between atoms: C6_9  and  C7_10 
REMARK    6  A    between atoms: C7_10  and  C8_11 
REMARK    7  A    between atoms: C8_11  and  N2_12 
REMARK       I    between atoms: N2_12  and  C9_14 
REMARK    8  A    between atoms: C9_14  and  C10_16 
ROOT
HETATM    1  N2  UNL     1      -0.364  -0.437   0.386  1.00  0.00    -0.361 N 
ATOM      2  H2  UNL     1      -0.286  -1.367   0.796  1.00  0.00     0.162 HD
HETATM    3  C9  UNL     1      -1.620   0.164   0.295  1.00  0.00     0.224 C 
HETATM    4  O2  UNL     1      -1.700   1.327  -0.220  1.00  0.00    -0.273 OA
ENDROOT
BRANCH   1   5
HETATM    5  C8  UNL     1       0.819   0.223  -0.084  1.00  0.00     0.122 C 
BRANCH   5   6
HETATM    6  C7  UNL     1       1.113   1.507   0.643  1.00  0.00     0.020 C 
BRANCH   6   7
HETATM    7  C6  UNL     1       2.353   2.207   0.144  1.00  0.00     0.002 C 
BRANCH   7   8
HETATM    8  C5  UNL     1       3.544   1.326   0.317  1.00  0.00     0.002 C 
BRANCH   8   9
HETATM    9  C4  UNL     1       4.822   2.001  -0.162  1.00  0.00     0.020 C 
BRANCH   9  10
HETATM   10  C3  UNL     1       6.020   1.126   0.009  1.00  0.00     0.122 C 
BRANCH  10  11
HETATM   11  N1  UNL     1       5.920  -0.115  -0.728  1.00  0.00    -0.361 N 
HETATM   12  C2  UNL     1       6.948  -1.092  -0.703  1.00  0.00     0.213 C 
HETATM   13  C1  UNL     1       6.833  -2.350  -1.457  1.00  0.00     0.117 C 
HETATM   14  O1  UNL     1       7.990  -0.894  -0.026  1.00  0.00    -0.274 OA
ATOM     15  H1  UNL     1       5.083  -0.293  -1.283  1.00  0.00     0.162 HD
ENDBRANCH  10  11
ENDBRANCH   9  10
ENDBRANCH   8   9
ENDBRANCH   7   8
ENDBRANCH   6   7
ENDBRANCH   5   6
ENDBRANCH   1   5
BRANCH   3  16
HETATM   16  C10 UNL     1      -2.894  -0.474   0.768  1.00  0.00     0.112 C 
HETATM   17  C11 UNL     1      -3.930   0.618   0.791  1.00  0.00     0.017 C 
HETATM   18  C12 UNL     1      -4.326   1.124  -0.551  1.00  0.00     0.001 C 
HETATM   19  C13 UNL     1      -5.780   0.717  -0.789  1.00  0.00     0.000 C 
HETATM   20  C14 UNL     1      -5.777  -0.724  -1.325  1.00  0.00     0.000 C 
HETATM   21  C15 UNL     1      -5.761  -1.718  -0.214  1.00  0.00     0.003 C 
HETATM   22  C16 UNL     1      -4.470  -2.334   0.129  1.00  0.00     0.038 C 
HETATM   23  C17 UNL     1      -3.217  -1.582  -0.186  1.00  0.00     0.183 C 
HETATM   24  F1  UNL     1      -2.203  -2.521  -0.064  1.00  0.00    -0.249 F 
ENDBRANCH   3  16
TORSDOF 8
