REMARK  8 active torsions:
REMARK  status: ('A' for Active; 'I' for Inactive)
REMARK    1  A    between atoms: N1_6  and  C6_7 
REMARK    2  A    between atoms: C6_7  and  C7_8 
REMARK    3  A    between atoms: C7_8  and  C8_9 
REMARK    4  A    between atoms: C8_9  and  N2_10 
REMARK       I    between atoms: N2_10  and  C9_12 
REMARK       I    between atoms: C9_12  and  N3_14 
REMARK    5  A    between atoms: N3_14  and  C10_16 
REMARK    6  A    between atoms: C10_16  and  C11_17 
REMARK    7  A    between atoms: C11_17  and  C12_18 
REMARK    8  A    between atoms: C12_18  and  C13_19 
ROOT
HETATM    1  N2  UNL     1      -0.628   2.645  -0.528  1.00  0.00    -0.323 N 
ATOM      2  H2  UNL     1      -0.118   3.479  -0.818  1.00  0.00     0.169 HD
HETATM    3  C9  UNL     1       0.151   1.704   0.134  1.00  0.00     0.319 C 
HETATM    4  O1  UNL     1      -0.220   0.606   0.632  1.00  0.00    -0.247 OA
HETATM    5  N3  UNL     1       1.566   1.969   0.295  1.00  0.00    -0.343 N 
ATOM      6  H3  UNL     1       1.933   2.852  -0.060  1.00  0.00     0.164 HD
ENDROOT
BRANCH   1   7
HETATM    7  C8  UNL     1      -1.990   2.657  -0.871  1.00  0.00     0.067 C 
BRANCH   7   8
HETATM    8  C7  UNL     1      -2.496   1.689  -1.846  1.00  0.00     0.075 C 
BRANCH   8   9
HETATM    9  C6  UNL     1      -2.493   0.239  -1.556  1.00  0.00     0.277 C 
BRANCH   9  10
HETATM   10  N1  UNL     1      -3.348  -0.027  -0.401  1.00  0.00     0.089 N 
HETATM   11  C5  UNL     1      -3.232  -1.373   0.032  1.00  0.00     0.272 C 
HETATM   12  C4  UNL     1      -4.370  -2.175  -0.550  1.00  0.00     0.031 C 
HETATM   13  C3  UNL     1      -5.590  -1.706   0.229  1.00  0.00     0.007 C 
HETATM   14  C2  UNL     1      -5.800  -0.230   0.037  1.00  0.00     0.010 C 
HETATM   15  C1  UNL     1      -6.116   0.394   1.374  1.00  0.00     0.011 C 
HETATM   16  C18 UNL     1      -4.672   0.485  -0.594  1.00  0.00     0.276 C 
ENDBRANCH   9  10
ENDBRANCH   8   9
ENDBRANCH   7   8
ENDBRANCH   1   7
BRANCH   5  17
HETATM   17  C10 UNL     1       2.481   1.060   0.925  1.00  0.00     0.124 C 
BRANCH  17  18
HETATM   18  C11 UNL     1       2.576  -0.202   0.144  1.00  0.00     0.020 C 
BRANCH  18  19
HETATM   19  C12 UNL     1       3.521  -1.229   0.742  1.00  0.00     0.006 C 
BRANCH  19  20
HETATM   20  C13 UNL     1       4.918  -0.672   0.835  1.00  0.00    -0.014 C 
HETATM   21  C14 UNL     1       5.843  -1.707   1.423  1.00  0.00     0.004 C 
HETATM   22  C15 UNL     1       7.212  -1.240   0.969  1.00  0.00     0.000 C 
HETATM   23  C16 UNL     1       7.011  -0.225  -0.113  1.00  0.00     0.000 C 
HETATM   24  C17 UNL     1       5.537  -0.383  -0.501  1.00  0.00     0.004 C 
ENDBRANCH  19  20
ENDBRANCH  18  19
ENDBRANCH  17  18
ENDBRANCH   5  17
TORSDOF 8
