REMARK  4 active torsions:
REMARK  status: ('A' for Active; 'I' for Inactive)
REMARK    1  A    between atoms: N1_6  and  C6_7 
REMARK    2  A    between atoms: C11_15  and  C12_16 
REMARK    3  A    between atoms: C14_23  and  C15_24 
REMARK       I    between atoms: C15_24  and  N5_26 
REMARK    4  A    between atoms: N5_26  and  C16_28 
ROOT
HETATM    1  C16 UNL     1      -3.517  -0.379   0.987  1.00  0.00     0.145 A 
HETATM    2  N6  UNL     1      -3.085   0.806   1.456  1.00  0.00    -0.284 N 
ATOM      3  H6  UNL     1      -2.167   1.211   1.272  1.00  0.00     0.188 HD
HETATM    4  N7  UNL     1      -4.038   1.372   2.198  1.00  0.00    -0.302 N 
ATOM      5  H7  UNL     1      -3.963   2.274   2.669  1.00  0.00     0.186 HD
HETATM    6  C17 UNL     1      -5.108   0.569   2.227  1.00  0.00     0.046 A 
HETATM    7  C18 UNL     1      -6.408   0.777   2.923  1.00  0.00     0.071 C 
HETATM    8  C19 UNL     1      -4.786  -0.535   1.466  1.00  0.00     0.113 A 
HETATM    9  C20 UNL     1      -5.654  -1.667   1.221  1.00  0.00     0.105 C 
HETATM   10  N8  UNL     1      -6.362  -2.564   1.033  1.00  0.00    -0.191 NA
ENDROOT
BRANCH   1  11
HETATM   11  N5  UNL     1      -2.871  -1.223   0.228  1.00  0.00    -0.305 N 
HETATM   12  C15 UNL     1      -1.553  -0.962  -0.213  1.00  0.00     0.275 C 
HETATM   13  O3  UNL     1      -0.672  -0.811   0.665  1.00  0.00    -0.266 OA
ATOM     14  H5  UNL     1      -3.328  -2.091  -0.053  1.00  0.00     0.170 HD
BRANCH  12  15
HETATM   15  C14 UNL     1      -1.258  -0.875  -1.624  1.00  0.00     0.131 A 
HETATM   16  C2  UNL     1      -2.177  -1.030  -2.649  1.00  0.00    -0.027 A 
HETATM   17  C1  UNL     1      -3.628  -1.310  -2.535  1.00  0.00     0.050 C 
HETATM   18  C3  UNL     1      -1.475  -0.871  -3.807  1.00  0.00     0.035 A 
HETATM   19  C4  UNL     1      -0.185  -0.631  -3.467  1.00  0.00     0.031 A 
HETATM   20  C5  UNL     1       0.960  -0.392  -4.396  1.00  0.00     0.069 C 
HETATM   21  N1  UNL     1      -0.031  -0.629  -2.131  1.00  0.00    -0.145 N 
BRANCH  21  22
HETATM   22  C6  UNL     1       1.170  -0.415  -1.386  1.00  0.00     0.693 A 
HETATM   23  N2  UNL     1       2.080  -1.366  -1.186  1.00  0.00    -0.155 N 
HETATM   24  C7  UNL     1       3.228  -1.228  -0.494  1.00  0.00     0.273 A 
ATOM     25  H2  UNL     1       1.891  -2.282  -1.593  1.00  0.00     0.187 HD
HETATM   26  O1  UNL     1       3.981  -2.236  -0.401  1.00  0.00    -0.267 OA
HETATM   27  C8  UNL     1       3.547   0.012   0.092  1.00  0.00     0.074 A 
HETATM   28  C9  UNL     1       4.629   0.353   0.813  1.00  0.00    -0.021 A 
HETATM   29  C13 UNL     1       2.600   0.980  -0.124  1.00  0.00     0.107 A 
HETATM   30  C10 UNL     1       5.806  -0.534   1.179  1.00  0.00     0.051 C 
HETATM   31  C11 UNL     1       4.689   1.649   1.272  1.00  0.00     0.079 A 
HETATM   32  S1  UNL     1       3.254   2.341   0.692  1.00  0.00    -0.065 SA
HETATM   33  N4  UNL     1       1.451   0.774  -0.838  1.00  0.00    -0.184 N 
ATOM     34  H4  UNL     1       0.793   1.544  -0.956  1.00  0.00     0.185 HD
BRANCH  31  35
HETATM   35  C12 UNL     1       5.693   2.347   2.069  1.00  0.00     0.272 C 
HETATM   36  N3  UNL     1       6.871   1.765   2.552  1.00  0.00    -0.057 NA
HETATM   37  O2  UNL     1       5.527   3.580   2.374  1.00  0.00    -0.270 OA
ENDBRANCH  31  35
ENDBRANCH  21  22
ENDBRANCH  12  15
ENDBRANCH   1  11
TORSDOF 4
