REMARK  9 active torsions:
REMARK  status: ('A' for Active; 'I' for Inactive)
REMARK    1  A    between atoms: N1_6  and  C6_7 
REMARK    2  A    between atoms: C9_10  and  N2_11 
REMARK    3  A    between atoms: N2_11  and  C10_13 
REMARK    4  A    between atoms: C13_16  and  C14_17 
REMARK    5  A    between atoms: C14_17  and  N4_21 
REMARK    6  A    between atoms: N4_21  and  C15_23 
REMARK    7  A    between atoms: C17_28  and  C18_29 
REMARK    8  A    between atoms: C19_30  and  C20_31 
REMARK    9  A    between atoms: C20_31  and  O2_33 
ROOT
HETATM    1  C10 UNL     1      -0.564   0.886  -1.944  1.00  0.00     0.033 A 
HETATM    2  C11 UNL     1      -0.469  -0.162  -2.836  1.00  0.00     0.030 A 
HETATM    3  C12 UNL     1       0.701  -0.882  -2.938  1.00  0.00     0.017 A 
HETATM    4  C13 UNL     1       1.793  -0.568  -2.154  1.00  0.00     0.008 A 
HETATM    5  C22 UNL     1       1.682   0.485  -1.265  1.00  0.00     0.017 A 
HETATM    6  C23 UNL     1       0.512   1.220  -1.149  1.00  0.00     0.030 A 
ENDROOT
BRANCH   1   7
HETATM    7  N2  UNL     1      -1.778   1.616  -1.853  1.00  0.00    -0.341 N 
ATOM      8  H2  UNL     1      -1.885   2.469  -2.402  1.00  0.00     0.167 HD
BRANCH   7   9
HETATM    9  C9  UNL     1      -2.748   1.233  -1.097  1.00  0.00     0.120 A 
HETATM   10  C8  UNL     1      -2.585   0.082  -0.367  1.00  0.00     0.054 A 
HETATM   11  C7  UNL     1      -3.649  -0.299   0.434  1.00  0.00     0.055 A 
HETATM   12  C6  UNL     1      -4.815   0.457   0.484  1.00  0.00     0.141 A 
HETATM   13  N7  UNL     1      -4.892   1.571  -0.263  1.00  0.00    -0.282 N 
HETATM   14  N6  UNL     1      -3.880   1.962  -1.045  1.00  0.00    -0.284 N 
ATOM     15  H7  UNL     1      -5.743   2.132  -0.233  1.00  0.00     0.188 HD
ATOM     16  H6  UNL     1      -3.965   2.812  -1.602  1.00  0.00     0.188 HD
BRANCH  12  17
HETATM   17  N1  UNL     1      -5.897   0.051   1.312  1.00  0.00    -0.243 N 
HETATM   18  C4  UNL     1      -7.188   0.424   1.176  1.00  0.00     0.034 A 
HETATM   19  C3  UNL     1      -7.958  -0.162   2.154  1.00  0.00     0.052 A 
HETATM   20  C5  UNL     1      -7.698   1.344   0.112  1.00  0.00     0.070 C 
HETATM   21  C2  UNL     1      -7.082  -0.918   2.904  1.00  0.00     0.024 A 
HETATM   22  C1  UNL     1      -7.451  -1.753   4.098  1.00  0.00     0.070 C 
HETATM   23  N8  UNL     1      -5.871  -0.756   2.362  1.00  0.00    -0.297 N 
ATOM     24  H8  UNL     1      -5.025  -1.202   2.716  1.00  0.00     0.187 HD
ENDBRANCH  12  17
ENDBRANCH   7   9
ENDBRANCH   1   7
BRANCH   4  25
HETATM   25  C14 UNL     1       3.038  -1.318  -2.248  1.00  0.00     0.111 C 
HETATM   26  N3  UNL     1       3.139  -2.299  -3.077  1.00  0.00    -0.385 N 
ATOM     27  H32 UNL     1       2.347  -2.552  -3.669  1.00  0.00     0.157 HD
ATOM     28  H31 UNL     1       4.011  -2.824  -3.143  1.00  0.00     0.157 HD
BRANCH  25  29
HETATM   29  N4  UNL     1       4.134  -0.968  -1.429  1.00  0.00    -0.320 N 
ATOM     30  H4  UNL     1       4.562  -0.053  -1.572  1.00  0.00     0.169 HD
BRANCH  29  31
HETATM   31  C15 UNL     1       4.626  -1.723  -0.518  1.00  0.00     0.192 A 
HETATM   32  O1  UNL     1       4.258  -2.934  -0.141  1.00  0.00    -0.218 OA
HETATM   33  N5  UNL     1       4.998  -3.376   0.817  1.00  0.00    -0.269 N 
HETATM   34  C16 UNL     1       5.914  -2.457   1.128  1.00  0.00     0.139 A 
ATOM     35  H5  UNL     1       4.899  -4.286   1.267  1.00  0.00     0.194 HD
HETATM   36  C17 UNL     1       5.691  -1.398   0.287  1.00  0.00     0.088 A 
BRANCH  36  37
HETATM   37  C18 UNL     1       6.408  -0.144   0.213  1.00  0.00    -0.058 C 
HETATM   38  C19 UNL     1       7.002   0.910   0.133  1.00  0.00    -0.069 C 
BRANCH  38  39
HETATM   39  C20 UNL     1       7.699   2.191   0.026  1.00  0.00     0.193 C 
HETATM   40  C21 UNL     1       9.015   2.171   0.776  1.00  0.00     0.053 C 
BRANCH  39  41
HETATM   41  O2  UNL     1       7.938   2.406  -1.332  1.00  0.00    -0.384 OA
ATOM     42  H2  UNL     1       8.391   3.238  -1.402  1.00  0.00     0.211 HD
ENDBRANCH  39  41
ENDBRANCH  38  39
ENDBRANCH  36  37
ENDBRANCH  29  31
ENDBRANCH  25  29
ENDBRANCH   4  25
TORSDOF 9
