REMARK  22 active torsions:
REMARK  status: ('A' for Active; 'I' for Inactive)
REMARK    1  A    between atoms: C2_2  and  C3_3 
REMARK    2  A    between atoms: C3_3  and  C4_4 
REMARK    3  A    between atoms: C4_4  and  O1_5 
REMARK    4  A    between atoms: C4_4  and  N1_7 
REMARK    5  A    between atoms: N1_7  and  C5_9 
REMARK    6  A    between atoms: C5_9  and  C6_10 
REMARK    7  A    between atoms: C6_10  and  N2_11 
REMARK    8  A    between atoms: C10_17  and  C11_18 
REMARK       I    between atoms: C11_18  and  N4_20 
REMARK    9  A    between atoms: N4_20  and  C12_22 
REMARK   10  A    between atoms: C12_22  and  C13_23 
REMARK   11  A    between atoms: C12_22  and  C14_26 
REMARK   12  A    between atoms: C13_23  and  O3_24 
REMARK   13  A    between atoms: C17_35  and  C18_36 
REMARK   14  A    between atoms: C18_36  and  C19_37 
REMARK   15  A    between atoms: C19_37  and  C20_38 
REMARK   16  A    between atoms: C21_39  and  C22_40 
REMARK   17  A    between atoms: C23_41  and  C24_42 
REMARK   18  A    between atoms: C25_43  and  C26_44 
REMARK   19  A    between atoms: C26_44  and  C27_45 
REMARK   20  A    between atoms: C27_45  and  C28_46 
REMARK   21  A    between atoms: C28_46  and  C29_47 
REMARK   22  A    between atoms: C29_47  and  N7_48 
ROOT
HETATM    1  C3  UNL     1      -3.848   0.460   1.736  1.00  0.00     0.108 C 
HETATM    2  N3  UNL     1      -4.595   1.547   2.363  1.00  0.00    -0.363 N 
ATOM      3  H3  UNL     1      -5.299   1.358   3.077  1.00  0.00     0.161 HD
HETATM    4  C10 UNL     1      -4.311   2.876   1.948  1.00  0.00     0.166 C 
HETATM    5  C15 UNL     1      -2.980   3.356   2.352  1.00  0.00     0.280 C 
HETATM    6  O5  UNL     1      -2.526   4.414   1.923  1.00  0.00    -0.265 OA
HETATM    7  N6  UNL     1      -2.167   2.579   3.282  1.00  0.00    -0.292 N 
ATOM      8  H6  UNL     1      -1.441   3.089   3.786  1.00  0.00     0.172 HD
HETATM    9  C16 UNL     1      -2.274   1.200   3.561  1.00  0.00     0.232 C 
HETATM   10  O6  UNL     1      -2.067   0.826   4.744  1.00  0.00    -0.273 OA
HETATM   11  C17 UNL     1      -2.607   0.129   2.533  1.00  0.00     0.125 C 
ENDROOT
BRANCH  11  12
HETATM   12  C18 UNL     1      -1.370  -0.183   1.914  1.00  0.00     0.102 C 
BRANCH  12  13
HETATM   13  C19 UNL     1      -0.560  -1.027   1.658  1.00  0.00    -0.155 C 
BRANCH  13  14
HETATM   14  C20 UNL     1       0.357  -2.117   1.397  1.00  0.00     0.050 C 
HETATM   15  C21 UNL     1       1.554  -1.766   0.822  1.00  0.00     0.008 C 
BRANCH  15  16
HETATM   16  C22 UNL     1       2.602  -2.680   0.468  1.00  0.00     0.001 C 
HETATM   17  C23 UNL     1       3.788  -2.248  -0.008  1.00  0.00    -0.000 C 
BRANCH  17  18
HETATM   18  C24 UNL     1       4.021  -0.826  -0.173  1.00  0.00    -0.004 C 
HETATM   19  C25 UNL     1       5.047  -0.220  -0.530  1.00  0.00    -0.027 C 
BRANCH  19  20
HETATM   20  C26 UNL     1       6.409  -0.585  -0.925  1.00  0.00     0.027 C 
BRANCH  20  21
HETATM   21  C27 UNL     1       7.360  -0.043   0.113  1.00  0.00     0.005 C 
BRANCH  21  22
HETATM   22  C28 UNL     1       8.802  -0.250  -0.117  1.00  0.00     0.028 C 
BRANCH  22  23
HETATM   23  C29 UNL     1       9.308   0.523  -1.316  1.00  0.00     0.236 C 
BRANCH  23  24
HETATM   24  N7  UNL     1      10.749   0.469  -1.428  1.00  0.00    -0.079 N 
HETATM   25  C30 UNL     1      11.193   1.151  -2.625  1.00  0.00     0.271 C 
HETATM   26  C31 UNL     1      11.229  -0.882  -1.481  1.00  0.00     0.271 C 
HETATM   27  C32 UNL     1      11.420   1.130  -0.293  1.00  0.00     0.271 C 
ENDBRANCH  23  24
ENDBRANCH  22  23
ENDBRANCH  21  22
ENDBRANCH  20  21
ENDBRANCH  19  20
ENDBRANCH  17  18
ENDBRANCH  15  16
ENDBRANCH  13  14
ENDBRANCH  12  13
ENDBRANCH  11  12
BRANCH   1  28
HETATM   28  C2  UNL     1      -3.588   0.673   0.319  1.00  0.00     0.036 C 
HETATM   29  C1  UNL     1      -2.932  -0.354  -0.521  1.00  0.00     0.008 C 
ENDBRANCH   1  28
BRANCH   1  30
HETATM   30  C4  UNL     1      -4.757  -0.680   1.936  1.00  0.00     0.141 C 
BRANCH  30  31
HETATM   31  O1  UNL     1      -5.245  -0.885   3.124  1.00  0.00    -0.348 OA
ATOM     32  H1  UNL     1      -5.832  -1.621   3.253  1.00  0.00     0.219 HD
ENDBRANCH  30  31
BRANCH  30  33
HETATM   33  N1  UNL     1      -5.188  -1.612   0.973  1.00  0.00    -0.371 N 
ATOM     34  H1  UNL     1      -4.888  -1.547   0.000  1.00  0.00     0.161 HD
BRANCH  33  35
HETATM   35  C5  UNL     1      -6.104  -2.702   1.435  1.00  0.00     0.149 C 
BRANCH  35  36
HETATM   36  C6  UNL     1      -6.493  -3.586   0.318  1.00  0.00     0.255 C 
BRANCH  36  37
HETATM   37  N2  UNL     1      -5.496  -4.347  -0.341  1.00  0.00    -0.077 N 
HETATM   38  C7  UNL     1      -5.611  -4.135  -1.781  1.00  0.00     0.271 C 
HETATM   39  C8  UNL     1      -5.844  -5.787  -0.101  1.00  0.00     0.271 C 
HETATM   40  C9  UNL     1      -4.141  -4.142   0.045  1.00  0.00     0.271 C 
ENDBRANCH  36  37
ENDBRANCH  35  36
ENDBRANCH  33  35
ENDBRANCH  30  33
ENDBRANCH   1  30
BRANCH   4  41
HETATM   41  C11 UNL     1      -4.929   3.508   0.836  1.00  0.00     0.274 C 
HETATM   42  O2  UNL     1      -6.195   3.490   0.621  1.00  0.00    -0.266 OA
HETATM   43  N4  UNL     1      -4.266   4.244  -0.188  1.00  0.00    -0.341 N 
ATOM     44  H4  UNL     1      -3.249   4.316  -0.171  1.00  0.00     0.163 HD
BRANCH  43  45
HETATM   45  C12 UNL     1      -5.008   4.895  -1.258  1.00  0.00     0.197 C 
BRANCH  45  46
HETATM   46  C13 UNL     1      -4.167   5.818  -2.083  1.00  0.00     0.198 C 
BRANCH  46  47
HETATM   47  O3  UNL     1      -3.535   6.846  -1.444  1.00  0.00    -0.398 OA
ATOM     48  H3  UNL     1      -3.001   7.432  -1.968  1.00  0.00     0.209 HD
ENDBRANCH  46  47
ENDBRANCH  45  46
BRANCH  45  49
HETATM   49  C14 UNL     1      -5.526   3.870  -2.229  1.00  0.00     0.256 C 
HETATM   50  N5  UNL     1      -6.739   4.139  -2.899  1.00  0.00    -0.060 NA
HETATM   51  O4  UNL     1      -4.928   2.776  -2.458  1.00  0.00    -0.274 OA
ENDBRANCH  45  49
ENDBRANCH  43  45
ENDBRANCH   4  41
TORSDOF 22
