REMARK  20 active torsions:
REMARK  status: ('A' for Active; 'I' for Inactive)
REMARK    1  A    between atoms: C2_2  and  N1_3 
REMARK    2  A    between atoms: N1_3  and  C5_6 
REMARK    3  A    between atoms: C5_6  and  C6_7 
REMARK    4  A    between atoms: C6_7  and  C7_8 
REMARK    5  A    between atoms: C7_8  and  C8_9 
REMARK    6  A    between atoms: C8_9  and  N2_10 
REMARK    7  A    between atoms: C8_9  and  C18_27 
REMARK       I    between atoms: N2_10  and  C9_11 
REMARK    8  A    between atoms: C9_11  and  C10_13 
REMARK    9  A    between atoms: C10_13  and  C11_14 
REMARK   10  A    between atoms: C11_14  and  C12_15 
REMARK   11  A    between atoms: C12_15  and  C13_16 
REMARK   12  A    between atoms: C13_16  and  C14_17 
REMARK   13  A    between atoms: C14_17  and  N3_18 
REMARK   14  A    between atoms: C18_27  and  C19_29 
REMARK   15  A    between atoms: C19_29  and  C20_30 
REMARK   16  A    between atoms: C20_30  and  C21_31 
REMARK   17  A    between atoms: C21_31  and  C22_32 
REMARK       I    between atoms: C22_32  and  N6_34 
REMARK   18  A    between atoms: C26_38  and  O4_39 
REMARK   19  A    between atoms: C27_41  and  O5_42 
REMARK   20  A    between atoms: C29_45  and  N7_46 
ROOT
HETATM    1  C8  UNL     1       1.173  -0.816  -1.163  1.00  0.00     0.134 C 
ENDROOT
BRANCH   1   2
HETATM    2  C7  UNL     1       0.308  -2.017  -0.829  1.00  0.00     0.078 C 
BRANCH   2   3
HETATM    3  C6  UNL     1       1.347  -3.184  -0.720  1.00  0.00     0.035 C 
BRANCH   3   4
HETATM    4  C5  UNL     1       0.648  -4.460  -0.495  1.00  0.00     0.237 C 
BRANCH   4   5
HETATM    5  N1  UNL     1       1.592  -5.582  -0.344  1.00  0.00    -0.075 N 
HETATM    6  C3  UNL     1       0.942  -6.779  -0.781  1.00  0.00     0.272 C 
HETATM    7  C4  UNL     1       1.944  -5.733   1.064  1.00  0.00     0.272 C 
BRANCH   5   8
HETATM    8  C2  UNL     1       2.786  -5.262  -1.078  1.00  0.00     0.232 C 
HETATM    9  C1  UNL     1       3.732  -6.412  -1.249  1.00  0.00     0.034 C 
ENDBRANCH   5   8
ENDBRANCH   4   5
ENDBRANCH   3   4
ENDBRANCH   2   3
ENDBRANCH   1   2
BRANCH   1  10
HETATM   10  N2  UNL     1       2.208  -0.524  -0.314  1.00  0.00    -0.371 NA
HETATM   11  C9  UNL     1       3.240  -0.226   0.537  1.00  0.00     0.291 C 
HETATM   12  O1  UNL     1       3.270   0.797   1.260  1.00  0.00    -0.257 OA
BRANCH  11  13
HETATM   13  C10 UNL     1       4.471  -1.124   0.655  1.00  0.00     0.119 C 
BRANCH  13  14
HETATM   14  C11 UNL     1       5.582  -0.043   0.824  1.00  0.00     0.010 C 
BRANCH  14  15
HETATM   15  C12 UNL     1       5.511   0.786  -0.453  1.00  0.00     0.002 C 
BRANCH  15  16
HETATM   16  C13 UNL     1       6.383   1.983  -0.516  1.00  0.00     0.020 C 
BRANCH  16  17
HETATM   17  C14 UNL     1       6.013   3.068   0.493  1.00  0.00     0.141 C 
BRANCH  17  18
HETATM   18  N3  UNL     1       6.950   4.159   0.356  1.00  0.00    -0.217 N 
HETATM   19  C15 UNL     1       7.049   5.026  -0.820  1.00  0.00     0.161 C 
HETATM   20  C16 UNL     1       8.442   5.590  -0.781  1.00  0.00     0.158 C 
HETATM   21  N4  UNL     1       8.677   5.627   0.665  1.00  0.00    -0.225 N 
HETATM   22  C17 UNL     1       7.894   4.590   1.304  1.00  0.00     0.669 C 
ATOM     23  H4  UNL     1       9.295   6.281   1.146  1.00  0.00     0.177 HD
HETATM   24  N5  UNL     1       8.048   4.174   2.542  1.00  0.00    -0.235 N 
ATOM     25  H52 UNL     1       7.496   3.444   2.992  1.00  0.00     0.174 HD
ATOM     26  H51 UNL     1       8.733   4.487   3.230  1.00  0.00     0.174 HD
ENDBRANCH  17  18
ENDBRANCH  16  17
ENDBRANCH  15  16
ENDBRANCH  14  15
ENDBRANCH  13  14
ENDBRANCH  11  13
ENDBRANCH   1  10
BRANCH   1  27
HETATM   27  C18 UNL     1       0.470   0.362  -1.780  1.00  0.00     0.185 C 
HETATM   28  O2  UNL     1       0.671   0.701  -2.884  1.00  0.00    -0.290 OA
BRANCH  27  29
HETATM   29  C19 UNL     1      -0.474   1.074  -0.893  1.00  0.00     0.086 C 
BRANCH  29  30
HETATM   30  C20 UNL     1      -1.344   1.925  -1.719  1.00  0.00     0.017 C 
BRANCH  30  31
HETATM   31  C21 UNL     1      -2.533   2.552  -1.021  1.00  0.00     0.103 C 
BRANCH  31  32
HETATM   32  C22 UNL     1      -3.468   1.443  -0.582  1.00  0.00     0.221 C 
HETATM   33  O3  UNL     1      -2.959   0.310  -0.723  1.00  0.00    -0.273 OA
HETATM   34  N6  UNL     1      -4.724   1.659  -0.101  1.00  0.00    -0.323 N 
HETATM   35  C23 UNL     1      -5.230   3.040   0.073  1.00  0.00     0.133 C 
HETATM   36  C29 UNL     1      -5.875   0.886   0.332  1.00  0.00     0.299 C 
HETATM   37  C24 UNL     1      -5.832   2.925   1.441  1.00  0.00     0.017 C 
HETATM   38  C25 UNL     1      -7.248   3.388   1.367  1.00  0.00     0.041 C 
HETATM   39  C28 UNL     1      -5.921   1.364   1.712  1.00  0.00     0.073 C 
HETATM   40  C26 UNL     1      -8.117   2.292   1.931  1.00  0.00     0.147 C 
HETATM   41  C27 UNL     1      -7.101   1.407   2.580  1.00  0.00     0.155 C 
BRANCH  40  42
HETATM   42  O4  UNL     1      -8.984   1.755   1.049  1.00  0.00    -0.393 OA
ATOM     43  H4  UNL     1      -9.531   1.065   1.404  1.00  0.00     0.210 HD
ENDBRANCH  40  42
BRANCH  41  44
HETATM   44  O5  UNL     1      -7.532   0.324   3.245  1.00  0.00    -0.392 OA
ATOM     45  H5  UNL     1      -6.887  -0.238   3.657  1.00  0.00     0.210 HD
ENDBRANCH  41  44
BRANCH  36  46
HETATM   46  N7  UNL     1      -5.897  -0.465   0.014  1.00  0.00    -0.057 N 
HETATM   47  C30 UNL     1      -5.574  -0.652  -1.416  1.00  0.00     0.274 C 
HETATM   48  C31 UNL     1      -5.040  -1.351   0.770  1.00  0.00     0.274 C 
HETATM   49  C32 UNL     1      -7.234  -1.109   0.070  1.00  0.00     0.274 C 
ENDBRANCH  36  46
ENDBRANCH  31  32
ENDBRANCH  30  31
ENDBRANCH  29  30
ENDBRANCH  27  29
ENDBRANCH   1  27
TORSDOF 20
