REMARK  2 active torsions:
REMARK  status: ('A' for Active; 'I' for Inactive)
REMARK    1  A    between atoms: N2_6  and  C4_8 
REMARK    2  A    between atoms: C4_8  and  C5_9 
ROOT
HETATM    1  C1  UNL     1      -2.497   0.034   0.888  1.00  0.00     0.027 C 
HETATM    2  C2  UNL     1      -2.022   1.472   0.764  1.00  0.00     0.121 C 
HETATM    3  N1  UNL     1      -0.736   1.272   0.076  1.00  0.00    -0.380 N 
ATOM      4  H1  UNL     1       0.060   1.909   0.123  1.00  0.00     0.160 HD
HETATM    5  C3  UNL     1      -0.769   0.064  -0.661  1.00  0.00     0.072 C 
HETATM    6  N2  UNL     1       0.203  -0.455  -1.300  1.00  0.00    -0.378 N 
ATOM      7  H2  UNL     1       0.058  -1.334  -1.797  1.00  0.00     0.160 HD
HETATM    8  C7  UNL     1      -2.176  -0.462  -0.528  1.00  0.00     0.077 C 
ENDROOT
BRANCH   6   9
HETATM    9  C4  UNL     1       1.482   0.158  -1.338  1.00  0.00     0.155 C 
BRANCH   9  10
HETATM   10  C5  UNL     1       2.529  -0.581  -0.532  1.00  0.00     0.229 A 
HETATM   11  C6  UNL     1       2.305  -0.761   0.945  1.00  0.00     0.267 A 
HETATM   12  N3  UNL     1       2.263  -1.890  -0.021  1.00  0.00    -0.066 N 
ATOM     13  H32 UNL     1       1.571  -2.606  -0.240  1.00  0.00     0.277 HD
ATOM     14  H31 UNL     1       2.749  -2.785  -0.083  1.00  0.00     0.277 HD
ENDBRANCH   9  10
ENDBRANCH   6   9
TORSDOF 2
