REMARK  2 active torsions:
REMARK  status: ('A' for Active; 'I' for Inactive)
REMARK    1  A    between atoms: O1_2  and  N1_3 
REMARK    2  A    between atoms: C2_5  and  C3_6 
ROOT
HETATM    1  C3  UNL     1      -0.958  -0.268  -0.140  1.00  0.00     0.106 A 
HETATM    2  C4  UNL     1      -1.268   0.996   0.096  1.00  0.00     0.139 A 
HETATM    3  N2  UNL     1      -2.604   1.125   0.565  1.00  0.00    -0.291 N 
ATOM      4  H2  UNL     1      -3.084   1.989   0.817  1.00  0.00     0.183 HD
HETATM    5  N3  UNL     1      -3.125  -0.166   0.611  1.00  0.00     0.000 NA
HETATM    6  N4  UNL     1      -2.118  -1.023   0.179  1.00  0.00    -0.184 N 
HETATM    7  N5  UNL     1      -2.240  -2.279   0.091  1.00  0.00    -0.325 N 
ATOM      8  H51 UNL     1      -3.073  -2.821   0.320  1.00  0.00     0.178 HD
ATOM      9  H52 UNL     1      -1.502  -2.907  -0.226  1.00  0.00     0.178 HD
ENDROOT
BRANCH   1  10
HETATM   10  C2  UNL     1       0.335  -0.764  -0.632  1.00  0.00     0.148 C 
HETATM   11  N1  UNL     1       1.278   0.062  -0.869  1.00  0.00    -0.276 N 
ATOM     12  H1  UNL     1       1.080   1.048  -0.700  1.00  0.00     0.193 HD
BRANCH  11  13
HETATM   13  O1  UNL     1       2.512  -0.243  -1.321  1.00  0.00    -0.286 OA
HETATM   14  C1  UNL     1       3.641   0.178  -0.576  1.00  0.00     0.237 C 
ENDBRANCH  11  13
ENDBRANCH   1  10
TORSDOF 2
