REMARK  1 active torsions:
REMARK  status: ('A' for Active; 'I' for Inactive)
REMARK    1  A    between atoms: C3_6  and  C4_7 
ROOT
HETATM    1  O1  UNL     1      -1.623  -0.209  -1.875  1.00  0.00    -0.273 OA
HETATM    2  C1  UNL     1      -1.648   0.138  -0.692  1.00  0.00     0.225 C 
HETATM    3  N1  UNL     1      -2.682   0.483   0.201  1.00  0.00    -0.360 N 
ATOM      4  H1  UNL     1      -3.605   0.910   0.127  1.00  0.00     0.162 HD
HETATM    5  C2  UNL     1      -1.847  -0.041   1.281  1.00  0.00     0.139 C 
HETATM    6  C3  UNL     1      -0.685   0.373   0.391  1.00  0.00     0.126 C 
ENDROOT
BRANCH   6   7
HETATM    7  C4  UNL     1       0.511  -0.516   0.437  1.00  0.00     0.202 A 
HETATM    8  C5  UNL     1       1.318  -0.391  -0.837  1.00  0.00     0.061 A 
HETATM    9  C6  UNL     1       2.408   0.285  -0.042  1.00  0.00     0.235 A 
HETATM   10  N2  UNL     1       1.590   0.088   1.160  1.00  0.00    -0.070 N 
ATOM     11  H22 UNL     1       1.388   0.896   1.749  1.00  0.00     0.277 HD
ATOM     12  H21 UNL     1       1.995  -0.422   1.945  1.00  0.00     0.277 HD
ENDBRANCH   6   7
TORSDOF 1
