REMARK  11 active torsions:
REMARK  status: ('A' for Active; 'I' for Inactive)
REMARK    1  A    between atoms: S1_2  and  C2_3 
REMARK    2  A    between atoms: C2_3  and  C3_4 
REMARK    3  A    between atoms: C3_4  and  C4_5 
REMARK    4  A    between atoms: C4_5  and  C5_6 
REMARK    5  A    between atoms: C5_6  and  O1_7 
REMARK    6  A    between atoms: C5_6  and  C6_9 
REMARK       I    between atoms: C6_9  and  N1_11 
REMARK    7  A    between atoms: C17_22  and  C18_23 
REMARK       I    between atoms: C18_23  and  N2_25 
REMARK    8  A    between atoms: N2_25  and  C19_27 
REMARK    9  A    between atoms: C19_27  and  C20_28 
REMARK   10  A    between atoms: C20_28  and  C23_31 
REMARK   11  A    between atoms: C23_31  and  O4_32 
ROOT
HETATM    1  C6  UNL     1       5.147   2.041   0.093  1.00  0.00     0.248 C 
HETATM    2  O2  UNL     1       5.323   3.285  -0.149  1.00  0.00    -0.270 OA
HETATM    3  N1  UNL     1       3.829   1.554   0.077  1.00  0.00    -0.350 N 
HETATM    4  C7  UNL     1       2.737   2.479  -0.225  1.00  0.00     0.126 C 
HETATM    5  C8  UNL     1       1.746   1.881  -1.164  1.00  0.00     0.030 C 
HETATM    6  C9  UNL     1       1.230   0.550  -0.744  1.00  0.00    -0.033 C 
HETATM    7  C10 UNL     1       1.340  -0.400  -1.936  1.00  0.00     0.016 C 
HETATM    8  C11 UNL     1       2.025  -0.066   0.356  1.00  0.00     0.012 C 
HETATM    9  C12 UNL     1       1.451   0.216   1.745  1.00  0.00     0.007 C 
HETATM   10  C13 UNL     1       0.176  -0.598   1.829  1.00  0.00     0.006 C 
HETATM   11  C14 UNL     1      -0.522  -0.653   0.480  1.00  0.00    -0.005 C 
HETATM   12  C15 UNL     1      -1.983  -0.858   0.752  1.00  0.00    -0.004 C 
HETATM   13  C16 UNL     1      -2.469  -2.280   0.619  1.00  0.00     0.020 C 
HETATM   14  C17 UNL     1      -3.603  -1.778  -0.237  1.00  0.00     0.082 C 
HETATM   15  C24 UNL     1      -2.898  -0.447  -0.337  1.00  0.00     0.003 C 
HETATM   16  C25 UNL     1      -2.118  -0.268  -1.618  1.00  0.00     0.006 C 
HETATM   17  C26 UNL     1      -1.177   0.917  -1.361  1.00  0.00     0.006 C 
HETATM   18  C27 UNL     1      -0.219   0.620  -0.261  1.00  0.00    -0.001 C 
HETATM   19  C28 UNL     1       3.489   0.195   0.344  1.00  0.00     0.131 C 
ENDROOT
BRANCH  14  20
HETATM   20  C18 UNL     1      -4.885  -1.708   0.544  1.00  0.00     0.222 C 
HETATM   21  O3  UNL     1      -4.915  -2.038   1.757  1.00  0.00    -0.273 OA
HETATM   22  N2  UNL     1      -6.098  -1.271  -0.053  1.00  0.00    -0.360 N 
ATOM     23  H2  UNL     1      -6.105  -0.997  -1.036  1.00  0.00     0.162 HD
BRANCH  22  24
HETATM   24  C19 UNL     1      -7.314  -1.209   0.707  1.00  0.00     0.133 C 
BRANCH  24  25
HETATM   25  C20 UNL     1      -8.496  -0.723  -0.063  1.00  0.00    -0.010 C 
HETATM   26  C21 UNL     1      -8.798  -1.598  -1.255  1.00  0.00     0.018 C 
HETATM   27  C22 UNL     1      -9.704  -0.852   0.876  1.00  0.00     0.018 C 
BRANCH  25  28
HETATM   28  C23 UNL     1      -8.354   0.726  -0.377  1.00  0.00     0.174 C 
BRANCH  28  29
HETATM   29  O4  UNL     1      -7.264   1.081  -1.127  1.00  0.00    -0.400 OA
ATOM     30  H4  UNL     1      -7.173   2.005  -1.327  1.00  0.00     0.209 HD
ENDBRANCH  28  29
ENDBRANCH  25  28
ENDBRANCH  24  25
ENDBRANCH  22  24
ENDBRANCH  14  20
BRANCH   1  31
HETATM   31  C5  UNL     1       6.365   1.205   0.374  1.00  0.00     0.210 C 
BRANCH  31  32
HETATM   32  C4  UNL     1       7.306   1.457  -0.748  1.00  0.00     0.042 C 
BRANCH  32  33
HETATM   33  C3  UNL     1       8.654   0.879  -0.718  1.00  0.00     0.013 C 
BRANCH  33  34
HETATM   34  C2  UNL     1       9.583   1.244   0.379  1.00  0.00     0.073 C 
BRANCH  34  35
HETATM   35  S1  UNL     1       9.123   0.786   2.034  1.00  0.00    -0.173 SA
HETATM   36  C1  UNL     1       9.126  -1.000   2.328  1.00  0.00     0.089 C 
ENDBRANCH  34  35
ENDBRANCH  33  34
ENDBRANCH  32  33
ENDBRANCH  31  32
BRANCH  31  37
HETATM   37  O1  UNL     1       6.085  -0.116   0.590  1.00  0.00    -0.386 OA
ATOM     38  H1  UNL     1       5.483  -0.277   1.307  1.00  0.00     0.210 HD
ENDBRANCH  31  37
ENDBRANCH   1  31
TORSDOF 11
