REMARK  10 active torsions:
REMARK  status: ('A' for Active; 'I' for Inactive)
REMARK    1  A    between atoms: C2_2  and  C3_3 
REMARK    2  A    between atoms: C3_3  and  N1_4 
REMARK       I    between atoms: N1_4  and  C4_6 
REMARK    3  A    between atoms: C4_6  and  C5_8 
REMARK    4  A    between atoms: C5_8  and  C6_9 
REMARK    5  A    between atoms: C6_9  and  C7_10 
REMARK    6  A    between atoms: C7_10  and  C8_12 
REMARK    7  A    between atoms: C8_12  and  C10_14 
REMARK    8  A    between atoms: C10_14  and  C11_15 
REMARK    9  A    between atoms: C22_26  and  N2_27 
REMARK   10  A    between atoms: C29_35  and  O3_36 
ROOT
HETATM    1  C11 UNL     1       0.662  -1.217   0.263  1.00  0.00     0.021 C 
HETATM    2  C12 UNL     1       0.028  -0.779   1.555  1.00  0.00     0.009 C 
HETATM    3  C13 UNL     1      -1.183  -1.721   1.556  1.00  0.00     0.013 C 
HETATM    4  C14 UNL     1      -1.402  -2.130   0.108  1.00  0.00    -0.009 C 
HETATM    5  C15 UNL     1      -0.703  -3.503  -0.014  1.00  0.00     0.018 C 
HETATM    6  C16 UNL     1      -2.807  -2.375  -0.239  1.00  0.00     0.039 C 
HETATM    7  C17 UNL     1      -3.846  -1.563   0.409  1.00  0.00    -0.021 C 
HETATM    8  C18 UNL     1      -4.493  -0.563  -0.199  1.00  0.00    -0.064 C 
HETATM    9  C19 UNL     1      -5.526   0.123   0.693  1.00  0.00    -0.003 C 
HETATM   10  C20 UNL     1      -5.044   0.199   2.129  1.00  0.00     0.021 C 
HETATM   11  C21 UNL     1      -6.738  -0.811   0.730  1.00  0.00     0.021 C 
HETATM   12  C22 UNL     1      -5.827   1.505   0.257  1.00  0.00     0.092 C 
HETATM   13  C24 UNL     1      -5.578   1.818  -1.191  1.00  0.00     0.011 C 
HETATM   14  C25 UNL     1      -4.155   2.217  -1.513  1.00  0.00     0.017 C 
HETATM   15  C26 UNL     1      -3.314   0.963  -1.506  1.00  0.00    -0.027 A 
HETATM   16  C27 UNL     1      -2.163   0.861  -0.574  1.00  0.00     0.013 C 
HETATM   17  C28 UNL     1      -0.941   0.148  -1.035  1.00  0.00     0.040 C 
HETATM   18  C29 UNL     1      -0.565  -1.181  -0.640  1.00  0.00     0.069 C 
HETATM   19  C30 UNL     1      -3.364  -0.060  -2.560  1.00  0.00     0.025 A 
HETATM   20  C31 UNL     1      -4.338  -0.090  -1.534  1.00  0.00    -0.008 A 
HETATM   21  C32 UNL     1      -5.687   0.546  -1.936  1.00  0.00     0.021 C 
ENDROOT
BRANCH   1  22
HETATM   22  C10 UNL     1       1.852  -0.500  -0.192  1.00  0.00     0.019 C 
BRANCH  22  23
HETATM   23  C8  UNL     1       2.989  -0.618   0.839  1.00  0.00     0.052 C 
HETATM   24  C9  UNL     1       3.428  -2.027   1.022  1.00  0.00     0.018 C 
BRANCH  23  25
HETATM   25  C7  UNL     1       4.166   0.151   0.279  1.00  0.00     0.131 C 
HETATM   26  O2  UNL     1       4.640   1.090   0.879  1.00  0.00    -0.298 OA
BRANCH  25  27
HETATM   27  C6  UNL     1       4.762  -0.238  -1.024  1.00  0.00     0.088 C 
BRANCH  27  28
HETATM   28  C5  UNL     1       5.962   0.586  -1.400  1.00  0.00     0.110 C 
BRANCH  28  29
HETATM   29  C4  UNL     1       7.097   0.481  -0.475  1.00  0.00     0.217 C 
HETATM   30  N1  UNL     1       8.246   1.281  -0.691  1.00  0.00    -0.361 N 
ATOM     31  H1  UNL     1       8.269   1.920  -1.486  1.00  0.00     0.162 HD
HETATM   32  O1  UNL     1       7.069  -0.299   0.497  1.00  0.00    -0.274 OA
BRANCH  30  33
HETATM   33  C3  UNL     1       9.388   1.208   0.196  1.00  0.00     0.122 C 
BRANCH  33  34
HETATM   34  C2  UNL     1      10.486   2.159  -0.249  1.00  0.00     0.015 C 
HETATM   35  C1  UNL     1      11.680   2.104   0.650  1.00  0.00     0.006 C 
ENDBRANCH  33  34
ENDBRANCH  30  33
ENDBRANCH  28  29
ENDBRANCH  27  28
ENDBRANCH  25  27
ENDBRANCH  23  25
ENDBRANCH  22  23
ENDBRANCH   1  22
BRANCH  18  36
HETATM   36  O3  UNL     1      -0.090  -1.854  -1.804  1.00  0.00    -0.389 OA
ATOM     37  H3  UNL     1      -0.855  -1.832  -2.367  1.00  0.00     0.210 HD
ENDBRANCH  18  36
BRANCH  12  38
HETATM   38  N2  UNL     1      -7.188   1.867   0.519  1.00  0.00    -0.420 N 
HETATM   39  C23 UNL     1      -7.617   1.936   1.859  1.00  0.00     0.140 C 
ATOM     40  H2  UNL     1      -7.831   2.070  -0.246  1.00  0.00     0.153 HD
ENDBRANCH  12  38
TORSDOF 10
