REMARK  12 active torsions:
REMARK  status: ('A' for Active; 'I' for Inactive)
REMARK    1  A    between atoms: C2_2  and  C5_5 
REMARK    2  A    between atoms: C5_5  and  C6_6 
REMARK    3  A    between atoms: C5_5  and  N1_23 
REMARK    4  A    between atoms: C6_6  and  C7_7 
REMARK    5  A    between atoms: C7_7  and  C8_8 
REMARK    6  A    between atoms: C8_8  and  C11_11 
REMARK    7  A    between atoms: C11_11  and  O1_12 
REMARK       I    between atoms: N1_23  and  C21_25 
REMARK    8  A    between atoms: C21_25  and  C22_27 
REMARK       I    between atoms: C22_27  and  N2_29 
REMARK    9  A    between atoms: N2_29  and  C23_31 
REMARK   10  A    between atoms: C23_31  and  C24_32 
REMARK   11  A    between atoms: C24_32  and  C25_33 
REMARK   12  A    between atoms: C25_33  and  N3_34 
ROOT
HETATM    1  C5  UNL     1      -0.420   3.184  -1.205  1.00  0.00     0.092 C 
ENDROOT
BRANCH   1   2
HETATM    2  C2  UNL     1      -1.062   4.480  -0.758  1.00  0.00    -0.031 C 
HETATM    3  C1  UNL     1      -1.927   5.052  -1.868  1.00  0.00     0.016 C 
HETATM    4  C3  UNL     1      -1.659   4.596   0.555  1.00  0.00     0.016 C 
HETATM    5  C4  UNL     1       0.138   5.506  -0.776  1.00  0.00     0.016 C 
ENDBRANCH   1   2
BRANCH   1   6
HETATM    6  C6  UNL     1      -1.471   2.175  -1.715  1.00  0.00     0.027 C 
BRANCH   6   7
HETATM    7  C7  UNL     1      -2.482   1.767  -0.756  1.00  0.00     0.014 C 
BRANCH   7   8
HETATM    8  C8  UNL     1      -3.582   0.838  -1.122  1.00  0.00    -0.016 C 
HETATM    9  C9  UNL     1      -4.335   1.588  -2.252  1.00  0.00     0.018 C 
HETATM   10  C10 UNL     1      -4.583   0.897   0.056  1.00  0.00     0.018 C 
BRANCH   8  11
HETATM   11  C11 UNL     1      -3.342  -0.512  -1.581  1.00  0.00     0.072 C 
HETATM   12  C12 UNL     1      -2.898  -0.512  -3.087  1.00  0.00     0.040 C 
HETATM   13  C13 UNL     1      -3.219  -1.994  -3.377  1.00  0.00     0.007 C 
HETATM   14  C14 UNL     1      -2.551  -2.783  -2.632  1.00  0.00    -0.014 C 
HETATM   15  C15 UNL     1      -2.446  -4.215  -2.409  1.00  0.00     0.005 C 
HETATM   16  C20 UNL     1      -1.541  -2.065  -1.698  1.00  0.00     0.017 C 
HETATM   17  C16 UNL     1      -2.758  -4.131  -0.839  1.00  0.00     0.001 C 
HETATM   18  C17 UNL     1      -3.442  -2.828  -0.495  1.00  0.00     0.012 C 
HETATM   19  C18 UNL     1      -2.666  -1.529  -0.741  1.00  0.00    -0.012 C 
HETATM   20  C19 UNL     1      -1.966  -1.151   0.489  1.00  0.00     0.018 C 
BRANCH  11  21
HETATM   21  O1  UNL     1      -4.680  -1.049  -1.747  1.00  0.00    -0.388 OA
ATOM     22  H1  UNL     1      -4.522  -1.936  -2.049  1.00  0.00     0.210 HD
ENDBRANCH  11  21
ENDBRANCH   8  11
ENDBRANCH   7   8
ENDBRANCH   6   7
ENDBRANCH   1   6
BRANCH   1  23
HETATM   23  N1  UNL     1       0.415   2.568  -0.244  1.00  0.00    -0.348 N 
HETATM   24  C21 UNL     1       1.690   2.734   0.244  1.00  0.00     0.309 C 
HETATM   25  O2  UNL     1       2.508   3.592  -0.079  1.00  0.00    -0.262 OA
ATOM     26  H1  UNL     1      -0.058   1.787   0.212  1.00  0.00     0.163 HD
BRANCH  24  27
HETATM   27  C22 UNL     1       2.179   1.781   1.302  1.00  0.00     0.309 C 
HETATM   28  O3  UNL     1       1.525   0.728   1.531  1.00  0.00    -0.262 OA
HETATM   29  N2  UNL     1       3.344   2.016   2.068  1.00  0.00    -0.353 N 
ATOM     30  H2  UNL     1       3.894   2.859   1.905  1.00  0.00     0.162 HD
BRANCH  29  31
HETATM   31  C23 UNL     1       3.763   1.072   3.081  1.00  0.00     0.125 C 
BRANCH  31  32
HETATM   32  C24 UNL     1       4.166  -0.272   2.575  1.00  0.00     0.039 C 
BRANCH  32  33
HETATM   33  C25 UNL     1       4.450  -1.213   3.759  1.00  0.00     0.123 C 
BRANCH  33  34
HETATM   34  N3  UNL     1       4.927  -2.488   3.347  1.00  0.00    -0.393 N 
HETATM   35  C26 UNL     1       4.072  -3.348   2.660  1.00  0.00     0.058 C 
HETATM   36  C27 UNL     1       4.408  -3.576   1.182  1.00  0.00     0.044 C 
HETATM   37  C28 UNL     1       5.869  -3.997   1.141  1.00  0.00     0.007 C 
HETATM   38  C29 UNL     1       6.671  -2.794   1.627  1.00  0.00     0.020 C 
HETATM   39  C30 UNL     1       6.326  -2.545   3.090  1.00  0.00     0.122 C 
ENDBRANCH  33  34
ENDBRANCH  32  33
ENDBRANCH  31  32
ENDBRANCH  29  31
ENDBRANCH  24  27
ENDBRANCH   1  23
TORSDOF 12
