REMARK  9 active torsions:
REMARK  status: ('A' for Active; 'I' for Inactive)
REMARK    1  A    between atoms: C2_2  and  C4_4 
REMARK    2  A    between atoms: C4_4  and  C5_5 
REMARK    3  A    between atoms: C5_5  and  N1_6 
REMARK       I    between atoms: N1_6  and  C6_8 
REMARK       I    between atoms: C6_8  and  N2_10 
REMARK    4  A    between atoms: N2_10  and  C7_12 
REMARK    5  A    between atoms: C7_12  and  C8_13 
REMARK    6  A    between atoms: C15_20  and  N3_21 
REMARK       I    between atoms: N3_21  and  C16_23 
REMARK    7  A    between atoms: C16_23  and  C17_25 
REMARK       I    between atoms: N4_28  and  C20_29 
REMARK    8  A    between atoms: C20_29  and  O4_31 
REMARK    9  A    between atoms: O4_31  and  C21_32 
ROOT
HETATM    1  C8  UNL     1       2.436   0.335   2.220  1.00  0.00    -0.005 C 
HETATM    2  C9  UNL     1       3.094   1.446   1.526  1.00  0.00     0.019 C 
HETATM    3  C10 UNL     1       2.097   2.594   1.301  1.00  0.00    -0.011 C 
HETATM    4  C11 UNL     1       1.575   3.105   2.597  1.00  0.00     0.009 C 
HETATM    5  C12 UNL     1       0.893   1.945   3.307  1.00  0.00    -0.011 C 
HETATM    6  C13 UNL     1       1.872   0.849   3.565  1.00  0.00     0.019 C 
HETATM    7  C14 UNL     1      -0.266   1.499   2.458  1.00  0.00     0.035 C 
HETATM    8  C15 UNL     1       0.263   0.979   1.112  1.00  0.00     0.034 C 
HETATM    9  C27 UNL     1       0.989   2.082   0.403  1.00  0.00     0.035 C 
HETATM   10  C28 UNL     1       1.224  -0.135   1.412  1.00  0.00     0.046 C 
ENDROOT
BRANCH   8  11
HETATM   11  N3  UNL     1      -0.845   0.460   0.360  1.00  0.00    -0.351 N 
HETATM   12  C16 UNL     1      -0.805  -0.101  -0.926  1.00  0.00     0.222 C 
HETATM   13  O2  UNL     1       0.282  -0.187  -1.537  1.00  0.00    -0.273 OA
ATOM     14  H3  UNL     1      -1.760   0.504   0.809  1.00  0.00     0.163 HD
BRANCH  12  15
HETATM   15  C17 UNL     1      -2.048  -0.605  -1.593  1.00  0.00     0.081 C 
HETATM   16  C18 UNL     1      -2.988   0.556  -1.692  1.00  0.00     0.034 C 
HETATM   17  C19 UNL     1      -4.390   0.040  -1.961  1.00  0.00     0.129 C 
HETATM   18  N4  UNL     1      -4.831  -0.746  -0.817  1.00  0.00    -0.328 N 
HETATM   19  C20 UNL     1      -6.179  -0.769  -0.464  1.00  0.00     0.363 C 
HETATM   20  C25 UNL     1      -3.864  -1.492  -0.039  1.00  0.00     0.129 C 
HETATM   21  O3  UNL     1      -6.601  -1.445   0.539  1.00  0.00    -0.238 OA
HETATM   22  C26 UNL     1      -2.593  -1.715  -0.796  1.00  0.00     0.034 C 
BRANCH  19  23
HETATM   23  O4  UNL     1      -7.179  -0.078  -1.141  1.00  0.00    -0.294 OA
BRANCH  23  24
HETATM   24  C21 UNL     1      -8.534  -0.100  -0.771  1.00  0.00     0.061 C 
HETATM   25  C22 UNL     1      -8.695   0.446   0.657  1.00  0.00     0.046 C 
HETATM   26  C23 UNL     1      -9.270   0.882  -1.675  1.00  0.00     0.046 C 
HETATM   27  C24 UNL     1      -9.202  -1.431  -0.913  1.00  0.00     0.046 C 
ENDBRANCH  23  24
ENDBRANCH  19  23
ENDBRANCH  12  15
ENDBRANCH   8  11
BRANCH   1  28
HETATM   28  C7  UNL     1       3.250  -0.869   2.526  1.00  0.00     0.075 C 
BRANCH  28  29
HETATM   29  N2  UNL     1       3.887  -1.599   1.509  1.00  0.00    -0.322 N 
HETATM   30  C6  UNL     1       4.999  -1.263   0.695  1.00  0.00     0.319 C 
HETATM   31  N1  UNL     1       5.436  -2.144  -0.326  1.00  0.00    -0.343 N 
HETATM   32  O1  UNL     1       5.607  -0.194   0.862  1.00  0.00    -0.247 OA
ATOM     33  H1  UNL     1       4.951  -3.031  -0.460  1.00  0.00     0.164 HD
ATOM     34  H2  UNL     1       3.485  -2.519   1.326  1.00  0.00     0.169 HD
BRANCH  31  35
HETATM   35  C5  UNL     1       6.545  -1.816  -1.175  1.00  0.00     0.125 C 
BRANCH  35  36
HETATM   36  C4  UNL     1       6.271  -0.612  -1.994  1.00  0.00     0.023 C 
BRANCH  36  37
HETATM   37  C2  UNL     1       7.435  -0.255  -2.908  1.00  0.00    -0.021 C 
HETATM   38  C1  UNL     1       7.712  -1.396  -3.844  1.00  0.00     0.009 C 
HETATM   39  C3  UNL     1       8.624   0.236  -2.153  1.00  0.00     0.009 C 
ENDBRANCH  36  37
ENDBRANCH  35  36
ENDBRANCH  31  35
ENDBRANCH  28  29
ENDBRANCH   1  28
TORSDOF 9
