REMARK  9 active torsions:
REMARK  status: ('A' for Active; 'I' for Inactive)
REMARK       I    between atoms: C1_2  and  N1_3 
REMARK    1  A    between atoms: C1_2  and  C25_33 
REMARK    2  A    between atoms: N1_3  and  C2_5 
REMARK    3  A    between atoms: C5_8  and  C6_9 
REMARK    4  A    between atoms: C6_9  and  O2_10 
REMARK    5  A    between atoms: C6_9  and  N2_12 
REMARK    6  A    between atoms: N2_12  and  C7_14 
REMARK    7  A    between atoms: C10_17  and  C11_18 
REMARK    8  A    between atoms: C11_18  and  C12_19 
REMARK    9  A    between atoms: C12_19  and  N3_20 
ROOT
HETATM    1  C6  UNL     1       1.358  -0.995  -0.726  1.00  0.00     0.221 C 
ENDROOT
BRANCH   1   2
HETATM    2  C5  UNL     1       1.832  -0.165   0.433  1.00  0.00     0.034 C 
HETATM    3  C4  UNL     1       2.727   0.992   0.021  1.00  0.00     0.011 C 
HETATM    4  C3  UNL     1       4.043   0.474  -0.538  1.00  0.00     0.026 C 
HETATM    5  C2  UNL     1       4.750  -0.410   0.437  1.00  0.00     0.084 C 
HETATM    6  C24 UNL     1       3.823  -1.576   0.784  1.00  0.00     0.026 C 
HETATM    7  C23 UNL     1       2.590  -1.008   1.423  1.00  0.00     0.011 C 
BRANCH   5   8
HETATM    8  N1  UNL     1       6.031  -0.853  -0.012  1.00  0.00    -0.356 N 
HETATM    9  C1  UNL     1       7.212  -0.640   0.727  1.00  0.00     0.222 C 
HETATM   10  O1  UNL     1       7.149  -0.039   1.824  1.00  0.00    -0.273 OA
ATOM     11  H1  UNL     1       6.094  -1.344  -0.904  1.00  0.00     0.162 HD
BRANCH   9  12
HETATM   12  C25 UNL     1       8.502  -1.110   0.226  1.00  0.00     0.082 C 
HETATM   13  C26 UNL     1       9.661  -0.789   1.152  1.00  0.00     0.019 C 
HETATM   14  C27 UNL     1      10.667  -0.033   0.329  1.00  0.00    -0.013 C 
HETATM   15  C28 UNL     1      10.110   1.350   0.110  1.00  0.00     0.005 C 
HETATM   16  C31 UNL     1      10.400  -0.644  -1.057  1.00  0.00     0.010 C 
HETATM   17  C29 UNL     1       8.861   1.081  -0.736  1.00  0.00     0.006 C 
HETATM   18  C30 UNL     1       8.901  -0.399  -1.049  1.00  0.00    -0.001 C 
ENDBRANCH   9  12
ENDBRANCH   5   8
ENDBRANCH   1   2
BRANCH   1  19
HETATM   19  O2  UNL     1       0.594  -2.031  -0.126  1.00  0.00    -0.377 OA
ATOM     20  H2  UNL     1       0.294  -2.556  -0.859  1.00  0.00     0.212 HD
ENDBRANCH   1  19
BRANCH   1  21
HETATM   21  N2  UNL     1       0.627  -0.312  -1.697  1.00  0.00    -0.370 N 
ATOM     22  H2  UNL     1       1.072  -0.190  -2.607  1.00  0.00     0.161 HD
BRANCH  21  23
HETATM   23  C7  UNL     1      -0.638   0.214  -1.548  1.00  0.00    -0.016 C 
HETATM   24  C8  UNL     1      -1.708  -0.885  -1.248  1.00  0.00     0.052 C 
HETATM   25  C9  UNL     1      -3.018  -0.150  -1.512  1.00  0.00     0.010 C 
HETATM   26  C10 UNL     1      -3.283   0.632  -0.245  1.00  0.00    -0.012 C 
HETATM   27  C21 UNL     1      -1.998   1.238   0.297  1.00  0.00     0.010 C 
HETATM   28  C22 UNL     1      -0.963   1.424  -0.792  1.00  0.00     0.052 C 
BRANCH  26  29
HETATM   29  C11 UNL     1      -4.315   1.686  -0.369  1.00  0.00     0.035 C 
BRANCH  29  30
HETATM   30  C12 UNL     1      -5.671   1.283  -0.775  1.00  0.00     0.273 C 
BRANCH  30  31
HETATM   31  N3  UNL     1      -6.350   0.349   0.032  1.00  0.00     0.093 N 
HETATM   32  C13 UNL     1      -6.755   0.724   1.336  1.00  0.00     0.273 C 
HETATM   33  C14 UNL     1      -7.505  -0.545   1.783  1.00  0.00     0.037 C 
HETATM   34  C15 UNL     1      -8.061  -1.075   0.487  1.00  0.00     0.021 C 
HETATM   35  C16 UNL     1      -9.499  -1.418   0.521  1.00  0.00     0.007 C 
HETATM   36  C20 UNL     1      -7.629  -0.088  -0.554  1.00  0.00     0.227 C 
HETATM   37  C17 UNL     1     -10.377  -0.632  -0.408  1.00  0.00     0.001 C 
HETATM   38  C18 UNL     1      -9.967   0.806  -0.314  1.00  0.00     0.002 C 
HETATM   39  C19 UNL     1      -8.556   1.033  -0.794  1.00  0.00     0.036 C 
ENDBRANCH  30  31
ENDBRANCH  29  30
ENDBRANCH  26  29
ENDBRANCH  21  23
ENDBRANCH   1  21
TORSDOF 9
