REMARK  14 active torsions:
REMARK  status: ('A' for Active; 'I' for Inactive)
REMARK    1  A    between atoms: C3_5  and  C4_6 
REMARK    2  A    between atoms: C4_6  and  O2_7 
REMARK    3  A    between atoms: C5_10  and  C6_11 
REMARK    4  A    between atoms: C6_11  and  N2_12 
REMARK    5  A    between atoms: N2_12  and  C8_14 
REMARK    6  A    between atoms: C8_14  and  C9_15 
REMARK    7  A    between atoms: C8_14  and  C12_22 
REMARK    8  A    between atoms: C9_15  and  C10_16 
REMARK    9  A    between atoms: C10_16  and  C11_17 
REMARK   10  A    between atoms: C11_17  and  N3_18 
REMARK   11  A    between atoms: C12_22  and  C13_23 
REMARK   12  A    between atoms: C13_23  and  C14_24 
REMARK   13  A    between atoms: C14_24  and  C15_25 
REMARK   14  A    between atoms: C15_25  and  N4_26 
ROOT
HETATM    1  C8  UNL     1       0.278  -1.165  -0.274  1.00  0.00     0.078 C 
ENDROOT
BRANCH   1   2
HETATM    2  N2  UNL     1      -0.683  -0.852   0.680  1.00  0.00    -0.409 N 
HETATM    3  C7  UNL     1      -0.675  -1.417   1.959  1.00  0.00     0.143 C 
BRANCH   2   4
HETATM    4  C6  UNL     1      -1.220   0.460   0.564  1.00  0.00     0.158 C 
BRANCH   4   5
HETATM    5  C5  UNL     1      -2.722   0.601   0.750  1.00  0.00     0.232 C 
HETATM    6  O3  UNL     1      -2.927   1.948   0.629  1.00  0.00    -0.358 OA
HETATM    7  C3  UNL     1      -3.848   2.494  -0.130  1.00  0.00     0.238 C 
HETATM    8  C2  UNL     1      -4.687   1.666  -0.982  1.00  0.00     0.257 C 
HETATM    9  N1  UNL     1      -4.606   0.246  -0.860  1.00  0.00    -0.288 N 
HETATM   10  O1  UNL     1      -5.464   2.196  -1.806  1.00  0.00    -0.270 OA
HETATM   11  C1  UNL     1      -5.641  -0.631  -1.365  1.00  0.00     0.162 C 
HETATM   12  C17 UNL     1      -3.434  -0.234  -0.213  1.00  0.00     0.256 C 
HETATM   13  O4  UNL     1      -3.012  -1.375  -0.471  1.00  0.00    -0.270 OA
BRANCH   7  14
HETATM   14  C4  UNL     1      -4.792   3.314   0.766  1.00  0.00     0.205 C 
BRANCH  14  15
HETATM   15  O2  UNL     1      -5.397   2.521   1.726  1.00  0.00    -0.398 OA
ATOM     16  H2  UNL     1      -5.980   3.027   2.279  1.00  0.00     0.209 HD
ENDBRANCH  14  15
ENDBRANCH   7  14
ENDBRANCH   4   5
ENDBRANCH   2   4
ENDBRANCH   1   2
BRANCH   1  17
HETATM   17  C9  UNL     1       0.358  -2.613  -0.682  1.00  0.00     0.026 C 
BRANCH  17  18
HETATM   18  C10 UNL     1       0.677  -3.609   0.346  1.00  0.00     0.029 C 
BRANCH  18  19
HETATM   19  C11 UNL     1       0.776  -4.974  -0.384  1.00  0.00     0.230 C 
BRANCH  19  20
HETATM   20  N3  UNL     1       1.841  -4.896  -1.385  1.00  0.00    -0.079 N 
ATOM     21  H33 UNL     1       1.713  -4.117  -2.031  1.00  0.00     0.274 HD
ATOM     22  H32 UNL     1       2.732  -4.602  -0.984  1.00  0.00     0.274 HD
ATOM     23  H31 UNL     1       1.906  -5.794  -1.865  1.00  0.00     0.274 HD
ENDBRANCH  19  20
ENDBRANCH  18  19
ENDBRANCH  17  18
ENDBRANCH   1  17
BRANCH   1  24
HETATM   24  C12 UNL     1       1.672  -0.633  -0.120  1.00  0.00     0.025 C 
BRANCH  24  25
HETATM   25  C13 UNL     1       1.819   0.854  -0.102  1.00  0.00     0.007 C 
BRANCH  25  26
HETATM   26  C14 UNL     1       3.333   1.207   0.002  1.00  0.00     0.044 C 
BRANCH  26  27
HETATM   27  C15 UNL     1       3.507   2.692   0.025  1.00  0.00     0.063 C 
BRANCH  27  28
HETATM   28  N4  UNL     1       4.812   3.179   0.148  1.00  0.00    -0.347 N 
HETATM   29  C16 UNL     1       5.935   2.597   0.095  1.00  0.00     0.200 C 
HETATM   30  N5  UNL     1       6.122   1.207  -0.122  1.00  0.00    -0.067 NA
HETATM   31  N6  UNL     1       7.168   3.347   0.270  1.00  0.00    -0.067 NA
ATOM     32  H4  UNL     1       4.869   4.184   0.310  1.00  0.00     0.167 HD
ENDBRANCH  27  28
ENDBRANCH  26  27
ENDBRANCH  25  26
ENDBRANCH  24  25
ENDBRANCH   1  24
TORSDOF 14
