REMARK  12 active torsions:
REMARK  status: ('A' for Active; 'I' for Inactive)
REMARK    1  A    between atoms: O1_2  and  C2_3 
REMARK    2  A    between atoms: N1_6  and  C5_7 
REMARK    3  A    between atoms: C5_7  and  C6_8 
REMARK    4  A    between atoms: C5_7  and  C10_17 
REMARK    5  A    between atoms: C6_8  and  C7_9 
REMARK    6  A    between atoms: C8_10  and  C9_11 
REMARK    7  A    between atoms: C9_11  and  N2_12 
REMARK    8  A    between atoms: C10_17  and  C11_19 
REMARK    9  A    between atoms: C11_19  and  N4_21 
REMARK   10  A    between atoms: N4_21  and  C13_23 
REMARK   11  A    between atoms: C14_25  and  C15_26 
REMARK   12  A    between atoms: C15_26  and  O4_27 
ROOT
HETATM    1  C5  UNL     1      -0.461   0.397   0.435  1.00  0.00     0.155 C 
ENDROOT
BRANCH   1   2
HETATM    2  N1  UNL     1       0.923   0.245   0.515  1.00  0.00    -0.392 N 
HETATM    3  C4  UNL     1       1.315  -0.338   1.770  1.00  0.00     0.121 C 
HETATM    4  C3  UNL     1       2.543  -1.180   1.365  1.00  0.00     0.053 C 
HETATM    5  C2  UNL     1       3.115  -0.175   0.373  1.00  0.00     0.146 C 
HETATM    6  C14 UNL     1       1.847   0.103  -0.465  1.00  0.00     0.132 C 
BRANCH   5   7
HETATM    7  O1  UNL     1       4.188  -0.602  -0.303  1.00  0.00    -0.389 OA
HETATM    8  C1  UNL     1       5.277   0.245  -0.026  1.00  0.00     0.202 C 
ENDBRANCH   5   7
BRANCH   6   9
HETATM    9  C15 UNL     1       2.261   1.239  -1.338  1.00  0.00     0.191 C 
BRANCH   9  10
HETATM   10  O4  UNL     1       3.211   0.762  -2.277  1.00  0.00    -0.399 OA
ATOM     11  H4  UNL     1       3.475   1.486  -2.833  1.00  0.00     0.209 HD
ENDBRANCH   9  10
ENDBRANCH   6   9
ENDBRANCH   1   2
BRANCH   1  12
HETATM   12  C6  UNL     1      -0.915   1.205  -0.772  1.00  0.00     0.059 C 
BRANCH  12  13
HETATM   13  C7  UNL     1      -2.366   1.360  -0.854  1.00  0.00    -0.027 C 
HETATM   14  C8  UNL     1      -2.925   2.559  -0.806  1.00  0.00    -0.010 C 
BRANCH  14  15
HETATM   15  C9  UNL     1      -4.397   2.781  -0.883  1.00  0.00     0.166 C 
BRANCH  15  16
HETATM   16  N2  UNL     1      -4.796   3.437   0.329  1.00  0.00    -0.339 N 
HETATM   17  N3  UNL     1      -4.887   2.750   1.352  1.00  0.00    -0.349 N 
ATOM     18  H32 UNL     1      -4.682   1.751   1.319  1.00  0.00     0.176 HD
ATOM     19  H31 UNL     1      -5.171   3.216   2.214  1.00  0.00     0.176 HD
ATOM     20  H2  UNL     1      -4.998   4.437   0.346  1.00  0.00     0.179 HD
ENDBRANCH  15  16
ENDBRANCH  14  15
ENDBRANCH  12  13
ENDBRANCH   1  12
BRANCH   1  21
HETATM   21  C10 UNL     1      -1.304  -0.790   0.563  1.00  0.00     0.171 C 
HETATM   22  O2  UNL     1      -2.463  -0.589   0.980  1.00  0.00    -0.293 OA
BRANCH  21  23
HETATM   23  C11 UNL     1      -1.006  -2.183   0.277  1.00  0.00     0.151 C 
HETATM   24  C12 UNL     1      -0.878  -2.375  -1.248  1.00  0.00     0.040 C 
BRANCH  23  25
HETATM   25  N4  UNL     1      -2.187  -2.998   0.616  1.00  0.00    -0.357 N 
ATOM     26  H4  UNL     1      -3.099  -2.733   0.245  1.00  0.00     0.162 HD
BRANCH  25  27
HETATM   27  C13 UNL     1      -2.083  -4.132   1.439  1.00  0.00     0.349 C 
HETATM   28  O3  UNL     1      -0.986  -4.516   1.933  1.00  0.00    -0.284 OA
ENDBRANCH  25  27
ENDBRANCH  23  25
ENDBRANCH  21  23
ENDBRANCH   1  21
TORSDOF 12
