REMARK  12 active torsions:
REMARK  status: ('A' for Active; 'I' for Inactive)
REMARK    1  A    between atoms: N1_1  and  C1_5 
REMARK    2  A    between atoms: C1_5  and  O1_6 
REMARK    3  A    between atoms: C1_5  and  C2_8 
REMARK    4  A    between atoms: C2_8  and  N2_9 
REMARK    5  A    between atoms: N2_9  and  C3_10 
REMARK    6  A    between atoms: N2_9  and  N3_22 
REMARK    7  A    between atoms: C3_10  and  C4_11 
REMARK    8  A    between atoms: C4_11  and  O2_12 
REMARK    9  A    between atoms: C4_11  and  C5_14 
REMARK   10  A    between atoms: C4_11  and  C10_19 
REMARK   11  A    between atoms: C5_14  and  C6_15 
REMARK   12  A    between atoms: N4_25  and  C15_26 
ROOT
HETATM    1  N2  UNL     1      -1.298  -0.864  -0.363  1.00  0.00    -0.218 NA
ENDROOT
BRANCH   1   2
HETATM    2  C2  UNL     1      -2.247  -1.561  -1.264  1.00  0.00     0.174 C 
BRANCH   2   3
HETATM    3  C1  UNL     1      -1.720  -2.913  -1.658  1.00  0.00     0.331 C 
BRANCH   3   4
HETATM    4  N1  UNL     1      -2.761  -3.570  -2.450  1.00  0.00    -0.052 N 
ATOM      5  H13 UNL     1      -2.546  -4.548  -2.645  1.00  0.00     0.277 HD
ATOM      6  H12 UNL     1      -3.620  -3.719  -1.921  1.00  0.00     0.277 HD
ATOM      7  H11 UNL     1      -2.913  -3.025  -3.299  1.00  0.00     0.277 HD
ENDBRANCH   3   4
BRANCH   3   8
HETATM    8  O1  UNL     1      -1.511  -3.661  -0.492  1.00  0.00    -0.369 OA
ATOM      9  H1  UNL     1      -0.835  -3.235   0.022  1.00  0.00     0.212 HD
ENDBRANCH   3   8
ENDBRANCH   2   3
ENDBRANCH   1   2
BRANCH   1  10
HETATM   10  C3  UNL     1      -0.133  -0.503  -1.091  1.00  0.00     0.152 C 
BRANCH  10  11
HETATM   11  C4  UNL     1       1.050  -0.153  -0.151  1.00  0.00     0.075 C 
BRANCH  11  12
HETATM   12  O2  UNL     1       0.770   0.855   0.720  1.00  0.00    -0.388 OA
ATOM     13  H2  UNL     1       1.495   1.069   1.296  1.00  0.00     0.210 HD
ENDBRANCH  11  12
BRANCH  11  14
HETATM   14  C5  UNL     1       2.058   0.433  -1.164  1.00  0.00     0.044 C 
BRANCH  14  15
HETATM   15  C6  UNL     1       3.323   0.918  -0.597  1.00  0.00    -0.012 C 
HETATM   16  C7  UNL     1       3.275   2.042   0.423  1.00  0.00     0.005 C 
HETATM   17  C8  UNL     1       4.506   2.606  -0.283  1.00  0.00     0.001 C 
HETATM   18  C9  UNL     1       3.916   1.985  -1.547  1.00  0.00     0.005 C 
ENDBRANCH  14  15
ENDBRANCH  11  14
BRANCH  11  19
HETATM   19  C10 UNL     1       1.613  -1.416   0.386  1.00  0.00     0.021 A 
HETATM   20  C11 UNL     1       2.765  -1.449   1.379  1.00  0.00     0.008 A 
HETATM   21  C12 UNL     1       1.406  -1.960   1.727  1.00  0.00     0.008 A 
ENDBRANCH  11  19
ENDBRANCH  10  11
ENDBRANCH   1  10
BRANCH   1  22
HETATM   22  N3  UNL     1      -2.045   0.270   0.078  1.00  0.00    -0.260 N 
HETATM   23  C13 UNL     1      -2.330   0.673   1.437  1.00  0.00     0.168 C 
HETATM   24  C14 UNL     1      -3.770   1.193   1.314  1.00  0.00     0.157 C 
HETATM   25  N4  UNL     1      -3.739   1.860   0.041  1.00  0.00    -0.275 N 
HETATM   26  C16 UNL     1      -2.694   1.265  -0.712  1.00  0.00     0.341 C 
HETATM   27  O4  UNL     1      -2.377   1.570  -1.906  1.00  0.00    -0.245 OA
BRANCH  25  28
HETATM   28  C15 UNL     1      -4.599   2.897  -0.391  1.00  0.00     0.359 C 
HETATM   29  O3  UNL     1      -4.476   3.411  -1.523  1.00  0.00    -0.283 OA
ENDBRANCH  25  28
ENDBRANCH   1  22
TORSDOF 12
