REMARK  15 active torsions:
REMARK  status: ('A' for Active; 'I' for Inactive)
REMARK    1  A    between atoms: C2_2  and  C3_4 
REMARK    2  A    between atoms: C3_4  and  C4_5 
REMARK    3  A    between atoms: C3_4  and  N1_9 
REMARK    4  A    between atoms: C4_5  and  C5_6 
REMARK       I    between atoms: N1_9  and  C6_11 
REMARK    5  A    between atoms: C6_11  and  C7_13 
REMARK    6  A    between atoms: C7_13  and  C8_14 
REMARK    7  A    between atoms: C8_14  and  C9_15 
REMARK       I    between atoms: C9_15  and  N2_17 
REMARK    8  A    between atoms: C13_21  and  C14_22 
REMARK    9  A    between atoms: C14_22  and  N3_23 
REMARK   10  A    between atoms: C14_22  and  C21_33 
REMARK   11  A    between atoms: N3_23  and  C15_25 
REMARK   12  A    between atoms: C15_25  and  C20_30 
REMARK   13  A    between atoms: C16_26  and  C17_27 
REMARK   14  A    between atoms: C21_33  and  O7_34 
REMARK   15  A    between atoms: C21_33  and  N5_36 
ROOT
HETATM    1  C9  UNL     1       0.832  -0.520  -0.648  1.00  0.00     0.220 C 
HETATM    2  O5  UNL     1       0.393   0.451  -1.299  1.00  0.00    -0.273 OA
HETATM    3  N2  UNL     1       0.071  -1.321   0.146  1.00  0.00    -0.342 N 
HETATM    4  C10 UNL     1       0.635  -2.391   1.013  1.00  0.00     0.127 C 
HETATM    5  C11 UNL     1      -0.061  -1.992   2.335  1.00  0.00     0.022 C 
HETATM    6  C12 UNL     1      -1.301  -1.192   1.901  1.00  0.00     0.033 C 
HETATM    7  C13 UNL     1      -1.340  -1.567   0.443  1.00  0.00     0.141 C 
ENDROOT
BRANCH   7   8
HETATM    8  C14 UNL     1      -2.353  -0.908  -0.400  1.00  0.00     0.084 C 
BRANCH   8   9
HETATM    9  N3  UNL     1      -2.490   0.454  -0.399  1.00  0.00    -0.351 N 
ATOM     10  H3  UNL     1      -1.644   0.990  -0.596  1.00  0.00     0.166 HD
BRANCH   9  11
HETATM   11  C15 UNL     1      -3.673   1.216  -0.156  1.00  0.00     0.094 C 
HETATM   12  C16 UNL     1      -4.763   1.158  -1.082  1.00  0.00     0.012 C 
BRANCH  12  13
HETATM   13  C17 UNL     1      -6.001   2.005  -0.989  1.00  0.00     0.002 C 
HETATM   14  C18 UNL     1      -5.825   3.483  -1.118  1.00  0.00     0.013 C 
HETATM   15  C19 UNL     1      -6.900   1.641   0.182  1.00  0.00     0.013 C 
ENDBRANCH  12  13
BRANCH  11  16
HETATM   16  C20 UNL     1      -3.312   2.528   0.391  1.00  0.00     0.281 C 
HETATM   17  N4  UNL     1      -3.977   3.198   1.433  1.00  0.00    -0.056 NA
HETATM   18  O6  UNL     1      -2.297   3.119  -0.119  1.00  0.00    -0.269 OA
ENDBRANCH  11  16
ENDBRANCH   9  11
ENDBRANCH   8   9
BRANCH   8  19
HETATM   19  C21 UNL     1      -3.307  -1.864  -0.926  1.00  0.00     0.162 C 
BRANCH  19  20
HETATM   20  O7  UNL     1      -3.701  -1.621  -2.153  1.00  0.00    -0.345 OA
ATOM     21  H7  UNL     1      -4.326  -2.248  -2.498  1.00  0.00     0.219 HD
ENDBRANCH  19  20
BRANCH  19  22
HETATM   22  N5  UNL     1      -3.902  -3.007  -0.378  1.00  0.00    -0.369 N 
HETATM   23  C22 UNL     1      -3.776  -3.547   0.951  1.00  0.00     0.151 C 
HETATM   24  C23 UNL     1      -4.810  -3.826  -1.248  1.00  0.00     0.151 C 
ENDBRANCH  19  22
ENDBRANCH   8  19
ENDBRANCH   7   8
BRANCH   1  25
HETATM   25  C8  UNL     1       2.292  -0.758  -0.818  1.00  0.00     0.112 C 
BRANCH  25  26
HETATM   26  C7  UNL     1       3.131   0.488  -0.584  1.00  0.00     0.112 C 
BRANCH  26  27
HETATM   27  C6  UNL     1       4.570   0.168  -0.781  1.00  0.00     0.218 C 
HETATM   28  N1  UNL     1       5.575   1.038  -0.296  1.00  0.00    -0.349 N 
ATOM     29  H1  UNL     1       5.302   1.889   0.197  1.00  0.00     0.163 HD
HETATM   30  O4  UNL     1       4.861  -0.906  -1.387  1.00  0.00    -0.274 OA
BRANCH  28  31
HETATM   31  C3  UNL     1       6.979   0.750  -0.482  1.00  0.00     0.163 C 
BRANCH  31  32
HETATM   32  C2  UNL     1       7.593   1.882  -1.148  1.00  0.00     0.146 C 
HETATM   33  C1  UNL     1       8.934   2.407  -0.905  1.00  0.00     0.093 C 
HETATM   34  O1  UNL     1       6.922   2.484  -2.018  1.00  0.00    -0.296 OA
ENDBRANCH  31  32
BRANCH  31  35
HETATM   35  C4  UNL     1       7.704   0.282   0.722  1.00  0.00     0.146 C 
BRANCH  35  36
HETATM   36  C5  UNL     1       9.050  -0.207   0.364  1.00  0.00     0.174 C 
HETATM   37  O2  UNL     1      10.038  -0.159   1.116  1.00  0.00    -0.648 OA
HETATM   38  O3  UNL     1       9.297  -0.783  -0.904  1.00  0.00    -0.648 OA
ENDBRANCH  35  36
ENDBRANCH  31  35
ENDBRANCH  28  31
ENDBRANCH  26  27
ENDBRANCH  25  26
ENDBRANCH   1  25
TORSDOF 15
