REMARK  15 active torsions:
REMARK  status: ('A' for Active; 'I' for Inactive)
REMARK    1  A    between atoms: C2_2  and  C3_3 
REMARK    2  A    between atoms: C3_3  and  N4_24 
REMARK    3  A    between atoms: C4_4  and  O1_5 
REMARK    4  A    between atoms: C4_4  and  N1_7 
REMARK    5  A    between atoms: C8_11  and  C9_12 
REMARK       I    between atoms: C9_12  and  N2_14 
REMARK    6  A    between atoms: N2_14  and  C10_16 
REMARK    7  A    between atoms: C10_16  and  C11_17 
REMARK    8  A    between atoms: C10_16  and  C12_19 
REMARK    9  A    between atoms: C12_19  and  C13_20 
REMARK   10  A    between atoms: C13_20  and  C14_21 
REMARK       I    between atoms: N4_24  and  C15_25 
REMARK   11  A    between atoms: N4_24  and  C20_34 
REMARK   12  A    between atoms: C15_25  and  C16_27 
REMARK   13  A    between atoms: C16_27  and  N5_28 
REMARK   14  A    between atoms: N5_28  and  C18_30 
REMARK   15  A    between atoms: C18_30  and  C19_31 
ROOT
HETATM    1  C3  UNL     1      -1.138  -0.825   1.315  1.00  0.00     0.065 C 
HETATM    2  C4  UNL     1      -0.409  -1.396   0.230  1.00  0.00     0.162 C 
ENDROOT
BRANCH   2   3
HETATM    3  O1  UNL     1      -0.507  -2.743   0.129  1.00  0.00    -0.345 OA
ATOM      4  H1  UNL     1      -0.021  -3.123  -0.594  1.00  0.00     0.219 HD
ENDBRANCH   2   3
BRANCH   2   5
HETATM    5  N1  UNL     1       0.388  -0.904  -0.770  1.00  0.00    -0.347 N 
HETATM    6  C5  UNL     1       1.064  -1.803  -1.757  1.00  0.00     0.126 C 
HETATM    7  C6  UNL     1       1.354  -0.975  -2.962  1.00  0.00     0.022 C 
HETATM    8  C7  UNL     1       0.481   0.265  -2.731  1.00  0.00     0.037 C 
HETATM    9  C8  UNL     1       0.748   0.391  -1.194  1.00  0.00     0.178 C 
BRANCH   9  10
HETATM   10  C9  UNL     1       2.185   0.747  -1.148  1.00  0.00     0.241 C 
HETATM   11  O2  UNL     1       2.469   1.835  -1.766  1.00  0.00    -0.271 OA
HETATM   12  N2  UNL     1       3.223   0.063  -0.531  1.00  0.00    -0.348 N 
ATOM     13  H2  UNL     1       3.012  -0.801  -0.032  1.00  0.00     0.163 HD
BRANCH  12  14
HETATM   14  C10 UNL     1       4.592   0.527  -0.567  1.00  0.00     0.146 C 
BRANCH  14  15
HETATM   15  C11 UNL     1       5.482  -0.447  -1.208  1.00  0.00     0.256 C 
HETATM   16  O3  UNL     1       5.051  -1.519  -1.643  1.00  0.00    -0.305 OA
ENDBRANCH  14  15
BRANCH  14  17
HETATM   17  C12 UNL     1       5.076   0.959   0.801  1.00  0.00     0.041 C 
BRANCH  17  18
HETATM   18  C13 UNL     1       6.505   1.436   0.730  1.00  0.00     0.102 C 
BRANCH  18  19
HETATM   19  C14 UNL     1       7.006   1.870   2.059  1.00  0.00     0.231 C 
HETATM   20  N3  UNL     1       8.331   2.360   2.210  1.00  0.00    -0.062 NA
HETATM   21  O4  UNL     1       6.260   1.812   3.088  1.00  0.00    -0.277 OA
ENDBRANCH  18  19
ENDBRANCH  17  18
ENDBRANCH  14  17
ENDBRANCH  12  14
ENDBRANCH   9  10
ENDBRANCH   2   5
BRANCH   1  22
HETATM   22  C2  UNL     1      -0.944   0.575   1.743  1.00  0.00     0.057 C 
HETATM   23  C1  UNL     1       0.501   0.764   2.219  1.00  0.00     0.011 C 
ENDBRANCH   1  22
BRANCH   1  24
HETATM   24  N4  UNL     1      -2.529  -1.209   1.402  1.00  0.00    -0.312 N 
HETATM   25  C15 UNL     1      -3.557  -0.823   0.515  1.00  0.00     0.253 C 
HETATM   26  O5  UNL     1      -4.736  -1.253   0.765  1.00  0.00    -0.271 OA
BRANCH  25  27
HETATM   27  C16 UNL     1      -3.305   0.039  -0.662  1.00  0.00     0.375 C 
BRANCH  27  28
HETATM   28  N5  UNL     1      -4.566   0.226  -1.376  1.00  0.00     0.103 N 
HETATM   29  C17 UNL     1      -5.487   1.025  -0.589  1.00  0.00     0.311 C 
BRANCH  28  30
HETATM   30  C18 UNL     1      -4.275   0.998  -2.579  1.00  0.00     0.385 C 
BRANCH  30  31
HETATM   31  C19 UNL     1      -5.517   1.207  -3.346  1.00  0.00     0.202 C 
HETATM   32  O6  UNL     1      -6.605   0.724  -2.934  1.00  0.00    -0.647 OA
HETATM   33  O7  UNL     1      -5.556   1.926  -4.529  1.00  0.00    -0.647 OA
ENDBRANCH  30  31
ENDBRANCH  28  30
ENDBRANCH  27  28
ENDBRANCH  25  27
BRANCH  24  34
HETATM   34  C20 UNL     1      -2.931  -2.080   2.510  1.00  0.00     0.085 C 
HETATM   35  C21 UNL     1      -4.013  -1.427   3.339  1.00  0.00     0.032 C 
HETATM   36  C22 UNL     1      -3.511  -3.380   1.959  1.00  0.00     0.032 C 
ENDBRANCH  24  34
ENDBRANCH   1  24
TORSDOF 15
