REMARK  14 active torsions:
REMARK  status: ('A' for Active; 'I' for Inactive)
REMARK    1  A    between atoms: C4_4  and  C5_5 
REMARK    2  A    between atoms: C5_5  and  N1_6 
REMARK    3  A    between atoms: C5_5  and  C7_10 
REMARK    4  A    between atoms: N1_6  and  C6_8 
REMARK       I    between atoms: C7_10  and  N2_12 
REMARK    5  A    between atoms: N2_12  and  C8_14 
REMARK    6  A    between atoms: C8_14  and  C9_15 
REMARK    7  A    between atoms: C8_14  and  C10_17 
REMARK       I    between atoms: C10_17  and  N3_19 
REMARK    8  A    between atoms: C14_23  and  C15_24 
REMARK       I    between atoms: C15_24  and  N4_26 
REMARK    9  A    between atoms: N4_26  and  C16_28 
REMARK   10  A    between atoms: C16_28  and  C17_29 
REMARK   11  A    between atoms: C16_28  and  C21_33 
REMARK   12  A    between atoms: C17_29  and  C18_30 
REMARK   13  A    between atoms: C18_30  and  C19_31 
REMARK       I    between atoms: C21_33  and  N5_35 
REMARK   14  A    between atoms: N5_35  and  C22_37 
ROOT
HETATM    1  C1  UNL     1       4.630   4.112   2.055  1.00  0.00     0.017 C 
HETATM    2  C2  UNL     1       4.859   2.950   2.341  1.00  0.00    -0.090 C 
HETATM    3  C3  UNL     1       5.120   1.554   2.646  1.00  0.00     0.062 C 
HETATM    4  C4  UNL     1       5.943   0.894   1.877  1.00  0.00     0.016 C 
ENDROOT
BRANCH   4   5
HETATM    5  C5  UNL     1       6.333  -0.529   2.036  1.00  0.00     0.200 C 
BRANCH   5   6
HETATM    6  N1  UNL     1       6.365  -0.939   3.389  1.00  0.00    -0.352 N 
ATOM      7  H1  UNL     1       5.510  -0.884   3.943  1.00  0.00     0.163 HD
BRANCH   6   8
HETATM    8  C6  UNL     1       7.566  -1.431   4.007  1.00  0.00     0.349 C 
HETATM    9  O1  UNL     1       8.631  -1.521   3.352  1.00  0.00    -0.284 OA
ENDBRANCH   6   8
ENDBRANCH   5   6
BRANCH   5  10
HETATM   10  C7  UNL     1       5.545  -1.383   1.106  1.00  0.00     0.245 C 
HETATM   11  O2  UNL     1       5.466  -2.593   1.247  1.00  0.00    -0.271 OA
HETATM   12  N2  UNL     1       4.856  -0.782   0.014  1.00  0.00    -0.340 N 
ATOM     13  H2  UNL     1       4.910   0.231  -0.090  1.00  0.00     0.163 HD
BRANCH  12  14
HETATM   14  C8  UNL     1       4.086  -1.525  -0.952  1.00  0.00     0.238 C 
BRANCH  14  15
HETATM   15  C9  UNL     1       4.129  -0.847  -2.264  1.00  0.00     0.266 C 
HETATM   16  O3  UNL     1       4.765   0.232  -2.383  1.00  0.00    -0.304 OA
ENDBRANCH  14  15
BRANCH  14  17
HETATM   17  C10 UNL     1       2.646  -1.546  -0.488  1.00  0.00     0.250 C 
HETATM   18  O4  UNL     1       2.407  -0.979   0.604  1.00  0.00    -0.271 OA
HETATM   19  N3  UNL     1       1.586  -2.156  -1.198  1.00  0.00    -0.337 N 
HETATM   20  C11 UNL     1       1.752  -2.832  -2.453  1.00  0.00     0.127 C 
HETATM   21  C14 UNL     1       0.225  -2.227  -0.801  1.00  0.00     0.179 C 
HETATM   22  C12 UNL     1       0.697  -3.919  -2.412  1.00  0.00     0.022 C 
HETATM   23  C13 UNL     1      -0.473  -3.091  -1.865  1.00  0.00     0.037 C 
BRANCH  21  24
HETATM   24  C15 UNL     1      -0.491  -0.973  -0.589  1.00  0.00     0.241 C 
HETATM   25  O5  UNL     1       0.093   0.101  -0.380  1.00  0.00    -0.271 OA
HETATM   26  N4  UNL     1      -1.908  -0.939  -0.615  1.00  0.00    -0.346 N 
ATOM     27  H4  UNL     1      -2.412  -1.804  -0.810  1.00  0.00     0.163 HD
BRANCH  26  28
HETATM   28  C16 UNL     1      -2.687   0.289  -0.373  1.00  0.00     0.176 C 
BRANCH  28  29
HETATM   29  C17 UNL     1      -2.909   0.897  -1.774  1.00  0.00     0.035 C 
BRANCH  29  30
HETATM   30  C18 UNL     1      -3.670   2.174  -1.737  1.00  0.00     0.002 C 
BRANCH  30  31
HETATM   31  C19 UNL     1      -2.948   3.266  -0.963  1.00  0.00    -0.004 C 
HETATM   32  C20 UNL     1      -3.843   4.482  -0.980  1.00  0.00     0.005 C 
ENDBRANCH  30  31
ENDBRANCH  29  30
ENDBRANCH  28  29
BRANCH  28  33
HETATM   33  C21 UNL     1      -3.990  -0.123   0.154  1.00  0.00     0.240 C 
HETATM   34  O6  UNL     1      -4.366  -1.337  -0.002  1.00  0.00    -0.271 OA
HETATM   35  N5  UNL     1      -4.919   0.711   0.846  1.00  0.00    -0.355 N 
ATOM     36  H5  UNL     1      -4.682   1.687   1.024  1.00  0.00     0.162 HD
BRANCH  35  37
HETATM   37  C22 UNL     1      -6.197   0.191   1.300  1.00  0.00     0.076 C 
HETATM   38  C23 UNL     1      -6.375   0.487   2.746  1.00  0.00     0.032 C 
HETATM   39  C24 UNL     1      -7.271   0.809   0.428  1.00  0.00     0.032 C 
ENDBRANCH  35  37
ENDBRANCH  28  33
ENDBRANCH  26  28
ENDBRANCH  21  24
ENDBRANCH  14  17
ENDBRANCH  12  14
ENDBRANCH   5  10
ENDBRANCH   4   5
TORSDOF 14
