REMARK  5 active torsions:
REMARK  status: ('A' for Active; 'I' for Inactive)
REMARK    1  A    between atoms: C2_2  and  N1_3 
REMARK    2  A    between atoms: N1_3  and  C3_6 
REMARK    3  A    between atoms: C3_6  and  C4_7 
REMARK    4  A    between atoms: C6_13  and  C7_14 
REMARK    5  A    between atoms: C12_19  and  O1_20 
ROOT
HETATM    1  C4  UNL     1       1.112  -0.064   0.395  1.00  0.00     0.071 A 
HETATM    2  N2  UNL     1       0.347  -0.144  -0.704  1.00  0.00    -0.341 N 
ATOM      3  H2  UNL     1       0.705  -0.089  -1.658  1.00  0.00     0.167 HD
HETATM    4  C5  UNL     1      -0.955  -0.306  -0.389  1.00  0.00     0.119 A 
HETATM    5  N3  UNL     1      -2.211  -0.453  -0.865  1.00  0.00    -0.345 N 
ATOM      6  H3  UNL     1      -2.450  -0.470  -1.857  1.00  0.00     0.167 HD
HETATM    7  C6  UNL     1      -3.105  -0.574   0.127  1.00  0.00     0.016 A 
HETATM    8  C10 UNL     1      -2.383  -0.500   1.297  1.00  0.00     0.043 A 
HETATM    9  C11 UNL     1      -1.043  -0.333   0.986  1.00  0.00     0.045 A 
HETATM   10  C12 UNL     1       0.246  -0.182   1.458  1.00  0.00     0.106 A 
ENDROOT
BRANCH   1  11
HETATM   11  C3  UNL     1       2.608   0.118   0.458  1.00  0.00     0.292 C 
BRANCH  11  12
HETATM   12  N1  UNL     1       3.178   0.203  -0.851  1.00  0.00    -0.070 N 
ATOM     13  H12 UNL     1       2.750   0.930  -1.424  1.00  0.00     0.277 HD
ATOM     14  H11 UNL     1       2.936  -0.592  -1.442  1.00  0.00     0.277 HD
BRANCH  12  15
HETATM   15  C2  UNL     1       4.611   0.376  -0.694  1.00  0.00     0.228 C 
HETATM   16  C1  UNL     1       5.329   0.479  -2.014  1.00  0.00     0.034 C 
ENDBRANCH  12  15
ENDBRANCH  11  12
ENDBRANCH   1  11
BRANCH  10  17
HETATM   17  O1  UNL     1       0.603  -0.155   2.799  1.00  0.00    -0.353 OA
HETATM   18  C13 UNL     1       0.611   1.127   3.425  1.00  0.00     0.210 C 
ENDBRANCH  10  17
BRANCH   7  19
HETATM   19  C7  UNL     1      -4.597  -0.754  -0.014  1.00  0.00     0.036 A 
HETATM   20  C8  UNL     1      -5.297  -0.086  -1.132  1.00  0.00     0.011 A 
HETATM   21  C9  UNL     1      -5.028  -1.565  -1.167  1.00  0.00     0.011 A 
ENDBRANCH   7  19
TORSDOF 5
