REMARK  7 active torsions:
REMARK  status: ('A' for Active; 'I' for Inactive)
REMARK    1  A    between atoms: N1_1  and  C1_5 
REMARK    2  A    between atoms: C1_5  and  C2_6 
REMARK    3  A    between atoms: C2_6  and  C3_7 
REMARK    4  A    between atoms: C3_7  and  C4_8 
REMARK    5  A    between atoms: C4_8  and  N2_9 
REMARK    6  A    between atoms: N2_9  and  C5_11 
REMARK    7  A    between atoms: C7_13  and  N3_14 
ROOT
HETATM    1  C5  UNL     1      -0.256   0.818  -0.259  1.00  0.00     0.087 C 
HETATM    2  C6  UNL     1      -0.777   1.516   1.014  1.00  0.00     0.058 C 
HETATM    3  C7  UNL     1      -2.034   2.248   0.519  1.00  0.00     0.185 C 
HETATM    4  C8  UNL     1      -3.030   1.179   0.154  1.00  0.00     0.037 C 
HETATM    5  C9  UNL     1      -2.508   0.266  -0.899  1.00  0.00    -0.006 C 
HETATM    6  C10 UNL     1      -3.523  -0.751  -1.354  1.00  0.00     0.005 C 
HETATM    7  C11 UNL     1      -3.392  -2.078  -0.688  1.00  0.00     0.000 C 
HETATM    8  C12 UNL     1      -2.585  -2.042   0.590  1.00  0.00     0.000 C 
HETATM    9  C13 UNL     1      -1.225  -1.438   0.388  1.00  0.00     0.007 C 
HETATM   10  C14 UNL     1      -1.154  -0.336  -0.600  1.00  0.00     0.012 C 
ENDROOT
BRANCH   1  11
HETATM   11  N2  UNL     1       1.129   0.611  -0.232  1.00  0.00    -0.397 N 
ATOM     12  H2  UNL     1       1.715   1.103  -0.906  1.00  0.00     0.159 HD
BRANCH  11  13
HETATM   13  C4  UNL     1       1.735  -0.251   0.692  1.00  0.00     0.056 C 
BRANCH  13  14
HETATM   14  C3  UNL     1       3.257  -0.125   0.658  1.00  0.00     0.046 C 
BRANCH  14  15
HETATM   15  C2  UNL     1       3.872  -0.398  -0.669  1.00  0.00     0.032 C 
BRANCH  15  16
HETATM   16  C1  UNL     1       5.387  -0.217  -0.466  1.00  0.00     0.230 C 
BRANCH  16  17
HETATM   17  N1  UNL     1       5.876  -1.165   0.513  1.00  0.00    -0.079 N 
ATOM     18  H13 UNL     1       5.363  -1.103   1.393  1.00  0.00     0.274 HD
ATOM     19  H12 UNL     1       5.636  -2.125   0.267  1.00  0.00     0.274 HD
ATOM     20  H11 UNL     1       6.880  -1.045   0.648  1.00  0.00     0.274 HD
ENDBRANCH  16  17
ENDBRANCH  15  16
ENDBRANCH  14  15
ENDBRANCH  13  14
ENDBRANCH  11  13
ENDBRANCH   1  11
BRANCH   3  21
HETATM   21  N3  UNL     1      -2.553   3.159   1.488  1.00  0.00    -0.075 N 
ATOM     22  H33 UNL     1      -2.728   2.690   2.377  1.00  0.00     0.274 HD
ATOM     23  H32 UNL     1      -1.838   3.821   1.790  1.00  0.00     0.274 HD
ATOM     24  H31 UNL     1      -3.387   3.645   1.159  1.00  0.00     0.274 HD
ENDBRANCH   3  21
TORSDOF 7
