REMARK  4 active torsions:
REMARK  status: ('A' for Active; 'I' for Inactive)
REMARK    1  A    between atoms: C3_9  and  N3_10 
REMARK    2  A    between atoms: N3_10  and  C4_11 
REMARK    3  A    between atoms: N3_10  and  N5_20 
REMARK    4  A    between atoms: C4_11  and  C5_12 
ROOT
HETATM    1  O1  UNL     1       5.785   1.459  -0.912  1.00  0.00    -0.266 OA
HETATM    2  C1  UNL     1       4.527   1.442  -0.662  1.00  0.00     0.274 A 
HETATM    3  N1  UNL     1       3.764   2.519  -0.920  1.00  0.00    -0.305 N 
ATOM      4  H1  UNL     1       4.172   3.365  -1.318  1.00  0.00     0.170 HD
HETATM    5  C2  UNL     1       2.455   2.454  -0.641  1.00  0.00     0.144 A 
HETATM    6  N2  UNL     1       1.429   3.312  -0.764  1.00  0.00    -0.242 N 
ATOM      7  H2  UNL     1       1.508   4.259  -1.136  1.00  0.00     0.196 HD
HETATM    8  O2  UNL     1       0.331   2.778  -0.349  1.00  0.00    -0.215 OA
HETATM    9  C3  UNL     1       0.538   1.527   0.081  1.00  0.00     0.206 A 
HETATM   10  C9  UNL     1       1.876   1.307  -0.097  1.00  0.00     0.073 A 
HETATM   11  C10 UNL     1       2.663   0.217   0.160  1.00  0.00    -0.006 A 
HETATM   12  C11 UNL     1       4.022   0.271  -0.123  1.00  0.00     0.104 A 
HETATM   13  N6  UNL     1       4.607  -0.984   0.236  1.00  0.00    -0.385 N 
ATOM     14  H6  UNL     1       5.577  -1.162   0.495  1.00  0.00     0.159 HD
HETATM   15  C12 UNL     1       3.529  -1.950   0.153  1.00  0.00     0.124 C 
HETATM   16  C13 UNL     1       2.374  -1.114   0.721  1.00  0.00     0.061 C 
ENDROOT
BRANCH   9  17
HETATM   17  N3  UNL     1      -0.494   0.689   0.597  1.00  0.00    -0.206 N 
BRANCH  17  18
HETATM   18  C4  UNL     1      -1.279  -0.176  -0.271  1.00  0.00     0.193 C 
BRANCH  18  19
HETATM   19  C5  UNL     1      -2.308  -0.926   0.511  1.00  0.00     0.229 C 
HETATM   20  C6  UNL     1      -3.091  -1.812  -0.467  1.00  0.00     0.202 C 
HETATM   21  O3  UNL     1      -3.556  -0.973  -1.457  1.00  0.00    -0.387 OA
HETATM   22  C7  UNL     1      -4.425  -0.045  -0.920  1.00  0.00     0.195 C 
HETATM   23  C8  UNL     1      -4.517  -0.097   0.573  1.00  0.00     0.259 C 
HETATM   24  N4  UNL     1      -3.229  -0.051   1.206  1.00  0.00    -0.065 N 
ATOM     25  H42 UNL     1      -3.284  -0.265   2.202  1.00  0.00     0.277 HD
ATOM     26  H41 UNL     1      -2.872   0.902   1.279  1.00  0.00     0.277 HD
ENDBRANCH  18  19
ENDBRANCH  17  18
BRANCH  17  27
HETATM   27  N5  UNL     1      -0.733   0.737   1.966  1.00  0.00    -0.035 N 
HETATM   28  O4  UNL     1      -1.188   1.782   2.462  1.00  0.00    -0.516 OA
HETATM   29  O5  UNL     1      -0.486  -0.320   2.791  1.00  0.00    -0.516 OA
ENDBRANCH  17  27
ENDBRANCH   9  17
TORSDOF 4
