REMARK  6 active torsions:
REMARK  status: ('A' for Active; 'I' for Inactive)
REMARK    1  A    between atoms: N1_1  and  N2_4 
REMARK       I    between atoms: N2_4  and  C1_6 
REMARK    2  A    between atoms: C1_6  and  C2_8 
REMARK    3  A    between atoms: C3_9  and  O2_10 
REMARK    4  A    between atoms: N4_15  and  N5_17 
REMARK    5  A    between atoms: C5_19  and  C6_20 
REMARK    6  A    between atoms: C9_23  and  N6_24 
ROOT
HETATM    1  C2  UNL     1      -3.544  -0.581  -0.336  1.00  0.00     0.159 A 
HETATM    2  C3  UNL     1      -3.040   0.467   0.391  1.00  0.00     0.165 A 
HETATM    3  N3  UNL     1      -1.742   0.515   0.828  1.00  0.00    -0.300 N 
ATOM      4  H3  UNL     1      -1.388   1.305   1.367  1.00  0.00     0.171 HD
HETATM    5  C4  UNL     1      -0.960  -0.527   0.512  1.00  0.00     0.248 A 
HETATM    6  N4  UNL     1       0.271  -0.535   0.898  1.00  0.00    -0.265 N 
ATOM      7  H4  UNL     1       0.831  -1.346   0.637  1.00  0.00     0.190 HD
HETATM    8  O5  UNL     1      -1.413  -1.547  -0.183  1.00  0.00    -0.240 OA
HETATM    9  C12 UNL     1      -2.637  -1.608  -0.604  1.00  0.00     0.310 A 
HETATM   10  O6  UNL     1      -3.043  -2.599  -1.269  1.00  0.00    -0.258 OA
ENDROOT
BRANCH   6  11
HETATM   11  N5  UNL     1       0.888   0.428   1.615  1.00  0.00    -0.308 N 
HETATM   12  C5  UNL     1       2.041   0.868   1.639  1.00  0.00     0.118 C 
ATOM     13  H5  UNL     1       0.268   0.892   2.280  1.00  0.00     0.186 HD
BRANCH  12  14
HETATM   14  C6  UNL     1       3.172   0.452   0.843  1.00  0.00    -0.019 A 
HETATM   15  C7  UNL     1       4.410   1.096   1.034  1.00  0.00     0.015 A 
HETATM   16  C8  UNL     1       5.544   0.789   0.342  1.00  0.00     0.037 A 
HETATM   17  C9  UNL     1       5.478  -0.221  -0.612  1.00  0.00     0.102 A 
HETATM   18  C10 UNL     1       4.301  -0.892  -0.851  1.00  0.00     0.037 A 
HETATM   19  C11 UNL     1       3.173  -0.526  -0.104  1.00  0.00     0.015 A 
BRANCH  17  20
HETATM   20  N6  UNL     1       6.624  -0.574  -1.352  1.00  0.00    -0.116 N 
HETATM   21  O3  UNL     1       6.588  -1.471  -2.207  1.00  0.00    -0.532 OA
HETATM   22  O4  UNL     1       7.801   0.087  -1.122  1.00  0.00    -0.532 OA
ENDBRANCH  17  20
ENDBRANCH  12  14
ENDBRANCH   6  11
BRANCH   2  23
HETATM   23  O2  UNL     1      -3.836   1.541   0.719  1.00  0.00    -0.345 OA
ATOM     24  H2  UNL     1      -3.487   2.267   1.223  1.00  0.00     0.219 HD
ENDBRANCH   2  23
BRANCH   1  25
HETATM   25  C1  UNL     1      -4.909  -0.677  -0.821  1.00  0.00     0.280 C 
HETATM   26  N2  UNL     1      -5.936   0.247  -0.647  1.00  0.00    -0.272 N 
ATOM     27  H2  UNL     1      -5.790   1.115  -0.132  1.00  0.00     0.189 HD
HETATM   28  O1  UNL     1      -5.174  -1.754  -1.488  1.00  0.00    -0.266 OA
BRANCH  26  29
HETATM   29  N1  UNL     1      -7.201  -0.075  -1.222  1.00  0.00    -0.342 N 
ATOM     30  H12 UNL     1      -7.331  -0.947  -1.735  1.00  0.00     0.176 HD
ATOM     31  H11 UNL     1      -7.953   0.602  -1.095  1.00  0.00     0.176 HD
ENDBRANCH  26  29
ENDBRANCH   1  25
TORSDOF 6
