REMARK  6 active torsions:
REMARK  status: ('A' for Active; 'I' for Inactive)
REMARK    1  A    between atoms: C2_5  and  N3_6 
REMARK    2  A    between atoms: C2_5  and  C8_19 
REMARK    3  A    between atoms: N3_6  and  N4_8 
REMARK    4  A    between atoms: C3_10  and  C4_11 
REMARK    5  A    between atoms: C7_14  and  N5_15 
REMARK    6  A    between atoms: C9_20  and  O4_21 
ROOT
HETATM    1  N1  UNL     1       0.321  -3.344  -0.951  1.00  0.00    -0.172 NA
HETATM    2  C1  UNL     1      -0.570  -2.668  -0.580  1.00  0.00     0.183 C 
HETATM    3  N2  UNL     1      -1.631  -1.883  -0.126  1.00  0.00    -0.277 N 
ATOM      4  H2  UNL     1      -2.396  -2.316   0.391  1.00  0.00     0.179 HD
HETATM    5  C2  UNL     1      -1.650  -0.625  -0.354  1.00  0.00     0.149 C 
ENDROOT
BRANCH   5   6
HETATM    6  N3  UNL     1      -0.585  -0.050  -1.068  1.00  0.00    -0.284 N 
ATOM      7  H3  UNL     1      -0.782   0.486  -1.913  1.00  0.00     0.188 HD
BRANCH   6   8
HETATM    8  N4  UNL     1       0.729  -0.195  -0.648  1.00  0.00    -0.308 N 
HETATM    9  C3  UNL     1       1.707   0.518  -1.077  1.00  0.00     0.144 C 
ATOM     10  H4  UNL     1       0.931  -0.914   0.046  1.00  0.00     0.186 HD
BRANCH   9  11
HETATM   11  C4  UNL     1       3.043   0.267  -0.558  1.00  0.00     0.095 A 
HETATM   12  C5  UNL     1       3.387  -0.694   0.386  1.00  0.00     0.043 A 
HETATM   13  C6  UNL     1       4.739  -0.600   0.598  1.00  0.00     0.065 A 
HETATM   14  C7  UNL     1       5.173   0.421  -0.229  1.00  0.00     0.215 A 
HETATM   15  O3  UNL     1       4.152   0.894  -0.881  1.00  0.00    -0.287 OA
BRANCH  14  16
HETATM   16  N5  UNL     1       6.506   0.870  -0.342  1.00  0.00    -0.090 N 
HETATM   17  O1  UNL     1       6.793   1.797  -1.116  1.00  0.00    -0.530 OA
HETATM   18  O2  UNL     1       7.496   0.295   0.394  1.00  0.00    -0.530 OA
ENDBRANCH  14  16
ENDBRANCH   9  11
ENDBRANCH   6   8
ENDBRANCH   5   6
BRANCH   5  19
HETATM   19  C8  UNL     1      -2.774   0.154   0.137  1.00  0.00     0.129 A 
HETATM   20  C9  UNL     1      -4.045  -0.358   0.286  1.00  0.00     0.163 A 
HETATM   21  N6  UNL     1      -5.068   0.381   0.741  1.00  0.00    -0.288 N 
HETATM   22  C10 UNL     1      -4.900   1.669   1.078  1.00  0.00     0.329 A 
ATOM     23  H6  UNL     1      -5.991  -0.044   0.832  1.00  0.00     0.172 HD
HETATM   24  O5  UNL     1      -5.876   2.373   1.512  1.00  0.00    -0.247 OA
HETATM   25  N7  UNL     1      -3.672   2.198   0.945  1.00  0.00    -0.275 N 
HETATM   26  C11 UNL     1      -2.628   1.486   0.492  1.00  0.00     0.267 A 
ATOM     27  H7  UNL     1      -3.528   3.176   1.197  1.00  0.00     0.173 HD
HETATM   28  O6  UNL     1      -1.469   1.974   0.362  1.00  0.00    -0.267 OA
BRANCH  20  29
HETATM   29  O4  UNL     1      -4.222  -1.710  -0.067  1.00  0.00    -0.345 OA
ATOM     30  H4  UNL     1      -5.098  -2.063   0.036  1.00  0.00     0.219 HD
ENDBRANCH  20  29
ENDBRANCH   5  19
TORSDOF 6
