REMARK  1 active torsions:
REMARK  status: ('A' for Active; 'I' for Inactive)
REMARK    1  A    between atoms: C1_2  and  C2_4 
ROOT
HETATM    1  C2  UNL     1       1.643  -0.058   0.432  1.00  0.00     0.175 A 
HETATM    2  N2  UNL     1       0.819   0.309  -0.592  1.00  0.00    -0.332 N 
ATOM      3  H2  UNL     1       1.234   0.696  -1.440  1.00  0.00     0.168 HD
HETATM    4  C3  UNL     1      -0.514   0.181  -0.528  1.00  0.00     0.135 A 
HETATM    5  C4  UNL     1      -1.370   0.540  -1.538  1.00  0.00     0.278 A 
HETATM    6  O2  UNL     1      -0.886   1.018  -2.592  1.00  0.00    -0.265 OA
HETATM    7  N3  UNL     1      -2.707   0.408  -1.462  1.00  0.00    -0.274 N 
ATOM      8  H3  UNL     1      -3.315   0.686  -2.232  1.00  0.00     0.173 HD
HETATM    9  C5  UNL     1      -3.206  -0.109  -0.319  1.00  0.00     0.327 A 
HETATM   10  O3  UNL     1      -4.458  -0.229  -0.257  1.00  0.00    -0.247 OA
HETATM   11  N4  UNL     1      -2.385  -0.468   0.685  1.00  0.00    -0.302 N 
ATOM     12  H4  UNL     1      -2.798  -0.855   1.534  1.00  0.00     0.171 HD
HETATM   13  C6  UNL     1      -1.058  -0.344   0.627  1.00  0.00     0.137 A 
HETATM   14  C7  UNL     1      -0.204  -0.706   1.645  1.00  0.00     0.276 A 
HETATM   15  O4  UNL     1      -0.701  -1.181   2.689  1.00  0.00    -0.266 OA
HETATM   16  N5  UNL     1       1.121  -0.570   1.559  1.00  0.00    -0.303 N 
ATOM     17  H5  UNL     1       1.724  -0.849   2.333  1.00  0.00     0.171 HD
ENDROOT
BRANCH   1  18
HETATM   18  C1  UNL     1       3.066   0.109   0.287  1.00  0.00     0.298 C 
HETATM   19  N1  UNL     1       3.647   0.648  -0.894  1.00  0.00    -0.054 NA
HETATM   20  O1  UNL     1       3.826  -0.220   1.210  1.00  0.00    -0.268 OA
ENDBRANCH   1  18
TORSDOF 1
