REMARK  3 active torsions:
REMARK  status: ('A' for Active; 'I' for Inactive)
REMARK    1  A    between atoms: C5_11  and  C6_12 
REMARK    2  A    between atoms: C7_13  and  N3_14 
REMARK    3  A    between atoms: N3_14  and  C8_16 
ROOT
HETATM    1  C6  UNL     1      -0.176  -0.322  -1.043  1.00  0.00     0.036 C 
HETATM    2  C7  UNL     1       1.099  -0.403  -1.056  1.00  0.00     0.107 C 
ENDROOT
BRANCH   1   3
HETATM    3  C5  UNL     1      -1.190  -0.129  -0.049  1.00  0.00     0.056 A 
HETATM    4  C2  UNL     1      -2.546  -0.085  -0.428  1.00  0.00     0.025 A 
HETATM    5  C1  UNL     1      -2.913  -0.240  -1.876  1.00  0.00     0.069 C 
HETATM    6  N1  UNL     1      -3.559   0.088   0.426  1.00  0.00    -0.312 N 
HETATM    7  C3  UNL     1      -3.269   0.231   1.728  1.00  0.00     0.327 A 
ATOM      8  H1  UNL     1      -4.524   0.111   0.098  1.00  0.00     0.170 HD
HETATM    9  O1  UNL     1      -4.198   0.395   2.556  1.00  0.00    -0.247 OA
HETATM   10  N2  UNL     1      -1.997   0.197   2.139  1.00  0.00    -0.275 N 
HETATM   11  C4  UNL     1      -0.947   0.021   1.286  1.00  0.00     0.261 A 
ATOM     12  H2  UNL     1      -1.803   0.308   3.134  1.00  0.00     0.173 HD
HETATM   13  O2  UNL     1       0.198   0.009   1.806  1.00  0.00    -0.267 OA
ENDBRANCH   1   3
BRANCH   2  14
HETATM   14  N3  UNL     1       2.026  -0.328  -0.045  1.00  0.00    -0.199 N 
ATOM     15  H3  UNL     1       1.700  -0.563   0.893  1.00  0.00     0.183 HD
BRANCH  14  16
HETATM   16  C8  UNL     1       3.265   0.008  -0.158  1.00  0.00     0.713 A 
HETATM   17  N4  UNL     1       3.974   0.364  -1.227  1.00  0.00    -0.115 N 
HETATM   18  N5  UNL     1       5.211   0.614  -0.812  1.00  0.00    -0.213 N 
ATOM     19  H4  UNL     1       3.632   0.432  -2.185  1.00  0.00     0.207 HD
HETATM   20  N6  UNL     1       5.306   0.428   0.488  1.00  0.00    -0.213 N 
ATOM     21  H5  UNL     1       5.979   0.909  -1.415  1.00  0.00     0.210 HD
HETATM   22  N7  UNL     1       4.103   0.053   0.894  1.00  0.00    -0.115 N 
ATOM     23  H6  UNL     1       6.138   0.548   1.065  1.00  0.00     0.210 HD
ATOM     24  H7  UNL     1       3.850  -0.168   1.857  1.00  0.00     0.207 HD
ENDBRANCH  14  16
ENDBRANCH   2  14
TORSDOF 3
