REMARK  5 active torsions:
REMARK  status: ('A' for Active; 'I' for Inactive)
REMARK    1  A    between atoms: C3_4  and  C4_5 
REMARK       I    between atoms: C4_5  and  N2_7 
REMARK    2  A    between atoms: N2_7  and  C5_9 
REMARK    3  A    between atoms: C5_9  and  N3_11 
REMARK    4  A    between atoms: N3_11  and  C6_13 
REMARK    5  A    between atoms: C6_13  and  O2_14 
ROOT
HETATM    1  N3  UNL     1       1.586  -0.240  -1.062  1.00  0.00    -0.316 N 
ATOM      2  H3  UNL     1       1.495  -0.036  -2.057  1.00  0.00     0.166 HD
ENDROOT
BRANCH   1   3
HETATM    3  C5  UNL     1       0.428  -0.343  -0.217  1.00  0.00     0.178 C 
HETATM    4  S1  UNL     1       0.601  -0.671   1.376  1.00  0.00    -0.041 SA
BRANCH   3   5
HETATM    5  N2  UNL     1      -0.855  -0.166  -0.741  1.00  0.00    -0.300 N 
HETATM    6  C4  UNL     1      -2.008  -0.263   0.073  1.00  0.00     0.248 C 
HETATM    7  O1  UNL     1      -1.944  -0.514   1.310  1.00  0.00    -0.268 OA
ATOM      8  H2  UNL     1      -0.963   0.038  -1.735  1.00  0.00     0.171 HD
BRANCH   6   9
HETATM    9  C3  UNL     1      -3.355  -0.076  -0.482  1.00  0.00     0.096 C 
HETATM   10  C2  UNL     1      -4.435  -0.160   0.247  1.00  0.00     0.025 C 
HETATM   11  C1  UNL     1      -5.753   0.037  -0.365  1.00  0.00     0.065 C 
HETATM   12  N1  UNL     1      -4.369  -0.440   1.631  1.00  0.00    -0.107 NA
ENDBRANCH   6   9
ENDBRANCH   3   5
ENDBRANCH   1   3
BRANCH   1  13
HETATM   13  C6  UNL     1       2.875  -0.433  -0.461  1.00  0.00     0.234 C 
HETATM   14  C7  UNL     1       4.010  -0.308  -1.423  1.00  0.00     0.208 C 
HETATM   15  N4  UNL     1       5.091   0.175  -0.575  1.00  0.00    -0.358 N 
HETATM   16  C8  UNL     1       4.609   0.687   0.515  1.00  0.00     0.188 C 
ATOM     17  H4  UNL     1       6.083   0.119  -0.805  1.00  0.00     0.162 HD
HETATM   18  N5  UNL     1       5.374   1.263   1.586  1.00  0.00    -0.064 NA
HETATM   19  N6  UNL     1       3.189   0.603   0.514  1.00  0.00    -0.314 N 
ATOM     20  H6  UNL     1       2.534   1.149   1.074  1.00  0.00     0.167 HD
BRANCH  13  21
HETATM   21  O2  UNL     1       2.922  -1.644   0.220  1.00  0.00    -0.352 OA
ATOM     22  H2  UNL     1       3.775  -1.772   0.618  1.00  0.00     0.214 HD
ENDBRANCH  13  21
ENDBRANCH   1  13
TORSDOF 5
