REMARK  7 active torsions:
REMARK  status: ('A' for Active; 'I' for Inactive)
REMARK    1  A    between atoms: C2_2  and  C3_3 
REMARK    2  A    between atoms: C2_2  and  C10_18 
REMARK    3  A    between atoms: C3_3  and  N1_4 
REMARK    4  A    between atoms: C3_3  and  C4_8 
REMARK    5  A    between atoms: C4_8  and  C5_10 
REMARK       I    between atoms: C5_10  and  N2_12 
REMARK    6  A    between atoms: N2_12  and  C6_14 
REMARK    7  A    between atoms: C6_14  and  C7_15 
ROOT
HETATM    1  C3  UNL     1      -1.013   0.107  -0.058  1.00  0.00     0.211 C 
ENDROOT
BRANCH   1   2
HETATM    2  C2  UNL     1      -2.260  -0.105   0.735  1.00  0.00     0.021 C 
HETATM    3  C1  UNL     1      -2.244  -1.406   1.512  1.00  0.00     0.012 C 
BRANCH   2   4
HETATM    4  C10 UNL     1      -3.485  -0.204  -0.148  1.00  0.00    -0.046 C 
HETATM    5  C11 UNL     1      -3.734   0.996  -1.020  1.00  0.00     0.015 C 
HETATM    6  C12 UNL     1      -3.431  -1.483  -0.995  1.00  0.00     0.015 C 
HETATM    7  C13 UNL     1      -4.730  -0.364   0.725  1.00  0.00     0.015 C 
ENDBRANCH   2   4
ENDBRANCH   1   2
BRANCH   1   8
HETATM    8  N1  UNL     1      -1.127   1.375  -0.747  1.00  0.00    -0.073 N 
ATOM      9  H13 UNL     1      -1.971   1.439  -1.316  1.00  0.00     0.274 HD
ATOM     10  H12 UNL     1      -1.328   2.150  -0.115  1.00  0.00     0.274 HD
ATOM     11  H11 UNL     1      -0.275   1.520  -1.289  1.00  0.00     0.274 HD
ENDBRANCH   1   8
BRANCH   1  12
HETATM   12  C4  UNL     1       0.258   0.191   0.721  1.00  0.00     0.181 C 
HETATM   13  S1  UNL     1       0.682  -1.260   1.696  1.00  0.00    -0.080 SA
BRANCH  12  14
HETATM   14  C5  UNL     1       1.385   0.368  -0.229  1.00  0.00     0.234 C 
HETATM   15  O1  UNL     1       1.258   0.403  -1.467  1.00  0.00    -0.272 OA
HETATM   16  N2  UNL     1       2.688   0.505   0.304  1.00  0.00    -0.360 N 
ATOM     17  H2  UNL     1       2.816   0.479   1.316  1.00  0.00     0.162 HD
BRANCH  16  18
HETATM   18  C6  UNL     1       3.855   0.683  -0.556  1.00  0.00     0.127 C 
BRANCH  18  19
HETATM   19  C7  UNL     1       5.119   0.806   0.224  1.00  0.00     0.003 A 
HETATM   20  C8  UNL     1       6.361   0.992  -0.605  1.00  0.00     0.007 A 
HETATM   21  C9  UNL     1       6.144  -0.304   0.081  1.00  0.00     0.007 A 
ENDBRANCH  18  19
ENDBRANCH  16  18
ENDBRANCH  12  14
ENDBRANCH   1  12
TORSDOF 7
