REMARK  7 active torsions:
REMARK  status: ('A' for Active; 'I' for Inactive)
REMARK    1  A    between atoms: C2_2  and  C3_3 
REMARK    2  A    between atoms: C7_7  and  N1_8 
REMARK    3  A    between atoms: N1_8  and  C8_11 
REMARK    4  A    between atoms: C8_11  and  C9_12 
REMARK    5  A    between atoms: C9_12  and  O1_13 
REMARK    6  A    between atoms: C9_12  and  C10_15 
REMARK    7  A    between atoms: C10_15  and  C13_18 
ROOT
HETATM    1  N1  UNL     1       0.503   0.043   0.666  1.00  0.00    -0.044 N 
ATOM      2  H11 UNL     1       0.345   0.535   1.546  1.00  0.00     0.279 HD
ATOM      3  H12 UNL     1       0.801  -0.862   1.031  1.00  0.00     0.279 HD
ENDROOT
BRANCH   1   4
HETATM    4  C7  UNL     1       1.563   0.667  -0.087  1.00  0.00     0.383 C 
HETATM    5  C6  UNL     1       2.009  -0.209  -1.244  1.00  0.00     0.062 C 
HETATM    6  C5  UNL     1       3.201  -1.059  -0.844  1.00  0.00     0.006 C 
HETATM    7  C4  UNL     1       4.358  -0.236  -0.354  1.00  0.00     0.033 C 
HETATM    8  C3  UNL     1       3.931   1.134   0.157  1.00  0.00     0.188 C 
HETATM    9  N2  UNL     1       2.653   0.924   0.813  1.00  0.00    -0.042 N 
ATOM     10  H22 UNL     1       2.726   0.179   1.506  1.00  0.00     0.280 HD
ATOM     11  H21 UNL     1       2.433   1.710   1.425  1.00  0.00     0.280 HD
BRANCH   8  12
HETATM   12  C2  UNL     1       4.879   1.613   1.246  1.00  0.00     0.028 C 
HETATM   13  C1  UNL     1       6.293   1.728   0.783  1.00  0.00     0.007 C 
ENDBRANCH   8  12
ENDBRANCH   1   4
BRANCH   1  14
HETATM   14  C8  UNL     1      -0.732  -0.084  -0.084  1.00  0.00     0.267 C 
BRANCH  14  15
HETATM   15  C9  UNL     1      -1.599  -1.040   0.694  1.00  0.00     0.152 C 
BRANCH  15  16
HETATM   16  O1  UNL     1      -0.976  -2.271   0.808  1.00  0.00    -0.393 OA
ATOM     17  H1  UNL     1      -1.523  -2.874   1.298  1.00  0.00     0.210 HD
ENDBRANCH  15  16
BRANCH  15  18
HETATM   18  C10 UNL     1      -2.958  -1.236   0.080  1.00  0.00    -0.016 C 
HETATM   19  C11 UNL     1      -3.636  -2.273   1.004  1.00  0.00     0.018 C 
HETATM   20  C12 UNL     1      -2.849  -1.838  -1.264  1.00  0.00     0.018 C 
BRANCH  18  21
HETATM   21  C13 UNL     1      -3.828  -0.023   0.196  1.00  0.00    -0.000 A 
HETATM   22  C14 UNL     1      -5.199  -0.074  -0.371  1.00  0.00     0.010 A 
HETATM   23  C15 UNL     1      -4.145   0.916  -0.867  1.00  0.00    -0.013 A 
HETATM   24  C16 UNL     1      -4.498   2.356  -0.520  1.00  0.00     0.010 C 
ENDBRANCH  18  21
ENDBRANCH  15  18
ENDBRANCH  14  15
ENDBRANCH   1  14
TORSDOF 7
