REMARK  6 active torsions:
REMARK  status: ('A' for Active; 'I' for Inactive)
REMARK    1  A    between atoms: C1_2  and  C2_3 
REMARK    2  A    between atoms: C1_2  and  C10_18 
REMARK    3  A    between atoms: C2_3  and  N2_4 
REMARK       I    between atoms: N2_4  and  C3_6 
REMARK       I    between atoms: C3_6  and  N3_8 
REMARK    4  A    between atoms: N3_8  and  N4_10 
REMARK    5  A    between atoms: C4_12  and  C5_13 
REMARK    6  A    between atoms: C10_18  and  C11_19 
ROOT
HETATM    1  N2  UNL     1       0.453   0.655  -0.860  1.00  0.00    -0.337 N 
ATOM      2  H2  UNL     1       0.044  -0.029  -1.497  1.00  0.00     0.164 HD
HETATM    3  C3  UNL     1      -0.388   1.582  -0.214  1.00  0.00     0.335 C 
HETATM    4  O1  UNL     1       0.105   2.420   0.564  1.00  0.00    -0.246 OA
HETATM    5  N3  UNL     1      -1.778   1.570  -0.440  1.00  0.00    -0.252 N 
ATOM      6  H3  UNL     1      -2.191   0.887  -1.076  1.00  0.00     0.191 HD
ENDROOT
BRANCH   1   7
HETATM    7  C2  UNL     1       1.895   0.650  -0.640  1.00  0.00     0.178 C 
BRANCH   7   8
HETATM    8  C1  UNL     1       2.559  -0.442  -1.451  1.00  0.00     0.038 C 
HETATM    9  N1  UNL     1       2.043  -1.706  -1.053  1.00  0.00    -0.106 NA
BRANCH   8  10
HETATM   10  C10 UNL     1       3.987  -0.301  -1.712  1.00  0.00     0.002 C 
BRANCH  10  11
HETATM   11  C11 UNL     1       5.026  -0.558  -0.732  1.00  0.00     0.010 C 
HETATM   12  C12 UNL     1       5.164  -1.918  -0.097  1.00  0.00     0.008 C 
HETATM   13  C13 UNL     1       5.723  -1.193   1.125  1.00  0.00     0.001 C 
HETATM   14  C14 UNL     1       5.130   0.120   0.572  1.00  0.00     0.008 C 
ENDBRANCH  10  11
ENDBRANCH   8  10
ENDBRANCH   7   8
ENDBRANCH   1   7
BRANCH   5  15
HETATM   15  N4  UNL     1      -2.584   2.502   0.215  1.00  0.00    -0.311 N 
HETATM   16  C4  UNL     1      -3.727   2.213   0.723  1.00  0.00     0.085 C 
ATOM     17  H4  UNL     1      -2.248   3.462   0.294  1.00  0.00     0.185 HD
BRANCH  16  18
HETATM   18  C5  UNL     1      -4.242   0.847   0.628  1.00  0.00     0.025 C 
HETATM   19  C6  UNL     1      -5.176   0.512   1.794  1.00  0.00     0.010 C 
HETATM   20  C7  UNL     1      -5.931  -0.687   1.279  1.00  0.00     0.001 C 
HETATM   21  C8  UNL     1      -5.814  -0.682  -0.212  1.00  0.00     0.001 C 
HETATM   22  C9  UNL     1      -5.185   0.662  -0.558  1.00  0.00     0.010 C 
ENDBRANCH  16  18
ENDBRANCH   5  15
TORSDOF 6
