REMARK  13 active torsions:
REMARK  status: ('A' for Active; 'I' for Inactive)
REMARK    1  A    between atoms: N1_2  and  C2_5 
REMARK    2  A    between atoms: C3_6  and  O1_7 
REMARK    3  A    between atoms: O1_7  and  C4_8 
REMARK    4  A    between atoms: C5_9  and  N2_10 
REMARK    5  A    between atoms: C7_15  and  O2_16 
REMARK    6  A    between atoms: O2_16  and  S1_17 
REMARK    7  A    between atoms: C8_21  and  O6_22 
REMARK    8  A    between atoms: C12_28  and  C13_29 
REMARK    9  A    between atoms: C13_29  and  N3_30 
REMARK   10  A    between atoms: N3_30  and  N4_32 
REMARK   11  A    between atoms: N4_32  and  N5_33 
REMARK   12  A    between atoms: C14_36  and  O8_37 
REMARK   13  A    between atoms: C15_39  and  O9_40 
ROOT
HETATM    1  C2  UNL     1      -2.526  -0.408   1.067  1.00  0.00     0.271 C 
HETATM    2  C3  UNL     1      -1.606   0.064  -0.001  1.00  0.00     0.294 C 
HETATM    3  O7  UNL     1      -2.258  -0.171  -1.221  1.00  0.00    -0.349 OA
HETATM    4  C12 UNL     1      -3.266   0.761  -1.434  1.00  0.00     0.176 C 
HETATM    5  C14 UNL     1      -3.918   1.257  -0.194  1.00  0.00     0.179 C 
HETATM    6  C15 UNL     1      -3.867   0.296   0.966  1.00  0.00     0.185 C 
ENDROOT
BRANCH   2   7
HETATM    7  O1  UNL     1      -0.441  -0.661  -0.033  1.00  0.00    -0.351 OA
BRANCH   7   8
HETATM    8  C4  UNL     1       0.692   0.131   0.093  1.00  0.00     0.165 C 
HETATM    9  C5  UNL     1       1.434   0.162  -1.227  1.00  0.00     0.215 C 
HETATM   10  C6  UNL     1       2.759   0.921  -1.039  1.00  0.00     0.071 C 
HETATM   11  C7  UNL     1       3.611   0.029  -0.196  1.00  0.00     0.176 C 
HETATM   12  C8  UNL     1       2.942  -0.597   0.980  1.00  0.00     0.159 C 
HETATM   13  C9  UNL     1       1.537  -0.198   1.257  1.00  0.00     0.009 C 
HETATM   14  C10 UNL     1       1.541   0.945   2.281  1.00  0.00     0.020 C 
HETATM   15  C11 UNL     1       0.861  -1.373   1.983  1.00  0.00     0.020 C 
BRANCH   9  16
HETATM   16  N2  UNL     1       1.657  -1.166  -1.753  1.00  0.00    -0.072 N 
ATOM     17  H23 UNL     1       2.134  -1.758  -1.073  1.00  0.00     0.274 HD
ATOM     18  H22 UNL     1       0.782  -1.685  -1.832  1.00  0.00     0.274 HD
ATOM     19  H21 UNL     1       2.157  -1.145  -2.642  1.00  0.00     0.274 HD
ENDBRANCH   9  16
BRANCH  11  20
HETATM   20  O2  UNL     1       4.858   0.553   0.088  1.00  0.00    -0.249 OA
BRANCH  20  21
HETATM   21  S1  UNL     1       6.150  -0.161  -0.601  1.00  0.00     0.252 S 
HETATM   22  O3  UNL     1       6.658   0.480  -1.850  1.00  0.00    -0.572 OA
HETATM   23  O4  UNL     1       5.742  -1.576  -0.993  1.00  0.00    -0.572 OA
HETATM   24  O5  UNL     1       7.468  -0.350   0.429  1.00  0.00    -0.572 OA
ENDBRANCH  20  21
ENDBRANCH  11  20
BRANCH  12  25
HETATM   25  O6  UNL     1       3.673  -0.324   2.167  1.00  0.00    -0.392 OA
ATOM     26  H6  UNL     1       3.247  -0.723   2.916  1.00  0.00     0.210 HD
ENDBRANCH  12  25
ENDBRANCH   7   8
ENDBRANCH   2   7
BRANCH   1  27
HETATM   27  N1  UNL     1      -2.800  -1.824   0.915  1.00  0.00    -0.068 N 
HETATM   28  C1  UNL     1      -3.532  -2.387   2.028  1.00  0.00     0.267 C 
ATOM     29  H12 UNL     1      -1.939  -2.344   0.748  1.00  0.00     0.277 HD
ATOM     30  H11 UNL     1      -3.281  -2.008   0.035  1.00  0.00     0.277 HD
ENDBRANCH   1  27
BRANCH   6  31
HETATM   31  O9  UNL     1      -4.936  -0.593   0.894  1.00  0.00    -0.391 OA
ATOM     32  H9  UNL     1      -5.775  -0.152   0.831  1.00  0.00     0.210 HD
ENDBRANCH   6  31
BRANCH   4  33
HETATM   33  C13 UNL     1      -2.628   1.976  -2.122  1.00  0.00     0.190 C 
BRANCH  33  34
HETATM   34  N3  UNL     1      -2.034   1.616  -3.376  1.00  0.00    -0.250 N 
ATOM     35  H3  UNL     1      -1.278   2.205  -3.724  1.00  0.00     0.197 HD
BRANCH  34  36
HETATM   36  N4  UNL     1      -2.364   0.656  -4.062  1.00  0.00    -0.248 NA
BRANCH  36  37
HETATM   37  N5  UNL     1      -2.928  -0.088  -4.870  1.00  0.00    -0.261 N 
ATOM     38  H52 UNL     1      -3.590   0.627  -5.173  1.00  0.00     0.193 HD
ATOM     39  H51 UNL     1      -3.203  -0.887  -5.441  1.00  0.00     0.193 HD
ENDBRANCH  36  37
ENDBRANCH  34  36
ENDBRANCH  33  34
ENDBRANCH   4  33
BRANCH   5  40
HETATM   40  O8  UNL     1      -3.483   2.534   0.177  1.00  0.00    -0.390 OA
ATOM     41  H8  UNL     1      -3.900   2.851   0.970  1.00  0.00     0.210 HD
ENDBRANCH   5  40
TORSDOF 13
