REMARK  12 active torsions:
REMARK  status: ('A' for Active; 'I' for Inactive)
REMARK    1  A    between atoms: C2_2  and  C4_4 
REMARK    2  A    between atoms: C5_6  and  O2_7 
REMARK    3  A    between atoms: O2_7  and  C6_8 
REMARK    4  A    between atoms: C9_12  and  C10_13 
REMARK    5  A    between atoms: C10_13  and  N1_14 
REMARK    6  A    between atoms: C12_17  and  O4_18 
REMARK    7  A    between atoms: O4_18  and  C13_19 
REMARK    8  A    between atoms: C16_22  and  O5_23 
REMARK    9  A    between atoms: C17_25  and  O6_26 
REMARK   10  A    between atoms: C18_28  and  O7_29 
REMARK   11  A    between atoms: C20_32  and  N2_33 
REMARK   12  A    between atoms: C21_37  and  O8_38 
ROOT
HETATM    1  C6  UNL     1      -0.051   1.298  -0.758  1.00  0.00     0.184 C 
HETATM    2  C7  UNL     1      -0.226   2.756  -0.391  1.00  0.00     0.149 C 
HETATM    3  C8  UNL     1      -1.313   3.438  -1.108  1.00  0.00     0.042 C 
HETATM    4  O3  UNL     1       1.036   3.288  -0.685  1.00  0.00    -0.374 OA
HETATM    5  C9  UNL     1       1.915   2.344  -0.284  1.00  0.00     0.170 C 
HETATM    6  C12 UNL     1       1.215   1.229   0.472  1.00  0.00     0.184 C 
ENDROOT
BRANCH   1   7
HETATM    7  O2  UNL     1      -0.969   0.546  -0.423  1.00  0.00    -0.351 OA
BRANCH   7   8
HETATM    8  C5  UNL     1      -1.622  -0.533  -0.293  1.00  0.00     0.263 C 
HETATM    9  O1  UNL     1      -2.661  -0.515   0.603  1.00  0.00    -0.349 OA
HETATM   10  C4  UNL     1      -3.887  -0.169   0.037  1.00  0.00     0.183 C 
HETATM   11  C21 UNL     1      -4.440  -1.293  -0.802  1.00  0.00     0.181 C 
HETATM   12  C20 UNL     1      -3.200  -2.053  -1.345  1.00  0.00     0.219 C 
HETATM   13  C19 UNL     1      -2.272  -0.922  -1.723  1.00  0.00     0.096 C 
BRANCH  10  14
HETATM   14  C2  UNL     1      -4.884   0.178   1.057  1.00  0.00    -0.062 C 
HETATM   15  C1  UNL     1      -5.520   1.379   1.049  1.00  0.00     0.016 C 
HETATM   16  C3  UNL     1      -5.316  -0.750   2.135  1.00  0.00     0.045 C 
ENDBRANCH  10  14
BRANCH  11  17
HETATM   17  O8  UNL     1      -5.306  -2.133  -0.212  1.00  0.00    -0.391 OA
ATOM     18  H8  UNL     1      -5.654  -2.841  -0.741  1.00  0.00     0.210 HD
ENDBRANCH  11  17
BRANCH  12  19
HETATM   19  N2  UNL     1      -2.724  -2.956  -0.355  1.00  0.00    -0.072 N 
ATOM     20  H23 UNL     1      -1.820  -3.333  -0.639  1.00  0.00     0.274 HD
ATOM     21  H22 UNL     1      -2.454  -2.438   0.481  1.00  0.00     0.274 HD
ATOM     22  H21 UNL     1      -3.350  -3.719  -0.100  1.00  0.00     0.274 HD
ENDBRANCH  12  19
ENDBRANCH   7   8
ENDBRANCH   1   7
BRANCH   6  23
HETATM   23  O4  UNL     1       1.632   0.086   0.311  1.00  0.00    -0.373 OA
BRANCH  23  24
HETATM   24  C13 UNL     1       2.061  -1.115   0.147  1.00  0.00     0.153 C 
HETATM   25  C14 UNL     1       2.753  -1.605   1.485  1.00  0.00     0.037 C 
HETATM   26  C15 UNL     1       3.945  -2.461   1.235  1.00  0.00     0.037 C 
HETATM   27  C16 UNL     1       3.798  -3.447   0.131  1.00  0.00     0.149 C 
HETATM   28  C17 UNL     1       3.461  -2.737  -1.164  1.00  0.00     0.178 C 
HETATM   29  C18 UNL     1       3.000  -1.324  -1.003  1.00  0.00     0.178 C 
BRANCH  27  30
HETATM   30  O5  UNL     1       5.003  -4.114  -0.054  1.00  0.00    -0.393 OA
ATOM     31  H5  UNL     1       4.909  -4.744  -0.759  1.00  0.00     0.210 HD
ENDBRANCH  27  30
BRANCH  28  32
HETATM   32  O6  UNL     1       4.546  -2.804  -2.045  1.00  0.00    -0.390 OA
ATOM     33  H6  UNL     1       4.335  -2.359  -2.857  1.00  0.00     0.210 HD
ENDBRANCH  28  32
BRANCH  29  34
HETATM   34  O7  UNL     1       2.334  -1.009  -2.230  1.00  0.00    -0.390 OA
ATOM     35  H7  UNL     1       2.929  -1.141  -2.959  1.00  0.00     0.210 HD
ENDBRANCH  29  34
ENDBRANCH  23  24
ENDBRANCH   6  23
BRANCH   5  36
HETATM   36  C10 UNL     1       3.208   2.859   0.147  1.00  0.00     0.147 C 
BRANCH  36  37
HETATM   37  N1  UNL     1       3.296   3.803   1.201  1.00  0.00    -0.423 N 
HETATM   38  C11 UNL     1       2.801   5.114   0.912  1.00  0.00     0.139 C 
ATOM     39  H1  UNL     1       3.689   3.562   2.111  1.00  0.00     0.152 HD
ENDBRANCH  36  37
ENDBRANCH   5  36
TORSDOF 12
