REMARK  13 active torsions:
REMARK  status: ('A' for Active; 'I' for Inactive)
REMARK    1  A    between atoms: N1_1  and  C1_5 
REMARK    2  A    between atoms: C3_7  and  N2_8 
REMARK    3  A    between atoms: C4_12  and  O1_13 
REMARK    4  A    between atoms: O1_13  and  C5_14 
REMARK    5  A    between atoms: C5_14  and  C6_15 
REMARK    6  A    between atoms: C12_21  and  O2_22 
REMARK    7  A    between atoms: C13_24  and  N3_25 
REMARK    8  A    between atoms: N3_25  and  C14_28 
REMARK    9  A    between atoms: C16_30  and  O3_31 
REMARK   10  A    between atoms: O3_31  and  C17_32 
REMARK   11  A    between atoms: C17_32  and  C18_34 
REMARK   12  A    between atoms: C22_39  and  O6_40 
REMARK   13  A    between atoms: C23_42  and  N4_43 
ROOT
HETATM    1  C1  UNL     1      -1.365   1.541  -0.476  1.00  0.00     0.218 C 
HETATM    2  C2  UNL     1      -2.469   2.307   0.218  1.00  0.00     0.070 C 
HETATM    3  C3  UNL     1      -3.012   1.346   1.288  1.00  0.00     0.216 C 
HETATM    4  C4  UNL     1      -3.122   0.016   0.611  1.00  0.00     0.183 C 
HETATM    5  C12 UNL     1      -1.686  -0.612   0.772  1.00  0.00     0.181 C 
HETATM    6  C13 UNL     1      -0.738   0.482   0.411  1.00  0.00     0.247 C 
ENDROOT
BRANCH   6   7
HETATM    7  N3  UNL     1       0.444   0.016  -0.276  1.00  0.00    -0.060 N 
ATOM      8  H32 UNL     1       0.207  -0.296  -1.218  1.00  0.00     0.278 HD
ATOM      9  H31 UNL     1       1.056   0.801  -0.500  1.00  0.00     0.278 HD
BRANCH   7  10
HETATM   10  C14 UNL     1       1.170  -0.997   0.412  1.00  0.00     0.222 C 
HETATM   11  C15 UNL     1       2.357  -1.379  -0.469  1.00  0.00     0.070 C 
HETATM   12  C16 UNL     1       3.581  -1.202   0.372  1.00  0.00     0.165 C 
HETATM   13  C22 UNL     1       3.134  -0.081   1.320  1.00  0.00     0.180 C 
HETATM   14  C23 UNL     1       1.761  -0.586   1.717  1.00  0.00     0.245 C 
BRANCH  12  15
HETATM   15  O3  UNL     1       4.683  -0.677  -0.349  1.00  0.00    -0.309 OA
BRANCH  15  16
HETATM   16  C17 UNL     1       5.912  -1.298  -0.299  1.00  0.00     0.291 C 
HETATM   17  O4  UNL     1       5.998  -2.338   0.412  1.00  0.00    -0.260 OA
BRANCH  16  18
HETATM   18  C18 UNL     1       7.083  -0.797  -1.025  1.00  0.00     0.041 C 
HETATM   19  C19 UNL     1       8.279  -1.354  -1.009  1.00  0.00     0.147 C 
HETATM   20  O5  UNL     1       9.171  -0.635  -1.802  1.00  0.00    -0.362 OA
HETATM   21  C20 UNL     1       8.641   0.680  -1.937  1.00  0.00     0.179 C 
HETATM   22  C21 UNL     1       7.158   0.382  -1.887  1.00  0.00     0.073 C 
ENDBRANCH  16  18
ENDBRANCH  15  16
ENDBRANCH  12  15
BRANCH  13  23
HETATM   23  O6  UNL     1       3.981   0.050   2.394  1.00  0.00    -0.391 OA
ATOM     24  H6  UNL     1       3.704   0.744   2.981  1.00  0.00     0.210 HD
ENDBRANCH  13  23
BRANCH  14  25
HETATM   25  N4  UNL     1       1.947  -1.778   2.523  1.00  0.00    -0.070 N 
ATOM     26  H43 UNL     1       1.088  -2.318   2.632  1.00  0.00     0.274 HD
ATOM     27  H42 UNL     1       2.499  -2.492   2.048  1.00  0.00     0.274 HD
ATOM     28  H41 UNL     1       2.351  -1.497   3.416  1.00  0.00     0.274 HD
ENDBRANCH  14  25
ENDBRANCH   7  10
ENDBRANCH   6   7
BRANCH   1  29
HETATM   29  N1  UNL     1      -0.293   2.481  -0.821  1.00  0.00    -0.073 N 
ATOM     30  H13 UNL     1      -0.628   3.271  -1.372  1.00  0.00     0.274 HD
ATOM     31  H12 UNL     1       0.042   3.006  -0.013  1.00  0.00     0.274 HD
ATOM     32  H11 UNL     1       0.452   1.964  -1.289  1.00  0.00     0.274 HD
ENDBRANCH   1  29
BRANCH   5  33
HETATM   33  O2  UNL     1      -1.643  -0.983   2.115  1.00  0.00    -0.391 OA
ATOM     34  H2  UNL     1      -0.777  -1.362   2.212  1.00  0.00     0.210 HD
ENDBRANCH   5  33
BRANCH   4  35
HETATM   35  O1  UNL     1      -4.010  -0.807   1.258  1.00  0.00    -0.377 OA
BRANCH  35  36
HETATM   36  C5  UNL     1      -4.865  -1.517   0.466  1.00  0.00     0.207 C 
BRANCH  36  37
HETATM   37  C6  UNL     1      -5.757  -0.658  -0.326  1.00  0.00    -0.035 A 
HETATM   38  C7  UNL     1      -5.559  -0.305  -1.642  1.00  0.00     0.009 A 
HETATM   39  C8  UNL     1      -6.439   0.497  -2.352  1.00  0.00     0.001 A 
HETATM   40  C9  UNL     1      -7.578   0.985  -1.750  1.00  0.00     0.000 A 
HETATM   41  C10 UNL     1      -7.783   0.636  -0.433  1.00  0.00     0.001 A 
HETATM   42  C11 UNL     1      -6.917  -0.153   0.263  1.00  0.00     0.009 A 
ENDBRANCH  36  37
ENDBRANCH  35  36
ENDBRANCH   4  35
BRANCH   3  43
HETATM   43  N2  UNL     1      -4.218   1.893   1.799  1.00  0.00    -0.072 N 
ATOM     44  H23 UNL     1      -4.103   2.845   2.146  1.00  0.00     0.274 HD
ATOM     45  H22 UNL     1      -4.900   2.095   1.068  1.00  0.00     0.274 HD
ATOM     46  H21 UNL     1      -4.578   1.255   2.509  1.00  0.00     0.274 HD
ENDBRANCH   3  43
TORSDOF 13
