REMARK  10 active torsions:
REMARK  status: ('A' for Active; 'I' for Inactive)
REMARK    1  A    between atoms: N1_1  and  C1_5 
REMARK    2  A    between atoms: C1_5  and  C2_6 
REMARK    3  A    between atoms: C2_6  and  C3_7 
REMARK    4  A    between atoms: C5_12  and  C6_13 
REMARK    5  A    between atoms: C6_13  and  O1_14 
REMARK    6  A    between atoms: O1_14  and  C7_15 
REMARK    7  A    between atoms: C8_19  and  C9_20 
REMARK    8  A    between atoms: C9_20  and  N4_21 
REMARK    9  A    between atoms: C10_25  and  O2_26 
REMARK   10  A    between atoms: C11_28  and  O3_29 
ROOT
HETATM    1  C7  UNL     1      -1.362  -0.720  -0.223  1.00  0.00     0.353 C 
HETATM    2  N3  UNL     1      -2.170  -0.109   0.825  1.00  0.00    -0.038 N 
ATOM      3  H31 UNL     1      -1.870   0.839   1.054  1.00  0.00     0.281 HD
ATOM      4  H32 UNL     1      -2.011  -0.527   1.742  1.00  0.00     0.281 HD
HETATM    5  C8  UNL     1      -3.536  -0.174   0.417  1.00  0.00     0.245 C 
HETATM    6  C10 UNL     1      -3.559  -0.618  -1.028  1.00  0.00     0.183 C 
HETATM    7  C11 UNL     1      -2.352  -1.567  -1.036  1.00  0.00     0.205 C 
ENDROOT
BRANCH   1   8
HETATM    8  O1  UNL     1      -0.382  -1.538   0.278  1.00  0.00    -0.355 OA
BRANCH   8   9
HETATM    9  C6  UNL     1       0.871  -1.164  -0.193  1.00  0.00     0.204 C 
BRANCH   9  10
HETATM   10  C5  UNL     1       1.153   0.244   0.245  1.00  0.00     0.215 C 
HETATM   11  C3  UNL     1       2.624   0.594   0.345  1.00  0.00     0.045 C 
HETATM   12  C4  UNL     1       2.530  -0.071   1.677  1.00  0.00     0.239 C 
HETATM   13  N2  UNL     1       1.125   0.294   1.716  1.00  0.00    -0.068 N 
ATOM     14  H22 UNL     1       0.450  -0.251   2.253  1.00  0.00     0.277 HD
ATOM     15  H21 UNL     1       0.806   1.126   2.213  1.00  0.00     0.277 HD
BRANCH  11  16
HETATM   16  C2  UNL     1       3.507  -0.082  -0.670  1.00  0.00     0.036 C 
BRANCH  16  17
HETATM   17  C1  UNL     1       4.915  -0.143  -0.114  1.00  0.00     0.230 C 
BRANCH  17  18
HETATM   18  N1  UNL     1       5.434   1.163   0.157  1.00  0.00    -0.079 N 
ATOM     19  H13 UNL     1       5.385   1.761  -0.668  1.00  0.00     0.274 HD
ATOM     20  H12 UNL     1       4.814   1.689   0.772  1.00  0.00     0.274 HD
ATOM     21  H11 UNL     1       6.382   1.122   0.531  1.00  0.00     0.274 HD
ENDBRANCH  17  18
ENDBRANCH  16  17
ENDBRANCH  11  16
ENDBRANCH   9  10
ENDBRANCH   8   9
ENDBRANCH   1   8
BRANCH   7  22
HETATM   22  O3  UNL     1      -2.680  -2.731  -0.345  1.00  0.00    -0.389 OA
ATOM     23  H3  UNL     1      -3.292  -3.255  -0.848  1.00  0.00     0.210 HD
ENDBRANCH   7  22
BRANCH   5  24
HETATM   24  C9  UNL     1      -4.281   1.116   0.562  1.00  0.00     0.265 C 
BRANCH  24  25
HETATM   25  N4  UNL     1      -3.735   2.194  -0.196  1.00  0.00    -0.077 N 
ATOM     26  H43 UNL     1      -2.748   2.324   0.028  1.00  0.00     0.274 HD
ATOM     27  H42 UNL     1      -3.657   1.935  -1.180  1.00  0.00     0.274 HD
ATOM     28  H41 UNL     1      -4.243   3.073  -0.097  1.00  0.00     0.274 HD
ENDBRANCH  24  25
ENDBRANCH   5  24
BRANCH   6  29
HETATM   29  O2  UNL     1      -3.267   0.427  -1.870  1.00  0.00    -0.391 OA
ATOM     30  H2  UNL     1      -3.281   0.148  -2.778  1.00  0.00     0.210 HD
ENDBRANCH   6  29
TORSDOF 10
