REMARK  8 active torsions:
REMARK  status: ('A' for Active; 'I' for Inactive)
REMARK    1  A    between atoms: N1_1  and  C1_4 
REMARK    2  A    between atoms: C2_7  and  N3_8 
REMARK    3  A    between atoms: N3_8  and  C3_9 
REMARK    4  A    between atoms: N3_8  and  C6_16 
REMARK    5  A    between atoms: C3_9  and  C4_10 
REMARK    6  A    between atoms: C4_10  and  C5_11 
REMARK    7  A    between atoms: C5_11  and  N4_12 
REMARK    8  A    between atoms: C6_16  and  C7_17 
ROOT
HETATM    1  N3  UNL     1       0.084  -0.124  -0.356  1.00  0.00    -0.215 N 
ENDROOT
BRANCH   1   2
HETATM    2  C2  UNL     1      -1.053  -0.977  -0.277  1.00  0.00     0.699 A 
HETATM    3  N2  UNL     1      -0.936  -2.337  -0.344  1.00  0.00    -0.022 N 
HETATM    4  C1  UNL     1      -2.043  -3.118  -0.280  1.00  0.00     0.694 A 
ATOM      5  H2  UNL     1      -0.015  -2.765  -0.442  1.00  0.00     0.203 HD
HETATM    6  N7  UNL     1      -3.267  -2.585  -0.151  1.00  0.00    -0.141 N 
HETATM    7  C10 UNL     1      -3.412  -1.240  -0.081  1.00  0.00     0.352 A 
ATOM      8  H7  UNL     1      -4.086  -3.191  -0.106  1.00  0.00     0.189 HD
HETATM    9  N6  UNL     1      -2.290  -0.526  -0.149  1.00  0.00    -0.140 N 
HETATM   10  O1  UNL     1      -4.534  -0.681   0.041  1.00  0.00    -0.246 OA
ATOM     11  H6  UNL     1      -2.397   0.487  -0.096  1.00  0.00     0.189 HD
BRANCH   4  12
HETATM   12  N1  UNL     1      -1.926  -4.423  -0.344  1.00  0.00    -0.234 N 
ATOM     13  H12 UNL     1      -0.995  -4.828  -0.442  1.00  0.00     0.174 HD
ATOM     14  H11 UNL     1      -2.759  -5.010  -0.296  1.00  0.00     0.174 HD
ENDBRANCH   4  12
ENDBRANCH   1   2
BRANCH   1  15
HETATM   15  C3  UNL     1       0.036   1.285  -0.156  1.00  0.00     0.143 C 
BRANCH  15  16
HETATM   16  C4  UNL     1      -1.306   1.907   0.101  1.00  0.00     0.048 C 
BRANCH  16  17
HETATM   17  C5  UNL     1      -1.057   3.429   0.300  1.00  0.00     0.231 C 
BRANCH  17  18
HETATM   18  N4  UNL     1      -2.313   4.093   0.561  1.00  0.00    -0.079 N 
ATOM     19  H43 UNL     1      -3.005   3.907  -0.165  1.00  0.00     0.274 HD
ATOM     20  H42 UNL     1      -2.812   3.678   1.348  1.00  0.00     0.274 HD
ATOM     21  H41 UNL     1      -2.150   5.091   0.692  1.00  0.00     0.274 HD
ENDBRANCH  17  18
ENDBRANCH  16  17
ENDBRANCH  15  16
ENDBRANCH   1  15
BRANCH   1  22
HETATM   22  C6  UNL     1       1.394  -0.709  -0.662  1.00  0.00     0.174 C 
BRANCH  22  23
HETATM   23  C7  UNL     1       2.279  -0.656   0.550  1.00  0.00     0.205 C 
HETATM   24  C8  UNL     1       3.657  -1.286   0.286  1.00  0.00     0.062 C 
HETATM   25  C9  UNL     1       4.193   0.101   0.041  1.00  0.00     0.235 C 
HETATM   26  N5  UNL     1       3.029   0.599   0.721  1.00  0.00    -0.069 N 
ATOM     27  H52 UNL     1       2.607   1.467   0.391  1.00  0.00     0.277 HD
ATOM     28  H51 UNL     1       3.140   0.975   1.663  1.00  0.00     0.277 HD
ENDBRANCH  22  23
ENDBRANCH   1  22
TORSDOF 8
