REMARK  8 active torsions:
REMARK  status: ('A' for Active; 'I' for Inactive)
REMARK    1  A    between atoms: N1_1  and  C1_5 
REMARK    2  A    between atoms: C1_5  and  C2_6 
REMARK    3  A    between atoms: C2_6  and  N2_7 
REMARK    4  A    between atoms: C2_6  and  C3_11 
REMARK    5  A    between atoms: C3_11  and  C4_12 
REMARK    6  A    between atoms: C4_12  and  C5_13 
REMARK    7  A    between atoms: C5_13  and  O1_14 
REMARK    8  A    between atoms: O1_14  and  N3_15 
ROOT
HETATM    1  O1  UNL     1      -0.727  -0.210   0.846  1.00  0.00    -0.275 OA
ENDROOT
BRANCH   1   2
HETATM    2  C5  UNL     1       0.201  -0.756   0.013  1.00  0.00     0.201 C 
BRANCH   2   3
HETATM    3  C4  UNL     1       1.526  -0.069   0.268  1.00  0.00     0.031 C 
BRANCH   3   4
HETATM    4  C3  UNL     1       2.566  -0.662  -0.647  1.00  0.00     0.036 C 
BRANCH   4   5
HETATM    5  C2  UNL     1       3.916  -0.043  -0.468  1.00  0.00     0.208 C 
BRANCH   5   6
HETATM    6  C1  UNL     1       4.468  -0.197   0.920  1.00  0.00     0.262 C 
BRANCH   6   7
HETATM    7  N1  UNL     1       5.818   0.331   0.932  1.00  0.00    -0.077 N 
ATOM      8  H13 UNL     1       6.414  -0.096   0.222  1.00  0.00     0.274 HD
ATOM      9  H12 UNL     1       5.867   1.292   0.594  1.00  0.00     0.274 HD
ATOM     10  H11 UNL     1       6.193   0.226   1.875  1.00  0.00     0.274 HD
ENDBRANCH   6   7
ENDBRANCH   5   6
BRANCH   5  11
HETATM   11  N2  UNL     1       3.888   1.363  -0.873  1.00  0.00    -0.073 N 
ATOM     12  H23 UNL     1       3.379   1.937  -0.201  1.00  0.00     0.274 HD
ATOM     13  H22 UNL     1       4.807   1.797  -0.784  1.00  0.00     0.274 HD
ATOM     14  H21 UNL     1       3.513   1.468  -1.816  1.00  0.00     0.274 HD
ENDBRANCH   5  11
ENDBRANCH   4   5
ENDBRANCH   3   4
ENDBRANCH   2   3
ENDBRANCH   1   2
BRANCH   1  15
HETATM   15  N3  UNL     1      -1.932  -0.624   0.822  1.00  0.00    -0.221 N 
HETATM   16  C6  UNL     1      -2.277  -1.968   0.848  1.00  0.00     0.206 C 
HETATM   17  N4  UNL     1      -3.486  -2.047   0.046  1.00  0.00    -0.380 N 
HETATM   18  C7  UNL     1      -4.159  -0.790   0.326  1.00  0.00     0.178 C 
ATOM     19  H4  UNL     1      -3.790  -2.804  -0.567  1.00  0.00     0.160 HD
HETATM   20  C8  UNL     1      -2.980   0.194   0.365  1.00  0.00     0.167 C 
HETATM   21  C9  UNL     1      -2.770   0.831  -0.978  1.00  0.00     0.182 C 
HETATM   22  N6  UNL     1      -3.260   1.305   1.248  1.00  0.00    -0.311 N 
HETATM   23  N5  UNL     1      -3.626   2.000  -0.939  1.00  0.00    -0.339 N 
HETATM   24  C10 UNL     1      -3.706   2.383   0.444  1.00  0.00     0.318 C 
ATOM     25  H5  UNL     1      -4.079   2.457  -1.731  1.00  0.00     0.164 HD
HETATM   26  O2  UNL     1      -4.105   3.490   0.857  1.00  0.00    -0.247 OA
ATOM     27  H6  UNL     1      -3.156   1.311   2.263  1.00  0.00     0.167 HD
ENDBRANCH   1  15
TORSDOF 8
