REMARK  12 active torsions:
REMARK  status: ('A' for Active; 'I' for Inactive)
REMARK    1  A    between atoms: C2_3  and  N2_4 
REMARK    2  A    between atoms: N2_4  and  C3_7 
REMARK    3  A    between atoms: C3_7  and  C4_8 
REMARK    4  A    between atoms: N5_13  and  C5_14 
REMARK    5  A    between atoms: C5_14  and  C11_34 
REMARK    6  A    between atoms: N6_15  and  N7_17 
REMARK    7  A    between atoms: N7_17  and  C6_19 
REMARK    8  A    between atoms: C7_22  and  N9_23 
REMARK    9  A    between atoms: C9_30  and  C10_31 
REMARK   10  A    between atoms: C12_35  and  O2_36 
REMARK   11  A    between atoms: C13_38  and  O3_39 
REMARK   12  A    between atoms: N13_42  and  O4_43 
ROOT
HETATM    1  N1  UNL     1      -4.950  -4.717   0.926  1.00  0.00    -0.196 NA
HETATM    2  C1  UNL     1      -4.242  -4.344   0.092  1.00  0.00     0.086 C 
HETATM    3  C2  UNL     1      -3.344  -3.890  -0.983  1.00  0.00     0.356 C 
ENDROOT
BRANCH   3   4
HETATM    4  N2  UNL     1      -2.370  -2.986  -0.374  1.00  0.00    -0.057 N 
ATOM      5  H22 UNL     1      -1.851  -3.426   0.386  1.00  0.00     0.278 HD
ATOM      6  H21 UNL     1      -1.580  -2.791  -0.989  1.00  0.00     0.278 HD
BRANCH   4   7
HETATM    7  C3  UNL     1      -3.055  -1.782   0.046  1.00  0.00     0.312 C 
BRANCH   7   8
HETATM    8  C4  UNL     1      -2.173  -0.798   0.675  1.00  0.00     0.139 A 
HETATM    9  N3  UNL     1      -1.903  -0.703   1.981  1.00  0.00    -0.270 N 
HETATM   10  N4  UNL     1      -1.075   0.290   2.201  1.00  0.00    -0.218 N 
ATOM     11  H3  UNL     1      -2.286  -1.315   2.702  1.00  0.00     0.190 HD
HETATM   12  N5  UNL     1      -0.795   0.855   1.047  1.00  0.00    -0.160 N 
ATOM     13  H4  UNL     1      -0.711   0.575   3.110  1.00  0.00     0.210 HD
HETATM   14  N14 UNL     1      -1.455   0.205   0.105  1.00  0.00    -0.262 N 
ATOM     15  H14 UNL     1      -1.430   0.422  -0.891  1.00  0.00     0.190 HD
BRANCH  12  16
HETATM   16  C5  UNL     1       0.081   1.979   0.817  1.00  0.00     0.193 C 
HETATM   17  N6  UNL     1       1.329   1.732   0.721  1.00  0.00    -0.279 N 
ATOM     18  H6  UNL     1       1.956   2.520   0.557  1.00  0.00     0.189 HD
BRANCH  17  19
HETATM   19  N7  UNL     1       1.888   0.484   0.822  1.00  0.00    -0.282 N 
ATOM     20  H7  UNL     1       2.123   0.142   1.754  1.00  0.00     0.188 HD
BRANCH  19  21
HETATM   21  C6  UNL     1       2.138  -0.289  -0.186  1.00  0.00     0.154 A 
HETATM   22  N8  UNL     1       1.883   0.027  -1.464  1.00  0.00    -0.174 N 
HETATM   23  C7  UNL     1       2.162  -0.809  -2.482  1.00  0.00     0.678 A 
ATOM     24  H8  UNL     1       1.463   0.933  -1.672  1.00  0.00     0.186 HD
HETATM   25  N10 UNL     1       2.722  -2.017  -2.216  1.00  0.00    -0.178 N 
HETATM   26  C8  UNL     1       3.007  -2.408  -0.965  1.00  0.00     0.151 A 
ATOM     27  H10 UNL     1       2.932  -2.646  -2.991  1.00  0.00     0.185 HD
HETATM   28  N11 UNL     1       3.593  -3.666  -0.671  1.00  0.00    -0.081 NA
HETATM   29  C9  UNL     1       2.706  -1.518   0.070  1.00  0.00     0.116 A 
BRANCH  23  30
HETATM   30  N9  UNL     1       1.903  -0.466  -3.688  1.00  0.00    -0.234 N 
ATOM     31  H92 UNL     1       1.482   0.441  -3.888  1.00  0.00     0.174 HD
ATOM     32  H91 UNL     1       2.114  -1.099  -4.459  1.00  0.00     0.174 HD
ENDBRANCH  23  30
BRANCH  29  33
HETATM   33  C10 UNL     1       3.019  -1.956   1.417  1.00  0.00     0.272 C 
HETATM   34  N12 UNL     1       2.723  -1.069   2.489  1.00  0.00    -0.057 NA
HETATM   35  O1  UNL     1       3.531  -3.067   1.669  1.00  0.00    -0.271 OA
ENDBRANCH  29  33
ENDBRANCH  19  21
ENDBRANCH  17  19
BRANCH  16  36
HETATM   36  C11 UNL     1      -0.474   3.318   0.708  1.00  0.00     0.146 A 
HETATM   37  C12 UNL     1       0.238   4.484   0.493  1.00  0.00     0.134 A 
HETATM   38  C13 UNL     1      -0.691   5.540   0.457  1.00  0.00     0.119 A 
HETATM   39  C14 UNL     1      -1.924   4.975   0.651  1.00  0.00     0.163 A 
HETATM   40  N13 UNL     1      -1.781   3.629   0.802  1.00  0.00    -0.227 N 
BRANCH  37  41
HETATM   41  O2  UNL     1       1.579   4.675   0.333  1.00  0.00    -0.356 OA
ATOM     42  H2  UNL     1       2.068   5.476   0.185  1.00  0.00     0.218 HD
ENDBRANCH  37  41
BRANCH  38  43
HETATM   43  O3  UNL     1      -0.450   6.877   0.269  1.00  0.00    -0.357 OA
ATOM     44  H3  UNL     1      -1.077   7.590   0.245  1.00  0.00     0.218 HD
ENDBRANCH  38  43
BRANCH  40  45
HETATM   45  O4  UNL     1      -2.812   2.749   1.015  1.00  0.00    -0.283 OA
ATOM     46  H4  UNL     1      -3.734   2.968   1.081  1.00  0.00     0.245 HD
ENDBRANCH  40  45
ENDBRANCH  16  36
ENDBRANCH  12  16
ENDBRANCH   7   8
ENDBRANCH   4   7
ENDBRANCH   3   4
TORSDOF 12
