REMARK  9 active torsions:
REMARK  status: ('A' for Active; 'I' for Inactive)
REMARK    1  A    between atoms: C7_8  and  C8_9 
REMARK    2  A    between atoms: N2_16  and  C12_17 
REMARK    3  A    between atoms: C12_17  and  C13_18 
REMARK    4  A    between atoms: C13_18  and  C14_19 
REMARK    5  A    between atoms: C14_19  and  N3_20 
REMARK    6  A    between atoms: N3_20  and  C17_23 
REMARK    7  A    between atoms: C17_23  and  C18_24 
REMARK    8  A    between atoms: C18_24  and  C19_25 
REMARK    9  A    between atoms: C19_25  and  C20_26 
REMARK       I    between atoms: N4_28  and  C22_29 
ROOT
HETATM    1  C8  UNL     1      -2.999  -0.634  -1.014  1.00  0.00     0.124 C 
HETATM    2  C9  UNL     1      -4.237  -0.099  -0.350  1.00  0.00     0.062 C 
HETATM    3  C10 UNL     1      -4.150   0.957   0.673  1.00  0.00     0.044 C 
HETATM    4  N1  UNL     1      -2.878   1.593   0.727  1.00  0.00    -0.333 N 
ATOM      5  H1  UNL     1      -2.781   2.605   0.807  1.00  0.00     0.165 HD
HETATM    6  C11 UNL     1      -1.740   0.719   0.662  1.00  0.00     0.319 C 
HETATM    7  O1  UNL     1      -0.714   1.031   1.355  1.00  0.00    -0.247 OA
HETATM    8  N2  UNL     1      -1.833  -0.428  -0.157  1.00  0.00    -0.325 N 
HETATM    9  C25 UNL     1      -4.521   0.446   2.058  1.00  0.00     0.015 C 
HETATM   10  C26 UNL     1      -5.873  -0.241   2.058  1.00  0.00     0.012 C 
HETATM   11  C27 UNL     1      -6.890   0.722   1.535  1.00  0.00    -0.013 C 
HETATM   12  C28 UNL     1      -7.018   1.849   2.553  1.00  0.00     0.009 C 
HETATM   13  C29 UNL     1      -5.699   2.544   2.661  1.00  0.00    -0.013 C 
HETATM   14  C30 UNL     1      -4.597   1.578   3.020  1.00  0.00     0.012 C 
HETATM   15  C31 UNL     1      -5.296   3.128   1.313  1.00  0.00     0.012 C 
HETATM   16  C32 UNL     1      -5.204   2.023   0.322  1.00  0.00     0.015 C 
HETATM   17  C33 UNL     1      -6.543   1.333   0.219  1.00  0.00     0.012 C 
ENDROOT
BRANCH   8  18
HETATM   18  C12 UNL     1      -0.756  -1.358  -0.103  1.00  0.00     0.130 C 
BRANCH  18  19
HETATM   19  C13 UNL     1       0.299  -1.182  -1.137  1.00  0.00     0.048 C 
BRANCH  19  20
HETATM   20  C14 UNL     1       0.886   0.199  -1.147  1.00  0.00     0.238 C 
BRANCH  20  21
HETATM   21  N3  UNL     1       1.911   0.259  -2.220  1.00  0.00    -0.075 N 
HETATM   22  C15 UNL     1       1.375  -0.339  -3.419  1.00  0.00     0.272 C 
HETATM   23  C16 UNL     1       2.145   1.653  -2.477  1.00  0.00     0.272 C 
BRANCH  21  24
HETATM   24  C17 UNL     1       3.099  -0.387  -1.778  1.00  0.00     0.236 C 
BRANCH  24  25
HETATM   25  C18 UNL     1       3.878   0.460  -0.811  1.00  0.00     0.030 C 
BRANCH  25  26
HETATM   26  C19 UNL     1       5.057  -0.385  -0.309  1.00  0.00     0.028 C 
BRANCH  26  27
HETATM   27  C20 UNL     1       5.846   0.482   0.648  1.00  0.00     0.094 C 
HETATM   28  C21 UNL     1       6.988  -0.363   1.153  1.00  0.00     0.150 C 
HETATM   29  N4  UNL     1       8.159   0.375   1.491  1.00  0.00    -0.352 N 
HETATM   30  C22 UNL     1       9.156  -0.253   2.256  1.00  0.00     0.184 C 
HETATM   31  C23 UNL     1       8.342   1.745   1.068  1.00  0.00     0.144 C 
HETATM   32  N5  UNL     1      10.388  -0.088   1.975  1.00  0.00    -0.374 N 
HETATM   33  N6  UNL     1       8.818  -1.082   3.356  1.00  0.00    -0.064 NA
ATOM     34  H52 UNL     1      10.631   0.508   1.184  1.00  0.00     0.158 HD
ATOM     35  H51 UNL     1      11.112  -0.544   2.530  1.00  0.00     0.158 HD
HETATM   36  C24 UNL     1       7.610   1.866  -0.279  1.00  0.00     0.134 C 
HETATM   37  N7  UNL     1       6.228   1.666  -0.031  1.00  0.00    -0.414 N 
ATOM     38  H7  UNL     1       5.533   2.350  -0.331  1.00  0.00     0.153 HD
ENDBRANCH  26  27
ENDBRANCH  25  26
ENDBRANCH  24  25
ENDBRANCH  21  24
ENDBRANCH  20  21
ENDBRANCH  19  20
ENDBRANCH  18  19
ENDBRANCH   8  18
BRANCH   1  39
HETATM   39  C7  UNL     1      -3.236  -2.123  -1.115  1.00  0.00    -0.029 A 
HETATM   40  C2  UNL     1      -2.882  -2.816  -2.231  1.00  0.00    -0.052 A 
HETATM   41  C1  UNL     1      -2.530  -2.169  -3.519  1.00  0.00     0.049 C 
HETATM   42  C3  UNL     1      -2.964  -4.214  -2.242  1.00  0.00     0.031 A 
HETATM   43  C4  UNL     1      -3.397  -4.931  -1.157  1.00  0.00     0.034 A 
HETATM   44 CL1  UNL     1      -3.507  -6.679  -1.242  1.00  0.00    -0.084 Cl
HETATM   45  C5  UNL     1      -3.757  -4.232  -0.023  1.00  0.00     0.024 A 
HETATM   46  C6  UNL     1      -3.670  -2.838  -0.023  1.00  0.00     0.011 A 
ENDBRANCH   1  39
TORSDOF 9
