REMARK  9 active torsions:
REMARK  status: ('A' for Active; 'I' for Inactive)
REMARK    1  A    between atoms: C6_7  and  C7_8 
REMARK    2  A    between atoms: C7_8  and  C8_9 
REMARK    3  A    between atoms: C8_9  and  C9_10 
REMARK    4  A    between atoms: C9_10  and  N1_11 
REMARK       I    between atoms: N1_11  and  C10_13 
REMARK       I    between atoms: C10_13  and  N2_15 
REMARK    5  A    between atoms: N2_15  and  C11_17 
REMARK    6  A    between atoms: C18_26  and  C19_27 
REMARK    7  A    between atoms: C19_27  and  C20_28 
REMARK    8  A    between atoms: C23_31  and  C24_32 
REMARK       I    between atoms: C24_32  and  N4_34 
REMARK    9  A    between atoms: N4_34  and  C25_36 
ROOT
HETATM    1  C9  UNL     1       0.247  -0.384  -2.236  1.00  0.00     0.124 C 
ENDROOT
BRANCH   1   2
HETATM    2  C8  UNL     1       1.070   0.213  -1.163  1.00  0.00     0.020 C 
BRANCH   2   3
HETATM    3  C7  UNL     1       2.486   0.511  -1.422  1.00  0.00     0.007 C 
BRANCH   3   4
HETATM    4  C6  UNL     1       3.473  -0.550  -1.677  1.00  0.00     0.003 C 
HETATM    5  C5  UNL     1       3.261  -1.462  -2.833  1.00  0.00     0.007 C 
HETATM    6  C4  UNL     1       4.588  -2.210  -3.075  1.00  0.00     0.021 C 
HETATM    7  C3  UNL     1       4.704  -3.262  -1.963  1.00  0.00     0.086 C 
HETATM    8  C2  UNL     1       3.831  -2.809  -0.824  1.00  0.00    -0.061 C 
HETATM    9 BR1  UNL     1       4.028  -4.940  -2.609  1.00  0.00    -0.086 Br
HETATM   10  C1  UNL     1       3.065  -3.650  -0.161  1.00  0.00     0.016 C 
HETATM   11  C23 UNL     1       3.847  -1.363  -0.448  1.00  0.00     0.111 C 
BRANCH  11  12
HETATM   12  C24 UNL     1       5.162  -0.988   0.120  1.00  0.00     0.226 C 
HETATM   13  O3  UNL     1       5.964  -1.968   0.352  1.00  0.00    -0.273 OA
HETATM   14  N4  UNL     1       5.632   0.286   0.429  1.00  0.00    -0.356 N 
ATOM     15  H4  UNL     1       5.021   1.084   0.254  1.00  0.00     0.162 HD
BRANCH  14  16
HETATM   16  C25 UNL     1       6.956   0.535   0.991  1.00  0.00     0.084 C 
HETATM   17  C26 UNL     1       6.940   1.409   2.202  1.00  0.00     0.025 C 
HETATM   18  C27 UNL     1       8.221   2.241   2.323  1.00  0.00     0.002 C 
HETATM   19  C28 UNL     1       8.340   3.242   1.181  1.00  0.00     0.000 C 
HETATM   20  C29 UNL     1       7.452   2.746   0.052  1.00  0.00     0.002 C 
HETATM   21  C30 UNL     1       7.745   1.274  -0.097  1.00  0.00     0.025 C 
ENDBRANCH  14  16
ENDBRANCH  11  12
ENDBRANCH   3   4
ENDBRANCH   2   3
ENDBRANCH   1   2
BRANCH   1  22
HETATM   22  N1  UNL     1      -1.129  -0.626  -1.827  1.00  0.00    -0.343 N 
HETATM   23  C10 UNL     1      -2.048   0.333  -1.405  1.00  0.00     0.316 C 
HETATM   24  O1  UNL     1      -1.739   1.538  -1.339  1.00  0.00    -0.247 OA
HETATM   25  N2  UNL     1      -3.363  -0.047  -1.040  1.00  0.00    -0.336 N 
ATOM     26  H2  UNL     1      -3.600  -1.037  -1.102  1.00  0.00     0.164 HD
ATOM     27  H1  UNL     1      -1.453  -1.593  -1.852  1.00  0.00     0.164 HD
BRANCH  25  28
HETATM   28  C11 UNL     1      -4.391   0.853  -0.589  1.00  0.00     0.111 C 
HETATM   29  C12 UNL     1      -5.615   0.790  -1.448  1.00  0.00     0.052 C 
HETATM   30  C13 UNL     1      -6.635   0.088  -0.590  1.00  0.00     0.089 C 
HETATM   31  C14 UNL     1      -7.542  -0.836  -1.334  1.00  0.00     0.026 C 
HETATM   32  N3  UNL     1      -5.822  -0.563   0.404  1.00  0.00    -0.341 N 
HETATM   33  C15 UNL     1      -7.992  -2.020  -0.519  1.00  0.00     0.011 C 
HETATM   34  C16 UNL     1      -6.862  -2.827   0.021  1.00  0.00     0.103 C 
HETATM   35  C17 UNL     1      -5.969  -1.920   0.791  1.00  0.00     0.220 C 
HETATM   36  O2  UNL     1      -5.360  -2.411   1.785  1.00  0.00    -0.273 OA
HETATM   37  C18 UNL     1      -4.872   0.450   0.828  1.00  0.00     0.110 C 
BRANCH  37  38
HETATM   38  C19 UNL     1      -5.411   1.622   1.541  1.00  0.00     0.031 C 
BRANCH  38  39
HETATM   39  C20 UNL     1      -5.878   1.496   2.927  1.00  0.00    -0.021 C 
HETATM   40  C21 UNL     1      -6.352   2.907   3.392  1.00  0.00     0.009 C 
HETATM   41  C22 UNL     1      -7.066   0.598   3.083  1.00  0.00     0.009 C 
ENDBRANCH  38  39
ENDBRANCH  37  38
ENDBRANCH  25  28
ENDBRANCH   1  22
TORSDOF 9
