REMARK  16 active torsions:
REMARK  status: ('A' for Active; 'I' for Inactive)
REMARK    1  A    between atoms: C2_2  and  C3_3 
REMARK    2  A    between atoms: C3_3  and  C4_4 
REMARK    3  A    between atoms: C4_4  and  N1_5 
REMARK    4  A    between atoms: C4_4  and  C10_14 
REMARK       I    between atoms: N1_5  and  C5_7 
REMARK    5  A    between atoms: C5_7  and  O2_9 
REMARK    6  A    between atoms: O2_9  and  C6_10 
REMARK       I    between atoms: C10_14  and  N2_16 
REMARK    7  A    between atoms: N2_16  and  C11_18 
REMARK    8  A    between atoms: C11_18  and  C12_19 
REMARK    9  A    between atoms: C11_18  and  C30_49 
REMARK       I    between atoms: C12_19  and  N3_21 
REMARK   10  A    between atoms: N3_21  and  C13_23 
REMARK   11  A    between atoms: C13_23  and  C14_24 
REMARK   12  A    between atoms: C13_23  and  C18_28 
REMARK   13  A    between atoms: C14_24  and  C15_25 
REMARK       I    between atoms: C18_28  and  N4_30 
REMARK   14  A    between atoms: C23_35  and  N5_36 
REMARK   15  A    between atoms: C23_35  and  C24_40 
REMARK       I    between atoms: C24_40  and  N6_42 
REMARK   16  A    between atoms: N6_42  and  C25_44 
ROOT
HETATM    1  C13 UNL     1      -1.975   3.024  -0.630  1.00  0.00     0.177 C 
ENDROOT
BRANCH   1   2
HETATM    2  N3  UNL     1      -0.515   2.843  -0.717  1.00  0.00    -0.346 N 
HETATM    3  C12 UNL     1       0.291   2.464   0.376  1.00  0.00     0.241 C 
HETATM    4  O4  UNL     1      -0.315   2.271   1.476  1.00  0.00    -0.271 OA
ATOM      5  H3  UNL     1      -0.063   3.001  -1.618  1.00  0.00     0.163 HD
BRANCH   3   6
HETATM    6  C11 UNL     1       1.727   2.271   0.366  1.00  0.00     0.180 C 
BRANCH   6   7
HETATM    7  N2  UNL     1       2.158   1.154   1.218  1.00  0.00    -0.346 N 
HETATM    8  C10 UNL     1       3.018   0.143   0.727  1.00  0.00     0.241 C 
HETATM    9  O3  UNL     1       3.409   0.249  -0.494  1.00  0.00    -0.271 OA
ATOM     10  H2  UNL     1       1.831   1.106   2.183  1.00  0.00     0.163 HD
BRANCH   8  11
HETATM   11  C4  UNL     1       3.508  -1.012   1.469  1.00  0.00     0.178 C 
BRANCH  11  12
HETATM   12  C3  UNL     1       2.292  -1.893   1.821  1.00  0.00     0.034 C 
BRANCH  12  13
HETATM   13  C2  UNL     1       1.631  -2.365   0.522  1.00  0.00    -0.002 C 
HETATM   14  C1  UNL     1       0.445  -3.234   0.823  1.00  0.00     0.005 C 
ENDBRANCH  12  13
ENDBRANCH  11  12
BRANCH  11  15
HETATM   15  N1  UNL     1       4.443  -1.821   0.674  1.00  0.00    -0.324 N 
HETATM   16  C5  UNL     1       5.669  -2.292   1.225  1.00  0.00     0.362 C 
HETATM   17  O1  UNL     1       5.963  -2.019   2.412  1.00  0.00    -0.238 OA
ATOM     18  H1  UNL     1       4.209  -2.050  -0.292  1.00  0.00     0.165 HD
BRANCH  16  19
HETATM   19  O2  UNL     1       6.561  -3.052   0.489  1.00  0.00    -0.294 OA
BRANCH  19  20
HETATM   20  C6  UNL     1       7.770  -3.525   1.041  1.00  0.00     0.061 C 
HETATM   21  C7  UNL     1       8.667  -2.424   1.538  1.00  0.00     0.046 C 
HETATM   22  C8  UNL     1       7.556  -4.589   2.091  1.00  0.00     0.046 C 
HETATM   23  C9  UNL     1       8.505  -4.222  -0.116  1.00  0.00     0.046 C 
ENDBRANCH  19  20
ENDBRANCH  16  19
ENDBRANCH  11  15
ENDBRANCH   8  11
ENDBRANCH   6   7
BRANCH   6  24
HETATM   24  C30 UNL     1       2.543   3.467   0.775  1.00  0.00     0.009 C 
HETATM   25  C31 UNL     1       2.170   4.672  -0.051  1.00  0.00     0.012 C 
HETATM   26  C32 UNL     1       2.536   3.754   2.229  1.00  0.00     0.012 C 
ENDBRANCH   6  24
ENDBRANCH   3   6
ENDBRANCH   1   2
BRANCH   1  27
HETATM   27  C14 UNL     1      -2.329   4.088  -1.599  1.00  0.00     0.038 C 
BRANCH  27  28
HETATM   28  C15 UNL     1      -1.641   5.415  -1.288  1.00  0.00    -0.020 C 
HETATM   29  C16 UNL     1      -2.000   5.928   0.075  1.00  0.00     0.009 C 
HETATM   30  C17 UNL     1      -2.104   6.484  -2.274  1.00  0.00     0.009 C 
ENDBRANCH  27  28
ENDBRANCH   1  27
BRANCH   1  31
HETATM   31  C18 UNL     1      -2.647   1.707  -0.884  1.00  0.00     0.245 C 
HETATM   32  O5  UNL     1      -1.850   0.784  -1.228  1.00  0.00    -0.271 OA
HETATM   33  N4  UNL     1      -3.998   1.435  -0.774  1.00  0.00    -0.310 N 
HETATM   34  C19 UNL     1      -4.994   2.469  -0.416  1.00  0.00     0.129 C 
HETATM   35  C23 UNL     1      -4.639   0.167  -1.034  1.00  0.00     0.280 C 
HETATM   36  C20 UNL     1      -5.948   2.516  -1.630  1.00  0.00     0.020 C 
HETATM   37  C21 UNL     1      -5.393   1.735  -2.799  1.00  0.00     0.006 C 
HETATM   38  C22 UNL     1      -5.085   0.279  -2.494  1.00  0.00     0.072 C 
BRANCH  35  39
HETATM   39  N5  UNL     1      -5.940   0.150  -0.292  1.00  0.00    -0.043 N 
ATOM     40  H53 UNL     1      -5.830   0.341   0.704  1.00  0.00     0.278 HD
ATOM     41  H52 UNL     1      -6.535   0.947  -0.518  1.00  0.00     0.278 HD
ATOM     42  H51 UNL     1      -6.393  -0.745  -0.476  1.00  0.00     0.278 HD
ENDBRANCH  35  39
BRANCH  35  43
HETATM   43  C24 UNL     1      -4.000  -1.048  -0.658  1.00  0.00     0.275 C 
HETATM   44  O6  UNL     1      -3.087  -1.112   0.200  1.00  0.00    -0.269 OA
HETATM   45  N6  UNL     1      -4.356  -2.322  -1.239  1.00  0.00    -0.353 N 
ATOM     46  H6  UNL     1      -5.090  -2.351  -1.947  1.00  0.00     0.163 HD
BRANCH  45  47
HETATM   47  C25 UNL     1      -3.721  -3.539  -0.860  1.00  0.00     0.084 C 
HETATM   48  C26 UNL     1      -3.071  -4.299  -1.994  1.00  0.00     0.025 C 
HETATM   49  C27 UNL     1      -2.806  -5.689  -1.406  1.00  0.00     0.002 C 
HETATM   50  C28 UNL     1      -3.781  -5.839  -0.276  1.00  0.00     0.002 C 
HETATM   51  C29 UNL     1      -4.636  -4.593  -0.293  1.00  0.00     0.025 C 
ENDBRANCH  45  47
ENDBRANCH  35  43
ENDBRANCH   1  31
TORSDOF 16
