REMARK  13 active torsions:
REMARK  status: ('A' for Active; 'I' for Inactive)
REMARK       I    between atoms: C2_2  and  N1_4 
REMARK    1  A    between atoms: N1_4  and  C3_6 
REMARK    2  A    between atoms: C3_6  and  C4_7 
REMARK    3  A    between atoms: C3_6  and  C8_15 
REMARK    4  A    between atoms: C4_7  and  C5_8 
REMARK       I    between atoms: C8_15  and  N4_17 
REMARK    5  A    between atoms: N4_17  and  C9_19 
REMARK    6  A    between atoms: C17_27  and  C18_28 
REMARK    7  A    between atoms: C18_28  and  C19_29 
REMARK    8  A    between atoms: C19_29  and  C20_30 
REMARK    9  A    between atoms: C20_30  and  C21_31 
REMARK       I    between atoms: C21_31  and  N5_33 
REMARK   10  A    between atoms: C27_40  and  C28_41 
REMARK   11  A    between atoms: C28_41  and  C29_42 
REMARK   12  A    between atoms: C29_42  and  C30_43 
REMARK   13  A    between atoms: C30_43  and  C31_44 
ROOT
HETATM    1  C9  UNL     1       1.320  -0.398   0.512  1.00  0.00     0.176 C 
HETATM    2  C10 UNL     1       1.310  -0.926   1.943  1.00  0.00     0.035 C 
HETATM    3  C11 UNL     1       1.133  -2.461   1.855  1.00  0.00     0.002 C 
HETATM    4  C12 UNL     1      -0.314  -2.839   1.648  1.00  0.00     0.000 C 
HETATM    5  C13 UNL     1      -0.430  -3.671   0.408  1.00  0.00     0.000 C 
HETATM    6  C14 UNL     1      -1.802  -3.796  -0.148  1.00  0.00     0.000 C 
HETATM    7  C15 UNL     1      -2.603  -2.546  -0.184  1.00  0.00     0.000 C 
HETATM    8  C16 UNL     1      -2.204  -1.567  -1.270  1.00  0.00     0.005 C 
HETATM    9  C17 UNL     1      -2.380  -0.163  -0.584  1.00  0.00    -0.012 C 
HETATM   10  C24 UNL     1      -1.801   0.863  -1.515  1.00  0.00     0.041 C 
HETATM   11  C25 UNL     1      -0.305   0.871  -1.532  1.00  0.00     0.150 C 
HETATM   12  S1  UNL     1       0.144   1.752  -3.098  1.00  0.00    -0.141 SA
HETATM   13  C26 UNL     1       0.026   3.375  -2.275  1.00  0.00     0.101 C 
HETATM   14  C27 UNL     1       0.323   3.126  -0.861  1.00  0.00     0.098 C 
HETATM   15  N8  UNL     1       0.388   1.685  -0.620  1.00  0.00    -0.331 N 
HETATM   16  C32 UNL     1       1.095   1.049   0.464  1.00  0.00     0.244 C 
HETATM   17  O4  UNL     1       1.546   1.771   1.423  1.00  0.00    -0.271 OA
ENDROOT
BRANCH   1  18
HETATM   18  N4  UNL     1       2.543  -0.781  -0.192  1.00  0.00    -0.346 N 
HETATM   19  C8  UNL     1       3.822  -0.550   0.376  1.00  0.00     0.241 C 
HETATM   20  O2  UNL     1       3.999   0.010   1.453  1.00  0.00    -0.271 OA
ATOM     21  H4  UNL     1       2.475  -1.223  -1.109  1.00  0.00     0.163 HD
BRANCH  19  22
HETATM   22  C3  UNL     1       5.044  -1.052  -0.390  1.00  0.00     0.182 C 
BRANCH  22  23
HETATM   23  N1  UNL     1       4.985  -2.530  -0.134  1.00  0.00    -0.348 N 
HETATM   24  C2  UNL     1       5.242  -3.416  -1.185  1.00  0.00     0.214 C 
HETATM   25  C1  UNL     1       5.149  -4.866  -0.987  1.00  0.00     0.117 C 
HETATM   26  O1  UNL     1       5.558  -3.041  -2.365  1.00  0.00    -0.274 OA
ATOM     27  H1  UNL     1       4.760  -2.884   0.796  1.00  0.00     0.163 HD
ENDBRANCH  22  23
BRANCH  22  28
HETATM   28  C4  UNL     1       6.180  -0.638   0.586  1.00  0.00     0.093 C 
BRANCH  28  29
HETATM   29  C5  UNL     1       7.383  -1.396   0.320  1.00  0.00     0.028 A 
HETATM   30  C6  UNL     1       8.462  -1.187  -0.457  1.00  0.00     0.114 A 
HETATM   31  N2  UNL     1       9.307  -2.215  -0.312  1.00  0.00    -0.360 N 
HETATM   32  C7  UNL     1       8.751  -3.079   0.563  1.00  0.00     0.180 A 
ATOM     33  H2  UNL     1      10.208  -2.325  -0.778  1.00  0.00     0.166 HD
HETATM   34  N3  UNL     1       7.588  -2.615   0.960  1.00  0.00    -0.354 N 
ATOM     35  H3  UNL     1       6.951  -3.066   1.617  1.00  0.00     0.166 HD
ENDBRANCH  28  29
ENDBRANCH  22  28
ENDBRANCH  19  22
ENDBRANCH   1  18
BRANCH  14  36
HETATM   36  C28 UNL     1      -0.633   3.644   0.159  1.00  0.00     0.026 C 
BRANCH  36  37
HETATM   37  C29 UNL     1      -0.972   5.069   0.187  1.00  0.00     0.009 C 
BRANCH  37  38
HETATM   38  C30 UNL     1       0.103   6.085   0.318  1.00  0.00     0.072 C 
BRANCH  38  39
HETATM   39  C31 UNL     1      -0.573   7.455   0.397  1.00  0.00     0.086 C 
HETATM   40  N6  UNL     1      -1.822   7.516   0.687  1.00  0.00    -0.391 N 
ATOM     41  H62 UNL     1      -2.333   6.647   0.842  1.00  0.00     0.157 HD
ATOM     42  H61 UNL     1      -2.273   8.429   0.740  1.00  0.00     0.157 HD
HETATM   43  N7  UNL     1       0.129   8.650   0.184  1.00  0.00    -0.088 NA
ENDBRANCH  38  39
ENDBRANCH  37  38
ENDBRANCH  36  37
ENDBRANCH  14  36
BRANCH   9  44
HETATM   44  C18 UNL     1      -3.862  -0.044  -0.488  1.00  0.00     0.005 C 
BRANCH  44  45
HETATM   45  C19 UNL     1      -4.382   1.173   0.220  1.00  0.00     0.010 C 
BRANCH  45  46
HETATM   46  C20 UNL     1      -5.921   0.967   0.217  1.00  0.00     0.103 C 
BRANCH  46  47
HETATM   47  C21 UNL     1      -6.167  -0.358   0.887  1.00  0.00     0.218 C 
HETATM   48  O3  UNL     1      -5.488  -0.638   1.894  1.00  0.00    -0.273 OA
HETATM   49  N5  UNL     1      -7.132  -1.257   0.392  1.00  0.00    -0.361 N 
HETATM   50  C22 UNL     1      -8.009  -0.960  -0.707  1.00  0.00     0.152 C 
HETATM   51  C23 UNL     1      -7.197  -2.599   0.991  1.00  0.00     0.152 C 
ENDBRANCH  46  47
ENDBRANCH  45  46
ENDBRANCH  44  45
ENDBRANCH   9  44
TORSDOF 13
