REMARK  12 active torsions:
REMARK  status: ('A' for Active; 'I' for Inactive)
REMARK    1  A    between atoms: C11_11  and  N1_12 
REMARK    2  A    between atoms: N1_12  and  C12_14 
REMARK    3  A    between atoms: C16_22  and  O1_23 
REMARK    4  A    between atoms: C22_30  and  C23_31 
REMARK    5  A    between atoms: C23_31  and  C24_32 
REMARK    6  A    between atoms: C26_34  and  O2_35 
REMARK    7  A    between atoms: N4_39  and  C29_40 
REMARK    8  A    between atoms: C29_40  and  C30_41 
REMARK    9  A    between atoms: C30_41  and  O3_42 
REMARK   10  A    between atoms: O3_42  and  C31_43 
REMARK   11  A    between atoms: C31_43  and  C32_44 
REMARK   12  A    between atoms: C32_44  and  N5_45 
ROOT
HETATM    1  C1  UNL     1      -0.529  -2.058   1.601  1.00  0.00     0.016 C 
HETATM    2  C2  UNL     1      -0.903  -1.535   0.228  1.00  0.00    -0.036 C 
HETATM    3  C3  UNL     1      -2.213  -2.131  -0.231  1.00  0.00     0.010 C 
HETATM    4  C4  UNL     1      -3.397  -1.235  -0.157  1.00  0.00     0.007 C 
HETATM    5  C5  UNL     1      -3.265  -0.087   0.807  1.00  0.00     0.005 C 
HETATM    6  C6  UNL     1      -2.023   0.710   0.615  1.00  0.00    -0.001 C 
HETATM    7  C7  UNL     1      -2.120   1.940  -0.213  1.00  0.00     0.033 C 
HETATM    8  C8  UNL     1      -3.394   2.646   0.074  1.00  0.00    -0.023 C 
HETATM    9  C9  UNL     1      -4.452   2.090   0.588  1.00  0.00    -0.070 C 
HETATM   10  C10 UNL     1      -5.798   2.580   0.948  1.00  0.00     0.063 C 
HETATM   11  C11 UNL     1      -6.683   1.430   0.497  1.00  0.00     0.133 C 
HETATM   12  C16 UNL     1      -5.732   0.244   0.225  1.00  0.00     0.154 C 
HETATM   13  C17 UNL     1      -4.527   0.642   0.984  1.00  0.00     0.011 C 
HETATM   14  C18 UNL     1      -4.920   0.693   2.478  1.00  0.00     0.023 C 
HETATM   15  C19 UNL     1      -0.857  -0.085   0.050  1.00  0.00    -0.001 C 
HETATM   16  C20 UNL     1      -0.806   0.051  -1.461  1.00  0.00     0.006 C 
HETATM   17  C21 UNL     1       0.212  -1.017  -1.834  1.00  0.00     0.006 C 
HETATM   18  C22 UNL     1       0.168  -2.084  -0.749  1.00  0.00    -0.004 C 
ENDROOT
BRANCH  18  19
HETATM   19  C23 UNL     1       1.499  -2.251  -0.092  1.00  0.00     0.031 C 
BRANCH  19  20
HETATM   20  C24 UNL     1       2.532  -2.888  -0.931  1.00  0.00     0.091 C 
HETATM   21  C25 UNL     1       3.000  -2.340  -2.196  1.00  0.00     0.057 C 
HETATM   22  C26 UNL     1       4.119  -3.181  -2.795  1.00  0.00     0.124 C 
HETATM   23  C27 UNL     1       4.372  -4.477  -2.100  1.00  0.00     0.076 C 
HETATM   24  C28 UNL     1       4.319  -4.376  -0.596  1.00  0.00     0.066 C 
HETATM   25  N4  UNL     1       3.720  -3.203  -0.118  1.00  0.00    -0.367 N 
BRANCH  22  26
HETATM   26  O2  UNL     1       3.792  -3.399  -4.132  1.00  0.00    -0.395 OA
ATOM     27  H2  UNL     1       4.490  -3.924  -4.506  1.00  0.00     0.210 HD
ENDBRANCH  22  26
BRANCH  25  28
HETATM   28  C29 UNL     1       4.488  -2.084   0.230  1.00  0.00     0.089 C 
BRANCH  28  29
HETATM   29  C30 UNL     1       5.690  -2.302   1.046  1.00  0.00     0.212 C 
BRANCH  29  30
HETATM   30  O3  UNL     1       6.372  -1.147   1.348  1.00  0.00    -0.384 OA
BRANCH  30  31
HETATM   31  C31 UNL     1       6.878  -0.436   0.279  1.00  0.00     0.198 C 
BRANCH  31  32
HETATM   32  C32 UNL     1       7.610   0.814   0.740  1.00  0.00     0.298 C 
BRANCH  32  33
HETATM   33  N5  UNL     1       6.764   1.722   1.476  1.00  0.00     0.093 N 
HETATM   34  C33 UNL     1       7.628   2.846   1.860  1.00  0.00     0.300 C 
HETATM   35  C34 UNL     1       6.714   4.009   2.176  1.00  0.00     0.262 C 
HETATM   36  N6  UNL     1       5.388   3.560   2.568  1.00  0.00    -0.072 N 
HETATM   37  C35 UNL     1       4.695   2.921   1.472  1.00  0.00     0.262 C 
ATOM     38  H62 UNL     1       5.428   2.954   3.387  1.00  0.00     0.277 HD
ATOM     39  H61 UNL     1       4.838   4.323   2.962  1.00  0.00     0.277 HD
HETATM   40  C36 UNL     1       5.772   2.313   0.576  1.00  0.00     0.300 C 
ENDBRANCH  32  33
ENDBRANCH  31  32
ENDBRANCH  30  31
ENDBRANCH  29  30
ENDBRANCH  28  29
ENDBRANCH  25  28
ENDBRANCH  19  20
ENDBRANCH  18  19
BRANCH  12  41
HETATM   41  O1  UNL     1      -6.403  -0.869   0.717  1.00  0.00    -0.392 OA
ATOM     42  H1  UNL     1      -5.818  -1.599   0.550  1.00  0.00     0.210 HD
ENDBRANCH  12  41
BRANCH  11  43
HETATM   43  N1  UNL     1      -7.377   1.712  -0.716  1.00  0.00    -0.219 N 
ATOM     44  H1  UNL     1      -6.885   1.463  -1.574  1.00  0.00     0.178 HD
BRANCH  43  45
HETATM   45  C12 UNL     1      -8.523   2.230  -0.871  1.00  0.00     0.678 A 
HETATM   46  N2  UNL     1      -8.978   2.403  -2.118  1.00  0.00    -0.202 N 
HETATM   47  C13 UNL     1     -10.171   2.939  -2.412  1.00  0.00     0.107 A 
ATOM     48  H2  UNL     1      -8.381   2.109  -2.891  1.00  0.00     0.183 HD
HETATM   49  C14 UNL     1     -10.949   3.323  -1.343  1.00  0.00     0.035 A 
HETATM   50  C15 UNL     1     -10.491   3.150  -0.056  1.00  0.00     0.107 A 
HETATM   51  N3  UNL     1      -9.287   2.606   0.153  1.00  0.00    -0.202 N 
ATOM     52  H3  UNL     1      -8.950   2.478   1.107  1.00  0.00     0.183 HD
ENDBRANCH  43  45
ENDBRANCH  11  43
TORSDOF 12
