REMARK  13 active torsions:
REMARK  status: ('A' for Active; 'I' for Inactive)
REMARK    1  A    between atoms: C2_2  and  C3_3 
REMARK    2  A    between atoms: C4_4  and  C5_5 
REMARK    3  A    between atoms: C5_5  and  O1_6 
REMARK       I    between atoms: N1_10  and  C8_11 
REMARK    4  A    between atoms: C8_11  and  C9_13 
REMARK    5  A    between atoms: N2_14  and  C10_15 
REMARK    6  A    between atoms: C10_15  and  C11_16 
REMARK    7  A    between atoms: C11_16  and  O3_17 
REMARK    8  A    between atoms: C11_16  and  C12_19 
REMARK    9  A    between atoms: C12_19  and  C13_20 
REMARK   10  A    between atoms: C13_20  and  O4_23 
REMARK   11  A    between atoms: C32_42  and  C33_43 
REMARK   12  A    between atoms: C33_43  and  C34_44 
REMARK   13  A    between atoms: C34_44  and  O6_45 
ROOT
HETATM    1  C9  UNL     1      -0.337   0.688  -0.094  1.00  0.00     0.323 C 
HETATM    2  N2  UNL     1      -1.303   1.365   0.744  1.00  0.00     0.110 N 
HETATM    3  C16 UNL     1      -2.645   0.962   0.378  1.00  0.00     0.225 C 
HETATM    4  C17 UNL     1      -3.340   0.748   1.666  1.00  0.00     0.043 C 
HETATM    5  C18 UNL     1      -2.588  -0.042  -0.661  1.00  0.00     0.034 C 
HETATM    6  C19 UNL     1      -3.491  -1.144  -0.915  1.00  0.00     0.002 C 
HETATM    7  C20 UNL     1      -4.953  -0.954  -0.723  1.00  0.00     0.013 C 
HETATM    8  C21 UNL     1      -5.698  -1.834  -1.763  1.00  0.00     0.079 C 
HETATM    9  C22 UNL     1      -5.157  -3.217  -1.715  1.00  0.00     0.135 C 
HETATM   10  O5  UNL     1      -5.980  -4.113  -1.960  1.00  0.00    -0.297 OA
HETATM   11  C23 UNL     1      -3.764  -3.585  -1.408  1.00  0.00     0.021 C 
HETATM   12  C24 UNL     1      -3.845  -4.943  -0.693  1.00  0.00     0.024 C 
HETATM   13  C25 UNL     1      -2.945  -3.854  -2.646  1.00  0.00     0.024 C 
HETATM   14  C26 UNL     1      -3.122  -2.544  -0.485  1.00  0.00    -0.026 C 
HETATM   15  C27 UNL     1      -3.565  -2.958   0.875  1.00  0.00     0.016 C 
HETATM   16  C28 UNL     1      -1.638  -2.833  -0.556  1.00  0.00     0.011 C 
HETATM   17  C29 UNL     1      -0.956  -1.724   0.222  1.00  0.00     0.013 C 
HETATM   18  C30 UNL     1      -1.113  -0.487  -0.586  1.00  0.00     0.002 C 
HETATM   19  C31 UNL     1      -0.621  -0.806  -2.007  1.00  0.00     0.018 C 
ENDROOT
BRANCH   1  20
HETATM   20  C8  UNL     1       0.799   0.275   0.791  1.00  0.00     0.254 C 
HETATM   21  N1  UNL     1       2.141   0.138   0.398  1.00  0.00    -0.345 N 
HETATM   22  C7  UNL     1       2.662   0.407  -0.924  1.00  0.00     0.131 C 
HETATM   23  C32 UNL     1       3.113  -0.303   1.391  1.00  0.00     0.089 C 
HETATM   24  C6  UNL     1       3.215  -0.830  -1.541  1.00  0.00     0.015 C 
HETATM   25  C4  UNL     1       4.680  -0.775  -1.948  1.00  0.00     0.020 C 
HETATM   26  C36 UNL     1       3.640  -1.857  -0.498  1.00  0.00    -0.002 C 
HETATM   27  C3  UNL     1       4.778  -2.196  -1.432  1.00  0.00    -0.004 C 
HETATM   28  C35 UNL     1       4.153  -1.188   0.745  1.00  0.00     0.031 C 
HETATM   29  O2  UNL     1       0.501   0.035   2.010  1.00  0.00    -0.271 OA
BRANCH  25  30
HETATM   30  C5  UNL     1       4.896  -0.694  -3.442  1.00  0.00     0.169 C 
BRANCH  30  31
HETATM   31  O1  UNL     1       4.785   0.665  -3.815  1.00  0.00    -0.400 OA
ATOM     32  H1  UNL     1       4.921   0.716  -4.754  1.00  0.00     0.209 HD
ENDBRANCH  30  31
ENDBRANCH  25  30
BRANCH  27  33
HETATM   33  C2  UNL     1       6.070  -2.584  -0.786  1.00  0.00     0.001 C 
HETATM   34  C1  UNL     1       7.243  -2.440  -1.755  1.00  0.00     0.005 C 
ENDBRANCH  27  33
BRANCH  23  35
HETATM   35  C33 UNL     1       3.737   0.891   2.088  1.00  0.00     0.051 C 
BRANCH  35  36
HETATM   36  C34 UNL     1       4.734   0.423   3.106  1.00  0.00     0.166 C 
BRANCH  36  37
HETATM   37  O6  UNL     1       4.171  -0.382   4.082  1.00  0.00    -0.401 OA
ATOM     38  H6  UNL     1       4.803  -0.678   4.727  1.00  0.00     0.209 HD
ENDBRANCH  36  37
ENDBRANCH  35  36
ENDBRANCH  23  35
ENDBRANCH   1  20
BRANCH   2  39
HETATM   39  C10 UNL     1      -1.041   2.764   0.668  1.00  0.00     0.305 C 
BRANCH  39  40
HETATM   40  C11 UNL     1      -1.897   3.670   1.479  1.00  0.00     0.149 C 
BRANCH  40  41
HETATM   41  O3  UNL     1      -1.821   3.394   2.842  1.00  0.00    -0.394 OA
ATOM     42  H3  UNL     1      -2.368   3.973   3.360  1.00  0.00     0.210 HD
ENDBRANCH  40  41
BRANCH  40  43
HETATM   43  C12 UNL     1      -1.263   5.070   1.335  1.00  0.00     0.070 C 
BRANCH  43  44
HETATM   44  C13 UNL     1      -2.002   6.120   2.089  1.00  0.00     0.053 C 
HETATM   45  C14 UNL     1      -1.256   7.437   1.831  1.00  0.00     0.045 C 
HETATM   46  C15 UNL     1      -1.892   5.906   3.600  1.00  0.00     0.045 C 
BRANCH  44  47
HETATM   47  O4  UNL     1      -3.305   6.291   1.696  1.00  0.00    -0.391 OA
ATOM     48  H4  UNL     1      -3.776   6.961   2.177  1.00  0.00     0.210 HD
ENDBRANCH  44  47
ENDBRANCH  43  44
ENDBRANCH  40  43
ENDBRANCH  39  40
ENDBRANCH   2  39
TORSDOF 13
