REMARK  6 active torsions:
REMARK  status: ('A' for Active; 'I' for Inactive)
REMARK    1  A    between atoms: C2_2  and  C3_3 
REMARK    2  A    between atoms: C3_3  and  C4_4 
REMARK    3  A    between atoms: C9_9  and  C10_10 
REMARK    4  A    between atoms: C11_13  and  C12_14 
REMARK    5  A    between atoms: C13_17  and  C14_18 
REMARK    6  A    between atoms: C14_18  and  C15_19 
ROOT
HETATM    1  C10 UNL     1      -0.756  -0.346   0.564  1.00  0.00     0.109 A 
HETATM    2  N1  UNL     1       0.197  -0.149  -0.344  1.00  0.00    -0.325 N 
ATOM      3  H1  UNL     1       0.206   0.266  -1.276  1.00  0.00     0.169 HD
HETATM    4  C11 UNL     1       1.143  -0.704   0.431  1.00  0.00     0.153 A 
HETATM    5  N6  UNL     1       0.201  -0.911   1.354  1.00  0.00    -0.325 N 
ATOM      6  H6  UNL     1       0.198  -1.328   2.285  1.00  0.00     0.169 HD
ENDROOT
BRANCH   4   7
HETATM    7  C12 UNL     1       2.439  -0.913   0.258  1.00  0.00     0.153 A 
HETATM    8  N2  UNL     1       3.248  -0.591  -0.861  1.00  0.00    -0.341 N 
HETATM    9  C13 UNL     1       4.478  -0.976  -0.610  1.00  0.00     0.039 A 
ATOM     10  H2  UNL     1       2.928  -0.137  -1.717  1.00  0.00     0.167 HD
HETATM   11  C18 UNL     1       4.520  -1.580   0.717  1.00  0.00     0.032 A 
HETATM   12  C19 UNL     1       5.720  -2.170   1.406  1.00  0.00     0.070 C 
HETATM   13  N5  UNL     1       3.323  -1.527   1.191  1.00  0.00    -0.337 N 
HETATM   14  C20 UNL     1       2.897  -2.009   2.494  1.00  0.00     0.158 C 
BRANCH   9  15
HETATM   15  C14 UNL     1       5.586  -0.796  -1.555  1.00  0.00     0.117 C 
BRANCH  15  16
HETATM   16  C15 UNL     1       6.609   0.093  -0.996  1.00  0.00     0.031 A 
HETATM   17  C16 UNL     1       6.530   1.485  -1.115  1.00  0.00     0.114 A 
HETATM   18  N3  UNL     1       7.597   2.034  -0.522  1.00  0.00    -0.360 N 
HETATM   19  C17 UNL     1       8.323   1.017  -0.046  1.00  0.00     0.180 A 
ATOM     20  H3  UNL     1       7.813   3.028  -0.448  1.00  0.00     0.166 HD
HETATM   21  N4  UNL     1       7.728  -0.139  -0.332  1.00  0.00    -0.354 N 
ATOM     22  H4  UNL     1       8.081  -1.062  -0.078  1.00  0.00     0.166 HD
ENDBRANCH  15  16
ENDBRANCH   9  15
ENDBRANCH   4   7
BRANCH   1  23
HETATM   23  C9  UNL     1      -2.051  -0.138   0.733  1.00  0.00     0.060 C 
HETATM   24  C8  UNL     1      -2.937   0.483  -0.216  1.00  0.00    -0.032 A 
HETATM   25  C7  UNL     1      -2.671   1.010  -1.521  1.00  0.00     0.012 A 
HETATM   26  C21 UNL     1      -4.243   0.659   0.031  1.00  0.00     0.022 A 
HETATM   27  C6  UNL     1      -3.797   1.503  -2.067  1.00  0.00     0.012 A 
HETATM   28  C5  UNL     1      -4.871   1.307  -1.105  1.00  0.00    -0.039 A 
HETATM   29  C4  UNL     1      -6.114   1.666  -1.296  1.00  0.00    -0.015 C 
BRANCH  29  30
HETATM   30  C3  UNL     1      -7.182   1.447  -0.283  1.00  0.00     0.027 C 
BRANCH  30  31
HETATM   31  C2  UNL     1      -8.262   0.564  -0.884  1.00  0.00    -0.001 C 
HETATM   32  C1  UNL     1      -9.356   0.329   0.129  1.00  0.00     0.005 C 
ENDBRANCH  30  31
ENDBRANCH  29  30
ENDBRANCH   1  23
TORSDOF 6
