REMARK  12 active torsions:
REMARK  status: ('A' for Active; 'I' for Inactive)
REMARK    1  A    between atoms: O1_2  and  C2_3 
REMARK    2  A    between atoms: C5_8  and  N2_9 
REMARK    3  A    between atoms: C12_16  and  C13_17 
REMARK    4  A    between atoms: C19_27  and  N4_28 
REMARK    5  A    between atoms: C22_34  and  O2_35 
REMARK    6  A    between atoms: O2_35  and  C23_36 
REMARK    7  A    between atoms: C23_36  and  C24_37 
REMARK    8  A    between atoms: C24_37  and  C25_38 
REMARK    9  A    between atoms: C25_38  and  C26_39 
REMARK   10  A    between atoms: C26_39  and  C27_40 
REMARK   11  A    between atoms: C27_40  and  C28_41 
REMARK   12  A    between atoms: C28_41  and  N5_42 
ROOT
HETATM    1  C2  UNL     1       1.741   2.499  -0.123  1.00  0.00     0.105 A 
HETATM    2  C3  UNL     1       0.413   2.338   0.204  1.00  0.00     0.070 A 
HETATM    3  C4  UNL     1      -0.383   1.351  -0.324  1.00  0.00     0.067 A 
HETATM    4  N1  UNL     1      -1.689   1.221   0.009  1.00  0.00    -0.191 N 
ATOM      5  H1  UNL     1      -2.115   1.863   0.677  1.00  0.00     0.184 HD
HETATM    6  C5  UNL     1      -2.419   0.240  -0.547  1.00  0.00     0.682 A 
HETATM    7  N3  UNL     1      -1.880  -0.602  -1.417  1.00  0.00    -0.176 N 
ATOM      8  H3  UNL     1      -2.466  -1.334  -1.819  1.00  0.00     0.186 HD
HETATM    9  C19 UNL     1      -0.572  -0.528  -1.796  1.00  0.00     0.129 A 
HETATM   10  C20 UNL     1       0.179   0.472  -1.233  1.00  0.00     0.060 A 
HETATM   11  C21 UNL     1       1.504   0.618  -1.570  1.00  0.00     0.086 A 
HETATM   12 CL3  UNL     1       2.175  -0.523  -2.726  1.00  0.00    -0.080 Cl
HETATM   13  C22 UNL     1       2.308   1.631  -1.023  1.00  0.00     0.124 A 
ENDROOT
BRANCH   6  14
HETATM   14  N2  UNL     1      -3.807   0.109  -0.173  1.00  0.00    -0.217 N 
HETATM   15  C6  UNL     1      -4.761   0.839  -0.983  1.00  0.00     0.146 C 
HETATM   16  C7  UNL     1      -6.095   0.081  -1.054  1.00  0.00     0.013 C 
HETATM   17  C8  UNL     1      -5.792  -1.243  -1.675  1.00  0.00     0.007 C 
HETATM   18  C12 UNL     1      -6.498  -0.181   0.356  1.00  0.00     0.031 C 
HETATM   19  C9  UNL     1      -5.602  -2.188  -0.517  1.00  0.00     0.007 C 
HETATM   20  C10 UNL     1      -5.553  -1.324   0.728  1.00  0.00     0.013 C 
HETATM   21  C11 UNL     1      -4.204  -0.705   0.946  1.00  0.00     0.146 C 
BRANCH  18  22
HETATM   22  C13 UNL     1      -7.906  -0.511   0.568  1.00  0.00    -0.031 A 
HETATM   23  C14 UNL     1      -8.835  -0.738  -0.420  1.00  0.00     0.011 A 
HETATM   24  C15 UNL     1     -10.147  -1.050  -0.159  1.00  0.00     0.024 A 
HETATM   25  C16 UNL     1     -10.561  -1.142   1.153  1.00  0.00     0.035 A 
HETATM   26 CL1  UNL     1     -12.237  -1.540   1.539  1.00  0.00    -0.084 Cl
HETATM   27  C17 UNL     1      -9.667  -0.924   2.176  1.00  0.00     0.048 A 
HETATM   28  C18 UNL     1      -8.353  -0.611   1.874  1.00  0.00     0.042 A 
HETATM   29 CL2  UNL     1      -7.293  -0.341   3.245  1.00  0.00    -0.084 Cl
ENDBRANCH  18  22
ENDBRANCH   6  14
BRANCH   9  30
HETATM   30  N4  UNL     1      -0.107  -1.367  -2.640  1.00  0.00    -0.384 N 
ATOM     31  H42 UNL     1      -0.666  -2.111  -3.059  1.00  0.00     0.157 HD
ATOM     32  H41 UNL     1       0.871  -1.312  -2.923  1.00  0.00     0.157 HD
ENDBRANCH   9  30
BRANCH   1  33
HETATM   33  O1  UNL     1       2.486   3.539   0.461  1.00  0.00    -0.353 OA
HETATM   34  C1  UNL     1       1.836   4.395   1.378  1.00  0.00     0.210 C 
ENDBRANCH   1  33
BRANCH  13  35
HETATM   35  O2  UNL     1       3.610   1.699  -1.413  1.00  0.00    -0.347 OA
BRANCH  35  36
HETATM   36  C23 UNL     1       4.721   1.010  -0.879  1.00  0.00     0.176 C 
BRANCH  36  37
HETATM   37  C24 UNL     1       4.907   1.351   0.542  1.00  0.00     0.030 C 
BRANCH  37  38
HETATM   38  C25 UNL     1       6.005   0.703   1.302  1.00  0.00     0.029 C 
BRANCH  38  39
HETATM   39  C26 UNL     1       7.384   0.947   0.914  1.00  0.00    -0.029 C 
BRANCH  39  40
HETATM   40  C27 UNL     1       7.948   0.622  -0.387  1.00  0.00    -0.001 C 
BRANCH  40  41
HETATM   41  C28 UNL     1       7.953  -0.751  -0.915  1.00  0.00     0.298 C 
BRANCH  41  42
HETATM   42  N5  UNL     1       8.659  -1.756  -0.220  1.00  0.00     0.083 N 
HETATM   43  C29 UNL     1       8.198  -2.194   1.038  1.00  0.00     0.309 C 
HETATM   44  C30 UNL     1       8.773  -2.917  -1.106  1.00  0.00     0.309 C 
ENDBRANCH  41  42
ENDBRANCH  40  41
ENDBRANCH  39  40
ENDBRANCH  38  39
ENDBRANCH  37  38
ENDBRANCH  36  37
ENDBRANCH  35  36
ENDBRANCH  13  35
TORSDOF 12
