REMARK  15 active torsions:
REMARK  status: ('A' for Active; 'I' for Inactive)
REMARK    1  A    between atoms: C2_2  and  O2_4 
REMARK    2  A    between atoms: O2_4  and  C3_5 
REMARK    3  A    between atoms: C3_5  and  C11_16 
REMARK    4  A    between atoms: C4_6  and  C5_7 
REMARK    5  A    between atoms: C14_19  and  C15_20 
REMARK    6  A    between atoms: C15_20  and  C17_22 
REMARK    7  A    between atoms: C17_22  and  C18_23 
REMARK    8  A    between atoms: C18_23  and  C19_24 
REMARK    9  A    between atoms: C20_25  and  C22_27 
REMARK   10  A    between atoms: C22_27  and  C23_28 
REMARK   11  A    between atoms: C23_28  and  C24_29 
REMARK   12  A    between atoms: C29_35  and  C30_36 
REMARK       I    between atoms: C30_36  and  N1_38 
REMARK   13  A    between atoms: N1_38  and  C31_40 
REMARK   14  A    between atoms: C31_40  and  C32_41 
REMARK   15  A    between atoms: C32_41  and  N2_42 
ROOT
HETATM    1  C11 UNL     1      -3.142  -1.689   0.477  1.00  0.00     0.083 A 
HETATM    2  C12 UNL     1      -2.055  -1.607  -0.309  1.00  0.00     0.002 A 
HETATM    3  C13 UNL     1      -1.872  -2.633  -1.352  1.00  0.00     0.054 C 
HETATM    4  C14 UNL     1      -1.058  -0.562  -0.242  1.00  0.00     0.088 A 
HETATM    5  O3  UNL     1      -1.319   0.408   0.766  1.00  0.00    -0.291 OA
HETATM    6  C28 UNL     1      -2.412   0.373   1.600  1.00  0.00     0.171 A 
HETATM    7  C29 UNL     1      -2.753   1.262   2.598  1.00  0.00     0.085 A 
HETATM    8  C33 UNL     1      -3.926   0.782   3.110  1.00  0.00     0.039 A 
HETATM    9  C34 UNL     1      -4.231  -0.375   2.397  1.00  0.00     0.101 A 
HETATM   10  N3  UNL     1      -3.306  -0.637   1.471  1.00  0.00    -0.298 N 
ENDROOT
BRANCH   1  11
HETATM   11  C3  UNL     1      -4.160  -2.703   0.334  1.00  0.00     0.107 C 
HETATM   12  C4  UNL     1      -5.163  -3.023   1.086  1.00  0.00     0.054 C 
BRANCH  11  13
HETATM   13  O2  UNL     1      -4.158  -3.529  -0.850  1.00  0.00    -0.277 OA
BRANCH  13  14
HETATM   14  C2  UNL     1      -5.036  -3.003  -1.842  1.00  0.00     0.260 C 
HETATM   15  C1  UNL     1      -5.172  -3.695  -3.129  1.00  0.00     0.126 C 
HETATM   16  O1  UNL     1      -5.658  -1.973  -1.587  1.00  0.00    -0.265 OA
ENDBRANCH  13  14
ENDBRANCH  11  13
BRANCH  12  17
HETATM   17  C5  UNL     1      -6.153  -4.088   0.747  1.00  0.00     0.008 A 
HETATM   18  C6  UNL     1      -5.773  -5.318   0.308  1.00  0.00     0.060 A 
HETATM   19  C7  UNL     1      -6.714  -6.307  -0.008  1.00  0.00     0.155 A 
HETATM   20  F1  UNL     1      -6.333  -7.515  -0.439  1.00  0.00    -0.203 F 
HETATM   21  C8  UNL     1      -8.070  -6.042   0.127  1.00  0.00     0.157 A 
HETATM   22  F2  UNL     1      -9.002  -6.986  -0.172  1.00  0.00    -0.203 F 
HETATM   23  C9  UNL     1      -8.432  -4.791   0.573  1.00  0.00     0.088 A 
HETATM   24  C10 UNL     1      -7.508  -3.818   0.883  1.00  0.00     0.129 A 
HETATM   25  F3  UNL     1      -7.944  -2.616   1.318  1.00  0.00    -0.205 F 
ENDBRANCH  12  17
ENDBRANCH   1  11
BRANCH   4  26
HETATM   26  C15 UNL     1       0.014  -0.365  -0.951  1.00  0.00    -0.049 C 
HETATM   27  C16 UNL     1       0.528  -1.182  -2.053  1.00  0.00     0.046 C 
BRANCH  26  28
HETATM   28  C17 UNL     1       0.827   0.918  -0.695  1.00  0.00     0.040 C 
BRANCH  28  29
HETATM   29  C18 UNL     1       2.187   0.485  -0.253  1.00  0.00     0.032 C 
BRANCH  29  30
HETATM   30  C19 UNL     1       3.103   1.609  -0.031  1.00  0.00    -0.024 C 
HETATM   31  C20 UNL     1       4.287   1.744  -0.673  1.00  0.00    -0.087 C 
HETATM   32  C21 UNL     1       4.585   0.641  -1.633  1.00  0.00     0.043 C 
BRANCH  31  33
HETATM   33  C22 UNL     1       5.124   2.918  -0.468  1.00  0.00     0.037 C 
BRANCH  33  34
HETATM   34  C23 UNL     1       6.461   2.716   0.140  1.00  0.00     0.031 C 
BRANCH  34  35
HETATM   35  C24 UNL     1       7.397   1.825  -0.529  1.00  0.00    -0.024 C 
HETATM   36  C25 UNL     1       8.521   2.251  -1.091  1.00  0.00    -0.091 C 
HETATM   37  C26 UNL     1       8.937   3.664  -1.100  1.00  0.00     0.042 C 
HETATM   38  C27 UNL     1       9.442   1.251  -1.755  1.00  0.00     0.042 C 
ENDBRANCH  34  35
ENDBRANCH  33  34
ENDBRANCH  31  33
ENDBRANCH  29  30
ENDBRANCH  28  29
ENDBRANCH  26  28
ENDBRANCH   4  26
BRANCH   7  39
HETATM   39  C30 UNL     1      -2.109   2.460   3.107  1.00  0.00     0.256 C 
HETATM   40  O4  UNL     1      -2.645   3.124   4.055  1.00  0.00    -0.268 OA
HETATM   41  N1  UNL     1      -0.897   2.960   2.616  1.00  0.00    -0.355 N 
ATOM     42  H1  UNL     1      -0.425   2.464   1.860  1.00  0.00     0.162 HD
BRANCH  41  43
HETATM   43  C31 UNL     1      -0.289   4.178   3.161  1.00  0.00     0.150 C 
BRANCH  43  44
HETATM   44  C32 UNL     1       0.994   4.524   2.469  1.00  0.00     0.249 C 
BRANCH  44  45
HETATM   45  N2  UNL     1       0.776   4.749   1.040  1.00  0.00    -0.078 N 
ATOM     46  H23 UNL     1       0.314   3.953   0.600  1.00  0.00     0.274 HD
ATOM     47  H22 UNL     1       0.058   5.455   0.876  1.00  0.00     0.274 HD
ATOM     48  H21 UNL     1       1.649   4.985   0.569  1.00  0.00     0.274 HD
ENDBRANCH  44  45
ENDBRANCH  43  44
ENDBRANCH  41  43
ENDBRANCH   7  39
TORSDOF 15
