REMARK  16 active torsions:
REMARK  status: ('A' for Active; 'I' for Inactive)
REMARK    1  A    between atoms: C2_2  and  C3_3 
REMARK    2  A    between atoms: C3_3  and  C4_4 
REMARK    3  A    between atoms: C4_4  and  O1_5 
REMARK    4  A    between atoms: C4_4  and  C5_7 
REMARK    5  A    between atoms: C5_7  and  O3_9 
REMARK    6  A    between atoms: O3_9  and  C6_10 
REMARK    7  A    between atoms: C9_13  and  C10_14 
REMARK    8  A    between atoms: C17_21  and  O4_22 
REMARK    9  A    between atoms: O4_22  and  C18_23 
REMARK   10  A    between atoms: C18_23  and  C19_24 
REMARK   11  A    between atoms: C19_24  and  C20_25 
REMARK   12  A    between atoms: C21_31  and  C22_32 
REMARK   13  A    between atoms: C22_32  and  C24_34 
REMARK   14  A    between atoms: C24_34  and  C25_35 
REMARK   15  A    between atoms: C25_35  and  C26_36 
REMARK   16  A    between atoms: C33_43  and  O5_44 
ROOT
HETATM    1  C10 UNL     1       1.691   0.228   0.485  1.00  0.00     0.004 C 
HETATM    2  C11 UNL     1       0.478   0.750   0.452  1.00  0.00    -0.067 C 
HETATM    3  C12 UNL     1       0.173   2.117   0.024  1.00  0.00     0.036 C 
HETATM    4  C13 UNL     1      -1.236   2.340   0.490  1.00  0.00     0.017 C 
HETATM    5  C14 UNL     1      -1.891   1.003   0.250  1.00  0.00    -0.005 C 
HETATM    6  C15 UNL     1      -1.937   0.628  -1.185  1.00  0.00     0.019 C 
HETATM    7  C16 UNL     1      -0.765   0.078   0.826  1.00  0.00     0.099 C 
HETATM    8  C17 UNL     1      -1.093   0.050   2.243  1.00  0.00     0.123 C 
HETATM    9  N1  UNL     1      -2.292   0.360   2.430  1.00  0.00    -0.365 N 
ATOM     10  H1  UNL     1      -2.741   0.406   3.345  1.00  0.00     0.162 HD
HETATM   11  C21 UNL     1      -2.963   0.648   1.161  1.00  0.00     0.121 C 
ENDROOT
BRANCH   1  12
HETATM   12  C9  UNL     1       1.984  -1.116   0.905  1.00  0.00     0.003 C 
HETATM   13  C8  UNL     1       3.185  -1.639   0.945  1.00  0.00    -0.075 C 
HETATM   14  C7  UNL     1       4.437  -0.962   0.575  1.00  0.00     0.066 C 
HETATM   15  C32 UNL     1       3.338  -3.065   1.402  1.00  0.00     0.066 C 
HETATM   16  C6  UNL     1       4.900  -1.586  -0.730  1.00  0.00     0.138 C 
HETATM   17  C34 UNL     1       4.702  -3.084  -0.722  1.00  0.00     0.065 C 
HETATM   18  C33 UNL     1       4.501  -3.639   0.666  1.00  0.00     0.124 C 
BRANCH  16  19
HETATM   19  O3  UNL     1       6.233  -1.232  -1.050  1.00  0.00    -0.314 OA
BRANCH  19  20
HETATM   20  C5  UNL     1       6.565  -0.502  -2.180  1.00  0.00     0.288 C 
HETATM   21  O2  UNL     1       5.631  -0.148  -2.943  1.00  0.00    -0.262 OA
BRANCH  20  22
HETATM   22  C4  UNL     1       7.945  -0.115  -2.544  1.00  0.00     0.217 C 
BRANCH  22  23
HETATM   23  C3  UNL     1       8.061   1.363  -2.838  1.00  0.00     0.041 C 
BRANCH  23  24
HETATM   24  C2  UNL     1       7.867   2.220  -1.609  1.00  0.00    -0.002 C 
HETATM   25  C1  UNL     1       8.884   1.916  -0.557  1.00  0.00     0.005 C 
ENDBRANCH  23  24
ENDBRANCH  22  23
BRANCH  22  26
HETATM   26  O1  UNL     1       8.880  -0.548  -1.626  1.00  0.00    -0.386 OA
ATOM     27  H1  UNL     1       8.807  -1.477  -1.441  1.00  0.00     0.210 HD
ENDBRANCH  22  26
ENDBRANCH  20  22
ENDBRANCH  19  20
ENDBRANCH  16  19
BRANCH  18  28
HETATM   28  O5  UNL     1       5.694  -3.602   1.381  1.00  0.00    -0.395 OA
ATOM     29  H5  UNL     1       6.435  -3.968   0.912  1.00  0.00     0.210 HD
ENDBRANCH  18  28
ENDBRANCH   1  12
BRANCH   8  30
HETATM   30  O4  UNL     1      -0.217  -0.274   3.286  1.00  0.00    -0.338 OA
BRANCH  30  31
HETATM   31  C18 UNL     1      -0.730  -0.883   4.439  1.00  0.00     0.185 C 
BRANCH  31  32
HETATM   32  C19 UNL     1      -1.364  -2.199   4.056  1.00  0.00     0.144 C 
BRANCH  32  33
HETATM   33  C20 UNL     1      -1.915  -2.853   5.306  1.00  0.00     0.389 C 
HETATM   34  F1  UNL     1      -2.507  -4.064   5.000  1.00  0.00    -0.171 F 
HETATM   35  F2  UNL     1      -0.862  -3.086   6.164  1.00  0.00    -0.171 F 
HETATM   36  F3  UNL     1      -2.840  -2.044   5.916  1.00  0.00    -0.171 F 
ENDBRANCH  32  33
ENDBRANCH  31  32
ENDBRANCH  30  31
ENDBRANCH   8  30
BRANCH  11  37
HETATM   37  C22 UNL     1      -4.135   1.458   1.415  1.00  0.00    -0.061 C 
HETATM   38  C23 UNL     1      -3.890   2.872   1.899  1.00  0.00     0.045 C 
BRANCH  37  39
HETATM   39  C24 UNL     1      -5.300   1.409   0.575  1.00  0.00     0.001 C 
BRANCH  39  40
HETATM   40  C25 UNL     1      -5.540   1.042  -0.653  1.00  0.00    -0.022 C 
BRANCH  40  41
HETATM   41  C26 UNL     1      -6.934   1.116  -1.267  1.00  0.00     0.008 C 
HETATM   42  C27 UNL     1      -7.497  -0.232  -1.535  1.00  0.00     0.008 C 
HETATM   43  C28 UNL     1      -7.528  -0.639  -2.967  1.00  0.00     0.001 C 
HETATM   44  C29 UNL     1      -8.020   0.403  -3.913  1.00  0.00     0.000 C 
HETATM   45  C30 UNL     1      -8.203   1.753  -3.257  1.00  0.00     0.001 C 
HETATM   46  C31 UNL     1      -6.920   2.021  -2.469  1.00  0.00     0.008 C 
ENDBRANCH  40  41
ENDBRANCH  39  40
ENDBRANCH  37  39
ENDBRANCH  11  37
TORSDOF 16
