REMARK  8 active torsions:
REMARK  status: ('A' for Active; 'I' for Inactive)
REMARK    1  A    between atoms: C2_2  and  N1_4 
REMARK    2  A    between atoms: N1_4  and  C4_6 
REMARK    3  A    between atoms: C4_6  and  C5_10 
REMARK    4  A    between atoms: C5_10  and  N3_11 
REMARK    5  A    between atoms: C5_10  and  C18_28 
REMARK    6  A    between atoms: N3_11  and  S1_13 
REMARK    7  A    between atoms: S1_13  and  C6_16 
REMARK    8  A    between atoms: C7_17  and  C8_18 
ROOT
HETATM    1  N3  UNL     1       0.435  -1.221  -0.779  1.00  0.00    -0.303 N 
ATOM      2  H3  UNL     1       0.531  -0.731  -1.668  1.00  0.00     0.173 HD
ENDROOT
BRANCH   1   3
HETATM    3  C5  UNL     1       1.569  -1.386  -0.017  1.00  0.00     0.163 C 
BRANCH   3   4
HETATM    4  C4  UNL     1       2.196  -0.096   0.336  1.00  0.00     0.095 C 
HETATM    5  N2  UNL     1       2.673   0.099   1.528  1.00  0.00    -0.387 N 
ATOM      6  H22 UNL     1       3.106   0.990   1.772  1.00  0.00     0.157 HD
ATOM      7  H21 UNL     1       2.590  -0.649   2.217  1.00  0.00     0.157 HD
BRANCH   4   8
HETATM    8  N1  UNL     1       2.314   0.963  -0.639  1.00  0.00    -0.374 N 
ATOM      9  H1  UNL     1       1.853   0.852  -1.542  1.00  0.00     0.161 HD
BRANCH   8  10
HETATM   10  C2  UNL     1       3.048   2.155  -0.388  1.00  0.00     0.074 C 
HETATM   11  C1  UNL     1       2.506   2.941   0.796  1.00  0.00     0.031 C 
HETATM   12  C3  UNL     1       4.516   1.809  -0.190  1.00  0.00     0.031 C 
ENDBRANCH   8  10
ENDBRANCH   4   8
ENDBRANCH   3   4
BRANCH   3  13
HETATM   13  C18 UNL     1       2.648  -2.278  -0.581  1.00  0.00     0.008 C 
HETATM   14  C19 UNL     1       3.321  -1.733  -1.816  1.00  0.00     0.012 C 
HETATM   15  C20 UNL     1       3.733  -2.487   0.455  1.00  0.00     0.012 C 
ENDBRANCH   3  13
ENDBRANCH   1   3
BRANCH   1  16
HETATM   16  S1  UNL     1      -1.076  -1.760  -0.359  1.00  0.00     0.260 S 
HETATM   17  O1  UNL     1      -1.037  -2.787   0.730  1.00  0.00    -0.200 OA
HETATM   18  O2  UNL     1      -1.492  -2.612  -1.593  1.00  0.00    -0.200 OA
BRANCH  16  19
HETATM   19  C6  UNL     1      -2.331  -0.637  -0.083  1.00  0.00     0.092 A 
HETATM   20  C7  UNL     1      -2.745  -0.162   1.134  1.00  0.00    -0.031 A 
HETATM   21  C11 UNL     1      -3.804   0.762   1.245  1.00  0.00     0.009 A 
HETATM   22  C12 UNL     1      -4.467   1.227   0.137  1.00  0.00     0.008 A 
HETATM   23  C13 UNL     1      -4.020   0.725  -1.076  1.00  0.00    -0.050 A 
HETATM   24  C14 UNL     1      -3.004  -0.167  -1.232  1.00  0.00    -0.028 A 
HETATM   25  C17 UNL     1      -4.593   1.105  -2.433  1.00  0.00     0.039 C 
HETATM   26  C15 UNL     1      -2.844  -0.436  -2.674  1.00  0.00     0.041 C 
HETATM   27  C16 UNL     1      -3.383   0.801  -3.329  1.00  0.00     0.009 C 
BRANCH  20  28
HETATM   28  C8  UNL     1      -2.109  -0.536   2.408  1.00  0.00     0.012 C 
HETATM   29  C9  UNL     1      -2.983  -0.175   3.607  1.00  0.00     0.015 C 
HETATM   30  C10 UNL     1      -0.889   0.400   2.591  1.00  0.00     0.015 C 
ENDBRANCH  20  28
ENDBRANCH  16  19
ENDBRANCH   1  16
TORSDOF 8
