REMARK  7 active torsions:
REMARK  status: ('A' for Active; 'I' for Inactive)
REMARK    1  A    between atoms: C2_2  and  N1_3 
REMARK    2  A    between atoms: N1_3  and  C4_5 
REMARK    3  A    between atoms: C4_5  and  C5_6 
REMARK    4  A    between atoms: C7_8  and  C8_9 
REMARK    5  A    between atoms: C8_9  and  C9_10 
REMARK    6  A    between atoms: C9_10  and  N2_11 
REMARK    7  A    between atoms: C16_20  and  N4_21 
REMARK       I    between atoms: N4_21  and  C17_23 
ROOT
HETATM    1  C5  UNL     1      -0.511   1.372  -0.559  1.00  0.00    -0.023 A 
HETATM    2  C6  UNL     1      -1.535   0.555  -0.176  1.00  0.00     0.019 A 
HETATM    3  C7  UNL     1      -1.346  -0.746   0.238  1.00  0.00    -0.028 A 
HETATM    4  C12 UNL     1      -0.062  -1.239   0.263  1.00  0.00     0.051 A 
HETATM    5  N3  UNL     1       0.437  -2.446   0.611  1.00  0.00    -0.354 N 
ATOM      6  H3  UNL     1      -0.131  -3.229   0.934  1.00  0.00     0.166 HD
HETATM    7  C13 UNL     1       1.773  -2.488   0.479  1.00  0.00     0.044 A 
HETATM    8  C14 UNL     1       2.719  -3.480   0.705  1.00  0.00     0.033 A 
HETATM    9  C15 UNL     1       4.067  -3.173   0.455  1.00  0.00     0.032 A 
HETATM   10  C16 UNL     1       4.482  -1.951   0.002  1.00  0.00     0.036 A 
HETATM   11  C18 UNL     1       3.481  -0.983  -0.211  1.00  0.00     0.044 A 
HETATM   12  C19 UNL     1       2.153  -1.244   0.023  1.00  0.00     0.006 A 
HETATM   13  C20 UNL     1       1.025  -0.464  -0.114  1.00  0.00     0.010 A 
HETATM   14  C21 UNL     1       0.781   0.824  -0.517  1.00  0.00    -0.041 A 
HETATM   15  C22 UNL     1       1.887   1.702  -0.923  1.00  0.00     0.050 C 
ENDROOT
BRANCH   1  16
HETATM   16  C4  UNL     1      -0.707   2.760  -1.025  1.00  0.00     0.311 C 
BRANCH  16  17
HETATM   17  N1  UNL     1      -2.083   3.204  -0.973  1.00  0.00     0.087 N 
HETATM   18  C3  UNL     1      -2.382   3.424   0.456  1.00  0.00     0.310 C 
BRANCH  17  19
HETATM   19  C2  UNL     1      -2.190   4.530  -1.583  1.00  0.00     0.268 C 
HETATM   20  C1  UNL     1      -1.091   5.453  -1.147  1.00  0.00     0.037 C 
ENDBRANCH  17  19
ENDBRANCH  16  17
ENDBRANCH   1  16
BRANCH   3  21
HETATM   21  C8  UNL     1      -2.493  -1.578   0.640  1.00  0.00     0.071 C 
BRANCH  21  22
HETATM   22  C9  UNL     1      -3.806  -0.858   0.535  1.00  0.00     0.276 C 
BRANCH  22  23
HETATM   23  N2  UNL     1      -4.854  -1.797   0.963  1.00  0.00     0.080 N 
HETATM   24  C10 UNL     1      -4.754  -2.083   2.365  1.00  0.00     0.309 C 
HETATM   25  C11 UNL     1      -4.772  -2.984   0.142  1.00  0.00     0.309 C 
ENDBRANCH  22  23
ENDBRANCH  21  22
ENDBRANCH   3  21
BRANCH  10  26
HETATM   26  N4  UNL     1       5.844  -1.617  -0.262  1.00  0.00    -0.311 N 
HETATM   27  C17 UNL     1       6.980  -2.393  -0.127  1.00  0.00     0.333 C 
HETATM   28  N5  UNL     1       8.253  -1.843  -0.453  1.00  0.00    -0.040 NA
HETATM   29  O1  UNL     1       6.987  -3.564   0.266  1.00  0.00    -0.251 OA
ATOM     30  H4  UNL     1       6.002  -0.668  -0.599  1.00  0.00     0.170 HD
ENDBRANCH  10  26
TORSDOF 7
