REMARK  1 active torsions:
REMARK  status: ('A' for Active; 'I' for Inactive)
REMARK    1  A    between atoms: C2_2  and  C3_3 
ROOT
HETATM    1  C3  UNL     1      -0.878   0.608  -0.085  1.00  0.00     0.075 A 
HETATM    2  C4  UNL     1      -0.712   0.862   1.423  1.00  0.00     0.083 A 
HETATM    3  C5  UNL     1       0.393   0.323   0.586  1.00  0.00     0.171 A 
HETATM    4  O1  UNL     1       1.469   1.147   0.271  1.00  0.00    -0.352 OA
HETATM    5  C6  UNL     1       2.342   0.327  -0.423  1.00  0.00     0.197 C 
HETATM    6  C7  UNL     1       2.169  -1.001   0.278  1.00  0.00     0.197 C 
HETATM    7  O2  UNL     1       0.886  -0.949   0.752  1.00  0.00    -0.352 OA
ENDROOT
BRANCH   1   8
HETATM    8  C2  UNL     1      -1.821  -0.472  -0.481  1.00  0.00    -0.027 C 
HETATM    9  C1  UNL     1      -3.045  -0.458   0.032  1.00  0.00     0.007 C 
ENDBRANCH   1   8
TORSDOF 1
