REMARK  2 active torsions:
REMARK  status: ('A' for Active; 'I' for Inactive)
REMARK    1  A    between atoms: C3_3  and  O1_4 
REMARK    2  A    between atoms: O1_4  and  C4_5 
ROOT
HETATM    1  O1  UNL     1       0.404   0.458   0.349  1.00  0.00    -0.376 OA
ENDROOT
BRANCH   1   2
HETATM    2  C3  UNL     1      -0.794  -0.143  -0.032  1.00  0.00     0.122 C 
HETATM    3  C2  UNL     1      -1.886   0.043   1.029  1.00  0.00     0.032 C 
HETATM    4  C1  UNL     1      -2.859   0.176  -0.145  1.00  0.00     0.005 C 
HETATM    5  C7  UNL     1      -1.667   0.738  -0.931  1.00  0.00     0.032 C 
ENDBRANCH   1   2
BRANCH   1   6
HETATM    6  C4  UNL     1       1.417  -0.440   0.125  1.00  0.00     0.169 C 
HETATM    7  C5  UNL     1       2.354  -0.490   1.337  1.00  0.00     0.201 C 
HETATM    8  O2  UNL     1       3.391  -0.747   0.408  1.00  0.00    -0.386 OA
HETATM    9  C6  UNL     1       2.692   0.118  -0.464  1.00  0.00     0.201 C 
ENDBRANCH   1   6
TORSDOF 2
