REMARK  1 active torsions:
REMARK  status: ('A' for Active; 'I' for Inactive)
REMARK    1  A    between atoms: C2_2  and  C3_3 
ROOT
HETATM    1  C3  UNL     1      -0.276  -0.256   0.083  1.00  0.00     0.154 C 
HETATM    2  C4  UNL     1      -1.358   0.762   0.212  1.00  0.00     0.223 C 
HETATM    3  O1  UNL     1      -2.202  -0.251  -0.286  1.00  0.00    -0.284 OA
HETATM    4  N1  UNL     1      -1.149  -0.755  -0.977  1.00  0.00    -0.090 NA
ENDROOT
BRANCH   1   5
HETATM    5  C2  UNL     1       1.042   0.197  -0.357  1.00  0.00    -0.011 C 
HETATM    6  C1  UNL     1       2.107  -0.024   0.386  1.00  0.00     0.008 C 
ENDBRANCH   1   5
TORSDOF 1
