REMARK  1 active torsions:
REMARK  status: ('A' for Active; 'I' for Inactive)
REMARK    1  A    between atoms: C2_2  and  C3_3 
ROOT
HETATM    1  C3  UNL     1      -0.213   0.381  -0.053  1.00  0.00     0.186 C 
HETATM    2  C4  UNL     1      -1.218  -0.745  -0.044  1.00  0.00     0.180 C 
HETATM    3  N1  UNL     1      -2.087   0.402  -0.362  1.00  0.00    -0.097 NA
HETATM    4  O1  UNL     1      -1.026   0.861  -1.107  1.00  0.00    -0.276 OA
ENDROOT
BRANCH   1   5
HETATM    5  C2  UNL     1       1.157   0.030  -0.435  1.00  0.00    -0.002 C 
HETATM    6  C1  UNL     1       2.103  -0.052   0.465  1.00  0.00     0.009 C 
ENDBRANCH   1   5
TORSDOF 1
