REMARK  13 active torsions:
REMARK  status: ('A' for Active; 'I' for Inactive)
REMARK    1  A    between atoms: C1_2  and  C2_3 
REMARK    2  A    between atoms: C1_2  and  O3_6 
REMARK    3  A    between atoms: C2_3  and  O2_4 
REMARK    4  A    between atoms: O3_6  and  N1_7 
REMARK    5  A    between atoms: N1_7  and  C3_9 
REMARK    6  A    between atoms: C4_14  and  N4_15 
REMARK    7  A    between atoms: N4_15  and  C5_17 
REMARK    8  A    between atoms: C9_21  and  C10_22 
REMARK    9  A    between atoms: C10_22  and  O4_23 
REMARK   10  A    between atoms: C10_22  and  N5_25 
REMARK   11  A    between atoms: C12_32  and  C13_33 
REMARK   12  A    between atoms: C13_33  and  O5_34 
REMARK   13  A    between atoms: C13_33  and  O6_36 
ROOT
HETATM    1  C5  UNL     1      -0.381  -0.969   0.363  1.00  0.00     0.107 A 
HETATM    2  C6  UNL     1      -0.703  -1.465  -0.904  1.00  0.00     0.048 A 
HETATM    3  C7  UNL     1       0.104  -1.199  -1.975  1.00  0.00     0.006 A 
HETATM    4  C8  UNL     1       1.226  -0.440  -1.764  1.00  0.00     0.029 A 
HETATM    5  C9  UNL     1       1.551   0.051  -0.511  1.00  0.00     0.059 A 
HETATM    6  N8  UNL     1       0.732  -0.231   0.509  1.00  0.00    -0.342 N 
ATOM      7  H8  UNL     1       0.962   0.129   1.435  1.00  0.00     0.167 HD
ENDROOT
BRANCH   1   8
HETATM    8  N4  UNL     1      -1.258  -1.253   1.449  1.00  0.00    -0.323 N 
ATOM      9  H4  UNL     1      -1.006  -1.962   2.137  1.00  0.00     0.169 HD
BRANCH   8  10
HETATM   10  C4  UNL     1      -2.370  -0.613   1.560  1.00  0.00     0.192 A 
HETATM   11  N3  UNL     1      -2.716   0.312   0.671  1.00  0.00    -0.267 N 
HETATM   12  N2  UNL     1      -3.870   0.955   0.764  1.00  0.00    -0.129 N 
ATOM     13  H3  UNL     1      -2.081   0.531  -0.097  1.00  0.00     0.189 HD
HETATM   14  C3  UNL     1      -4.696   0.655   1.788  1.00  0.00     0.720 A 
ATOM     15  H2  UNL     1      -4.129   1.662   0.076  1.00  0.00     0.205 HD
HETATM   16  N9  UNL     1      -4.384  -0.267   2.706  1.00  0.00    -0.150 N 
HETATM   17  C14 UNL     1      -3.210  -0.918   2.601  1.00  0.00     0.305 A 
ATOM     18  H9  UNL     1      -5.025  -0.473   3.472  1.00  0.00     0.188 HD
HETATM   19  O7  UNL     1      -2.903  -1.805   3.474  1.00  0.00    -0.263 OA
BRANCH  14  20
HETATM   20  N1  UNL     1      -5.930   1.323   1.880  1.00  0.00    -0.086 N 
ATOM     21  H1  UNL     1      -6.257   1.698   2.770  1.00  0.00     0.214 HD
BRANCH  20  22
HETATM   22  O3  UNL     1      -6.682   1.457   0.740  1.00  0.00    -0.182 OA
BRANCH  22  23
HETATM   23  C1  UNL     1      -7.389   0.310   0.319  1.00  0.00     0.304 C 
HETATM   24  O1  UNL     1      -7.264  -0.725   1.015  1.00  0.00    -0.261 OA
BRANCH  23  25
HETATM   25  C2  UNL     1      -8.246   0.295  -0.885  1.00  0.00     0.277 C 
BRANCH  25  26
HETATM   26  O2  UNL     1      -8.803  -0.976  -1.010  1.00  0.00    -0.391 OA
ATOM     27  H2  UNL     1      -9.354  -0.986  -1.784  1.00  0.00     0.210 HD
ENDBRANCH  25  26
ENDBRANCH  23  25
ENDBRANCH  22  23
ENDBRANCH  20  22
ENDBRANCH  14  20
ENDBRANCH   8  10
ENDBRANCH   1   8
BRANCH   5  28
HETATM   28  C10 UNL     1       2.770   0.861  -0.366  1.00  0.00     0.270 C 
BRANCH  28  29
HETATM   29  O4  UNL     1       3.412   0.973  -1.625  1.00  0.00    -0.371 OA
ATOM     30  H4  UNL     1       4.199   1.496  -1.531  1.00  0.00     0.212 HD
ENDBRANCH  28  29
BRANCH  28  31
HETATM   31  N5  UNL     1       3.687   0.389   0.643  1.00  0.00    -0.338 N 
HETATM   32  C11 UNL     1       4.967   0.371   0.358  1.00  0.00     0.163 A 
HETATM   33  N6  UNL     1       5.954  -0.030   1.163  1.00  0.00    -0.279 N 
HETATM   34  S1  UNL     1       5.835   0.802  -1.048  1.00  0.00    -0.033 SA
HETATM   35  N7  UNL     1       7.147   0.003   0.736  1.00  0.00    -0.291 N 
ATOM     36  H6  UNL     1       5.751  -0.358   2.107  1.00  0.00     0.189 HD
HETATM   37  C12 UNL     1       7.413   0.427  -0.487  1.00  0.00     0.124 A 
ATOM     38  H7  UNL     1       7.909  -0.301   1.342  1.00  0.00     0.187 HD
ATOM     39  H5  UNL     1       3.349   0.078   1.554  1.00  0.00     0.164 HD
BRANCH  37  40
HETATM   40  C13 UNL     1       8.724   0.563  -1.225  1.00  0.00     0.314 C 
BRANCH  40  41
HETATM   41  O5  UNL     1       9.606   1.203  -0.369  1.00  0.00    -0.365 OA
ATOM     42  H5  UNL     1      10.430   1.289  -0.833  1.00  0.00     0.213 HD
ENDBRANCH  40  41
BRANCH  40  43
HETATM   43  O6  UNL     1       9.136  -0.732  -1.558  1.00  0.00    -0.365 OA
ATOM     44  H6  UNL     1       9.960  -0.646  -2.022  1.00  0.00     0.213 HD
ENDBRANCH  40  43
ENDBRANCH  37  40
ENDBRANCH  28  31
ENDBRANCH   5  28
TORSDOF 13
