REMARK  15 active torsions:
REMARK  status: ('A' for Active; 'I' for Inactive)
REMARK    1  A    between atoms: O1_2  and  C2_3 
REMARK    2  A    between atoms: C2_3  and  O3_5 
REMARK    3  A    between atoms: O3_5  and  C3_6 
REMARK    4  A    between atoms: C3_6  and  C4_10 
REMARK    5  A    between atoms: C4_10  and  O4_11 
REMARK    6  A    between atoms: C4_10  and  C15_40 
REMARK    7  A    between atoms: O4_11  and  N2_12 
REMARK    8  A    between atoms: N2_12  and  C5_13 
REMARK    9  A    between atoms: C8_16  and  O5_17 
REMARK   10  A    between atoms: N4_21  and  C10_22 
REMARK   11  A    between atoms: C10_22  and  C11_23 
REMARK   12  A    between atoms: C11_23  and  N5_24 
REMARK   13  A    between atoms: C11_23  and  O6_28 
REMARK   14  A    between atoms: C14_35  and  O8_36 
REMARK   15  A    between atoms: C14_35  and  O9_38 
ROOT
HETATM    1  C5  UNL     1      -0.560  -2.507  -0.285  1.00  0.00     0.198 C 
HETATM    2  C6  UNL     1      -1.558  -1.538   0.227  1.00  0.00     0.106 A 
HETATM    3  C7  UNL     1      -2.468  -1.969   1.175  1.00  0.00     0.084 A 
HETATM    4  C8  UNL     1      -3.398  -1.073   1.659  1.00  0.00     0.135 A 
HETATM    5  C9  UNL     1      -3.381   0.231   1.171  1.00  0.00     0.157 A 
HETATM    6  N3  UNL     1      -4.379   1.090   1.723  1.00  0.00    -0.079 NA
HETATM    7  N4  UNL     1      -2.496   0.647   0.250  1.00  0.00    -0.295 N 
HETATM    8  C12 UNL     1      -1.590  -0.226  -0.221  1.00  0.00     0.265 A 
HETATM    9  O7  UNL     1      -0.741   0.105  -1.080  1.00  0.00    -0.267 OA
HETATM   10  N6  UNL     1      -2.407  -3.319   1.616  1.00  0.00    -0.381 N 
ATOM     11  H6  UNL     1      -3.114  -3.647   2.274  1.00  0.00     0.160 HD
HETATM   12  C13 UNL     1      -1.397  -4.244   1.179  1.00  0.00     0.196 C 
HETATM   13  C14 UNL     1      -1.028  -3.939  -0.234  1.00  0.00     0.237 C 
ENDROOT
BRANCH   1  14
HETATM   14  N2  UNL     1       0.505  -2.121  -0.683  1.00  0.00    -0.278 NA
BRANCH  14  15
HETATM   15  O4  UNL     1       1.614  -1.718  -1.097  1.00  0.00    -0.184 OA
BRANCH  15  16
HETATM   16  C4  UNL     1       2.681  -0.981  -0.630  1.00  0.00     0.342 C 
BRANCH  16  17
HETATM   17  C3  UNL     1       2.985   0.152  -1.596  1.00  0.00     0.167 C 
HETATM   18  N1  UNL     1       2.386   0.270  -2.667  1.00  0.00    -0.380 N 
ATOM     19  H12 UNL     1       2.590   1.030  -3.315  1.00  0.00     0.158 HD
ATOM     20  H11 UNL     1       1.659  -0.383  -2.958  1.00  0.00     0.158 HD
BRANCH  17  21
HETATM   21  O3  UNL     1       3.973   1.040  -1.200  1.00  0.00    -0.239 OA
BRANCH  21  22
HETATM   22  C2  UNL     1       4.418   2.126  -1.900  1.00  0.00     0.412 C 
HETATM   23  O2  UNL     1       3.920   2.388  -3.007  1.00  0.00    -0.229 OA
BRANCH  22  24
HETATM   24  O1  UNL     1       5.415   2.964  -1.426  1.00  0.00    -0.303 OA
HETATM   25  C1  UNL     1       5.877   4.090  -2.150  1.00  0.00     0.215 C 
ENDBRANCH  22  24
ENDBRANCH  21  22
ENDBRANCH  17  21
ENDBRANCH  16  17
BRANCH  16  26
HETATM   26  C15 UNL     1       3.942  -1.733  -0.514  1.00  0.00     0.215 C 
HETATM   27  O10 UNL     1       3.969  -2.938  -0.839  1.00  0.00    -0.646 OA
HETATM   28  O11 UNL     1       5.098  -1.140  -0.053  1.00  0.00    -0.646 OA
ENDBRANCH  16  26
ENDBRANCH  15  16
ENDBRANCH  14  15
ENDBRANCH   1  14
BRANCH  13  29
HETATM   29  O8  UNL     1      -0.079  -4.803  -0.756  1.00  0.00    -0.358 OA
ATOM     30  H8  UNL     1      -0.374  -5.705  -0.724  1.00  0.00     0.213 HD
ENDBRANCH  13  29
BRANCH  13  31
HETATM   31  O9  UNL     1      -2.159  -4.026  -1.030  1.00  0.00    -0.358 OA
ATOM     32  H9  UNL     1      -2.454  -4.928  -0.998  1.00  0.00     0.213 HD
ENDBRANCH  13  31
BRANCH   4  33
HETATM   33  O5  UNL     1      -4.307  -1.499   2.603  1.00  0.00    -0.356 OA
ATOM     34  H5  UNL     1      -4.948  -0.882   2.936  1.00  0.00     0.218 HD
ENDBRANCH   4  33
BRANCH   7  35
HETATM   35  C10 UNL     1      -2.544   2.031  -0.203  1.00  0.00     0.194 C 
BRANCH  35  36
HETATM   36  C11 UNL     1      -1.653   2.932   0.648  1.00  0.00     0.334 C 
BRANCH  36  37
HETATM   37  N5  UNL     1      -1.770   4.272   0.120  1.00  0.00    -0.051 N 
ATOM     38  H53 UNL     1      -1.559   4.328  -0.876  1.00  0.00     0.277 HD
ATOM     39  H52 UNL     1      -2.735   4.598   0.069  1.00  0.00     0.277 HD
ATOM     40  H51 UNL     1      -1.175   4.874   0.689  1.00  0.00     0.277 HD
ENDBRANCH  36  37
BRANCH  36  41
HETATM   41  O6  UNL     1      -1.943   2.835   1.987  1.00  0.00    -0.369 OA
ATOM     42  H6  UNL     1      -1.388   3.396   2.517  1.00  0.00     0.212 HD
ENDBRANCH  36  41
ENDBRANCH  35  36
ENDBRANCH   7  35
TORSDOF 15
