REMARK  15 active torsions:
REMARK  status: ('A' for Active; 'I' for Inactive)
REMARK    1  A    between atoms: C2_2  and  O1_3 
REMARK    2  A    between atoms: C2_2  and  C3_5 
REMARK    3  A    between atoms: C3_5  and  C4_6 
REMARK    4  A    between atoms: C3_5  and  N3_18 
REMARK    5  A    between atoms: C4_6  and  O2_7 
REMARK    6  A    between atoms: C4_6  and  C5_9 
REMARK    7  A    between atoms: C5_9  and  O3_10 
REMARK    8  A    between atoms: C5_9  and  O4_12 
REMARK    9  A    between atoms: O4_12  and  C6_13 
REMARK   10  A    between atoms: C8_21  and  N4_22 
REMARK   11  A    between atoms: N4_22  and  O6_24 
REMARK   12  A    between atoms: C10_28  and  O7_29 
REMARK   13  A    between atoms: C10_28  and  C11_31 
REMARK   14  A    between atoms: C13_35  and  O10_37 
REMARK   15  A    between atoms: N6_40  and  O11_42 
ROOT
HETATM    1  N3  UNL     1      -0.212   0.229   0.972  1.00  0.00    -0.215 N 
HETATM    2  C7  UNL     1      -0.538   1.120   1.966  1.00  0.00     0.297 A 
HETATM    3  O5  UNL     1       0.234   1.614   2.837  1.00  0.00    -0.264 OA
HETATM    4  C8  UNL     1      -1.854   1.433   1.910  1.00  0.00     0.154 A 
HETATM    5  C9  UNL     1      -2.359   0.707   0.843  1.00  0.00     0.117 A 
HETATM    6  N5  UNL     1      -1.333  -0.024   0.282  1.00  0.00    -0.233 N 
HETATM    7  C10 UNL     1      -1.609  -0.833  -0.840  1.00  0.00     0.246 C 
HETATM    8  C12 UNL     1      -3.075  -0.920  -1.228  1.00  0.00     0.119 C 
HETATM    9  C13 UNL     1      -3.786   0.414  -1.156  1.00  0.00     0.105 C 
HETATM   10  C14 UNL     1      -3.084   1.512  -1.879  1.00  0.00     0.053 C 
HETATM   11  C15 UNL     1      -3.731   0.669   0.355  1.00  0.00     0.097 C 
HETATM   12  N6  UNL     1      -4.802   0.777   0.988  1.00  0.00    -0.268 N 
ATOM     13  H6  UNL     1      -5.655   0.722   0.431  1.00  0.00     0.194 HD
ENDROOT
BRANCH   1  14
HETATM   14  C3  UNL     1       1.111  -0.270   0.812  1.00  0.00     0.077 C 
BRANCH  14  15
HETATM   15  C2  UNL     1       1.395  -1.604   1.371  1.00  0.00     0.164 C 
HETATM   16  C1  UNL     1       0.595  -1.745   2.686  1.00  0.00     0.046 C 
BRANCH  15  17
HETATM   17  O1  UNL     1       2.732  -1.588   1.872  1.00  0.00    -0.390 OA
ATOM     18  H1  UNL     1       3.224  -1.501   1.064  1.00  0.00     0.210 HD
ENDBRANCH  15  17
ENDBRANCH  14  15
BRANCH  14  19
HETATM   19  C4  UNL     1       1.797   0.072  -0.496  1.00  0.00     0.224 C 
BRANCH  19  20
HETATM   20  O2  UNL     1       1.429   1.388  -0.890  1.00  0.00    -0.385 OA
ATOM     21  H2  UNL     1       1.859   1.602  -1.710  1.00  0.00     0.210 HD
ENDBRANCH  19  20
BRANCH  19  22
HETATM   22  C5  UNL     1       3.321   0.209  -0.341  1.00  0.00     0.300 C 
BRANCH  22  23
HETATM   23  O3  UNL     1       3.698   1.102   0.620  1.00  0.00    -0.368 OA
ATOM     24  H3  UNL     1       4.639   1.187   0.716  1.00  0.00     0.212 HD
ENDBRANCH  22  23
BRANCH  22  25
HETATM   25  O4  UNL     1       3.891   0.539  -1.613  1.00  0.00    -0.290 OA
BRANCH  25  26
HETATM   26  C6  UNL     1       5.242   0.712  -1.708  1.00  0.00     0.227 C 
HETATM   27  N1  UNL     1       6.019   0.249  -0.809  1.00  0.00    -0.368 N 
ATOM     28  H12 UNL     1       5.575  -0.247  -0.036  1.00  0.00     0.159 HD
ATOM     29  H11 UNL     1       7.028   0.378  -0.880  1.00  0.00     0.159 HD
HETATM   30  N2  UNL     1       5.867   1.410  -2.797  1.00  0.00    -0.057 NA
ENDBRANCH  25  26
ENDBRANCH  22  25
ENDBRANCH  19  22
ENDBRANCH  14  19
ENDBRANCH   1  14
BRANCH   4  31
HETATM   31  N4  UNL     1      -2.577   2.337   2.758  1.00  0.00    -0.262 N 
ATOM     32  H4  UNL     1      -3.370   2.858   2.383  1.00  0.00     0.194 HD
BRANCH  31  33
HETATM   33  O6  UNL     1      -2.245   2.490   3.946  1.00  0.00    -0.289 OA
ATOM     34  H6  UNL     1      -2.724   3.088   4.507  1.00  0.00     0.244 HD
ENDBRANCH  31  33
ENDBRANCH   4  31
BRANCH   7  35
HETATM   35  O7  UNL     1      -1.043  -0.413  -2.057  1.00  0.00    -0.361 OA
ATOM     36  H7  UNL     1      -1.229  -0.958  -2.813  1.00  0.00     0.213 HD
ENDBRANCH   7  35
BRANCH   7  37
HETATM   37  C11 UNL     1      -1.310  -2.306  -0.661  1.00  0.00     0.233 C 
HETATM   38  O8  UNL     1      -1.812  -2.916   0.289  1.00  0.00    -0.644 OA
HETATM   39  O9  UNL     1      -0.479  -2.957  -1.560  1.00  0.00    -0.644 OA
ENDBRANCH   7  37
BRANCH   9  40
HETATM   40  O10 UNL     1      -5.086   0.246  -1.539  1.00  0.00    -0.384 OA
ATOM     41  H10 UNL     1      -5.532   1.083  -1.494  1.00  0.00     0.211 HD
ENDBRANCH   9  40
BRANCH  12  42
HETATM   42  O11 UNL     1      -4.973   0.955   2.296  1.00  0.00    -0.290 OA
ATOM     43  H11 UNL     1      -5.788   1.037   2.778  1.00  0.00     0.244 HD
ENDBRANCH  12  42
TORSDOF 15
