REMARK  11 active torsions:
REMARK  status: ('A' for Active; 'I' for Inactive)
REMARK    1  A    between atoms: N1_1  and  C1_4 
REMARK    2  A    between atoms: C2_5  and  N2_6 
REMARK    3  A    between atoms: N3_9  and  C3_10 
REMARK    4  A    between atoms: C3_10  and  C4_11 
REMARK    5  A    between atoms: C4_11  and  O1_12 
REMARK    6  A    between atoms: C4_11  and  C5_14 
REMARK    7  A    between atoms: C8_17  and  N4_18 
REMARK    8  A    between atoms: C14_34  and  C15_35 
REMARK    9  A    between atoms: C15_35  and  O3_36 
REMARK   10  A    between atoms: N11_38  and  O4_40 
REMARK   11  A    between atoms: N12_42  and  O5_43 
ROOT
HETATM    1  C1  UNL     1      -2.663   2.117   0.050  1.00  0.00     0.171 A 
HETATM    2  C2  UNL     1      -1.968   1.252   0.876  1.00  0.00     0.149 A 
HETATM    3  N3  UNL     1      -2.423  -0.016   1.090  1.00  0.00    -0.311 N 
HETATM    4  C13 UNL     1      -3.574  -0.402   0.473  1.00  0.00     0.154 A 
HETATM    5  N10 UNL     1      -4.076  -1.710   0.700  1.00  0.00    -0.080 NA
HETATM    6  C14 UNL     1      -4.282   0.436  -0.350  1.00  0.00     0.158 A 
HETATM    7  N12 UNL     1      -3.810   1.673  -0.542  1.00  0.00    -0.197 N 
ENDROOT
BRANCH   3   8
HETATM    8  C3  UNL     1      -1.689  -0.921   1.919  1.00  0.00     0.197 C 
BRANCH   8   9
HETATM    9  C4  UNL     1      -0.754  -1.852   1.262  1.00  0.00     0.073 C 
BRANCH   9  10
HETATM   10  O1  UNL     1      -1.331  -2.725   0.330  1.00  0.00    -0.362 OA
ATOM     11  H1  UNL     1      -0.728  -3.325  -0.093  1.00  0.00     0.217 HD
ENDBRANCH   9  10
BRANCH   9  12
HETATM   12  C5  UNL     1       0.515  -1.306   0.798  1.00  0.00     0.010 A 
HETATM   13  C6  UNL     1       1.561  -1.167   1.686  1.00  0.00     0.019 A 
HETATM   14  C7  UNL     1       2.782  -0.690   1.280  1.00  0.00     0.050 A 
HETATM   15  C8  UNL     1       3.000  -0.332  -0.044  1.00  0.00     0.118 A 
HETATM   16  N9  UNL     1       1.986  -0.464  -0.914  1.00  0.00    -0.351 N 
HETATM   17  C12 UNL     1       0.789  -0.930  -0.519  1.00  0.00     0.103 A 
ATOM     18  H9  UNL     1       2.126  -0.206  -1.891  1.00  0.00     0.166 HD
BRANCH  15  19
HETATM   19  N4  UNL     1       4.278   0.159  -0.431  1.00  0.00    -0.222 N 
HETATM   20  C9  UNL     1       5.401  -0.557  -0.236  1.00  0.00     0.206 A 
HETATM   21  N5  UNL     1       5.293  -1.843   0.378  1.00  0.00    -0.062 NA
HETATM   22  N6  UNL     1       6.604  -0.095  -0.600  1.00  0.00    -0.304 N 
HETATM   23  C10 UNL     1       6.743   1.114  -1.182  1.00  0.00     0.198 A 
ATOM     24  H6  UNL     1       7.431  -0.668  -0.434  1.00  0.00     0.171 HD
HETATM   25  N7  UNL     1       8.013   1.624  -1.577  1.00  0.00    -0.063 NA
HETATM   26  N8  UNL     1       5.614   1.820  -1.372  1.00  0.00    -0.282 N 
HETATM   27  C11 UNL     1       4.407   1.366  -1.010  1.00  0.00     0.337 A 
ATOM     28  H8  UNL     1       5.680   2.739  -1.810  1.00  0.00     0.173 HD
HETATM   29  O2  UNL     1       3.371   2.036  -1.195  1.00  0.00    -0.246 OA
ENDBRANCH  15  19
ENDBRANCH   9  12
ENDBRANCH   8   9
ENDBRANCH   3   8
BRANCH   2  30
HETATM   30  N2  UNL     1      -0.909   1.608   1.507  1.00  0.00    -0.382 N 
ATOM     31  H22 UNL     1      -0.569   2.556   1.347  1.00  0.00     0.157 HD
ATOM     32  H21 UNL     1      -0.397   0.970   2.116  1.00  0.00     0.157 HD
ENDBRANCH   2  30
BRANCH   1  33
HETATM   33  N1  UNL     1      -2.264   3.317  -0.179  1.00  0.00    -0.381 N 
ATOM     34  H12 UNL     1      -1.407   3.649   0.263  1.00  0.00     0.157 HD
ATOM     35  H11 UNL     1      -2.776   3.955  -0.788  1.00  0.00     0.157 HD
ENDBRANCH   1  33
BRANCH   6  36
HETATM   36  C15 UNL     1      -5.517   0.042  -1.014  1.00  0.00     0.193 C 
HETATM   37  N11 UNL     1      -6.127   0.905  -1.786  1.00  0.00    -0.245 N 
ATOM     38  H11 UNL     1      -5.710   1.830  -1.894  1.00  0.00     0.196 HD
BRANCH  36  39
HETATM   39  O3  UNL     1      -6.115  -1.191  -0.900  1.00  0.00    -0.343 OA
ATOM     40  H3  UNL     1      -6.921  -1.448  -1.333  1.00  0.00     0.219 HD
ENDBRANCH  36  39
BRANCH  37  41
HETATM   41  O4  UNL     1      -7.276   0.645  -2.449  1.00  0.00    -0.288 OA
ATOM     42  H4  UNL     1      -7.719   1.271  -3.009  1.00  0.00     0.244 HD
ENDBRANCH  37  41
ENDBRANCH   6  36
BRANCH   7  43
HETATM   43  O5  UNL     1      -4.481   2.536  -1.353  1.00  0.00    -0.280 OA
ATOM     44  H5  UNL     1      -5.279   2.227  -1.765  1.00  0.00     0.245 HD
ENDBRANCH   7  43
TORSDOF 11
