REMARK  7 active torsions:
REMARK  status: ('A' for Active; 'I' for Inactive)
REMARK    1  A    between atoms: N1_1  and  C1_4 
REMARK    2  A    between atoms: C4_9  and  C5_10 
REMARK       I    between atoms: C5_10  and  N3_12 
REMARK    3  A    between atoms: N3_12  and  C6_14 
REMARK    4  A    between atoms: C9_17  and  N4_18 
REMARK    5  A    between atoms: N4_18  and  C10_20 
REMARK    6  A    between atoms: N5_31  and  C21_32 
REMARK    7  A    between atoms: C21_32  and  C22_33 
ROOT
HETATM    1  C1  UNL     1      -5.139  -1.145  -2.088  1.00  0.00     0.679 A 
HETATM    2  N2  UNL     1      -3.909  -0.897  -2.568  1.00  0.00    -0.190 N 
ATOM      3  H2  UNL     1      -3.675  -0.811  -3.557  1.00  0.00     0.184 HD
HETATM    4  C2  UNL     1      -3.035  -0.779  -1.561  1.00  0.00     0.077 A 
HETATM    5  C3  UNL     1      -1.673  -0.538  -1.471  1.00  0.00     0.049 A 
HETATM    6  C4  UNL     1      -0.985  -0.469  -0.278  1.00  0.00     0.034 A 
HETATM    7  C18 UNL     1      -1.725  -0.656   0.867  1.00  0.00     0.019 A 
HETATM    8  C19 UNL     1      -3.078  -0.898   0.843  1.00  0.00     0.034 A 
HETATM    9  C20 UNL     1      -3.734  -0.960  -0.369  1.00  0.00     0.079 A 
HETATM   10  N5  UNL     1      -5.021  -1.181  -0.752  1.00  0.00    -0.177 N 
ENDROOT
BRANCH   6  11
HETATM   11  C5  UNL     1       0.480  -0.199  -0.241  1.00  0.00     0.256 C 
HETATM   12  O1  UNL     1       0.903   0.326  -1.303  1.00  0.00    -0.267 OA
HETATM   13  N3  UNL     1       1.245  -0.519   0.884  1.00  0.00    -0.323 N 
ATOM     14  H3  UNL     1       0.767  -0.950   1.676  1.00  0.00     0.169 HD
BRANCH  13  15
HETATM   15  C6  UNL     1       2.618  -0.290   1.000  1.00  0.00     0.035 A 
HETATM   16  C7  UNL     1       3.373   0.550   0.216  1.00  0.00     0.032 A 
HETATM   17  C8  UNL     1       4.750   0.718   0.368  1.00  0.00     0.031 A 
HETATM   18  C9  UNL     1       5.387   0.014   1.346  1.00  0.00     0.032 A 
HETATM   19  C16 UNL     1       4.635  -0.850   2.160  1.00  0.00     0.031 A 
HETATM   20  C17 UNL     1       3.299  -0.997   1.994  1.00  0.00     0.032 A 
BRANCH  18  21
HETATM   21  N4  UNL     1       6.769   0.113   1.552  1.00  0.00    -0.356 N 
ATOM     22  H4  UNL     1       7.138  -0.057   2.488  1.00  0.00     0.166 HD
BRANCH  21  23
HETATM   23  C10 UNL     1       7.676   0.440   0.513  1.00  0.00     0.032 A 
HETATM   24  C11 UNL     1       7.471   0.173  -0.815  1.00  0.00     0.029 A 
HETATM   25  C12 UNL     1       8.347   0.513  -1.809  1.00  0.00     0.002 A 
HETATM   26  C13 UNL     1       9.521   1.168  -1.472  1.00  0.00     0.000 A 
HETATM   27  C14 UNL     1       9.754   1.448  -0.142  1.00  0.00     0.002 A 
HETATM   28  C15 UNL     1       8.869   1.103   0.843  1.00  0.00     0.029 A 
ENDBRANCH  21  23
ENDBRANCH  18  21
ENDBRANCH  13  15
ENDBRANCH   6  11
BRANCH   1  29
HETATM   29  N1  UNL     1      -6.224  -1.324  -2.813  1.00  0.00    -0.234 N 
ATOM     30  H12 UNL     1      -6.314  -1.297  -3.829  1.00  0.00     0.174 HD
ATOM     31  H11 UNL     1      -7.158  -1.512  -2.449  1.00  0.00     0.174 HD
ENDBRANCH   1  29
BRANCH  10  32
HETATM   32  C21 UNL     1      -6.101  -1.430   0.173  1.00  0.00     0.186 C 
BRANCH  32  33
HETATM   33  C22 UNL     1      -6.843  -0.241   0.618  1.00  0.00    -0.039 A 
HETATM   34  C23 UNL     1      -7.999   0.128  -0.085  1.00  0.00     0.009 A 
HETATM   35  C24 UNL     1      -8.735   1.234   0.286  1.00  0.00     0.001 A 
HETATM   36  C25 UNL     1      -8.307   1.974   1.368  1.00  0.00     0.000 A 
HETATM   37  C26 UNL     1      -7.175   1.624   2.067  1.00  0.00     0.001 A 
HETATM   38  C27 UNL     1      -6.440   0.518   1.696  1.00  0.00     0.009 A 
ENDBRANCH  32  33
ENDBRANCH  10  32
TORSDOF 7
