REMARK  7 active torsions:
REMARK  status: ('A' for Active; 'I' for Inactive)
REMARK    1  A    between atoms: N1_1  and  C1_5 
REMARK    2  A    between atoms: C1_5  and  C2_6 
REMARK    3  A    between atoms: C6_10  and  C7_11 
REMARK    4  A    between atoms: C7_11  and  C14_22 
REMARK    5  A    between atoms: N2_12  and  N3_14 
REMARK    6  A    between atoms: N3_14  and  C8_16 
REMARK    7  A    between atoms: C15_23  and  C16_24 
ROOT
HETATM    1  C7  UNL     1       0.145  -0.236   0.529  1.00  0.00     0.071 C 
HETATM    2  N2  UNL     1       1.308  -0.797   0.445  1.00  0.00    -0.299 N 
ATOM      3  H2  UNL     1       1.360  -1.736   0.840  1.00  0.00     0.187 HD
ENDROOT
BRANCH   1   4
HETATM    4  C6  UNL     1       0.072   1.091  -0.031  1.00  0.00    -0.007 A 
HETATM    5  C5  UNL     1      -0.571   2.117   0.647  1.00  0.00     0.014 A 
HETATM    6  C4  UNL     1      -0.705   3.388   0.115  1.00  0.00     0.002 A 
HETATM    7  C3  UNL     1      -0.204   3.691  -1.117  1.00  0.00     0.009 A 
HETATM    8  C2  UNL     1       0.442   2.705  -1.824  1.00  0.00    -0.032 A 
HETATM    9  C28 UNL     1       0.563   1.456  -1.279  1.00  0.00     0.022 A 
BRANCH   8  10
HETATM   10  C1  UNL     1       0.988   3.041  -3.169  1.00  0.00     0.268 C 
BRANCH  10  11
HETATM   11  N1  UNL     1       0.788   4.427  -3.467  1.00  0.00    -0.075 N 
ATOM     12  H13 UNL     1      -0.193   4.694  -3.380  1.00  0.00     0.274 HD
ATOM     13  H12 UNL     1       1.176   5.029  -2.741  1.00  0.00     0.274 HD
ATOM     14  H11 UNL     1       1.162   4.657  -4.388  1.00  0.00     0.274 HD
ENDBRANCH  10  11
ENDBRANCH   8  10
ENDBRANCH   1   4
BRANCH   1  15
HETATM   15  C14 UNL     1      -0.893  -0.915   1.264  1.00  0.00     0.033 A 
HETATM   16  C15 UNL     1      -2.210  -0.634   1.402  1.00  0.00     0.056 A 
HETATM   17  N4  UNL     1      -2.681  -1.331   2.490  1.00  0.00    -0.354 N 
HETATM   18  C22 UNL     1      -1.690  -2.041   3.013  1.00  0.00     0.043 A 
ATOM     19  H4  UNL     1      -3.639  -1.306   2.839  1.00  0.00     0.166 HD
HETATM   20  C23 UNL     1      -1.635  -2.916   4.107  1.00  0.00     0.030 A 
HETATM   21  C27 UNL     1      -0.527  -1.846   2.306  1.00  0.00     0.005 A 
HETATM   22  C24 UNL     1      -0.476  -3.555   4.462  1.00  0.00     0.002 A 
HETATM   23  C25 UNL     1       0.675  -3.347   3.743  1.00  0.00     0.001 A 
HETATM   24  C26 UNL     1       0.642  -2.474   2.644  1.00  0.00     0.014 A 
BRANCH  16  25
HETATM   25  C16 UNL     1      -3.120   0.140   0.550  1.00  0.00    -0.009 A 
HETATM   26  C17 UNL     1      -4.251   0.745   1.128  1.00  0.00     0.014 A 
HETATM   27  C18 UNL     1      -5.232   1.356   0.423  1.00  0.00     0.001 A 
HETATM   28  C19 UNL     1      -5.119   1.391  -0.961  1.00  0.00     0.000 A 
HETATM   29  C20 UNL     1      -4.046   0.824  -1.601  1.00  0.00     0.001 A 
HETATM   30  C21 UNL     1      -3.074   0.211  -0.809  1.00  0.00     0.014 A 
ENDBRANCH  16  25
ENDBRANCH   1  15
BRANCH   2  31
HETATM   31  N3  UNL     1       2.466  -0.338  -0.082  1.00  0.00    -0.300 N 
ATOM     32  H3  UNL     1       2.669   0.658  -0.004  1.00  0.00     0.187 HD
BRANCH  31  33
HETATM   33  C8  UNL     1       3.426  -1.176  -0.746  1.00  0.00     0.048 A 
HETATM   34  C9  UNL     1       4.466  -1.790  -0.084  1.00  0.00     0.031 A 
HETATM   35  C10 UNL     1       5.384  -2.595  -0.719  1.00  0.00     0.002 A 
HETATM   36  C11 UNL     1       5.264  -2.800  -2.081  1.00  0.00     0.000 A 
HETATM   37  C12 UNL     1       4.246  -2.207  -2.770  1.00  0.00     0.002 A 
HETATM   38  C13 UNL     1       3.335  -1.400  -2.099  1.00  0.00     0.031 A 
ENDBRANCH  31  33
ENDBRANCH   2  31
TORSDOF 7
