REMARK  8 active torsions:
REMARK  status: ('A' for Active; 'I' for Inactive)
REMARK    1  A    between atoms: N1_2  and  C3_4 
REMARK    2  A    between atoms: N4_11  and  N5_13 
REMARK    3  A    between atoms: C6_16  and  S1_17 
REMARK    4  A    between atoms: S1_17  and  N6_18 
REMARK    5  A    between atoms: C9_24  and  N7_25 
REMARK    6  A    between atoms: N7_25  and  C10_27 
REMARK    7  A    between atoms: C10_27  and  C11_28 
REMARK    8  A    between atoms: C11_28  and  O2_29 
ROOT
HETATM    1  C3  UNL     1      -2.015  -0.958   0.036  1.00  0.00     0.682 A 
HETATM    2  N2  UNL     1      -0.929  -1.722  -0.103  1.00  0.00    -0.175 N 
ATOM      3  H2  UNL     1      -1.064  -2.725  -0.233  1.00  0.00     0.186 HD
HETATM    4  C4  UNL     1       0.324  -1.256  -0.083  1.00  0.00     0.136 A 
HETATM    5  N3  UNL     1       1.405  -2.054  -0.227  1.00  0.00    -0.325 N 
ATOM      6  H3  UNL     1       1.272  -3.057  -0.357  1.00  0.00     0.169 HD
HETATM    7  C5  UNL     1       2.664  -1.549  -0.202  1.00  0.00     0.142 A 
HETATM    8  N4  UNL     1       3.657  -2.334  -0.341  1.00  0.00    -0.291 N 
ATOM      9  H4  UNL     1       4.595  -1.934  -0.320  1.00  0.00     0.188 HD
HETATM   10  C6  UNL     1       2.904  -0.206  -0.031  1.00  0.00     0.098 A 
HETATM   11  C7  UNL     1       1.793   0.614   0.117  1.00  0.00     0.045 A 
HETATM   12  C8  UNL     1       0.507   0.091   0.091  1.00  0.00     0.054 A 
HETATM   13  C9  UNL     1      -0.603   0.913   0.239  1.00  0.00     0.131 A 
HETATM   14  N8  UNL     1      -1.839   0.356   0.206  1.00  0.00    -0.176 N 
ATOM     15  H8  UNL     1      -2.657   0.956   0.314  1.00  0.00     0.186 HD
ENDROOT
BRANCH  13  16
HETATM   16  N7  UNL     1      -0.389   2.159   0.398  1.00  0.00    -0.373 N 
ATOM     17  H7  UNL     1       0.570   2.505   0.411  1.00  0.00     0.161 HD
BRANCH  16  18
HETATM   18  C10 UNL     1      -1.475   3.084   0.559  1.00  0.00     0.147 C 
BRANCH  18  19
HETATM   19  C11 UNL     1      -0.981   4.516   0.445  1.00  0.00     0.183 C 
BRANCH  19  20
HETATM   20  O2  UNL     1      -0.412   4.680  -0.816  1.00  0.00    -0.399 OA
ATOM     21  H2  UNL     1      -0.103   5.576  -0.887  1.00  0.00     0.209 HD
ENDBRANCH  19  20
ENDBRANCH  18  19
ENDBRANCH  16  18
ENDBRANCH  13  16
BRANCH   1  22
HETATM   22  N1  UNL     1      -3.335  -1.539   0.003  1.00  0.00    -0.226 N 
HETATM   23  C1  UNL     1      -4.516  -0.739   0.151  1.00  0.00     0.168 C 
HETATM   24  C2  UNL     1      -3.460  -2.971  -0.184  1.00  0.00     0.168 C 
ENDBRANCH   1  22
BRANCH  10  25
HETATM   25  S1  UNL     1       4.496   0.523   0.013  1.00  0.00     0.147 S 
HETATM   26  O1  UNL     1       5.456  -0.091  -0.986  1.00  0.00    -0.230 OA
BRANCH  25  27
HETATM   27  N6  UNL     1       5.157   0.588   1.624  1.00  0.00    -0.345 NA
ATOM     28  H62 UNL     1       4.511   1.001   2.296  1.00  0.00     0.166 HD
ATOM     29  H61 UNL     1       6.084   1.013   1.650  1.00  0.00     0.166 HD
ENDBRANCH  25  27
ENDBRANCH  10  25
BRANCH   8  30
HETATM   30  N5  UNL     1       3.532  -3.713  -0.521  1.00  0.00    -0.344 N 
ATOM     31  H52 UNL     1       2.587  -4.096  -0.540  1.00  0.00     0.176 HD
ATOM     32  H51 UNL     1       4.327  -4.342  -0.632  1.00  0.00     0.176 HD
ENDBRANCH   8  30
TORSDOF 8
