REMARK  6 active torsions:
REMARK  status: ('A' for Active; 'I' for Inactive)
REMARK    1  A    between atoms: N1_1  and  C1_4 
REMARK    2  A    between atoms: C5_16  and  N6_17 
REMARK    3  A    between atoms: N6_17  and  C6_19 
REMARK    4  A    between atoms: C6_19  and  C7_20 
REMARK    5  A    between atoms: N9_26  and  N10_28 
REMARK       I    between atoms: C9_30  and  N12_32 
REMARK    6  A    between atoms: N12_32  and  N13_34 
ROOT
HETATM    1  N6  UNL     1      -1.201  -1.010   0.226  1.00  0.00    -0.196 N 
ATOM      2  H6  UNL     1      -0.842  -1.959   0.120  1.00  0.00     0.183 HD
ENDROOT
BRANCH   1   3
HETATM    3  C5  UNL     1      -2.593  -0.791   0.089  1.00  0.00     0.698 A 
HETATM    4  N5  UNL     1      -3.404  -1.787   0.341  1.00  0.00    -0.131 N 
HETATM    5  N4  UNL     1      -4.793  -1.623   0.220  1.00  0.00    -0.280 N 
ATOM      6  H5  UNL     1      -3.024  -2.689   0.627  1.00  0.00     0.205 HD
HETATM    7  C4  UNL     1      -5.383  -0.397  -0.173  1.00  0.00     0.137 A 
ATOM      8  H4  UNL     1      -5.400  -2.417   0.423  1.00  0.00     0.188 HD
HETATM    9  C1  UNL     1      -6.740  -0.212  -0.298  1.00  0.00     0.132 A 
HETATM   10  C3  UNL     1      -4.524   0.648  -0.437  1.00  0.00     0.154 A 
HETATM   11  N2  UNL     1      -7.273   0.979  -0.677  1.00  0.00    -0.337 N 
HETATM   12  C2  UNL     1      -6.410   1.976  -0.927  1.00  0.00     0.183 A 
ATOM     13  H2  UNL     1      -8.281   1.109  -0.767  1.00  0.00     0.168 HD
HETATM   14  N3  UNL     1      -5.082   1.809  -0.808  1.00  0.00    -0.336 N 
ATOM     15  H3  UNL     1      -4.471   2.601  -1.009  1.00  0.00     0.168 HD
HETATM   16  N14 UNL     1      -3.102   0.474  -0.311  1.00  0.00    -0.173 N 
ATOM     17  H14 UNL     1      -2.467   1.248  -0.506  1.00  0.00     0.186 HD
BRANCH   9  18
HETATM   18  N1  UNL     1      -7.559  -1.158  -0.062  1.00  0.00    -0.383 N 
ATOM     19  H12 UNL     1      -8.565  -1.021  -0.155  1.00  0.00     0.157 HD
ATOM     20  H11 UNL     1      -7.159  -2.052   0.223  1.00  0.00     0.157 HD
ENDBRANCH   9  18
ENDBRANCH   1   3
BRANCH   1  21
HETATM   21  C6  UNL     1      -0.369  -0.057   0.480  1.00  0.00     0.164 C 
BRANCH  21  22
HETATM   22  C7  UNL     1       1.042  -0.386   0.602  1.00  0.00     0.182 A 
HETATM   23  N7  UNL     1       1.615  -1.590   0.482  1.00  0.00    -0.275 N 
HETATM   24  N8  UNL     1       2.920  -1.476   0.662  1.00  0.00    -0.262 N 
ATOM     25  H7  UNL     1       1.122  -2.460   0.283  1.00  0.00     0.189 HD
HETATM   26  C8  UNL     1       3.165  -0.178   0.898  1.00  0.00     0.260 A 
ATOM     27  H8  UNL     1       3.607  -2.229   0.628  1.00  0.00     0.190 HD
HETATM   28  N9  UNL     1       4.309   0.379   1.128  1.00  0.00    -0.261 N 
HETATM   29  O3  UNL     1       2.015   0.445   0.854  1.00  0.00    -0.257 OA
ATOM     30  H9  UNL     1       4.360   1.384   1.294  1.00  0.00     0.190 HD
BRANCH  28  31
HETATM   31  N10 UNL     1       5.461  -0.380   1.150  1.00  0.00    -0.269 N 
HETATM   32  C9  UNL     1       6.467  -0.161   0.392  1.00  0.00     0.226 C 
HETATM   33  N11 UNL     1       7.621  -0.971   0.459  1.00  0.00    -0.060 NA
HETATM   34  N12 UNL     1       6.428   0.909  -0.528  1.00  0.00    -0.212 N 
ATOM     35  H12 UNL     1       5.708   0.933  -1.250  1.00  0.00     0.196 HD
ATOM     36  H10 UNL     1       5.513  -1.158   1.807  1.00  0.00     0.190 HD
BRANCH  34  37
HETATM   37  N13 UNL     1       7.370   1.933  -0.452  1.00  0.00    -0.036 N 
HETATM   38  O1  UNL     1       7.499   2.607   0.585  1.00  0.00    -0.516 OA
HETATM   39  O2  UNL     1       8.174   2.216  -1.526  1.00  0.00    -0.516 OA
ENDBRANCH  34  37
ENDBRANCH  28  31
ENDBRANCH  21  22
ENDBRANCH   1  21
TORSDOF 6
