REMARK  5 active torsions:
REMARK  status: ('A' for Active; 'I' for Inactive)
REMARK    1  A    between atoms: C1_4  and  C2_6 
REMARK    2  A    between atoms: C4_10  and  C5_11 
REMARK    3  A    between atoms: C5_11  and  N4_12 
REMARK    4  A    between atoms: N4_12  and  C6_14 
REMARK    5  A    between atoms: C6_14  and  C7_15 
ROOT
HETATM    1  C2  UNL     1      -4.073  -0.089  -0.135  1.00  0.00     0.042 A 
HETATM    2  C3  UNL     1      -3.293   0.388  -1.151  1.00  0.00     0.106 A 
HETATM    3  N3  UNL     1      -1.937   0.213  -1.137  1.00  0.00    -0.348 N 
ATOM      4  H3  UNL     1      -1.384   0.580  -1.911  1.00  0.00     0.167 HD
HETATM    5  C4  UNL     1      -1.314  -0.423  -0.142  1.00  0.00     0.140 A 
HETATM    6  O1  UNL     1      -2.096  -0.892   0.848  1.00  0.00    -0.307 OA
HETATM    7  C13 UNL     1      -3.376  -0.765   0.899  1.00  0.00     0.160 A 
ENDROOT
BRANCH   5   8
HETATM    8  C5  UNL     1       0.134  -0.652   0.010  1.00  0.00     0.203 C 
BRANCH   8   9
HETATM    9  N4  UNL     1       0.863   0.325  -0.814  1.00  0.00    -0.391 N 
ATOM     10  H4  UNL     1       0.667   0.576  -1.783  1.00  0.00     0.159 HD
BRANCH   9  11
HETATM   11  C6  UNL     1       1.905   0.855   0.020  1.00  0.00     0.094 C 
BRANCH  11  12
HETATM   12  C7  UNL     1       3.271   0.429  -0.036  1.00  0.00    -0.021 A 
HETATM   13  C8  UNL     1       3.614  -0.872  -0.320  1.00  0.00     0.013 A 
HETATM   14  C9  UNL     1       4.929  -1.258  -0.228  1.00  0.00     0.001 A 
HETATM   15  C10 UNL     1       5.892  -0.348   0.133  1.00  0.00     0.000 A 
HETATM   16  C11 UNL     1       5.549   0.960   0.416  1.00  0.00     0.001 A 
HETATM   17  C12 UNL     1       4.250   1.371   0.338  1.00  0.00     0.013 A 
ENDBRANCH  11  12
ENDBRANCH   9  11
ENDBRANCH   8   9
ENDBRANCH   5   8
BRANCH   1  18
HETATM   18  C1  UNL     1      -5.511   0.117  -0.018  1.00  0.00     0.123 C 
HETATM   19  N1  UNL     1      -6.180   0.631  -0.921  1.00  0.00    -0.387 N 
ATOM     20  H12 UNL     1      -7.186   0.775  -0.839  1.00  0.00     0.157 HD
ATOM     21  H11 UNL     1      -5.685   0.857  -1.784  1.00  0.00     0.157 HD
HETATM   22  N2  UNL     1      -6.208  -0.201   1.196  1.00  0.00    -0.082 NA
ENDBRANCH   1  18
TORSDOF 5
