REMARK  5 active torsions:
REMARK  status: ('A' for Active; 'I' for Inactive)
REMARK    1  A    between atoms: C2_3  and  N2_4 
REMARK    2  A    between atoms: C6_17  and  C7_18 
REMARK    3  A    between atoms: C7_18  and  O2_20 
REMARK    4  A    between atoms: O2_20  and  C8_21 
REMARK    5  A    between atoms: N7_24  and  O3_25 
ROOT
HETATM    1  C8  UNL     1       4.726   0.569   0.288  1.00  0.00     0.302 C 
HETATM    2  C9  UNL     1       5.283   1.924   0.374  1.00  0.00     0.085 C 
HETATM    3  N6  UNL     1       5.730   3.002   0.460  1.00  0.00    -0.195 NA
ENDROOT
BRANCH   1   4
HETATM    4  O2  UNL     1       3.318   0.699   0.222  1.00  0.00    -0.301 OA
BRANCH   4   5
HETATM    5  C7  UNL     1       2.555  -0.451   0.135  1.00  0.00     0.331 C 
HETATM    6  O1  UNL     1       3.134  -1.560   0.117  1.00  0.00    -0.256 OA
BRANCH   5   7
HETATM    7  C6  UNL     1       1.095  -0.420   0.062  1.00  0.00     0.211 A 
HETATM    8  N5  UNL     1       0.289   0.653   0.067  1.00  0.00    -0.319 N 
HETATM    9  C5  UNL     1      -1.006   0.248  -0.016  1.00  0.00     0.158 A 
ATOM     10  H5  UNL     1       0.600   1.623   0.124  1.00  0.00     0.169 HD
HETATM   11  N1  UNL     1      -2.175   0.911  -0.047  1.00  0.00    -0.170 N 
HETATM   12  C4  UNL     1      -0.989  -1.129  -0.074  1.00  0.00     0.153 A 
HETATM   13  C1  UNL     1      -2.164   2.360   0.015  1.00  0.00     0.177 C 
HETATM   14  C2  UNL     1      -3.367   0.302  -0.134  1.00  0.00     0.681 A 
HETATM   15  N3  UNL     1      -3.346  -1.033  -0.189  1.00  0.00    -0.175 N 
HETATM   16  C3  UNL     1      -2.203  -1.776  -0.163  1.00  0.00     0.148 A 
ATOM     17  H3  UNL     1      -4.237  -1.525  -0.254  1.00  0.00     0.186 HD
HETATM   18  N4  UNL     1      -2.261  -3.052  -0.220  1.00  0.00    -0.383 N 
ATOM     19  H42 UNL     1      -3.159  -3.531  -0.286  1.00  0.00     0.157 HD
ATOM     20  H41 UNL     1      -1.406  -3.608  -0.201  1.00  0.00     0.157 HD
HETATM   21  N7  UNL     1       0.296  -1.498  -0.024  1.00  0.00    -0.194 N 
BRANCH  14  22
HETATM   22  N2  UNL     1      -4.486   0.974  -0.162  1.00  0.00    -0.234 N 
ATOM     23  H22 UNL     1      -4.502   1.993  -0.120  1.00  0.00     0.174 HD
ATOM     24  H21 UNL     1      -5.392   0.511  -0.228  1.00  0.00     0.174 HD
ENDBRANCH  14  22
BRANCH  21  25
HETATM   25  O3  UNL     1       0.750  -2.792  -0.056  1.00  0.00    -0.280 OA
ATOM     26  H3  UNL     1       1.662  -3.054  -0.020  1.00  0.00     0.245 HD
ENDBRANCH  21  25
ENDBRANCH   5   7
ENDBRANCH   4   5
ENDBRANCH   1   4
TORSDOF 5
