REMARK  3 active torsions:
REMARK  status: ('A' for Active; 'I' for Inactive)
REMARK    1  A    between atoms: N1_1  and  C1_4 
REMARK    2  A    between atoms: C3_8  and  N3_9 
REMARK    3  A    between atoms: N6_18  and  C6_19 
ROOT
HETATM    1  C1  UNL     1       0.234  -0.103  -1.114  1.00  0.00     0.684 A 
HETATM    2  N2  UNL     1       1.586  -0.172  -1.277  1.00  0.00    -0.172 N 
ATOM      3  H2  UNL     1       1.979  -0.402  -2.190  1.00  0.00     0.186 HD
HETATM    4  C2  UNL     1       2.394   0.061  -0.243  1.00  0.00     0.181 A 
HETATM    5  C3  UNL     1       3.791   0.052  -0.152  1.00  0.00     0.166 A 
HETATM    6  C4  UNL     1       4.029   0.367   1.166  1.00  0.00     0.148 A 
HETATM    7  N4  UNL     1       2.854   0.545   1.793  1.00  0.00    -0.297 N 
ATOM      8  H4  UNL     1       2.750   0.786   2.779  1.00  0.00     0.186 HD
HETATM    9  N5  UNL     1       1.849   0.362   0.946  1.00  0.00    -0.185 N 
HETATM   10  C5  UNL     1       0.496   0.427   1.092  1.00  0.00     0.364 A 
HETATM   11  O3  UNL     1       0.084   0.711   2.225  1.00  0.00    -0.244 OA
HETATM   12  N6  UNL     1      -0.333   0.192   0.051  1.00  0.00    -0.125 N 
ENDROOT
BRANCH  12  13
HETATM   13  C6  UNL     1      -1.703   0.272   0.253  1.00  0.00     0.140 C 
HETATM   14  C7  UNL     1      -2.284  -0.756   1.223  1.00  0.00     0.055 C 
HETATM   15  C8  UNL     1      -3.749  -0.284   1.162  1.00  0.00     0.234 C 
HETATM   16  N7  UNL     1      -3.941   0.299  -0.132  1.00  0.00    -0.073 N 
HETATM   17  C9  UNL     1      -2.655   0.123  -0.859  1.00  0.00     0.258 C 
ATOM     18  H72 UNL     1      -4.746  -0.079  -0.632  1.00  0.00     0.277 HD
ATOM     19  H71 UNL     1      -4.259   1.267  -0.098  1.00  0.00     0.277 HD
ENDBRANCH  12  13
BRANCH   1  20
HETATM   20  N1  UNL     1      -0.481  -0.331  -2.124  1.00  0.00    -0.234 N 
ATOM     21  H12 UNL     1      -0.046  -0.557  -3.018  1.00  0.00     0.174 HD
ATOM     22  H11 UNL     1      -1.492  -0.279  -2.002  1.00  0.00     0.174 HD
ENDBRANCH   1  20
BRANCH   5  23
HETATM   23  N3  UNL     1       4.714  -0.221  -1.195  1.00  0.00    -0.110 N 
HETATM   24  O1  UNL     1       4.434  -1.002  -2.101  1.00  0.00    -0.532 OA
HETATM   25  O2  UNL     1       5.941   0.390  -1.203  1.00  0.00    -0.532 OA
ENDBRANCH   5  23
TORSDOF 3
