REMARK  5 active torsions:
REMARK  status: ('A' for Active; 'I' for Inactive)
REMARK       I    between atoms: C2_2  and  N1_4 
REMARK    1  A    between atoms: C4_7  and  C5_8 
REMARK       I    between atoms: C5_8  and  N3_10 
REMARK    2  A    between atoms: N3_10  and  N4_12 
REMARK    3  A    between atoms: N6_18  and  N7_20 
REMARK    4  A    between atoms: N7_20  and  C7_22 
REMARK    5  A    between atoms: C7_22  and  N8_23 
ROOT
HETATM    1  C1  UNL     1      -2.288  -2.579   0.606  1.00  0.00     0.119 C 
HETATM    2  C2  UNL     1      -2.305  -1.141   0.140  1.00  0.00     0.240 C 
HETATM    3  O1  UNL     1      -3.412  -0.598  -0.079  1.00  0.00    -0.273 OA
HETATM    4  N1  UNL     1      -1.088  -0.429  -0.043  1.00  0.00    -0.099 N 
HETATM    5  C3  UNL     1       0.144  -0.988   0.185  1.00  0.00     0.175 A 
HETATM    6  N2  UNL     1       0.443  -2.311   0.622  1.00  0.00    -0.079 NA
HETATM    7  C4  UNL     1       1.106  -0.043  -0.082  1.00  0.00     0.161 A 
HETATM    8  N5  UNL     1       0.507   1.074  -0.465  1.00  0.00    -0.181 N 
ATOM      9  H5  UNL     1       0.965   1.946  -0.728  1.00  0.00     0.184 HD
HETATM   10  C6  UNL     1      -0.870   0.836  -0.442  1.00  0.00     0.708 A 
HETATM   11  N6  UNL     1      -1.639   1.767  -0.772  1.00  0.00    -0.123 N 
ATOM     12  H6  UNL     1      -1.121   2.609  -1.024  1.00  0.00     0.206 HD
ENDROOT
BRANCH  11  13
HETATM   13  N7  UNL     1      -2.937   1.948  -0.880  1.00  0.00    -0.236 N 
ATOM     14  H7  UNL     1      -3.519   1.174  -1.201  1.00  0.00     0.199 HD
BRANCH  13  15
HETATM   15  C7  UNL     1      -3.496   3.073  -0.593  1.00  0.00     0.061 C 
BRANCH  15  16
HETATM   16  N8  UNL     1      -3.932   4.226  -0.281  1.00  0.00    -0.350 N 
ATOM     17  H82 UNL     1      -2.941   4.388  -0.100  1.00  0.00     0.167 HD
ATOM     18  H81 UNL     1      -4.374   5.117  -0.054  1.00  0.00     0.167 HD
ENDBRANCH  15  16
ENDBRANCH  13  15
ENDBRANCH  11  13
BRANCH   7  19
HETATM   19  C5  UNL     1       2.554  -0.272   0.048  1.00  0.00     0.295 C 
HETATM   20  O2  UNL     1       3.007  -1.381   0.422  1.00  0.00    -0.264 OA
HETATM   21  N3  UNL     1       3.486   0.748  -0.244  1.00  0.00    -0.204 N 
ATOM     22  H3  UNL     1       3.132   1.654  -0.549  1.00  0.00     0.196 HD
BRANCH  21  23
HETATM   23  N4  UNL     1       4.861   0.580  -0.137  1.00  0.00    -0.036 N 
HETATM   24  O3  UNL     1       5.595   0.224  -1.078  1.00  0.00    -0.516 OA
HETATM   25  O4  UNL     1       5.438   0.830   1.101  1.00  0.00    -0.516 OA
ENDBRANCH  21  23
ENDBRANCH   7  19
TORSDOF 5
