REMARK  14 active torsions:
REMARK  status: ('A' for Active; 'I' for Inactive)
REMARK    1  A    between atoms: C2_2  and  C3_3 
REMARK    2  A    between atoms: C3_3  and  C4_4 
REMARK    3  A    between atoms: C5_5  and  C6_6 
REMARK    4  A    between atoms: C10_10  and  O1_11 
REMARK    5  A    between atoms: O1_11  and  C11_12 
REMARK    6  A    between atoms: C14_16  and  O3_17 
REMARK    7  A    between atoms: C15_19  and  O4_20 
REMARK    8  A    between atoms: O4_20  and  C16_21 
REMARK    9  A    between atoms: C17_23  and  C18_24 
REMARK   10  A    between atoms: C18_24  and  O6_25 
REMARK   11  A    between atoms: C19_27  and  O7_28 
REMARK   12  A    between atoms: C20_30  and  C21_31 
REMARK   13  A    between atoms: C21_31  and  O8_32 
REMARK   14  A    between atoms: C22_35  and  O10_36 
ROOT
HETATM    1  C11 UNL     1       0.750   0.073  -0.270  1.00  0.00     0.291 C 
HETATM    2  O2  UNL     1       0.725   0.136   1.116  1.00  0.00    -0.351 OA
HETATM    3  C12 UNL     1       0.361  -1.053   1.715  1.00  0.00     0.152 C 
HETATM    4  C13 UNL     1       1.585  -1.947   1.761  1.00  0.00     0.042 C 
HETATM    5  C14 UNL     1      -0.769  -1.763   1.042  1.00  0.00     0.178 C 
HETATM    6  C15 UNL     1      -1.547  -0.910   0.081  1.00  0.00     0.191 C 
HETATM    7  C22 UNL     1      -0.708   0.024  -0.720  1.00  0.00     0.205 C 
ENDROOT
BRANCH   6   8
HETATM    8  O4  UNL     1      -2.562  -0.199   0.697  1.00  0.00    -0.328 OA
BRANCH   8   9
HETATM    9  C16 UNL     1      -3.840  -0.540   0.272  1.00  0.00     0.414 C 
HETATM   10  O5  UNL     1      -4.480  -1.133   1.329  1.00  0.00    -0.329 OA
HETATM   11  C17 UNL     1      -5.533  -0.436   1.870  1.00  0.00     0.181 C 
HETATM   12  C19 UNL     1      -6.487   0.089   0.818  1.00  0.00     0.180 C 
HETATM   13  C20 UNL     1      -5.820   0.129  -0.548  1.00  0.00     0.181 C 
HETATM   14  O9  UNL     1      -4.505   0.482  -0.349  1.00  0.00    -0.329 OA
BRANCH  11  15
HETATM   15  C18 UNL     1      -5.029   0.680   2.764  1.00  0.00     0.199 C 
BRANCH  15  16
HETATM   16  O6  UNL     1      -4.274   0.105   3.783  1.00  0.00    -0.398 OA
ATOM     17  H6  UNL     1      -3.958   0.804   4.343  1.00  0.00     0.209 HD
ENDBRANCH  15  16
ENDBRANCH  11  15
BRANCH  12  18
HETATM   18  O7  UNL     1      -7.676  -0.631   0.798  1.00  0.00    -0.390 OA
ATOM     19  H7  UNL     1      -8.275  -0.302   0.138  1.00  0.00     0.210 HD
ENDBRANCH  12  18
BRANCH  13  20
HETATM   20  C21 UNL     1      -6.497   1.158  -1.424  1.00  0.00     0.199 C 
BRANCH  20  21
HETATM   21  O8  UNL     1      -6.427   2.394  -0.776  1.00  0.00    -0.398 OA
ATOM     22  H8  UNL     1      -6.853   3.041  -1.327  1.00  0.00     0.209 HD
ENDBRANCH  20  21
ENDBRANCH  13  20
ENDBRANCH   8   9
ENDBRANCH   6   8
BRANCH   5  23
HETATM   23  O3  UNL     1      -0.297  -2.919   0.419  1.00  0.00    -0.390 OA
ATOM     24  H3  UNL     1      -1.015  -3.370  -0.009  1.00  0.00     0.210 HD
ENDBRANCH   5  23
BRANCH   7  25
HETATM   25  O10 UNL     1      -1.195   1.326  -0.603  1.00  0.00    -0.388 OA
ATOM     26  H10 UNL     1      -2.102   1.296  -0.883  1.00  0.00     0.210 HD
ENDBRANCH   7  25
BRANCH   1  27
HETATM   27  O1  UNL     1       1.240   1.284  -0.731  1.00  0.00    -0.353 OA
BRANCH  27  28
HETATM   28  C10 UNL     1       2.334   1.214  -1.560  1.00  0.00     0.132 C 
HETATM   29  C6  UNL     1       3.502   2.009  -1.135  1.00  0.00     0.037 C 
HETATM   30  C7  UNL     1       4.181   2.474  -2.429  1.00  0.00     0.011 C 
HETATM   31  C8  UNL     1       3.440   1.762  -3.541  1.00  0.00     0.003 C 
HETATM   32  C9  UNL     1       2.040   1.709  -2.960  1.00  0.00     0.033 C 
BRANCH  29  33
HETATM   33  C5  UNL     1       4.532   1.320  -0.353  1.00  0.00    -0.024 C 
HETATM   34  C4  UNL     1       4.579   0.077   0.030  1.00  0.00    -0.030 C 
BRANCH  34  35
HETATM   35  C3  UNL     1       5.703  -0.487   0.829  1.00  0.00     0.026 C 
BRANCH  35  36
HETATM   36  C2  UNL     1       6.394  -1.618   0.111  1.00  0.00    -0.001 C 
HETATM   37  C1  UNL     1       7.515  -2.097   1.038  1.00  0.00     0.005 C 
ENDBRANCH  35  36
ENDBRANCH  34  35
ENDBRANCH  29  33
ENDBRANCH  27  28
ENDBRANCH   1  27
TORSDOF 14
