REMARK  14 active torsions:
REMARK  status: ('A' for Active; 'I' for Inactive)
REMARK    1  A    between atoms: O1_2  and  C2_3 
REMARK    2  A    between atoms: C2_3  and  C3_5 
REMARK    3  A    between atoms: C3_5  and  C4_6 
REMARK    4  A    between atoms: C4_6  and  C5_7 
REMARK    5  A    between atoms: C5_7  and  C6_8 
REMARK    6  A    between atoms: C6_8  and  C7_9 
REMARK    7  A    between atoms: C7_9  and  C8_10 
REMARK    8  A    between atoms: C8_10  and  C9_11 
REMARK    9  A    between atoms: C9_11  and  C10_12 
REMARK   10  A    between atoms: C10_12  and  N1_13 
REMARK   11  A    between atoms: C17_24  and  O5_25 
REMARK   12  A    between atoms: C18_27  and  O6_28 
REMARK   13  A    between atoms: C19_30  and  O7_31 
REMARK   14  A    between atoms: C20_33  and  O8_34 
ROOT
HETATM    1  N1  UNL     1      -0.930   1.277  -1.646  1.00  0.00    -0.387 N 
ATOM      2  H1  UNL     1      -0.906   2.296  -1.673  1.00  0.00     0.159 HD
HETATM    3  C11 UNL     1      -1.950   0.781  -1.114  1.00  0.00     0.052 C 
HETATM    4  S1  UNL     1      -3.178   1.962  -0.494  1.00  0.00    -0.107 SA
HETATM    5  C12 UNL     1      -3.230   1.731   1.300  1.00  0.00     0.108 C 
HETATM    6  C13 UNL     1      -4.290   2.657   1.889  1.00  0.00     0.185 C 
HETATM    7  O3  UNL     1      -5.454   1.962   1.633  1.00  0.00    -0.387 OA
HETATM    8  C14 UNL     1      -5.215   0.639   1.936  1.00  0.00     0.200 C 
HETATM    9  C15 UNL     1      -3.730   0.382   1.718  1.00  0.00     0.162 C 
HETATM   10  O4  UNL     1      -3.607  -0.610   0.787  1.00  0.00    -0.374 OA
HETATM   11  C16 UNL     1      -2.337  -1.001   0.463  1.00  0.00     0.166 C 
HETATM   12  C17 UNL     1      -2.265  -2.512   0.535  1.00  0.00     0.179 C 
HETATM   13  C18 UNL     1      -2.855  -3.194  -0.652  1.00  0.00     0.180 C 
HETATM   14  C19 UNL     1      -3.907  -2.407  -1.390  1.00  0.00     0.179 C 
HETATM   15  C20 UNL     1      -3.506  -0.983  -1.650  1.00  0.00     0.162 C 
HETATM   16  C21 UNL     1      -2.129  -0.683  -1.028  1.00  0.00     0.105 C 
ENDROOT
BRANCH   1  17
HETATM   17  C10 UNL     1       0.191   0.634  -2.213  1.00  0.00     0.120 C 
BRANCH  17  18
HETATM   18  C9  UNL     1       1.132   0.136  -1.165  1.00  0.00     0.020 C 
BRANCH  18  19
HETATM   19  C8  UNL     1       2.344  -0.544  -1.799  1.00  0.00     0.002 C 
BRANCH  19  20
HETATM   20  C7  UNL     1       3.116   0.405  -2.652  1.00  0.00     0.000 C 
BRANCH  20  21
HETATM   21  C6  UNL     1       3.649   1.606  -1.893  1.00  0.00     0.000 C 
BRANCH  21  22
HETATM   22  C5  UNL     1       4.593   1.154  -0.803  1.00  0.00     0.000 C 
BRANCH  22  23
HETATM   23  C4  UNL     1       5.140   2.301  -0.022  1.00  0.00     0.010 C 
BRANCH  23  24
HETATM   24  C3  UNL     1       6.113   1.926   1.052  1.00  0.00     0.111 C 
BRANCH  24  25
HETATM   25  C2  UNL     1       5.578   1.057   2.103  1.00  0.00     0.258 C 
HETATM   26  O2  UNL     1       4.369   0.756   2.136  1.00  0.00    -0.265 OA
BRANCH  25  27
HETATM   27  O1  UNL     1       6.370   0.518   3.119  1.00  0.00    -0.326 OA
HETATM   28  C1  UNL     1       5.817  -0.330   4.118  1.00  0.00     0.213 C 
ENDBRANCH  25  27
ENDBRANCH  24  25
ENDBRANCH  23  24
ENDBRANCH  22  23
ENDBRANCH  21  22
ENDBRANCH  20  21
ENDBRANCH  19  20
ENDBRANCH  18  19
ENDBRANCH  17  18
ENDBRANCH   1  17
BRANCH  15  29
HETATM   29  O8  UNL     1      -3.398  -0.661  -2.999  1.00  0.00    -0.392 OA
ATOM     30  H8  UNL     1      -3.144   0.240  -3.163  1.00  0.00     0.210 HD
ENDBRANCH  15  29
BRANCH  12  31
HETATM   31  O5  UNL     1      -2.750  -2.993   1.749  1.00  0.00    -0.390 OA
ATOM     32  H5  UNL     1      -2.705  -3.941   1.794  1.00  0.00     0.210 HD
ENDBRANCH  12  31
BRANCH  14  33
HETATM   33  O7  UNL     1      -5.157  -2.506  -0.753  1.00  0.00    -0.390 OA
ATOM     34  H7  UNL     1      -5.820  -2.010  -1.218  1.00  0.00     0.210 HD
ENDBRANCH  14  33
BRANCH  13  35
HETATM   35  O6  UNL     1      -3.465  -4.381  -0.212  1.00  0.00    -0.390 OA
ATOM     36  H6  UNL     1      -3.841  -4.816  -0.968  1.00  0.00     0.210 HD
ENDBRANCH  13  35
TORSDOF 14
