REMARK  16 active torsions:
REMARK  status: ('A' for Active; 'I' for Inactive)
REMARK    1  A    between atoms: O1_2  and  C2_3 
REMARK    2  A    between atoms: C2_3  and  C3_5 
REMARK    3  A    between atoms: C3_5  and  C4_6 
REMARK    4  A    between atoms: C4_6  and  C5_7 
REMARK    5  A    between atoms: C5_7  and  C6_8 
REMARK    6  A    between atoms: C7_9  and  C8_10 
REMARK    7  A    between atoms: C8_10  and  C9_11 
REMARK    8  A    between atoms: C10_12  and  O3_13 
REMARK    9  A    between atoms: C12_16  and  O4_17 
REMARK   10  A    between atoms: C12_16  and  C13_19 
REMARK   11  A    between atoms: C13_19  and  O6_21 
REMARK   12  A    between atoms: O6_21  and  C14_22 
REMARK   13  A    between atoms: C16_24  and  O7_25 
REMARK   14  A    between atoms: C17_27  and  O8_28 
REMARK   15  A    between atoms: C20_33  and  C21_34 
REMARK   16  A    between atoms: C22_35  and  O10_36 
ROOT
HETATM    1  C9  UNL     1       1.411   2.592  -0.764  1.00  0.00     0.029 C 
HETATM    2  C10 UNL     1       1.264   2.975   0.665  1.00  0.00     0.126 C 
HETATM    3  C11 UNL     1      -0.238   3.068   0.853  1.00  0.00     0.081 C 
HETATM    4  C12 UNL     1      -0.873   2.600  -0.444  1.00  0.00     0.155 C 
HETATM    5  C20 UNL     1       0.214   1.690  -0.974  1.00  0.00     0.061 C 
ENDROOT
BRANCH   4   6
HETATM    6  O4  UNL     1      -1.051   3.696  -1.271  1.00  0.00    -0.379 OA
ATOM      7  H4  UNL     1      -1.448   3.403  -2.083  1.00  0.00     0.211 HD
ENDBRANCH   4   6
BRANCH   4   8
HETATM    8  C13 UNL     1      -2.154   1.925  -0.224  1.00  0.00     0.296 C 
HETATM    9  O5  UNL     1      -3.190   2.416  -0.737  1.00  0.00    -0.262 OA
BRANCH   8  10
HETATM   10  O6  UNL     1      -2.314   0.772   0.515  1.00  0.00    -0.287 OA
BRANCH  10  11
HETATM   11  C14 UNL     1      -3.529   0.118   0.738  1.00  0.00     0.272 C 
HETATM   12  C15 UNL     1      -3.604  -1.250   0.094  1.00  0.00     0.095 C 
HETATM   13  C16 UNL     1      -5.098  -1.569  -0.023  1.00  0.00     0.154 C 
HETATM   14  C17 UNL     1      -5.735  -1.431   1.321  1.00  0.00     0.175 C 
HETATM   15  C18 UNL     1      -5.227  -0.319   2.170  1.00  0.00     0.151 C 
HETATM   16  C19 UNL     1      -6.111   0.907   2.023  1.00  0.00     0.042 C 
HETATM   17  O9  UNL     1      -3.891  -0.024   2.049  1.00  0.00    -0.353 OA
BRANCH  13  18
HETATM   18  O7  UNL     1      -5.270  -2.880  -0.499  1.00  0.00    -0.393 OA
ATOM     19  H7  UNL     1      -6.196  -3.078  -0.572  1.00  0.00     0.210 HD
ENDBRANCH  13  18
BRANCH  14  20
HETATM   20  O8  UNL     1      -5.723  -2.637   2.028  1.00  0.00    -0.390 OA
ATOM     21  H8  UNL     1      -6.128  -2.549   2.883  1.00  0.00     0.210 HD
ENDBRANCH  14  20
ENDBRANCH  10  11
ENDBRANCH   8  10
ENDBRANCH   4   8
BRANCH   5  22
HETATM   22  C21 UNL     1       0.018   1.297  -2.363  1.00  0.00     0.006 C 
HETATM   23  C22 UNL     1      -0.107   0.018  -2.670  1.00  0.00     0.127 C 
BRANCH  23  24
HETATM   24  O10 UNL     1      -0.297  -0.397  -3.997  1.00  0.00    -0.373 OA
ATOM     25  H10 UNL     1      -0.387  -1.317  -4.218  1.00  0.00     0.216 HD
ENDBRANCH  23  24
ENDBRANCH   5  22
BRANCH   2  26
HETATM   26  O3  UNL     1       1.714   2.025   1.577  1.00  0.00    -0.395 OA
ATOM     27  H3  UNL     1       1.620   2.270   2.490  1.00  0.00     0.210 HD
ENDBRANCH   2  26
BRANCH   1  28
HETATM   28  C8  UNL     1       2.714   1.989  -1.162  1.00  0.00     0.035 C 
BRANCH  28  29
HETATM   29  C7  UNL     1       3.046   0.733  -0.443  1.00  0.00    -0.030 C 
HETATM   30  C6  UNL     1       4.117   0.602   0.296  1.00  0.00    -0.031 C 
BRANCH  30  31
HETATM   31  C5  UNL     1       4.597  -0.537   1.060  1.00  0.00     0.027 C 
BRANCH  31  32
HETATM   32  C4  UNL     1       3.854  -1.810   1.003  1.00  0.00     0.013 C 
BRANCH  32  33
HETATM   33  C3  UNL     1       3.800  -2.524  -0.297  1.00  0.00     0.111 C 
BRANCH  33  34
HETATM   34  C2  UNL     1       5.147  -2.950  -0.770  1.00  0.00     0.258 C 
HETATM   35  O2  UNL     1       5.259  -3.396  -1.954  1.00  0.00    -0.265 OA
BRANCH  34  36
HETATM   36  O1  UNL     1       6.269  -2.894  -0.008  1.00  0.00    -0.326 OA
HETATM   37  C1  UNL     1       7.567  -3.280  -0.388  1.00  0.00     0.213 C 
ENDBRANCH  34  36
ENDBRANCH  33  34
ENDBRANCH  32  33
ENDBRANCH  31  32
ENDBRANCH  30  31
ENDBRANCH  28  29
ENDBRANCH   1  28
TORSDOF 16
