REMARK  11 active torsions:
REMARK  status: ('A' for Active; 'I' for Inactive)
REMARK    1  A    between atoms: C2_2  and  S1_3 
REMARK    2  A    between atoms: S1_3  and  C3_6 
REMARK    3  A    between atoms: C6_9  and  N1_10 
REMARK    4  A    between atoms: N1_10  and  C7_12 
REMARK    5  A    between atoms: C9_17  and  C10_18 
REMARK       I    between atoms: C10_18  and  N4_20 
REMARK    6  A    between atoms: N4_20  and  N5_22 
REMARK    7  A    between atoms: N5_22  and  C11_24 
REMARK    8  A    between atoms: C11_24  and  C12_28 
REMARK    9  A    between atoms: C12_28  and  N7_29 
REMARK   10  A    between atoms: C12_28  and  N8_33 
REMARK   11  A    between atoms: C13_37  and  N9_38 
ROOT
HETATM    1  C7  UNL     1      -0.367  -1.692  -0.076  1.00  0.00     0.685 A 
HETATM    2  N2  UNL     1      -0.397  -0.355   0.028  1.00  0.00    -0.177 N 
ATOM      3  H2  UNL     1      -1.300   0.103   0.151  1.00  0.00     0.185 HD
HETATM    4  C8  UNL     1       0.695   0.399  -0.022  1.00  0.00     0.151 A 
HETATM    5  N3  UNL     1       0.618   1.825   0.091  1.00  0.00    -0.081 NA
HETATM    6  C9  UNL     1       1.966  -0.186  -0.190  1.00  0.00     0.119 A 
HETATM    7  C13 UNL     1       2.003  -1.548  -0.296  1.00  0.00     0.134 A 
HETATM    8  N10 UNL     1       0.839  -2.240  -0.235  1.00  0.00    -0.176 N 
ATOM      9  H10 UNL     1       0.889  -3.255  -0.317  1.00  0.00     0.186 HD
ENDROOT
BRANCH   6  10
HETATM   10  C10 UNL     1       3.119   0.646  -0.238  1.00  0.00     0.277 C 
HETATM   11  O3  UNL     1       2.921   1.920  -0.120  1.00  0.00    -0.266 OA
HETATM   12  N4  UNL     1       4.443   0.268  -0.395  1.00  0.00    -0.264 N 
ATOM     13  H4  UNL     1       4.680  -0.719  -0.494  1.00  0.00     0.190 HD
BRANCH  12  14
HETATM   14  N5  UNL     1       5.488   1.261  -0.420  1.00  0.00    -0.283 N 
ATOM     15  H5  UNL     1       5.537   1.935  -1.184  1.00  0.00     0.188 HD
BRANCH  14  16
HETATM   16  C11 UNL     1       6.438   1.295   0.615  1.00  0.00     0.148 C 
HETATM   17  N6  UNL     1       6.071   1.509   1.828  1.00  0.00    -0.385 N 
ATOM     18  H62 UNL     1       5.083   1.654   2.037  1.00  0.00     0.157 HD
ATOM     19  H61 UNL     1       6.761   1.534   2.579  1.00  0.00     0.157 HD
BRANCH  16  20
HETATM   20  C12 UNL     1       7.873   1.084   0.311  1.00  0.00     0.445 C 
BRANCH  20  21
HETATM   21  N7  UNL     1       8.021  -0.237  -0.278  1.00  0.00    -0.043 N 
ATOM     22  H73 UNL     1       7.630  -0.975   0.307  1.00  0.00     0.277 HD
ATOM     23  H72 UNL     1       7.422  -0.375  -1.092  1.00  0.00     0.277 HD
ATOM     24  H71 UNL     1       9.009  -0.382  -0.487  1.00  0.00     0.277 HD
ENDBRANCH  20  21
BRANCH  20  25
HETATM   25  N8  UNL     1       8.370   2.079  -0.618  1.00  0.00    -0.043 N 
ATOM     26  H83 UNL     1       7.808   2.109  -1.469  1.00  0.00     0.277 HD
ATOM     27  H82 UNL     1       8.195   3.025  -0.280  1.00  0.00     0.277 HD
ATOM     28  H81 UNL     1       9.358   1.934  -0.827  1.00  0.00     0.277 HD
ENDBRANCH  20  25
ENDBRANCH  16  20
ENDBRANCH  14  16
ENDBRANCH  12  14
ENDBRANCH   6  10
BRANCH   7  29
HETATM   29  N9  UNL     1       3.110  -2.203  -0.455  1.00  0.00    -0.384 N 
ATOM     30  H92 UNL     1       3.986  -1.682  -0.501  1.00  0.00     0.157 HD
ATOM     31  H91 UNL     1       3.138  -3.220  -0.534  1.00  0.00     0.157 HD
ENDBRANCH   7  29
BRANCH   1  32
HETATM   32  N1  UNL     1      -1.409  -2.432  -0.028  1.00  0.00    -0.192 N 
ATOM     33  H1  UNL     1      -1.259  -3.437  -0.119  1.00  0.00     0.184 HD
BRANCH  32  34
HETATM   34  C6  UNL     1      -2.739  -2.008   0.137  1.00  0.00     0.049 A 
HETATM   35  C5  UNL     1      -3.698  -2.122  -0.848  1.00  0.00     0.031 A 
HETATM   36  C4  UNL     1      -4.991  -1.695  -0.634  1.00  0.00     0.026 A 
HETATM   37  C3  UNL     1      -5.402  -1.136   0.558  1.00  0.00     0.059 A 
HETATM   38  C15 UNL     1      -4.437  -1.024   1.540  1.00  0.00     0.026 A 
HETATM   39  C14 UNL     1      -3.139  -1.446   1.343  1.00  0.00     0.031 A 
BRANCH  37  40
HETATM   40  S1  UNL     1      -7.050  -0.609   0.793  1.00  0.00     0.175 S 
HETATM   41  O1  UNL     1      -7.413  -0.627   2.271  1.00  0.00    -0.223 OA
HETATM   42  O2  UNL     1      -8.040  -1.461   0.095  1.00  0.00    -0.223 OA
BRANCH  40  43
HETATM   43  C2  UNL     1      -7.203   1.106   0.280  1.00  0.00     0.141 C 
HETATM   44  C1  UNL     1      -8.632   1.556   0.487  1.00  0.00     0.021 C 
ENDBRANCH  40  43
ENDBRANCH  37  40
ENDBRANCH  32  34
ENDBRANCH   1  32
TORSDOF 11
