REMARK  8 active torsions:
REMARK  status: ('A' for Active; 'I' for Inactive)
REMARK    1  A    between atoms: C2_2  and  C4_4 
REMARK    2  A    between atoms: C4_4  and  C5_5 
REMARK    3  A    between atoms: C4_4  and  N5_14 
REMARK    4  A    between atoms: C5_5  and  N1_6 
REMARK       I    between atoms: N5_14  and  C7_16 
REMARK    5  A    between atoms: C7_16  and  C8_18 
REMARK    6  A    between atoms: C8_18  and  N6_19 
REMARK    7  A    between atoms: C8_18  and  C9_23 
REMARK    8  A    between atoms: C9_23  and  C10_24 
ROOT
HETATM    1  N5  UNL     1      -1.186  -0.460   0.001  1.00  0.00    -0.353 N 
ATOM      2  H5  UNL     1      -0.697  -0.301   0.882  1.00  0.00     0.163 HD
HETATM    3  C7  UNL     1      -0.434  -0.863  -1.113  1.00  0.00     0.248 C 
HETATM    4  O1  UNL     1      -1.020  -1.062  -2.196  1.00  0.00    -0.271 OA
ENDROOT
BRANCH   1   5
HETATM    5  C4  UNL     1      -2.641  -0.255  -0.034  1.00  0.00     0.109 C 
BRANCH   5   6
HETATM    6  C2  UNL     1      -2.927   1.174   0.180  1.00  0.00     0.002 C 
HETATM    7  C1  UNL     1      -2.550   1.722   1.522  1.00  0.00     0.011 C 
HETATM    8  C3  UNL     1      -4.317   1.597  -0.243  1.00  0.00     0.011 C 
ENDBRANCH   5   6
BRANCH   5   9
HETATM    9  C5  UNL     1      -3.238  -1.282   0.822  1.00  0.00     0.196 C 
BRANCH   9  10
HETATM   10  N1  UNL     1      -4.672  -1.371   0.863  1.00  0.00    -0.217 N 
HETATM   11  N2  UNL     1      -5.423  -2.112   0.049  1.00  0.00    -0.277 N 
HETATM   12  C6  UNL     1      -6.702  -1.976   0.358  1.00  0.00     0.216 A 
ATOM     13  H2  UNL     1      -5.064  -2.699  -0.704  1.00  0.00     0.189 HD
HETATM   14  N3  UNL     1      -6.786  -1.127   1.398  1.00  0.00    -0.279 N 
HETATM   15  N4  UNL     1      -5.541  -0.788   1.669  1.00  0.00    -0.225 N 
ATOM     16  H3  UNL     1      -7.631  -0.813   1.875  1.00  0.00     0.189 HD
ATOM     17  H4  UNL     1      -5.278  -0.147   2.418  1.00  0.00     0.210 HD
ENDBRANCH   9  10
ENDBRANCH   5   9
ENDBRANCH   1   5
BRANCH   3  18
HETATM   18  C8  UNL     1       1.024  -1.052  -1.013  1.00  0.00     0.275 C 
BRANCH  18  19
HETATM   19  N6  UNL     1       1.559  -1.471  -2.315  1.00  0.00    -0.066 N 
ATOM     20  H63 UNL     1       1.088  -2.301  -2.675  1.00  0.00     0.275 HD
ATOM     21  H62 UNL     1       1.306  -0.823  -3.061  1.00  0.00     0.275 HD
ATOM     22  H61 UNL     1       2.568  -1.602  -2.246  1.00  0.00     0.275 HD
ENDBRANCH  18  19
BRANCH  18  23
HETATM   23  C9  UNL     1       1.652   0.224  -0.573  1.00  0.00     0.047 C 
BRANCH  23  24
HETATM   24  C10 UNL     1       3.134   0.189  -0.426  1.00  0.00    -0.012 C 
HETATM   25  C11 UNL     1       3.612   1.553   0.023  1.00  0.00     0.005 C 
HETATM   26  C12 UNL     1       5.081   1.650  -0.237  1.00  0.00     0.000 C 
HETATM   27  C13 UNL     1       5.723   0.296  -0.356  1.00  0.00     0.000 C 
HETATM   28  C14 UNL     1       5.154  -0.657   0.681  1.00  0.00     0.000 C 
HETATM   29  C15 UNL     1       3.665  -0.853   0.480  1.00  0.00     0.005 C 
ENDBRANCH  23  24
ENDBRANCH  18  23
ENDBRANCH   3  18
TORSDOF 8
