REMARK  8 active torsions:
REMARK  status: ('A' for Active; 'I' for Inactive)
REMARK    1  A    between atoms: C2_3  and  N2_4 
REMARK    2  A    between atoms: C2_3  and  C12_19 
REMARK    3  A    between atoms: N2_4  and  C3_6 
REMARK    4  A    between atoms: C9_12  and  N3_13 
REMARK    5  A    between atoms: N3_13  and  O1_14 
REMARK    6  A    between atoms: O1_14  and  C10_15 
REMARK    7  A    between atoms: C10_15  and  C11_16 
REMARK    8  A    between atoms: C12_19  and  C13_21 
ROOT
HETATM    1  N1  UNL     1       1.998   1.124  -3.121  1.00  0.00    -0.195 NA
HETATM    2  C1  UNL     1       2.088   0.828  -1.983  1.00  0.00     0.092 C 
HETATM    3  C2  UNL     1       2.159   0.442  -0.547  1.00  0.00     0.256 C 
ENDROOT
BRANCH   3   4
HETATM    4  N2  UNL     1       0.849   0.331  -0.065  1.00  0.00    -0.390 N 
ATOM      5  H2  UNL     1       0.534   0.928   0.700  1.00  0.00     0.155 HD
BRANCH   4   6
HETATM    6  C3  UNL     1      -0.035  -0.608  -0.638  1.00  0.00     0.141 C 
HETATM    7  C4  UNL     1       0.340  -2.030  -0.646  1.00  0.00     0.032 C 
HETATM    8  C5  UNL     1      -0.424  -2.971   0.213  1.00  0.00     0.002 C 
HETATM    9  C6  UNL     1      -1.894  -3.029   0.037  1.00  0.00     0.000 C 
HETATM   10  C7  UNL     1      -2.692  -2.146   0.951  1.00  0.00     0.007 C 
HETATM   11  C8  UNL     1      -1.822  -0.956   1.398  1.00  0.00     0.073 C 
HETATM   12  C9  UNL     1      -1.319  -0.358   0.102  1.00  0.00     0.117 C 
BRANCH  12  13
HETATM   13  N3  UNL     1      -2.092   0.373  -0.449  1.00  0.00    -0.288 NA
BRANCH  13  14
HETATM   14  O1  UNL     1      -2.764   1.126  -1.134  1.00  0.00    -0.199 OA
BRANCH  14  15
HETATM   15  C10 UNL     1      -3.160   2.500  -0.868  1.00  0.00     0.330 C 
BRANCH  15  16
HETATM   16  C11 UNL     1      -4.640   2.366  -0.519  1.00  0.00     0.201 C 
HETATM   17  O2  UNL     1      -5.356   1.544  -1.097  1.00  0.00    -0.646 OA
HETATM   18  O3  UNL     1      -5.105   3.185   0.447  1.00  0.00    -0.646 OA
ENDBRANCH  15  16
ENDBRANCH  14  15
ENDBRANCH  13  14
ENDBRANCH  12  13
ENDBRANCH   4   6
ENDBRANCH   3   4
BRANCH   3  19
HETATM   19  C12 UNL     1       2.794   1.585   0.144  1.00  0.00     0.167 C 
HETATM   20  O4  UNL     1       2.083   2.593   0.355  1.00  0.00    -0.294 OA
BRANCH  19  21
HETATM   21  C13 UNL     1       4.159   1.641   0.598  1.00  0.00     0.058 A 
HETATM   22  C14 UNL     1       5.193   1.169  -0.470  1.00  0.00     0.013 A 
HETATM   23  C15 UNL     1       4.978   0.391   0.766  1.00  0.00     0.013 A 
ENDBRANCH  19  21
ENDBRANCH   3  19
TORSDOF 8
