REMARK  8 active torsions:
REMARK  status: ('A' for Active; 'I' for Inactive)
REMARK    1  A    between atoms: C1_2  and  C2_3 
REMARK    2  A    between atoms: C1_2  and  C9_11 
REMARK    3  A    between atoms: C2_3  and  C3_4 
REMARK    4  A    between atoms: C3_4  and  C4_5 
REMARK    5  A    between atoms: C4_5  and  C5_6 
REMARK    6  A    between atoms: C4_5  and  C6_8 
REMARK    7  A    between atoms: C9_11  and  O2_12 
REMARK    8  A    between atoms: C9_11  and  N1_14 
ROOT
HETATM    1  O1  UNL     1       0.205  -0.054   1.476  1.00  0.00    -0.294 OA
HETATM    2  C1  UNL     1       0.207  -1.045   0.747  1.00  0.00     0.170 C 
ENDROOT
BRANCH   2   3
HETATM    3  C2  UNL     1      -0.975  -1.811   0.356  1.00  0.00     0.083 C 
BRANCH   3   4
HETATM    4  C3  UNL     1      -2.283  -1.324   0.865  1.00  0.00     0.013 C 
BRANCH   4   5
HETATM    5  C4  UNL     1      -2.637   0.091   0.417  1.00  0.00     0.000 C 
BRANCH   5   6
HETATM    6  C5  UNL     1      -2.699   0.146  -1.096  1.00  0.00     0.091 C 
HETATM    7  S1  UNL     1      -3.078   1.757  -1.761  1.00  0.00    -0.097 SA
ENDBRANCH   5   6
BRANCH   5   8
HETATM    8  C6  UNL     1      -3.948   0.400   1.084  1.00  0.00    -0.010 A 
HETATM    9  C7  UNL     1      -4.682   1.657   0.953  1.00  0.00     0.005 A 
HETATM   10  C8  UNL     1      -5.216   0.452   0.273  1.00  0.00     0.005 A 
ENDBRANCH   5   8
ENDBRANCH   4   5
ENDBRANCH   3   4
ENDBRANCH   2   3
BRANCH   2  11
HETATM   11  C9  UNL     1       1.551  -1.447   0.255  1.00  0.00     0.273 C 
BRANCH  11  12
HETATM   12  O2  UNL     1       1.397  -2.602  -0.509  1.00  0.00    -0.373 OA
ATOM     13  H2  UNL     1       2.256  -2.859  -0.823  1.00  0.00     0.212 HD
ENDBRANCH  11  12
BRANCH  11  14
HETATM   14  N1  UNL     1       2.137  -0.403  -0.567  1.00  0.00    -0.222 NA
HETATM   15  C10 UNL     1       2.368   0.828   0.116  1.00  0.00     0.132 C 
HETATM   16  C11 UNL     1       3.485   1.581  -0.585  1.00  0.00     0.183 C 
HETATM   17  O3  UNL     1       4.636   1.638   0.198  1.00  0.00    -0.389 OA
HETATM   18  C12 UNL     1       5.553   0.739  -0.362  1.00  0.00     0.179 C 
HETATM   19  C13 UNL     1       5.033  -0.648  -0.043  1.00  0.00     0.117 C 
HETATM   20  S2  UNL     1       3.666  -1.047  -1.165  1.00  0.00    -0.078 SA
ENDBRANCH  11  14
ENDBRANCH   2  11
TORSDOF 8
