REMARK  10 active torsions:
REMARK  status: ('A' for Active; 'I' for Inactive)
REMARK    1  A    between atoms: C2_2  and  C3_3 
REMARK    2  A    between atoms: C3_3  and  C4_4 
REMARK    3  A    between atoms: C5_5  and  C6_6 
REMARK    4  A    between atoms: C6_6  and  C7_7 
REMARK    5  A    between atoms: C9_14  and  C10_15 
REMARK    6  A    between atoms: C10_15  and  C11_16 
REMARK    7  A    between atoms: C11_16  and  C12_17 
REMARK    8  A    between atoms: C20_25  and  C21_26 
REMARK    9  A    between atoms: C21_26  and  N2_27 
REMARK       I    between atoms: N2_27  and  C22_29 
REMARK   10  A    between atoms: C22_29  and  C23_31 
ROOT
HETATM    1  C12 UNL     1      -1.482   1.081   0.772  1.00  0.00     0.079 C 
HETATM    2  C13 UNL     1      -0.242   0.277   0.599  1.00  0.00     0.021 C 
HETATM    3  C14 UNL     1       0.980   1.174   0.507  1.00  0.00     0.014 C 
HETATM    4  C15 UNL     1       1.183   1.978   1.748  1.00  0.00     0.089 C 
HETATM    5  C16 UNL     1       2.433   2.791   1.612  1.00  0.00     0.026 C 
HETATM    6  C17 UNL     1       3.621   1.914   1.413  1.00  0.00     0.012 C 
HETATM    7  C18 UNL     1       3.311   0.492   1.102  1.00  0.00    -0.035 C 
HETATM    8  C19 UNL     1       3.140  -0.398   2.302  1.00  0.00     0.016 C 
HETATM    9  C20 UNL     1       4.454  -0.078   0.255  1.00  0.00     0.012 C 
HETATM   10  C26 UNL     1       4.267   0.632  -1.059  1.00  0.00     0.007 C 
HETATM   11  C27 UNL     1       2.768   0.785  -1.198  1.00  0.00     0.006 C 
HETATM   12  C28 UNL     1       2.167   0.348   0.117  1.00  0.00     0.000 C 
HETATM   13  N3  UNL     1       0.004   2.849   1.895  1.00  0.00    -0.356 N 
ATOM     14  H3  UNL     1       0.095   3.839   2.122  1.00  0.00     0.162 HD
HETATM   15  C29 UNL     1      -1.264   2.242   1.705  1.00  0.00     0.222 C 
HETATM   16  O5  UNL     1      -2.261   2.671   2.327  1.00  0.00    -0.273 OA
ENDROOT
BRANCH   1  17
HETATM   17  C11 UNL     1      -2.033   1.677  -0.499  1.00  0.00     0.021 C 
BRANCH  17  18
HETATM   18  C10 UNL     1      -2.396   0.641  -1.527  1.00  0.00     0.079 C 
BRANCH  18  19
HETATM   19  C9  UNL     1      -3.429  -0.288  -0.991  1.00  0.00     0.099 C 
HETATM   20  N1  UNL     1      -3.201  -1.565  -0.892  1.00  0.00    -0.255 N 
HETATM   21  O3  UNL     1      -4.179  -2.417  -0.389  1.00  0.00    -0.275 OA
ATOM     22  H1  UNL     1      -2.300  -1.944  -1.185  1.00  0.00     0.195 HD
HETATM   23  C8  UNL     1      -4.930  -1.906   0.710  1.00  0.00     0.257 C 
HETATM   24  C6  UNL     1      -5.559  -0.601   0.270  1.00  0.00     0.208 C 
HETATM   25  N4  UNL     1      -4.702   0.173  -0.566  1.00  0.00    -0.348 N 
ATOM     26  H4  UNL     1      -5.016   1.094  -0.871  1.00  0.00     0.163 HD
BRANCH  24  27
HETATM   27  C5  UNL     1      -6.794  -0.866  -0.506  1.00  0.00    -0.061 C 
HETATM   28  C4  UNL     1      -7.804  -1.096  -1.123  1.00  0.00    -0.103 C 
BRANCH  28  29
HETATM   29  C3  UNL     1      -9.024  -1.390  -1.876  1.00  0.00     0.093 C 
BRANCH  29  30
HETATM   30  C2  UNL     1     -10.258  -0.884  -1.121  1.00  0.00     0.007 C 
HETATM   31  C1  UNL     1     -11.491  -1.193  -1.903  1.00  0.00     0.006 C 
ENDBRANCH  29  30
ENDBRANCH  28  29
ENDBRANCH  24  27
BRANCH  24  32
HETATM   32  C7  UNL     1      -5.937   0.147   1.511  1.00  0.00     0.218 C 
HETATM   33  O1  UNL     1      -5.481   1.299   1.660  1.00  0.00    -0.645 OA
HETATM   34  O2  UNL     1      -6.753  -0.376   2.476  1.00  0.00    -0.645 OA
ENDBRANCH  24  32
ENDBRANCH  18  19
ENDBRANCH  17  18
ENDBRANCH   1  17
BRANCH   9  35
HETATM   35  C21 UNL     1       5.793   0.180   0.852  1.00  0.00     0.128 C 
BRANCH  35  36
HETATM   36  N2  UNL     1       6.874  -0.347   0.064  1.00  0.00    -0.360 N 
HETATM   37  C22 UNL     1       7.043  -1.713  -0.228  1.00  0.00     0.221 C 
HETATM   38  O4  UNL     1       6.239  -2.580   0.200  1.00  0.00    -0.273 OA
ATOM     39  H2  UNL     1       7.561   0.310  -0.306  1.00  0.00     0.162 HD
BRANCH  37  40
HETATM   40  C23 UNL     1       8.188  -2.208  -1.062  1.00  0.00     0.070 C 
HETATM   41  C24 UNL     1       8.148  -1.584  -2.441  1.00  0.00     0.019 C 
HETATM   42  C25 UNL     1       9.505  -1.922  -0.367  1.00  0.00     0.019 C 
ENDBRANCH  37  40
ENDBRANCH  35  36
ENDBRANCH   9  35
TORSDOF 10
