REMARK  6 active torsions:
REMARK  status: ('A' for Active; 'I' for Inactive)
REMARK    1  A    between atoms: N1_1  and  C1_4 
REMARK       I    between atoms: N4_10  and  C3_12 
REMARK    2  A    between atoms: C3_12  and  O2_14 
REMARK    3  A    between atoms: O2_14  and  C4_15 
REMARK    4  A    between atoms: C4_15  and  C5_16 
REMARK       I    between atoms: C5_16  and  N5_18 
REMARK    5  A    between atoms: N5_18  and  C6_20 
REMARK    6  A    between atoms: C6_20  and  C7_21 
ROOT
HETATM    1  C4  UNL     1       1.395   0.217   1.252  1.00  0.00     0.283 C 
ENDROOT
BRANCH   1   2
HETATM    2  O2  UNL     1       2.383   0.336   0.275  1.00  0.00    -0.294 OA
BRANCH   2   3
HETATM    3  C3  UNL     1       2.957  -0.734  -0.353  1.00  0.00     0.367 C 
HETATM    4  N4  UNL     1       3.944  -0.525  -1.339  1.00  0.00    -0.281 N 
HETATM    5  C2  UNL     1       5.092  -0.039  -0.928  1.00  0.00     0.171 A 
ATOM      6  H4  UNL     1       3.774  -0.741  -2.321  1.00  0.00     0.173 HD
HETATM    7  N3  UNL     1       5.474   0.292   0.303  1.00  0.00    -0.277 N 
HETATM    8  S1  UNL     1       6.487   0.330  -1.848  1.00  0.00    -0.015 SA
HETATM    9  N2  UNL     1       6.652   0.753   0.486  1.00  0.00    -0.278 N 
ATOM     10  H3  UNL     1       4.835   0.179   1.090  1.00  0.00     0.189 HD
HETATM   11  C1  UNL     1       7.464   0.888  -0.564  1.00  0.00     0.160 A 
ATOM     12  H2  UNL     1       6.967   1.014   1.421  1.00  0.00     0.189 HD
HETATM   13  O1  UNL     1       2.623  -1.898  -0.069  1.00  0.00    -0.238 OA
BRANCH  11  14
HETATM   14  N1  UNL     1       8.699   1.340  -0.575  1.00  0.00    -0.379 N 
ATOM     15  H12 UNL     1       9.283   1.673   0.192  1.00  0.00     0.158 HD
ATOM     16  H11 UNL     1       9.320   1.443  -1.378  1.00  0.00     0.158 HD
ENDBRANCH  11  14
ENDBRANCH   2   3
ENDBRANCH   1   2
BRANCH   1  17
HETATM   17  C5  UNL     1       0.175  -0.397   0.665  1.00  0.00     0.242 C 
HETATM   18  O3  UNL     1       0.153  -0.652  -0.545  1.00  0.00    -0.271 OA
HETATM   19  N5  UNL     1      -0.967  -0.698   1.462  1.00  0.00    -0.357 N 
ATOM     20  H5  UNL     1      -0.933  -0.486   2.459  1.00  0.00     0.162 HD
BRANCH  19  21
HETATM   21  C6  UNL     1      -2.147  -1.278   0.936  1.00  0.00     0.148 C 
BRANCH  21  22
HETATM   22  C7  UNL     1      -2.853  -0.438  -0.130  1.00  0.00     0.108 A 
HETATM   23  C8  UNL     1      -4.062  -1.172  -0.572  1.00  0.00     0.100 A 
HETATM   24  C9  UNL     1      -5.309  -0.415  -0.449  1.00  0.00     0.097 A 
HETATM   25  N6  UNL     1      -6.509  -1.097  -0.870  1.00  0.00    -0.087 NA
HETATM   26  N7  UNL     1      -5.376   0.773  -0.005  1.00  0.00    -0.323 N 
HETATM   27  C10 UNL     1      -4.217   1.500   0.427  1.00  0.00     0.189 A 
ATOM     28  H7  UNL     1      -6.288   1.227   0.046  1.00  0.00     0.169 HD
HETATM   29  N8  UNL     1      -4.300   2.830   0.923  1.00  0.00    -0.064 NA
HETATM   30  N9  UNL     1      -3.107   0.877   0.338  1.00  0.00    -0.358 N 
ATOM     31  H9  UNL     1      -2.286   1.398   0.647  1.00  0.00     0.162 HD
ENDBRANCH  21  22
ENDBRANCH  19  21
ENDBRANCH   1  17
TORSDOF 6
