REMARK  7 active torsions:
REMARK  status: ('A' for Active; 'I' for Inactive)
REMARK    1  A    between atoms: C2_2  and  C11_31 
REMARK    2  A    between atoms: N1_3  and  N2_5 
REMARK       I    between atoms: N2_5  and  C3_7 
REMARK    3  A    between atoms: C3_7  and  C4_9 
REMARK    4  A    between atoms: C6_15  and  N6_16 
REMARK    5  A    between atoms: N6_16  and  C7_18 
REMARK    6  A    between atoms: C7_18  and  O2_20 
REMARK    7  A    between atoms: C10_27  and  N10_28 
ROOT
HETATM    1  C4  UNL     1       0.830  -0.517  -0.129  1.00  0.00     0.123 A 
HETATM    2  C5  UNL     1       0.022  -1.289   0.723  1.00  0.00     0.152 A 
HETATM    3  N3  UNL     1       0.658  -2.123   1.686  1.00  0.00    -0.080 NA
HETATM    4  N4  UNL     1      -1.296  -1.207   0.590  1.00  0.00    -0.262 N 
ATOM      5  H4  UNL     1      -1.870  -1.774   1.214  1.00  0.00     0.190 HD
HETATM    6  N5  UNL     1      -1.914  -0.451  -0.284  1.00  0.00    -0.155 N 
HETATM    7  C6  UNL     1      -3.299  -0.420  -0.360  1.00  0.00     0.151 A 
HETATM    8  C8  UNL     1      -3.912   0.374  -1.277  1.00  0.00     0.071 A 
HETATM    9  C9  UNL     1      -3.102   1.149  -2.132  1.00  0.00     0.113 A 
HETATM   10  N8  UNL     1      -1.779   1.064  -1.997  1.00  0.00    -0.287 N 
ATOM     11  H8  UNL     1      -1.188   1.623  -2.613  1.00  0.00     0.188 HD
HETATM   12  N9  UNL     1      -1.199   0.283  -1.095  1.00  0.00    -0.156 N 
HETATM   13  C10 UNL     1       0.174   0.258  -1.027  1.00  0.00     0.160 A 
ENDROOT
BRANCH   1  14
HETATM   14  C3  UNL     1       2.258  -0.587  -0.008  1.00  0.00     0.277 C 
HETATM   15  N2  UNL     1       3.199   0.099  -0.758  1.00  0.00    -0.265 N 
ATOM     16  H2  UNL     1       2.909   0.742  -1.495  1.00  0.00     0.190 HD
HETATM   17  O1  UNL     1       2.708  -1.383   0.907  1.00  0.00    -0.266 OA
BRANCH  15  18
HETATM   18  N1  UNL     1       4.587  -0.112  -0.479  1.00  0.00    -0.297 N 
HETATM   19  C2  UNL     1       5.119   0.569   0.480  1.00  0.00     0.086 C 
HETATM   20  C1  UNL     1       4.340   1.531   1.267  1.00  0.00     0.075 C 
ATOM     21  H1  UNL     1       5.138  -0.779  -1.020  1.00  0.00     0.187 HD
BRANCH  19  22
HETATM   22  C11 UNL     1       6.551   0.327   0.740  1.00  0.00     0.278 C 
HETATM   23  N11 UNL     1       7.311  -0.602  -0.017  1.00  0.00    -0.056 NA
HETATM   24  O3  UNL     1       7.156   0.951   1.662  1.00  0.00    -0.270 OA
ENDBRANCH  19  22
ENDBRANCH  15  18
ENDBRANCH   1  14
BRANCH  13  25
HETATM   25  N10 UNL     1       0.793   1.007  -1.858  1.00  0.00    -0.382 N 
ATOM     26 2H10 UNL     1       1.812   0.988  -1.808  1.00  0.00     0.157 HD
ATOM     27 1H10 UNL     1       0.299   1.590  -2.534  1.00  0.00     0.157 HD
ENDBRANCH  13  25
BRANCH   7  28
HETATM   28  N6  UNL     1      -3.992  -1.234   0.543  1.00  0.00    -0.308 N 
ATOM     29  H6  UNL     1      -3.418  -1.783   1.183  1.00  0.00     0.170 HD
BRANCH  28  30
HETATM   30  C7  UNL     1      -5.373  -1.386   0.674  1.00  0.00     0.230 C 
HETATM   31  N7  UNL     1      -6.327  -0.720  -0.108  1.00  0.00    -0.056 NA
BRANCH  30  32
HETATM   32  O2  UNL     1      -5.798  -2.208   1.593  1.00  0.00    -0.335 OA
ATOM     33  H2  UNL     1      -6.738  -2.311   1.682  1.00  0.00     0.220 HD
ENDBRANCH  30  32
ENDBRANCH  28  30
ENDBRANCH   7  28
TORSDOF 7
