REMARK  9 active torsions:
REMARK  status: ('A' for Active; 'I' for Inactive)
REMARK       I    between atoms: N1_2  and  C2_4 
REMARK    1  A    between atoms: C2_4  and  C3_6 
REMARK    2  A    between atoms: C3_6  and  O2_7 
REMARK    3  A    between atoms: C3_6  and  N2_9 
REMARK    4  A    between atoms: N2_9  and  C4_11 
REMARK    5  A    between atoms: C7_18  and  N5_19 
REMARK    6  A    between atoms: N5_19  and  O3_21 
REMARK    7  A    between atoms: C9_25  and  N7_26 
REMARK    8  A    between atoms: N7_26  and  C10_28 
REMARK    9  A    between atoms: C10_28  and  O4_30 
ROOT
HETATM    1  C4  UNL     1       1.398   0.352  -0.258  1.00  0.00     0.138 A 
HETATM    2  N3  UNL     1       1.602   1.669  -0.252  1.00  0.00    -0.337 N 
ATOM      3  H3  UNL     1       2.556   1.992  -0.410  1.00  0.00     0.168 HD
HETATM    4  C5  UNL     1       0.666   2.604  -0.057  1.00  0.00     0.182 A 
HETATM    5  N4  UNL     1      -0.620   2.258   0.159  1.00  0.00    -0.347 N 
ATOM      6  H4  UNL     1      -1.340   2.965   0.309  1.00  0.00     0.167 HD
HETATM    7  C6  UNL     1      -0.915   0.954   0.169  1.00  0.00     0.111 A 
HETATM    8  C7  UNL     1      -2.242   0.631   0.393  1.00  0.00     0.170 A 
HETATM    9  N6  UNL     1      -2.546  -0.677   0.404  1.00  0.00    -0.173 N 
ATOM     10  H6  UNL     1      -3.512  -0.962   0.565  1.00  0.00     0.186 HD
HETATM   11  C9  UNL     1      -1.607  -1.622   0.208  1.00  0.00     0.682 A 
HETATM   12  N8  UNL     1      -0.288  -1.302  -0.014  1.00  0.00    -0.186 N 
ATOM     13  H8  UNL     1       0.409  -2.032  -0.160  1.00  0.00     0.184 HD
HETATM   14  C12 UNL     1       0.056  -0.016  -0.033  1.00  0.00     0.123 A 
ENDROOT
BRANCH   1  15
HETATM   15  N2  UNL     1       2.413  -0.589  -0.468  1.00  0.00    -0.317 N 
ATOM     16  H2  UNL     1       2.081  -1.553  -0.442  1.00  0.00     0.169 HD
BRANCH  15  17
HETATM   17  C3  UNL     1       3.770  -0.485  -0.703  1.00  0.00     0.211 C 
BRANCH  17  18
HETATM   18  C2  UNL     1       4.594   0.668  -0.811  1.00  0.00     0.292 C 
HETATM   19  N1  UNL     1       6.009   0.490  -1.066  1.00  0.00    -0.358 N 
HETATM   20  C1  UNL     1       6.878   1.627  -1.182  1.00  0.00     0.149 C 
ATOM     21  H1  UNL     1       6.391  -0.451  -1.164  1.00  0.00     0.162 HD
HETATM   22  O1  UNL     1       4.225   1.833  -0.707  1.00  0.00    -0.264 OA
ENDBRANCH  17  18
BRANCH  17  23
HETATM   23  O2  UNL     1       4.418  -1.644  -0.855  1.00  0.00    -0.342 OA
ATOM     24  H2  UNL     1       3.867  -2.415  -0.783  1.00  0.00     0.219 HD
ENDBRANCH  17  23
ENDBRANCH  15  17
ENDBRANCH   1  15
BRANCH   8  25
HETATM   25  N5  UNL     1      -3.152   1.497   0.581  1.00  0.00    -0.248 N 
ATOM     26  H5  UNL     1      -4.099   1.152   0.737  1.00  0.00     0.196 HD
BRANCH  25  27
HETATM   27  O3  UNL     1      -2.973   2.842   0.592  1.00  0.00    -0.284 OA
HETATM   28  C8  UNL     1      -4.106   3.647   0.244  1.00  0.00     0.237 C 
ENDBRANCH  25  27
ENDBRANCH   8  25
BRANCH  11  29
HETATM   29  N7  UNL     1      -1.853  -2.885   0.211  1.00  0.00    -0.200 N 
ATOM     30  H7  UNL     1      -1.063  -3.509   0.051  1.00  0.00     0.180 HD
BRANCH  29  31
HETATM   31  C10 UNL     1      -3.132  -3.498   0.418  1.00  0.00     0.230 C 
HETATM   32  C11 UNL     1      -4.122  -3.243  -0.678  1.00  0.00     0.063 C 
BRANCH  31  33
HETATM   33  O4  UNL     1      -3.596  -3.146   1.685  1.00  0.00    -0.377 OA
ATOM     34  H4  UNL     1      -4.444  -3.552   1.822  1.00  0.00     0.212 HD
ENDBRANCH  31  33
ENDBRANCH  29  31
ENDBRANCH  11  29
TORSDOF 9
