REMARK  8 active torsions:
REMARK  status: ('A' for Active; 'I' for Inactive)
REMARK    1  A    between atoms: O1_2  and  C2_3 
REMARK       I    between atoms: C2_3  and  N1_5 
REMARK    2  A    between atoms: C4_7  and  N2_8 
REMARK    3  A    between atoms: N2_8  and  N3_10 
REMARK    4  A    between atoms: N3_10  and  C5_12 
REMARK    5  A    between atoms: C6_15  and  N5_16 
REMARK    6  A    between atoms: C7_21  and  N7_22 
REMARK    7  A    between atoms: N7_22  and  C8_24 
REMARK    8  A    between atoms: C8_24  and  C10_26 
ROOT
HETATM    1  C5  UNL     1      -0.487  -1.439  -0.166  1.00  0.00     0.726 A 
HETATM    2  N4  UNL     1      -0.424  -2.540   0.600  1.00  0.00    -0.020 N 
ATOM      3  H4  UNL     1       0.423  -3.107   0.557  1.00  0.00     0.203 HD
HETATM    4  C6  UNL     1      -1.404  -2.935   1.414  1.00  0.00     0.705 A 
HETATM    5  N6  UNL     1      -2.513  -2.177   1.460  1.00  0.00    -0.022 N 
ATOM      6  H6  UNL     1      -3.280  -2.452   2.073  1.00  0.00     0.203 HD
HETATM    7  C7  UNL     1      -2.632  -1.070   0.720  1.00  0.00     0.708 A 
HETATM    8  N9  UNL     1      -1.631  -0.701  -0.086  1.00  0.00    -0.020 N 
ATOM      9  H9  UNL     1      -1.724   0.144  -0.649  1.00  0.00     0.203 HD
ENDROOT
BRANCH   1  10
HETATM   10  N3  UNL     1       0.457  -1.055  -0.953  1.00  0.00    -0.129 N 
ATOM     11  H3  UNL     1       0.359  -0.209  -1.515  1.00  0.00     0.205 HD
BRANCH  10  12
HETATM   12  N2  UNL     1       1.616  -1.825  -1.017  1.00  0.00    -0.269 N 
ATOM     13  H2  UNL     1       1.552  -2.828  -1.190  1.00  0.00     0.189 HD
BRANCH  12  14
HETATM   14  C4  UNL     1       2.884  -1.216  -0.842  1.00  0.00     0.154 A 
HETATM   15  C3  UNL     1       3.188   0.107  -0.600  1.00  0.00     0.174 A 
HETATM   16  N1  UNL     1       4.518   0.268  -0.497  1.00  0.00    -0.192 N 
HETATM   17  C2  UNL     1       5.204   1.508  -0.249  1.00  0.00     0.386 C 
HETATM   18  N11 UNL     1       5.051  -0.927  -0.669  1.00  0.00    -0.230 N 
HETATM   19  O2  UNL     1       4.551   2.572  -0.106  1.00  0.00    -0.236 OA
HETATM   20  N10 UNL     1       4.088  -1.836  -0.878  1.00  0.00    -0.268 N 
ATOM     21  H11 UNL     1       6.050  -1.130  -0.646  1.00  0.00     0.209 HD
ATOM     22  H10 UNL     1       4.237  -2.832  -1.038  1.00  0.00     0.190 HD
BRANCH  17  23
HETATM   23  O1  UNL     1       6.581   1.569  -0.160  1.00  0.00    -0.307 OA
HETATM   24  C1  UNL     1       7.187   2.821   0.087  1.00  0.00     0.215 C 
ENDBRANCH  17  23
ENDBRANCH  12  14
ENDBRANCH  10  12
ENDBRANCH   1  10
BRANCH   4  25
HETATM   25  N5  UNL     1      -1.316  -3.997   2.138  1.00  0.00    -0.234 N 
ATOM     26  H52 UNL     1      -0.474  -4.572   2.103  1.00  0.00     0.174 HD
ATOM     27  H51 UNL     1      -2.065  -4.299   2.760  1.00  0.00     0.174 HD
ENDBRANCH   4  25
BRANCH   7  28
HETATM   28  N7  UNL     1      -3.700  -0.376   0.791  1.00  0.00    -0.213 N 
ATOM     29  H7  UNL     1      -4.434  -0.700   1.421  1.00  0.00     0.178 HD
BRANCH  28  30
HETATM   30  C8  UNL     1      -3.944   0.829   0.047  1.00  0.00     0.184 C 
HETATM   31  C9  UNL     1      -4.341   0.494  -1.392  1.00  0.00     0.042 C 
BRANCH  30  32
HETATM   32  C10 UNL     1      -5.110   1.520   0.657  1.00  0.00     0.254 C 
HETATM   33  N8  UNL     1      -5.506   2.756   0.041  1.00  0.00    -0.060 NA
HETATM   34  O3  UNL     1      -5.713   1.052   1.651  1.00  0.00    -0.275 OA
ENDBRANCH  30  32
ENDBRANCH  28  30
ENDBRANCH   7  28
TORSDOF 8
