REMARK  1 active torsions:
REMARK  status: ('A' for Active; 'I' for Inactive)
REMARK    1  A    between atoms: N1_1  and  N2_4 
ROOT
HETATM    1  N2  UNL     1       0.904  -0.123  -0.021  1.00  0.00    -0.159 N 
HETATM    2  C1  UNL     1       0.355   1.103  -0.014  1.00  0.00     0.351 A 
HETATM    3  O1  UNL     1       1.109   2.100  -0.042  1.00  0.00    -0.244 OA
HETATM    4  N3  UNL     1      -0.981   1.265   0.021  1.00  0.00    -0.283 N 
ATOM      5  H3  UNL     1      -1.363   2.211   0.024  1.00  0.00     0.173 HD
HETATM    6  C2  UNL     1      -1.828   0.222   0.052  1.00  0.00     0.183 A 
HETATM    7  S1  UNL     1      -3.456   0.429   0.096  1.00  0.00    -0.040 SA
HETATM    8  N4  UNL     1      -1.279  -1.006   0.046  1.00  0.00    -0.283 N 
ATOM      9  H4  UNL     1      -1.884  -1.827   0.069  1.00  0.00     0.173 HD
HETATM   10  C3  UNL     1       0.058  -1.167   0.010  1.00  0.00     0.351 A 
HETATM   11  O2  UNL     1       0.559  -2.312   0.004  1.00  0.00    -0.244 OA
ENDROOT
BRANCH   1  12
HETATM   12  N1  UNL     1       2.292  -0.253  -0.058  1.00  0.00    -0.330 N 
ATOM     13  H12 UNL     1       2.934   0.539  -0.082  1.00  0.00     0.177 HD
ATOM     14  H11 UNL     1       2.709  -1.184  -0.063  1.00  0.00     0.177 HD
ENDBRANCH   1  12
TORSDOF 1
