REMARK  2 active torsions:
REMARK  status: ('A' for Active; 'I' for Inactive)
REMARK    1  A    between atoms: N1_1  and  C1_4 
REMARK    2  A    between atoms: N3_9  and  N4_10 
ROOT
HETATM    1  C1  UNL     1       1.339   0.014   0.291  1.00  0.00     0.696 A 
HETATM    2  N2  UNL     1       0.918   1.249  -0.090  1.00  0.00    -0.137 N 
ATOM      3  H2  UNL     1       1.490   2.085  -0.210  1.00  0.00     0.189 HD
HETATM    4  C2  UNL     1      -0.397   1.140  -0.274  1.00  0.00     0.380 A 
HETATM    5  O1  UNL     1      -1.181   2.050  -0.628  1.00  0.00    -0.242 OA
HETATM    6  N3  UNL     1      -0.787  -0.130  -0.014  1.00  0.00    -0.065 N 
HETATM    7  N5  UNL     1       0.287  -0.826   0.334  1.00  0.00    -0.102 N 
ATOM      8  H5  UNL     1       0.312  -1.814   0.587  1.00  0.00     0.208 HD
ENDROOT
BRANCH   1   9
HETATM    9  N1  UNL     1       2.571  -0.280   0.565  1.00  0.00    -0.233 N 
ATOM     10  H12 UNL     1       3.368   0.356   0.532  1.00  0.00     0.174 HD
ATOM     11  H11 UNL     1       2.887  -1.207   0.851  1.00  0.00     0.174 HD
ENDBRANCH   1   9
BRANCH   6  12
HETATM   12  N4  UNL     1      -2.101  -0.588  -0.124  1.00  0.00    -0.011 N 
HETATM   13  O2  UNL     1      -2.885  -0.369   0.805  1.00  0.00    -0.515 OA
HETATM   14  O3  UNL     1      -2.437  -1.266  -1.266  1.00  0.00    -0.515 OA
ENDBRANCH   6  12
TORSDOF 2
