REMARK  2 active torsions:
REMARK  status: ('A' for Active; 'I' for Inactive)
REMARK    1  A    between atoms: N1_1  and  N2_4 
REMARK    2  A    between atoms: N2_4  and  C1_6 
ROOT
HETATM    1  C1  UNL     1       0.990  -0.413  -0.040  1.00  0.00     0.714 A 
HETATM    2  N3  UNL     1       0.584   0.840   0.236  1.00  0.00    -0.129 N 
ATOM      3  H3  UNL     1       1.293   1.541   0.451  1.00  0.00     0.205 HD
HETATM    4  N4  UNL     1      -0.687   1.212   0.243  1.00  0.00    -0.269 N 
ATOM      5  H4  UNL     1      -0.922   2.180   0.462  1.00  0.00     0.189 HD
HETATM    6  C2  UNL     1      -1.677   0.341  -0.033  1.00  0.00     0.200 A 
HETATM    7  N5  UNL     1      -3.046   0.688  -0.039  1.00  0.00    -0.075 NA
HETATM    8  C3  UNL     1      -1.275  -0.950  -0.318  1.00  0.00     0.302 A 
HETATM    9  O1  UNL     1      -2.166  -1.799  -0.582  1.00  0.00    -0.264 OA
HETATM   10  N6  UNL     1       0.025  -1.308  -0.319  1.00  0.00    -0.151 N 
ATOM     11  H6  UNL     1       0.281  -2.272  -0.534  1.00  0.00     0.188 HD
ENDROOT
BRANCH   1  12
HETATM   12  N2  UNL     1       2.248  -0.754  -0.040  1.00  0.00    -0.137 N 
ATOM     13  H2  UNL     1       2.508  -1.716  -0.256  1.00  0.00     0.205 HD
BRANCH  12  14
HETATM   14  N1  UNL     1       3.241   0.176   0.250  1.00  0.00    -0.331 N 
ATOM     15  H12 UNL     1       2.964   1.134   0.464  1.00  0.00     0.177 HD
ATOM     16  H11 UNL     1       4.225  -0.091   0.250  1.00  0.00     0.177 HD
ENDBRANCH  12  14
ENDBRANCH   1  12
TORSDOF 2
