REMARK  1 active torsions:
REMARK  status: ('A' for Active; 'I' for Inactive)
REMARK    1  A    between atoms: N2_6  and  N3_7 
ROOT
HETATM    1  N1  UNL     1       2.785  -0.300   0.107  1.00  0.00    -0.082 NA
HETATM    2  C1  UNL     1       1.374  -0.148   0.052  1.00  0.00     0.125 A 
HETATM    3  C2  UNL     1       0.692   0.486   1.073  1.00  0.00     0.121 A 
HETATM    4  C3  UNL     1      -0.693   0.624   1.000  1.00  0.00     0.273 A 
HETATM    5  O1  UNL     1      -1.272   1.209   1.952  1.00  0.00    -0.266 OA
HETATM    6  N2  UNL     1      -1.351   0.138  -0.066  1.00  0.00    -0.175 N 
HETATM    7  C4  UNL     1      -0.670  -0.468  -1.035  1.00  0.00     0.349 A 
HETATM    8  O2  UNL     1      -1.326  -0.911  -2.021  1.00  0.00    -0.244 OA
HETATM    9  N4  UNL     1       0.682  -0.622  -1.000  1.00  0.00    -0.295 N 
ATOM     10  H4  UNL     1       1.166  -1.093  -1.765  1.00  0.00     0.172 HD
ENDROOT
BRANCH   6  11
HETATM   11  N3  UNL     1      -2.739   0.280  -0.135  1.00  0.00    -0.332 N 
ATOM     12  H32 UNL     1      -3.261   0.745   0.608  1.00  0.00     0.177 HD
ATOM     13  H31 UNL     1      -3.238  -0.089  -0.944  1.00  0.00     0.177 HD
ENDBRANCH   6  11
TORSDOF 1
