REMARK  3 active torsions:
REMARK  status: ('A' for Active; 'I' for Inactive)
REMARK    1  A    between atoms: C4_7  and  N3_8 
REMARK    2  A    between atoms: C5_13  and  N5_14 
REMARK    3  A    between atoms: N5_14  and  N6_16 
ROOT
HETATM    1  C1  UNL     1       1.655  -1.923  -0.962  1.00  0.00     0.074 C 
HETATM    2  C2  UNL     1       0.616  -0.966  -0.523  1.00  0.00     0.068 A 
HETATM    3  N1  UNL     1      -0.679  -1.144  -0.862  1.00  0.00    -0.285 N 
ATOM      4  H1  UNL     1      -0.975  -1.939  -1.428  1.00  0.00     0.187 HD
HETATM    5  N2  UNL     1      -1.549  -0.245  -0.430  1.00  0.00    -0.128 N 
HETATM    6  C3  UNL     1      -2.965  -0.397  -0.773  1.00  0.00     0.197 C 
HETATM    7  C4  UNL     1      -1.189   0.815   0.318  1.00  0.00     0.694 A 
HETATM    8  N4  UNL     1       0.114   1.011   0.671  1.00  0.00    -0.172 N 
ATOM      9  H4  UNL     1       0.395   1.811   1.238  1.00  0.00     0.186 HD
HETATM   10  C5  UNL     1       1.018   0.105   0.241  1.00  0.00     0.159 A 
ENDROOT
BRANCH  10  11
HETATM   11  N5  UNL     1       2.260   0.222   0.531  1.00  0.00    -0.290 N 
ATOM     12  H5  UNL     1       2.903  -0.488   0.182  1.00  0.00     0.188 HD
BRANCH  11  13
HETATM   13  N6  UNL     1       2.782   1.256   1.291  1.00  0.00    -0.344 N 
ATOM     14  H62 UNL     1       2.125   1.957   1.632  1.00  0.00     0.176 HD
ATOM     15  H61 UNL     1       3.771   1.349   1.522  1.00  0.00     0.176 HD
ENDBRANCH  11  13
ENDBRANCH  10  11
BRANCH   7  16
HETATM   16  N3  UNL     1      -2.084   1.637   0.695  1.00  0.00    -0.233 N 
ATOM     17  H32 UNL     1      -3.058   1.490   0.431  1.00  0.00     0.174 HD
ATOM     18  H31 UNL     1      -1.811   2.440   1.262  1.00  0.00     0.174 HD
ENDBRANCH   7  16
TORSDOF 3
