REMARK  2 active torsions:
REMARK  status: ('A' for Active; 'I' for Inactive)
REMARK    1  A    between atoms: N1_1  and  C1_4 
REMARK    2  A    between atoms: N6_15  and  O1_16 
ROOT
HETATM    1  C1  UNL     1      -1.388  -0.792   0.637  1.00  0.00     0.694 A 
HETATM    2  N2  UNL     1      -0.414  -1.609   0.200  1.00  0.00    -0.170 N 
ATOM      3  H2  UNL     1      -0.524  -2.621   0.257  1.00  0.00     0.186 HD
HETATM    4  C2  UNL     1       0.722  -1.066  -0.320  1.00  0.00     0.186 A 
HETATM    5  N3  UNL     1       1.847  -1.596  -0.828  1.00  0.00    -0.267 N 
ATOM      6  H3  UNL     1       2.054  -2.591  -0.915  1.00  0.00     0.190 HD
HETATM    7  N4  UNL     1       2.634  -0.610  -1.193  1.00  0.00    -0.239 N 
ATOM      8  H4  UNL     1       3.555  -0.738  -1.611  1.00  0.00     0.208 HD
HETATM    9  N5  UNL     1       2.086   0.567  -0.952  1.00  0.00    -0.265 N 
ATOM     10  H5  UNL     1       2.488   1.485  -1.141  1.00  0.00     0.190 HD
HETATM   11  C3  UNL     1       0.887   0.301  -0.405  1.00  0.00     0.214 A 
HETATM   12  N6  UNL     1      -0.106   1.086   0.040  1.00  0.00    -0.127 N 
HETATM   13  N7  UNL     1      -1.184   0.533   0.534  1.00  0.00    -0.104 N 
ATOM     14  H7  UNL     1      -1.924   1.152   0.865  1.00  0.00     0.208 HD
ENDROOT
BRANCH   1  15
HETATM   15  N1  UNL     1      -2.487  -1.293   1.140  1.00  0.00    -0.233 N 
ATOM     16  H12 UNL     1      -2.642  -2.298   1.218  1.00  0.00     0.174 HD
ATOM     17  H11 UNL     1      -3.226  -0.673   1.472  1.00  0.00     0.174 HD
ENDBRANCH   1  15
BRANCH  12  18
HETATM   18  O1  UNL     1       0.084   2.448  -0.056  1.00  0.00    -0.266 OA
ATOM     19  H1  UNL     1      -0.619   3.004   0.259  1.00  0.00     0.247 HD
ENDBRANCH  12  18
TORSDOF 2
