REMARK  16 active torsions:
REMARK  status: ('A' for Active; 'I' for Inactive)
REMARK    1  A    between atoms: O1_2  and  C2_3 
REMARK    2  A    between atoms: C2_3  and  C5_19 
REMARK    3  A    between atoms: N1_4  and  N2_6 
REMARK       I    between atoms: N2_6  and  C3_8 
REMARK       I    between atoms: C3_8  and  N3_10 
REMARK    4  A    between atoms: N3_10  and  S1_12 
REMARK    5  A    between atoms: S1_12  and  N4_15 
REMARK    6  A    between atoms: N4_15  and  O4_17 
REMARK    7  A    between atoms: C5_19  and  O5_20 
REMARK    8  A    between atoms: C5_19  and  C6_22 
REMARK    9  A    between atoms: C9_30  and  O8_31 
REMARK   10  A    between atoms: C9_30  and  N6_33 
REMARK   11  A    between atoms: C11_37  and  N8_38 
REMARK   12  A    between atoms: C13_45  and  S2_46 
REMARK   13  A    between atoms: S2_46  and  S3_47 
REMARK   14  A    between atoms: S3_47  and  C14_48 
REMARK   15  A    between atoms: C15_49  and  S4_50 
REMARK   16  A    between atoms: S4_50  and  S5_51 
ROOT
HETATM    1  C6  UNL     1      -0.151  -0.117  -0.121  1.00  0.00     0.180 C 
HETATM    2  O6  UNL     1      -1.058  -0.265   0.923  1.00  0.00    -0.344 OA
HETATM    3  C7  UNL     1      -2.019  -1.203   0.714  1.00  0.00     0.411 C 
HETATM    4  N5  UNL     1      -2.880  -0.644  -0.361  1.00  0.00    -0.014 N 
ATOM      5  H51 UNL     1      -3.160   0.331  -0.253  1.00  0.00     0.283 HD
ATOM      6  H52 UNL     1      -3.838  -0.993  -0.398  1.00  0.00     0.283 HD
HETATM    7  C8  UNL     1      -2.049  -0.945  -1.498  1.00  0.00     0.346 C 
HETATM    8  O7  UNL     1      -1.588  -2.261  -1.277  1.00  0.00    -0.299 OA
HETATM    9  C9  UNL     1      -1.623  -2.489   0.082  1.00  0.00     0.313 C 
HETATM   10  C13 UNL     1      -0.817  -0.063  -1.451  1.00  0.00     0.147 C 
ENDROOT
BRANCH   1  11
HETATM   11  C5  UNL     1       0.682   1.129   0.217  1.00  0.00     0.224 C 
BRANCH  11  12
HETATM   12  C2  UNL     1       1.898   1.222  -0.627  1.00  0.00     0.164 C 
HETATM   13  N1  UNL     1       3.041   1.251  -0.178  1.00  0.00    -0.277 N 
ATOM     14  H1  UNL     1       3.668   1.316  -0.980  1.00  0.00     0.189 HD
BRANCH  12  15
HETATM   15  O1  UNL     1       1.776   1.283  -2.035  1.00  0.00    -0.341 OA
HETATM   16  C1  UNL     1       2.920   1.665  -2.818  1.00  0.00     0.211 C 
ENDBRANCH  12  15
BRANCH  13  17
HETATM   17  N2  UNL     1       3.807   1.234   0.902  1.00  0.00    -0.249 N 
HETATM   18  C3  UNL     1       5.238   1.152   0.744  1.00  0.00     0.347 C 
HETATM   19  O2  UNL     1       5.714   1.100  -0.398  1.00  0.00    -0.245 OA
HETATM   20  N3  UNL     1       6.065   1.131   1.876  1.00  0.00    -0.250 N 
ATOM     21  H3  UNL     1       5.656   1.172   2.810  1.00  0.00     0.182 HD
ATOM     22  H2  UNL     1       3.391   1.278   1.832  1.00  0.00     0.192 HD
BRANCH  20  23
HETATM   23  S1  UNL     1       7.765   1.036   1.685  1.00  0.00     0.129 S 
HETATM   24  C4  UNL     1       8.156  -0.424   0.754  1.00  0.00     0.162 C 
HETATM   25  O3  UNL     1       8.481   1.064   2.985  1.00  0.00    -0.227 OA
BRANCH  23  26
HETATM   26  N4  UNL     1       8.286   2.267   0.845  1.00  0.00    -0.211 N 
ATOM     27  H4  UNL     1       7.700   2.722   0.145  1.00  0.00     0.205 HD
BRANCH  26  28
HETATM   28  O4  UNL     1       9.571   2.699   1.102  1.00  0.00    -0.281 OA
ATOM     29  H4  UNL     1       9.885   3.440   0.597  1.00  0.00     0.245 HD
ENDBRANCH  26  28
ENDBRANCH  23  26
ENDBRANCH  20  23
ENDBRANCH  13  17
ENDBRANCH  11  12
BRANCH  11  30
HETATM   30  O5  UNL     1       1.184   0.964   1.532  1.00  0.00    -0.385 OA
ATOM     31  H5  UNL     1       0.405   0.904   2.073  1.00  0.00     0.210 HD
ENDBRANCH  11  30
ENDBRANCH   1  11
BRANCH  10  32
HETATM   32  S2  UNL     1      -1.168   1.515  -2.155  1.00  0.00    -0.079 SA
BRANCH  32  33
HETATM   33  S3  UNL     1      -2.634   2.691  -1.277  1.00  0.00    -0.037 SA
BRANCH  33  34
HETATM   34  C14 UNL     1      -4.223   2.383  -2.020  1.00  0.00     0.106 A 
HETATM   35  C15 UNL     1      -5.428   2.864  -1.829  1.00  0.00     0.113 A 
HETATM   36  C17 UNL     1      -5.959   2.009  -2.873  1.00  0.00     0.266 A 
HETATM   37  O10 UNL     1      -7.080   1.778  -3.414  1.00  0.00    -0.267 OA
HETATM   38  N10 UNL     1      -4.652   1.511  -3.056  1.00  0.00    -0.315 N 
ATOM     39  H10 UNL     1      -4.208   0.824  -3.666  1.00  0.00     0.170 HD
BRANCH  35  40
HETATM   40  S4  UNL     1      -6.267   4.061  -0.785  1.00  0.00    -0.050 SA
BRANCH  40  41
HETATM   41  S5  UNL     1      -4.931   5.004   0.550  1.00  0.00    -0.097 SA
HETATM   42  C16 UNL     1      -4.806   4.078   2.121  1.00  0.00     0.103 C 
ENDBRANCH  40  41
ENDBRANCH  35  40
ENDBRANCH  33  34
ENDBRANCH  32  33
ENDBRANCH  10  32
BRANCH   9  43
HETATM   43  O8  UNL     1      -0.441  -3.011   0.609  1.00  0.00    -0.345 OA
ATOM     44  H8  UNL     1      -0.188  -3.833   0.205  1.00  0.00     0.215 HD
ENDBRANCH   9  43
BRANCH   9  45
HETATM   45  N6  UNL     1      -2.629  -3.519   0.363  1.00  0.00    -0.234 N 
HETATM   46  C10 UNL     1      -2.765  -3.965   1.627  1.00  0.00     0.210 A 
HETATM   47  N7  UNL     1      -3.663  -4.907   1.968  1.00  0.00    -0.188 N 
HETATM   48  C11 UNL     1      -4.467  -5.439   1.031  1.00  0.00     0.680 A 
ATOM     49  H7  UNL     1      -3.734  -5.217   2.937  1.00  0.00     0.185 HD
HETATM   50  N9  UNL     1      -4.333  -4.996  -0.231  1.00  0.00    -0.141 N 
HETATM   51  C12 UNL     1      -3.424  -4.042  -0.579  1.00  0.00     0.346 A 
ATOM     52  H9  UNL     1      -4.934  -5.389  -0.955  1.00  0.00     0.189 HD
HETATM   53  O9  UNL     1      -3.372  -3.692  -1.781  1.00  0.00    -0.246 OA
BRANCH  48  54
HETATM   54  N8  UNL     1      -5.348  -6.358   1.344  1.00  0.00    -0.234 N 
ATOM     55  H82 UNL     1      -5.450  -6.694   2.302  1.00  0.00     0.174 HD
ATOM     56  H81 UNL     1      -5.958  -6.762   0.633  1.00  0.00     0.174 HD
ENDBRANCH  48  54
ENDBRANCH   9  45
TORSDOF 16
