REMARK  22 active torsions:
REMARK  status: ('A' for Active; 'I' for Inactive)
REMARK    1  A    between atoms: O1_2  and  C2_3 
REMARK    2  A    between atoms: C2_3  and  O3_5 
REMARK    3  A    between atoms: O3_5  and  C3_6 
REMARK    4  A    between atoms: C3_6  and  O4_7 
REMARK    5  A    between atoms: O4_7  and  C4_8 
REMARK    6  A    between atoms: C4_8  and  C5_9 
REMARK    7  A    between atoms: C4_8  and  C7_14 
REMARK    8  A    between atoms: C5_9  and  O5_10 
REMARK    9  A    between atoms: O5_10  and  C6_11 
REMARK   10  A    between atoms: C7_14  and  O7_15 
REMARK   11  A    between atoms: C7_14  and  C8_17 
REMARK   12  A    between atoms: C8_17  and  C9_18 
REMARK   13  A    between atoms: C8_17  and  N9_48 
REMARK   14  A    between atoms: C9_18  and  O8_19 
REMARK   15  A    between atoms: C9_18  and  N3_29 
REMARK   16  A    between atoms: O8_19  and  C10_20 
REMARK   17  A    between atoms: C10_20  and  O10_22 
REMARK   18  A    between atoms: O10_22  and  C11_23 
REMARK   19  A    between atoms: C11_23  and  N2_25 
REMARK   20  A    between atoms: C16_36  and  O11_37 
REMARK   21  A    between atoms: C19_49  and  N10_50 
REMARK   22  A    between atoms: N10_50  and  O12_52 
ROOT
HETATM    1  C8  UNL     1      -0.002  -0.486  -0.067  1.00  0.00     0.094 C 
ENDROOT
BRANCH   1   2
HETATM    2  C7  UNL     1       1.100   0.352  -0.511  1.00  0.00     0.200 C 
BRANCH   2   3
HETATM    3  C4  UNL     1       2.452  -0.384  -0.653  1.00  0.00     0.183 C 
BRANCH   3   4
HETATM    4  O4  UNL     1       3.399   0.515  -1.156  1.00  0.00    -0.356 OA
BRANCH   4   5
HETATM    5  C3  UNL     1       3.755   0.080  -2.446  1.00  0.00     0.350 C 
BRANCH   5   6
HETATM    6  O3  UNL     1       4.695   0.873  -3.093  1.00  0.00    -0.272 OA
BRANCH   6   7
HETATM    7  C2  UNL     1       5.974   1.127  -2.698  1.00  0.00     0.408 C 
HETATM    8  O2  UNL     1       6.402   0.613  -1.654  1.00  0.00    -0.229 OA
BRANCH   7   9
HETATM    9  O1  UNL     1       6.833   1.961  -3.445  1.00  0.00    -0.303 OA
HETATM   10  C1  UNL     1       8.161   2.202  -3.001  1.00  0.00     0.215 C 
ENDBRANCH   7   9
ENDBRANCH   6   7
ENDBRANCH   5   6
ENDBRANCH   4   5
ENDBRANCH   3   4
BRANCH   3  11
HETATM   11  C5  UNL     1       2.931  -0.933   0.632  1.00  0.00     0.215 C 
BRANCH  11  12
HETATM   12  O5  UNL     1       3.079  -0.144   1.727  1.00  0.00    -0.304 OA
BRANCH  12  13
HETATM   13  C6  UNL     1       3.878   0.901   1.986  1.00  0.00     0.372 C 
HETATM   14  N1  UNL     1       3.845   1.592   3.248  1.00  0.00    -0.032 NA
HETATM   15  O6  UNL     1       4.684   1.301   1.118  1.00  0.00    -0.242 OA
ENDBRANCH  12  13
ENDBRANCH  11  12
ENDBRANCH   3  11
ENDBRANCH   2   3
BRANCH   2  16
HETATM   16  O7  UNL     1       0.948   0.841  -1.842  1.00  0.00    -0.387 OA
ATOM     17  H7  UNL     1       0.117   1.293  -1.755  1.00  0.00     0.210 HD
ENDBRANCH   2  16
ENDBRANCH   1   2
BRANCH   1  18
HETATM   18  C9  UNL     1      -1.346   0.189   0.117  1.00  0.00     0.303 C 
BRANCH  18  19
HETATM   19  O8  UNL     1      -2.330  -0.725   0.540  1.00  0.00    -0.265 OA
BRANCH  19  20
HETATM   20  C10 UNL     1      -3.392  -1.220  -0.123  1.00  0.00     0.410 C 
HETATM   21  O9  UNL     1      -3.536  -0.819  -1.277  1.00  0.00    -0.229 OA
BRANCH  20  22
HETATM   22  O10 UNL     1      -4.312  -2.129   0.390  1.00  0.00    -0.265 OA
BRANCH  22  23
HETATM   23  C11 UNL     1      -5.369  -2.540  -0.453  1.00  0.00     0.326 C 
HETATM   24  C12 UNL     1      -6.653  -2.210   0.300  1.00  0.00     0.071 C 
BRANCH  23  25
HETATM   25  N2  UNL     1      -5.331  -3.998  -0.603  1.00  0.00    -0.053 N 
ATOM     26  H23 UNL     1      -4.424  -4.329  -0.931  1.00  0.00     0.277 HD
ATOM     27  H22 UNL     1      -5.344  -4.479   0.296  1.00  0.00     0.277 HD
ATOM     28  H21 UNL     1      -6.094  -4.295  -1.211  1.00  0.00     0.277 HD
ENDBRANCH  23  25
ENDBRANCH  22  23
ENDBRANCH  20  22
ENDBRANCH  19  20
ENDBRANCH  18  19
BRANCH  18  29
HETATM   29  N3  UNL     1      -1.393   1.421   0.810  1.00  0.00    -0.255 N 
HETATM   30  C13 UNL     1      -0.881   1.491   2.167  1.00  0.00     0.184 C 
HETATM   31  C14 UNL     1      -0.078   2.702   2.472  1.00  0.00     0.240 A 
HETATM   32  N4  UNL     1      -0.109   3.745   1.468  1.00  0.00    -0.057 N 
HETATM   33  C15 UNL     1      -0.662   3.927   2.807  1.00  0.00     0.267 A 
ATOM     34  H42 UNL     1       0.571   4.223   0.877  1.00  0.00     0.278 HD
ATOM     35  H41 UNL     1      -0.445   3.840   0.510  1.00  0.00     0.278 HD
HETATM   36  C16 UNL     1      -2.118   4.131   2.964  1.00  0.00     0.267 C 
HETATM   37  N5  UNL     1      -2.659   4.379   1.625  1.00  0.00    -0.194 N 
HETATM   38  C17 UNL     1      -2.512   3.706   0.376  1.00  0.00     0.717 A 
ATOM     39  H5  UNL     1      -3.263   5.199   1.576  1.00  0.00     0.180 HD
HETATM   40  N6  UNL     1      -2.939   4.298  -0.752  1.00  0.00    -0.183 N 
HETATM   41  N8  UNL     1      -1.975   2.475   0.094  1.00  0.00    -0.019 N 
HETATM   42  C18 UNL     1      -2.672   3.440  -1.751  1.00  0.00     0.217 A 
ATOM     43  H6  UNL     1      -3.378   5.215  -0.834  1.00  0.00     0.185 HD
HETATM   44  N7  UNL     1      -2.102   2.375  -1.210  1.00  0.00    -0.260 N 
ATOM     45  H7  UNL     1      -1.795   1.564  -1.747  1.00  0.00     0.190 HD
BRANCH  36  46
HETATM   46  O11 UNL     1      -2.441   5.265   3.715  1.00  0.00    -0.374 OA
ATOM     47  H11 UNL     1      -3.376   5.396   3.816  1.00  0.00     0.212 HD
ENDBRANCH  36  46
ENDBRANCH  18  29
ENDBRANCH   1  18
BRANCH   1  48
HETATM   48  N9  UNL     1      -0.192  -1.788  -0.663  1.00  0.00    -0.144 N 
HETATM   49  C19 UNL     1      -0.264  -2.195  -1.937  1.00  0.00     0.709 A 
HETATM   50  N11 UNL     1      -0.476  -3.539  -2.029  1.00  0.00    -0.187 N 
HETATM   51  C20 UNL     1      -0.546  -4.016  -0.802  1.00  0.00     0.077 A 
ATOM     52  H11 UNL     1      -0.564  -4.077  -2.891  1.00  0.00     0.184 HD
HETATM   53  C21 UNL     1      -0.751  -5.297  -0.328  1.00  0.00     0.032 A 
HETATM   54  C25 UNL     1      -0.377  -2.969   0.027  1.00  0.00     0.084 A 
HETATM   55  C22 UNL     1      -0.788  -5.541   1.015  1.00  0.00     0.002 A 
HETATM   56  C23 UNL     1      -0.619  -4.491   1.880  1.00  0.00     0.002 A 
HETATM   57  C24 UNL     1      -0.415  -3.219   1.387  1.00  0.00     0.033 A 
BRANCH  49  58
HETATM   58  N10 UNL     1      -0.183  -1.507  -2.995  1.00  0.00    -0.098 N 
ATOM     59  H10 UNL     1      -0.044  -0.504  -2.873  1.00  0.00     0.213 HD
BRANCH  58  60
HETATM   60  O12 UNL     1      -0.260  -1.954  -4.275  1.00  0.00    -0.276 OA
ATOM     61  H12 UNL     1      -0.199  -1.437  -5.070  1.00  0.00     0.245 HD
ENDBRANCH  58  60
ENDBRANCH  49  58
ENDBRANCH   1  48
TORSDOF 22
