REMARK  12 active torsions:
REMARK  status: ('A' for Active; 'I' for Inactive)
REMARK    1  A    between atoms: C2_2  and  C4_16 
REMARK    2  A    between atoms: N1_3  and  N2_5 
REMARK       I    between atoms: N2_5  and  C3_7 
REMARK       I    between atoms: C3_7  and  N4_11 
REMARK    3  A    between atoms: N4_11  and  N5_13 
REMARK    4  A    between atoms: C4_16  and  N6_17 
REMARK    5  A    between atoms: C4_16  and  O4_28 
REMARK    6  A    between atoms: N6_17  and  N7_19 
REMARK    7  A    between atoms: N7_19  and  O3_20 
REMARK    8  A    between atoms: N7_19  and  C5_22 
REMARK    9  A    between atoms: O4_28  and  C8_29 
REMARK   10  A    between atoms: C8_29  and  C9_31 
REMARK   11  A    between atoms: C9_31  and  N10_35 
REMARK   12  A    between atoms: N10_35  and  N11_37 
ROOT
HETATM    1  C4  UNL     1      -0.110   0.461   0.545  1.00  0.00     0.296 C 
ENDROOT
BRANCH   1   2
HETATM    2  C2  UNL     1      -1.380  -0.127   0.060  1.00  0.00     0.050 C 
HETATM    3  C1  UNL     1      -1.358  -0.951  -1.176  1.00  0.00     0.070 C 
HETATM    4  N1  UNL     1      -2.468   0.077   0.699  1.00  0.00    -0.291 N 
ATOM      5  H1  UNL     1      -2.446   0.649   1.543  1.00  0.00     0.187 HD
BRANCH   4   6
HETATM    6  N2  UNL     1      -3.684  -0.458   0.277  1.00  0.00    -0.131 N 
HETATM    7  C3  UNL     1      -3.919  -1.840   0.499  1.00  0.00     0.709 C 
HETATM    8  N3  UNL     1      -3.150  -2.551   1.236  1.00  0.00    -0.232 N 
HETATM    9  N4  UNL     1      -5.042  -2.441  -0.118  1.00  0.00    -0.071 N 
ATOM     10  H32 UNL     1      -2.341  -2.118   1.681  1.00  0.00     0.174 HD
ATOM     11  H31 UNL     1      -3.319  -3.544   1.396  1.00  0.00     0.174 HD
ATOM     12  H4  UNL     1      -4.926  -2.911  -1.016  1.00  0.00     0.212 HD
ATOM     13  H2  UNL     1      -4.385   0.127  -0.178  1.00  0.00     0.205 HD
BRANCH   9  14
HETATM   14  N5  UNL     1      -6.296  -2.404   0.472  1.00  0.00    -0.024 N 
HETATM   15  O1  UNL     1      -6.691  -1.429   1.173  1.00  0.00    -0.516 OA
HETATM   16  O2  UNL     1      -7.217  -3.436   0.339  1.00  0.00    -0.516 OA
ENDBRANCH   9  14
ENDBRANCH   4   6
ENDBRANCH   1   2
BRANCH   1  17
HETATM   17  N6  UNL     1       0.823  -0.595   0.823  1.00  0.00    -0.274 N 
ATOM     18  H6  UNL     1       0.533  -1.560   0.668  1.00  0.00     0.186 HD
BRANCH  17  19
HETATM   19  N7  UNL     1       2.125  -0.346   1.302  1.00  0.00    -0.141 N 
BRANCH  19  20
HETATM   20  O3  UNL     1       2.238   0.462   2.236  1.00  0.00    -0.266 OA
ATOM     21  H3  UNL     1       3.116   0.630   2.559  1.00  0.00     0.247 HD
ENDBRANCH  19  20
BRANCH  19  22
HETATM   22  C5  UNL     1       3.210  -1.027   0.693  1.00  0.00     0.185 C 
HETATM   23  N8  UNL     1       3.643  -2.185   0.952  1.00  0.00    -0.367 N 
HETATM   24  C6  UNL     1       4.742  -2.712   0.242  1.00  0.00     0.132 C 
ATOM     25  H8  UNL     1       3.195  -2.743   1.679  1.00  0.00     0.161 HD
HETATM   26  C7  UNL     1       5.637  -1.603  -0.276  1.00  0.00     0.102 C 
HETATM   27  S1  UNL     1       4.275  -0.397  -0.612  1.00  0.00    -0.089 SA
ENDBRANCH  19  22
ENDBRANCH  17  19
ENDBRANCH   1  17
BRANCH   1  28
HETATM   28  O4  UNL     1       0.400   1.399  -0.382  1.00  0.00    -0.282 OA
BRANCH  28  29
HETATM   29  C8  UNL     1       0.599   2.711   0.005  1.00  0.00     0.330 C 
HETATM   30  O5  UNL     1       0.328   3.067   1.176  1.00  0.00    -0.256 OA
BRANCH  29  31
HETATM   31  C9  UNL     1       1.125   3.675  -0.956  1.00  0.00     0.190 C 
HETATM   32  N9  UNL     1       1.413   3.342  -2.163  1.00  0.00    -0.379 N 
ATOM     33  H92 UNL     1       1.264   2.372  -2.442  1.00  0.00     0.158 HD
ATOM     34  H91 UNL     1       1.781   4.016  -2.835  1.00  0.00     0.158 HD
BRANCH  31  35
HETATM   35  N10 UNL     1       1.334   5.032  -0.565  1.00  0.00    -0.287 N 
ATOM     36  H10 UNL     1       2.193   5.521  -0.817  1.00  0.00     0.188 HD
BRANCH  35  37
HETATM   37  N11 UNL     1       0.338   5.674   0.169  1.00  0.00    -0.343 N 
ATOM     38 2H11 UNL     1      -0.515   5.171   0.413  1.00  0.00     0.176 HD
ATOM     39 1H11 UNL     1       0.487   6.644   0.448  1.00  0.00     0.176 HD
ENDBRANCH  35  37
ENDBRANCH  31  35
ENDBRANCH  29  31
ENDBRANCH  28  29
ENDBRANCH   1  28
TORSDOF 12
