REMARK  11 active torsions:
REMARK  status: ('A' for Active; 'I' for Inactive)
REMARK    1  A    between atoms: C2_2  and  N1_3 
REMARK    2  A    between atoms: N1_3  and  C3_6 
REMARK    3  A    between atoms: C3_6  and  C4_7 
REMARK    4  A    between atoms: C4_7  and  C5_8 
REMARK    5  A    between atoms: C5_8  and  C6_9 
REMARK    6  A    between atoms: C6_9  and  C7_10 
REMARK    7  A    between atoms: C7_10  and  N2_11 
REMARK    8  A    between atoms: N2_11  and  C8_12 
REMARK    9  A    between atoms: C9_15  and  N4_16 
REMARK   10  A    between atoms: C11_22  and  N6_23 
REMARK   11  A    between atoms: C12_28  and  N8_29 
ROOT
HETATM    1  C8  UNL     1      -1.969  -0.636  -0.574  1.00  0.00     0.217 A 
HETATM    2  N3  UNL     1      -2.058  -1.956  -0.225  1.00  0.00    -0.163 N 
ATOM      3  H3  UNL     1      -1.280  -2.569  -0.468  1.00  0.00     0.187 HD
HETATM    4  C9  UNL     1      -3.097  -2.489   0.412  1.00  0.00     0.678 A 
HETATM    5  N5  UNL     1      -4.141  -1.707   0.747  1.00  0.00    -0.186 N 
ATOM      6  H5  UNL     1      -4.936  -2.121   1.234  1.00  0.00     0.184 HD
HETATM    7  C10 UNL     1      -4.162  -0.405   0.458  1.00  0.00     0.125 A 
HETATM    8  C11 UNL     1      -5.246   0.405   0.812  1.00  0.00     0.144 A 
HETATM    9  N7  UNL     1      -5.181   1.700   0.486  1.00  0.00    -0.175 N 
ATOM     10  H7  UNL     1      -5.956   2.316   0.731  1.00  0.00     0.186 HD
HETATM   11  C12 UNL     1      -4.115   2.207  -0.158  1.00  0.00     0.678 A 
HETATM   12  N9  UNL     1      -3.047   1.447  -0.516  1.00  0.00    -0.185 N 
ATOM     13  H9  UNL     1      -2.251   1.857  -1.005  1.00  0.00     0.184 HD
HETATM   14  C13 UNL     1      -3.069   0.140  -0.208  1.00  0.00     0.138 A 
ENDROOT
BRANCH   1  15
HETATM   15  N2  UNL     1      -0.975  -0.263  -1.148  1.00  0.00    -0.428 NA
BRANCH  15  16
HETATM   16  C7  UNL     1      -0.054   0.479  -1.773  1.00  0.00     0.220 C 
BRANCH  16  17
HETATM   17  C6  UNL     1       1.279   0.467  -0.978  1.00  0.00     0.033 C 
BRANCH  17  18
HETATM   18  C5  UNL     1       1.711  -0.980  -0.931  1.00  0.00     0.004 C 
BRANCH  18  19
HETATM   19  C4  UNL     1       3.022  -1.164  -0.184  1.00  0.00     0.027 C 
BRANCH  19  20
HETATM   20  C3  UNL     1       4.139  -0.403  -0.821  1.00  0.00     0.232 C 
BRANCH  20  21
HETATM   21  N1  UNL     1       5.395  -0.552  -0.147  1.00  0.00    -0.075 N 
ATOM     22  H12 UNL     1       6.169  -0.209  -0.716  1.00  0.00     0.277 HD
ATOM     23  H11 UNL     1       5.672  -1.532  -0.082  1.00  0.00     0.277 HD
BRANCH  21  24
HETATM   24  C2  UNL     1       5.369   0.082   1.155  1.00  0.00     0.228 C 
HETATM   25  C1  UNL     1       5.280   1.576   1.062  1.00  0.00     0.034 C 
ENDBRANCH  21  24
ENDBRANCH  20  21
ENDBRANCH  19  20
ENDBRANCH  18  19
ENDBRANCH  17  18
ENDBRANCH  16  17
ENDBRANCH  15  16
ENDBRANCH   1  15
BRANCH   4  26
HETATM   26  N4  UNL     1      -3.118  -3.767   0.715  1.00  0.00    -0.234 N 
ATOM     27  H42 UNL     1      -2.327  -4.359   0.461  1.00  0.00     0.174 HD
ATOM     28  H41 UNL     1      -3.915  -4.176   1.203  1.00  0.00     0.174 HD
ENDBRANCH   4  26
BRANCH   8  29
HETATM   29  N6  UNL     1      -6.231  -0.135   1.423  1.00  0.00    -0.383 N 
ATOM     30  H62 UNL     1      -6.281  -1.123   1.672  1.00  0.00     0.157 HD
ATOM     31  H61 UNL     1      -7.021   0.456   1.681  1.00  0.00     0.157 HD
ENDBRANCH   8  29
BRANCH  11  32
HETATM   32  N8  UNL     1      -4.045   3.465  -0.476  1.00  0.00    -0.234 N 
ATOM     33  H82 UNL     1      -4.847   4.035  -0.207  1.00  0.00     0.174 HD
ATOM     34  H81 UNL     1      -3.236   3.850  -0.965  1.00  0.00     0.174 HD
ENDBRANCH  11  32
TORSDOF 11
