REMARK  6 active torsions:
REMARK  status: ('A' for Active; 'I' for Inactive)
REMARK    1  A    between atoms: C2_2  and  C3_3 
REMARK    2  A    between atoms: C3_3  and  C4_4 
REMARK    3  A    between atoms: C4_4  and  C5_5 
REMARK    4  A    between atoms: C5_5  and  C6_6 
REMARK    5  A    between atoms: C6_6  and  N1_7 
REMARK       I    between atoms: N1_7  and  C7_9 
REMARK    6  A    between atoms: C7_9  and  C8_11 
REMARK       I    between atoms: N2_15  and  C12_16 
ROOT
HETATM    1  N1  UNL     1       0.245  -0.673  -0.113  1.00  0.00    -0.360 N 
ATOM      2  H1  UNL     1       0.270  -1.463  -0.758  1.00  0.00     0.162 HD
HETATM    3  C7  UNL     1      -0.950  -0.376   0.570  1.00  0.00     0.227 C 
HETATM    4  O1  UNL     1      -0.960   0.600   1.359  1.00  0.00    -0.273 OA
ENDROOT
BRANCH   3   5
HETATM    5  C8  UNL     1      -2.197  -1.152   0.408  1.00  0.00     0.055 C 
HETATM    6  C9  UNL     1      -2.046  -2.591   0.789  1.00  0.00     0.027 C 
HETATM    7  C10 UNL     1      -2.637  -1.119  -1.053  1.00  0.00     0.040 C 
HETATM    8  C11 UNL     1      -4.059  -0.607  -0.972  1.00  0.00     0.128 C 
HETATM    9  N2  UNL     1      -4.018   0.244   0.213  1.00  0.00    -0.335 N 
HETATM   10  C12 UNL     1      -4.547   1.533   0.400  1.00  0.00     0.330 C 
HETATM   11  C13 UNL     1      -3.296  -0.534   1.200  1.00  0.00     0.146 C 
HETATM   12  N3  UNL     1      -4.402   2.199   1.637  1.00  0.00    -0.040 NA
HETATM   13  O2  UNL     1      -5.151   2.080  -0.558  1.00  0.00    -0.251 OA
ENDBRANCH   3   5
BRANCH   1  14
HETATM   14  C6  UNL     1       1.421   0.109   0.080  1.00  0.00     0.122 C 
BRANCH  14  15
HETATM   15  C5  UNL     1       2.596  -0.356  -0.731  1.00  0.00     0.020 C 
BRANCH  15  16
HETATM   16  C4  UNL     1       3.758   0.588  -0.403  1.00  0.00     0.005 C 
BRANCH  16  17
HETATM   17  C3  UNL     1       4.993   0.222  -1.155  1.00  0.00     0.026 C 
BRANCH  17  18
HETATM   18  C2  UNL     1       6.079   1.159  -0.810  1.00  0.00    -0.037 C 
HETATM   19  C1  UNL     1       5.864   2.135   0.041  1.00  0.00     0.007 C 
ENDBRANCH  17  18
ENDBRANCH  16  17
ENDBRANCH  15  16
ENDBRANCH  14  15
ENDBRANCH   1  14
TORSDOF 6
