REMARK  9 active torsions:
REMARK  status: ('A' for Active; 'I' for Inactive)
REMARK    1  A    between atoms: C2_2  and  C3_3 
REMARK    2  A    between atoms: C2_2  and  C8_8 
REMARK    3  A    between atoms: C4_4  and  C5_5 
REMARK    4  A    between atoms: C5_5  and  C6_6 
REMARK    5  A    between atoms: C9_9  and  C10_10 
REMARK    6  A    between atoms: C11_11  and  C12_12 
REMARK    7  A    between atoms: C12_12  and  O1_13 
REMARK    8  A    between atoms: C13_15  and  C14_16 
REMARK    9  A    between atoms: C14_16  and  N1_17 
REMARK       I    between atoms: N1_17  and  C15_19 
ROOT
HETATM    1  C8  UNL     1      -0.155  -0.327   0.374  1.00  0.00     0.041 A 
HETATM    2  C9  UNL     1      -1.454   0.356   0.500  1.00  0.00     0.024 A 
HETATM    3  C13 UNL     1      -1.421  -1.078   0.047  1.00  0.00     0.021 A 
ENDROOT
BRANCH   1   4
HETATM    4  C2  UNL     1       0.825  -0.081  -0.670  1.00  0.00    -0.009 C 
HETATM    5  C1  UNL     1       0.661  -0.475  -1.902  1.00  0.00     0.029 C 
BRANCH   4   6
HETATM    6  C3  UNL     1       2.058   0.625  -0.343  1.00  0.00    -0.072 C 
HETATM    7  C4  UNL     1       3.084   1.192  -0.063  1.00  0.00    -0.101 C 
BRANCH   7   8
HETATM    8  C5  UNL     1       4.335   1.856   0.287  1.00  0.00     0.094 C 
BRANCH   8   9
HETATM    9  C6  UNL     1       5.368   0.830   0.772  1.00  0.00     0.007 C 
HETATM   10  C7  UNL     1       6.660   1.521   1.132  1.00  0.00     0.006 C 
ENDBRANCH   8   9
ENDBRANCH   7   8
ENDBRANCH   4   6
ENDBRANCH   1   4
BRANCH   2  11
HETATM   11  C10 UNL     1      -2.016   1.293  -0.469  1.00  0.00    -0.023 C 
HETATM   12  C11 UNL     1      -1.396   2.332  -0.993  1.00  0.00    -0.005 C 
BRANCH  12  13
HETATM   13  C12 UNL     1      -2.031   3.247  -1.978  1.00  0.00     0.191 C 
BRANCH  13  14
HETATM   14  O1  UNL     1      -2.047   4.531  -1.455  1.00  0.00    -0.397 OA
ATOM     15  H1  UNL     1      -2.453   5.116  -2.084  1.00  0.00     0.209 HD
ENDBRANCH  13  14
ENDBRANCH  12  13
ENDBRANCH   2  11
BRANCH   3  16
HETATM   16  C14 UNL     1      -1.888  -2.155   1.006  1.00  0.00     0.128 C 
BRANCH  16  17
HETATM   17  N1  UNL     1      -3.121  -2.762   0.517  1.00  0.00    -0.361 N 
HETATM   18  C15 UNL     1      -3.771  -3.807   1.240  1.00  0.00     0.213 C 
HETATM   19  C16 UNL     1      -5.022  -4.384   0.692  1.00  0.00     0.117 C 
HETATM   20  O2  UNL     1      -3.301  -4.245   2.330  1.00  0.00    -0.274 OA
ATOM     21  H1  UNL     1      -3.527  -2.433  -0.359  1.00  0.00     0.162 HD
ENDBRANCH  16  17
ENDBRANCH   3  16
TORSDOF 9
