REMARK  7 active torsions:
REMARK  status: ('A' for Active; 'I' for Inactive)
REMARK    1  A    between atoms: C2_2  and  C3_3 
REMARK    2  A    between atoms: C3_3  and  N1_4 
REMARK       I    between atoms: N1_4  and  C5_6 
REMARK       I    between atoms: C5_6  and  N2_8 
REMARK    3  A    between atoms: N2_8  and  C6_10 
REMARK    4  A    between atoms: C6_10  and  C7_11 
REMARK    5  A    between atoms: C7_11  and  C8_12 
REMARK    6  A    between atoms: C8_12  and  N3_13 
REMARK       I    between atoms: N3_13  and  C9_15 
REMARK    7  A    between atoms: C9_15  and  C10_17 
ROOT
HETATM    1  C6  UNL     1       0.565   0.443   1.813  1.00  0.00     0.126 C 
ENDROOT
BRANCH   1   2
HETATM    2  N2  UNL     1       1.395  -0.176   0.818  1.00  0.00    -0.343 N 
HETATM    3  C5  UNL     1       2.626   0.352   0.365  1.00  0.00     0.318 C 
HETATM    4  N1  UNL     1       3.371  -0.337  -0.623  1.00  0.00    -0.335 N 
HETATM    5  O1  UNL     1       3.041   1.426   0.848  1.00  0.00    -0.247 OA
HETATM    6  C4  UNL     1       2.913  -1.586  -1.204  1.00  0.00     0.154 C 
ATOM      7  H2  UNL     1       1.075  -1.055   0.411  1.00  0.00     0.164 HD
BRANCH   4   8
HETATM    8  C3  UNL     1       4.632   0.212  -1.082  1.00  0.00     0.153 C 
BRANCH   8   9
HETATM    9  C2  UNL     1       5.787  -0.250  -0.300  1.00  0.00    -0.017 C 
HETATM   10  C1  UNL     1       5.587  -1.086   0.709  1.00  0.00     0.008 C 
ENDBRANCH   8   9
ENDBRANCH   4   8
ENDBRANCH   1   2
BRANCH   1  11
HETATM   11  C7  UNL     1       0.093   1.836   1.401  1.00  0.00     0.039 C 
BRANCH  11  12
HETATM   12  C8  UNL     1      -0.704   1.727   0.121  1.00  0.00     0.124 C 
BRANCH  12  13
HETATM   13  N3  UNL     1      -1.866   0.880   0.274  1.00  0.00    -0.360 N 
HETATM   14  C9  UNL     1      -2.721   0.669  -0.829  1.00  0.00     0.225 C 
HETATM   15  O2  UNL     1      -2.485   1.208  -1.941  1.00  0.00    -0.273 OA
ATOM     16  H3  UNL     1      -2.066   0.439   1.172  1.00  0.00     0.162 HD
BRANCH  14  17
HETATM   17  C10 UNL     1      -3.909  -0.203  -0.656  1.00  0.00     0.030 C 
HETATM   18  C11 UNL     1      -4.667  -0.282  -1.949  1.00  0.00     0.024 C 
HETATM   19  C12 UNL     1      -3.502  -1.606  -0.225  1.00  0.00     0.024 C 
HETATM   20  C13 UNL     1      -4.762   0.448   0.433  1.00  0.00     0.024 C 
ENDBRANCH  14  17
ENDBRANCH  12  13
ENDBRANCH  11  12
ENDBRANCH   1  11
TORSDOF 7
