REMARK  6 active torsions:
REMARK  status: ('A' for Active; 'I' for Inactive)
REMARK    1  A    between atoms: C2_2  and  C3_3 
REMARK    2  A    between atoms: C3_3  and  C4_4 
REMARK    3  A    between atoms: C4_4  and  C5_5 
REMARK    4  A    between atoms: C5_5  and  C6_6 
REMARK       I    between atoms: C6_6  and  N1_8 
REMARK    5  A    between atoms: C9_11  and  C11_13 
REMARK    6  A    between atoms: C11_13  and  N2_14 
REMARK       I    between atoms: N2_14  and  C12_16 
ROOT
HETATM    1  C6  UNL     1       1.038  -0.018  -0.519  1.00  0.00     0.219 C 
HETATM    2  O1  UNL     1       1.398  -0.632  -1.579  1.00  0.00    -0.273 OA
HETATM    3  N1  UNL     1      -0.315  -0.086  -0.138  1.00  0.00    -0.351 N 
HETATM    4  C7  UNL     1      -0.898   0.538   1.019  1.00  0.00     0.126 C 
HETATM    5  C8  UNL     1      -2.062  -0.299   1.429  1.00  0.00     0.032 C 
HETATM    6  C9  UNL     1      -2.458  -1.026   0.186  1.00  0.00    -0.010 C 
HETATM    7  C10 UNL     1      -2.486  -2.520   0.463  1.00  0.00     0.018 C 
HETATM    8  C13 UNL     1      -1.365  -0.790  -0.831  1.00  0.00     0.136 C 
ENDROOT
BRANCH   1   9
HETATM    9  C5  UNL     1       1.978   0.748   0.307  1.00  0.00     0.103 C 
BRANCH   9  10
HETATM   10  C4  UNL     1       3.397   0.721  -0.128  1.00  0.00     0.009 C 
BRANCH  10  11
HETATM   11  C3  UNL     1       4.054  -0.614  -0.166  1.00  0.00     0.000 C 
BRANCH  11  12
HETATM   12  C2  UNL     1       5.496  -0.383  -0.640  1.00  0.00    -0.005 C 
HETATM   13  C1  UNL     1       6.191   0.540   0.339  1.00  0.00     0.005 C 
ENDBRANCH  11  12
ENDBRANCH  10  11
ENDBRANCH   9  10
ENDBRANCH   1   9
BRANCH   6  14
HETATM   14  C11 UNL     1      -3.816  -0.661  -0.337  1.00  0.00     0.134 C 
BRANCH  14  15
HETATM   15  N2  UNL     1      -3.962   0.723  -0.676  1.00  0.00    -0.345 N 
HETATM   16  C12 UNL     1      -5.193   1.210  -1.182  1.00  0.00     0.328 C 
HETATM   17  N3  UNL     1      -5.368   2.576  -1.526  1.00  0.00    -0.040 NA
HETATM   18  O2  UNL     1      -6.178   0.443  -1.344  1.00  0.00    -0.251 OA
ATOM     19  H2  UNL     1      -3.176   1.361  -0.553  1.00  0.00     0.163 HD
ENDBRANCH  14  15
ENDBRANCH   6  14
TORSDOF 6
