REMARK  11 active torsions:
REMARK  status: ('A' for Active; 'I' for Inactive)
REMARK    1  A    between atoms: C3_3  and  C4_4 
REMARK    2  A    between atoms: C4_4  and  C5_5 
REMARK    3  A    between atoms: C5_5  and  C6_6 
REMARK    4  A    between atoms: C6_6  and  C7_7 
REMARK    5  A    between atoms: C8_8  and  C9_9 
REMARK    6  A    between atoms: C9_9  and  C10_10 
REMARK    7  A    between atoms: C10_10  and  C11_11 
REMARK    8  A    between atoms: C11_11  and  C12_12 
REMARK    9  A    between atoms: C13_13  and  C14_14 
REMARK   10  A    between atoms: C14_14  and  C15_15 
REMARK   11  A    between atoms: C15_15  and  N1_16 
ROOT
HETATM    1  C1  UNL     1       7.978   0.466  -0.899  1.00  0.00     0.112 C 
HETATM    2  C2  UNL     1       6.944  -0.114  -0.041  1.00  0.00    -0.111 C 
HETATM    3  C3  UNL     1       6.090  -0.573   0.677  1.00  0.00    -0.107 C 
ENDROOT
BRANCH   3   4
HETATM    4  C4  UNL     1       5.043  -1.110   1.556  1.00  0.00     0.095 C 
BRANCH   4   5
HETATM    5  C5  UNL     1       4.626  -0.027   2.547  1.00  0.00     0.024 C 
BRANCH   5   6
HETATM    6  C6  UNL     1       4.102   1.149   1.752  1.00  0.00     0.095 C 
BRANCH   6   7
HETATM    7  C7  UNL     1       2.951   0.643   0.975  1.00  0.00    -0.107 C 
HETATM    8  C8  UNL     1       2.012   0.212   0.350  1.00  0.00    -0.107 C 
BRANCH   8   9
HETATM    9  C9  UNL     1       0.867  -0.326  -0.389  1.00  0.00     0.095 C 
BRANCH   9  10
HETATM   10  C10 UNL     1       0.534   0.629  -1.543  1.00  0.00     0.024 C 
BRANCH  10  11
HETATM   11  C11 UNL     1      -0.639   0.124  -2.339  1.00  0.00     0.095 C 
BRANCH  11  12
HETATM   12  C12 UNL     1      -1.795   0.022  -1.452  1.00  0.00    -0.106 C 
HETATM   13  C13 UNL     1      -2.723  -0.063  -0.715  1.00  0.00    -0.105 C 
BRANCH  13  14
HETATM   14  C14 UNL     1      -3.833  -0.165   0.199  1.00  0.00     0.113 C 
BRANCH  14  15
HETATM   15  C15 UNL     1      -5.127   0.259  -0.452  1.00  0.00     0.134 C 
BRANCH  15  16
HETATM   16  N1  UNL     1      -6.177   0.124   0.537  1.00  0.00    -0.366 N 
HETATM   17  C16 UNL     1      -7.406  -0.119   0.195  1.00  0.00     0.196 C 
HETATM   18  N2  UNL     1      -8.445  -0.254   1.144  1.00  0.00    -0.067 NA
HETATM   19  N3  UNL     1      -7.730  -0.254  -1.183  1.00  0.00    -0.067 NA
ATOM     20  H1  UNL     1      -5.945   0.222   1.526  1.00  0.00     0.161 HD
ENDBRANCH  15  16
ENDBRANCH  14  15
ENDBRANCH  13  14
ENDBRANCH  11  12
ENDBRANCH  10  11
ENDBRANCH   9  10
ENDBRANCH   8   9
ENDBRANCH   6   7
ENDBRANCH   5   6
ENDBRANCH   4   5
ENDBRANCH   3   4
TORSDOF 11
