REMARK  3 active torsions:
REMARK  status: ('A' for Active; 'I' for Inactive)
REMARK    1  A    between atoms: C2_2  and  O1_3 
REMARK    2  A    between atoms: O1_3  and  C3_4 
REMARK    3  A    between atoms: N1_5  and  N2_7 
ROOT
HETATM    1  N2  UNL     1       0.016  -0.094   0.178  1.00  0.00    -0.327 N 
HETATM    2  C4  UNL     1      -0.768   0.228   1.348  1.00  0.00     0.142 C 
HETATM    3  C5  UNL     1      -2.210  -0.136   1.172  1.00  0.00     0.021 C 
HETATM    4  C6  UNL     1      -2.830   0.852   0.210  1.00  0.00     0.002 C 
HETATM    5  C7  UNL     1      -2.830   0.213  -1.157  1.00  0.00     0.002 C 
HETATM    6  C8  UNL     1      -1.442   0.280  -1.756  1.00  0.00     0.021 C 
HETATM    7  C9  UNL     1      -0.475  -0.649  -1.060  1.00  0.00     0.142 C 
ENDROOT
BRANCH   1   8
HETATM    8  N1  UNL     1       1.381   0.158   0.262  1.00  0.00    -0.292 N 
HETATM    9  C3  UNL     1       2.059  -0.225   1.291  1.00  0.00     0.248 C 
ATOM     10  H1  UNL     1       1.851   0.651  -0.497  1.00  0.00     0.188 HD
BRANCH   9  11
HETATM   11  O1  UNL     1       3.418   0.068   1.293  1.00  0.00    -0.318 OA
BRANCH  11  12
HETATM   12  C2  UNL     1       4.115   0.158   0.098  1.00  0.00     0.133 C 
HETATM   13  C1  UNL     1       5.075  -0.690  -0.205  1.00  0.00     0.038 C 
ENDBRANCH  11  12
ENDBRANCH   9  11
ENDBRANCH   1   8
TORSDOF 3
