REMARK  4 active torsions:
REMARK  status: ('A' for Active; 'I' for Inactive)
REMARK    1  A    between atoms: C2_2  and  N2_6 
REMARK    2  A    between atoms: N2_6  and  N3_8 
REMARK    3  A    between atoms: C3_10  and  C5_12 
REMARK    4  A    between atoms: C10_18  and  N4_19 
ROOT
HETATM    1  N3  UNL     1       1.098   0.490  -0.376  1.00  0.00    -0.303 N 
ATOM      2  H3  UNL     1       0.823   1.102   0.392  1.00  0.00     0.186 HD
HETATM    3  C3  UNL     1       0.188  -0.301  -0.833  1.00  0.00     0.037 C 
HETATM    4  C4  UNL     1       0.530  -1.198  -1.931  1.00  0.00     0.070 C 
ENDROOT
BRANCH   3   5
HETATM    5  C5  UNL     1      -1.126  -0.239  -0.214  1.00  0.00     0.052 A 
HETATM    6  C6  UNL     1      -2.276  -0.966  -0.506  1.00  0.00     0.064 A 
HETATM    7  C7  UNL     1      -2.370  -2.004  -1.568  1.00  0.00     0.077 C 
HETATM    8  O1  UNL     1      -3.254  -0.581   0.312  1.00  0.00    -0.317 OA
HETATM    9  C8  UNL     1      -2.870   0.336   1.124  1.00  0.00     0.083 A 
HETATM   10  C9  UNL     1      -3.638   1.034   2.187  1.00  0.00     0.079 C 
HETATM   11  C10 UNL     1      -1.523   0.590   0.832  1.00  0.00     0.146 A 
BRANCH  11  12
HETATM   12  N4  UNL     1      -0.706   1.545   1.499  1.00  0.00    -0.112 N 
HETATM   13  O2  UNL     1       0.162   1.292   2.333  1.00  0.00    -0.532 OA
HETATM   14  O3  UNL     1      -0.909   2.887   1.192  1.00  0.00    -0.532 OA
ENDBRANCH  11  12
ENDBRANCH   3   5
BRANCH   1  15
HETATM   15  N2  UNL     1       2.389   0.599  -0.806  1.00  0.00    -0.290 N 
ATOM     16  H2  UNL     1       2.602   0.543  -1.802  1.00  0.00     0.188 HD
BRANCH  15  17
HETATM   17  C2  UNL     1       3.430   0.789   0.131  1.00  0.00     0.085 C 
HETATM   18  C1  UNL     1       4.445  -0.285   0.373  1.00  0.00     0.090 C 
HETATM   19  N1  UNL     1       3.551   1.896   0.820  1.00  0.00    -0.388 N 
ATOM     20  H12 UNL     1       4.302   2.033   1.496  1.00  0.00     0.157 HD
ATOM     21  H11 UNL     1       2.860   2.628   0.655  1.00  0.00     0.157 HD
ENDBRANCH  15  17
ENDBRANCH   1  15
TORSDOF 4
