REMARK  6 active torsions:
REMARK  status: ('A' for Active; 'I' for Inactive)
REMARK    1  A    between atoms: S1_2  and  C2_3 
REMARK    2  A    between atoms: C2_3  and  N2_8 
REMARK    3  A    between atoms: N1_4  and  O1_6 
REMARK    4  A    between atoms: N2_8  and  N3_10 
REMARK    5  A    between atoms: C3_12  and  C4_13 
REMARK    6  A    between atoms: C8_17  and  N4_18 
ROOT
HETATM    1  N3  UNL     1      -0.588  -1.268  -1.418  1.00  0.00    -0.309 N 
ATOM      2  H3  UNL     1      -0.963  -2.126  -1.822  1.00  0.00     0.186 HD
HETATM    3  C3  UNL     1       0.549  -1.440  -0.940  1.00  0.00     0.118 C 
ENDROOT
BRANCH   1   4
HETATM    4  N2  UNL     1      -1.454  -0.236  -1.539  1.00  0.00    -0.279 N 
ATOM      5  H2  UNL     1      -1.238   0.506  -2.204  1.00  0.00     0.189 HD
BRANCH   4   6
HETATM    6  C2  UNL     1      -2.663  -0.140  -0.772  1.00  0.00     0.178 C 
HETATM    7  N1  UNL     1      -3.477  -1.122  -0.673  1.00  0.00    -0.246 N 
ATOM      8  H1  UNL     1      -4.317  -0.982  -0.111  1.00  0.00     0.196 HD
BRANCH   6   9
HETATM    9  S1  UNL     1      -3.037   1.381   0.060  1.00  0.00    -0.095 SA
HETATM   10  C1  UNL     1      -4.594   1.221   0.935  1.00  0.00     0.099 C 
ENDBRANCH   6   9
BRANCH   7  11
HETATM   11  O1  UNL     1      -3.308  -2.342  -1.261  1.00  0.00    -0.288 OA
ATOM     12  H1  UNL     1      -3.912  -3.071  -1.187  1.00  0.00     0.244 HD
ENDBRANCH   7  11
ENDBRANCH   4   6
ENDBRANCH   1   4
BRANCH   3  13
HETATM   13  C4  UNL     1       1.405  -0.475  -0.282  1.00  0.00    -0.017 A 
HETATM   14  C5  UNL     1       1.066   0.841  -0.082  1.00  0.00     0.013 A 
HETATM   15  C6  UNL     1       1.921   1.746   0.559  1.00  0.00     0.003 A 
HETATM   16  C7  UNL     1       3.152   1.340   1.017  1.00  0.00     0.036 A 
HETATM   17  C8  UNL     1       3.523   0.034   0.833  1.00  0.00     0.103 A 
HETATM   18  C9  UNL     1       2.670  -0.828   0.206  1.00  0.00     0.048 A 
BRANCH  17  19
HETATM   19  N4  UNL     1       4.812  -0.415   1.307  1.00  0.00    -0.116 N 
HETATM   20  O2  UNL     1       5.569   0.398   1.877  1.00  0.00    -0.532 OA
HETATM   21  O3  UNL     1       5.130  -1.722   1.099  1.00  0.00    -0.532 OA
ENDBRANCH  17  19
ENDBRANCH   3  13
TORSDOF 6
