REMARK  5 active torsions:
REMARK  status: ('A' for Active; 'I' for Inactive)
REMARK    1  A    between atoms: N1_2  and  C1_4 
REMARK    2  A    between atoms: C4_7  and  C5_8 
REMARK    3  A    between atoms: C5_8  and  O3_9 
REMARK    4  A    between atoms: N2_11  and  O4_13 
REMARK    5  A    between atoms: C7_16  and  N3_17 
ROOT
HETATM    1  C1  UNL     1       0.222   1.670   0.564  1.00  0.00     0.130 A 
HETATM    2  C2  UNL     1      -1.087   2.166   0.575  1.00  0.00     0.039 A 
HETATM    3  C3  UNL     1      -2.122   1.300   0.297  1.00  0.00     0.018 A 
HETATM    4  C4  UNL     1      -1.920  -0.036   0.009  1.00  0.00     0.019 A 
HETATM    5  C6  UNL     1      -0.605  -0.469   0.013  1.00  0.00     0.048 A 
HETATM    6  C7  UNL     1       0.473   0.340   0.282  1.00  0.00     0.072 A 
ENDROOT
BRANCH   4   7
HETATM    7  C5  UNL     1      -3.000  -0.945  -0.282  1.00  0.00     0.170 C 
HETATM    8  N2  UNL     1      -2.782  -2.171  -0.546  1.00  0.00    -0.247 N 
ATOM      9  H2  UNL     1      -1.825  -2.524  -0.554  1.00  0.00     0.196 HD
BRANCH   7  10
HETATM   10  O3  UNL     1      -4.302  -0.446  -0.267  1.00  0.00    -0.344 OA
ATOM     11  H3  UNL     1      -5.014  -1.045  -0.459  1.00  0.00     0.219 HD
ENDBRANCH   7  10
BRANCH   8  12
HETATM   12  O4  UNL     1      -3.838  -3.035  -0.824  1.00  0.00    -0.288 OA
ATOM     13  H4  UNL     1      -3.675  -3.950  -1.021  1.00  0.00     0.244 HD
ENDBRANCH   8  12
ENDBRANCH   4   7
BRANCH   6  14
HETATM   14  N3  UNL     1       1.764  -0.233   0.255  1.00  0.00    -0.331 N 
HETATM   15  C8  UNL     1       2.443  -0.491  -0.871  1.00  0.00     0.097 A 
HETATM   16  C9  UNL     1       3.655  -1.047  -0.465  1.00  0.00     0.019 A 
HETATM   17  C10 UNL     1       3.684  -1.115   0.926  1.00  0.00     0.019 A 
HETATM   18  C11 UNL     1       2.472  -0.591   1.344  1.00  0.00     0.097 A 
ENDBRANCH   6  14
BRANCH   1  19
HETATM   19  N1  UNL     1       1.303   2.543   0.849  1.00  0.00    -0.113 N 
HETATM   20  O1  UNL     1       1.072   3.524   1.581  1.00  0.00    -0.532 OA
HETATM   21  O2  UNL     1       2.557   2.346   0.358  1.00  0.00    -0.532 OA
ENDBRANCH   1  19
TORSDOF 5
