REMARK  4 active torsions:
REMARK  status: ('A' for Active; 'I' for Inactive)
REMARK    1  A    between atoms: C4_6  and  N2_7 
REMARK       I    between atoms: N2_7  and  C5_9 
REMARK    2  A    between atoms: C5_9  and  C6_11 
REMARK    3  A    between atoms: C9_14  and  N3_15 
REMARK    4  A    between atoms: N3_15  and  O2_17 
ROOT
HETATM    1  C6  UNL     1       0.912   0.562  -0.348  1.00  0.00     0.032 A 
HETATM    2  C7  UNL     1       1.406  -0.718  -0.529  1.00  0.00     0.019 A 
HETATM    3  C8  UNL     1       2.725  -0.996  -0.253  1.00  0.00     0.032 A 
HETATM    4  C9  UNL     1       3.587  -0.009   0.211  1.00  0.00     0.054 A 
HETATM    5  C10 UNL     1       3.080   1.248   0.385  1.00  0.00     0.032 A 
HETATM    6  C11 UNL     1       1.745   1.549   0.110  1.00  0.00     0.019 A 
ENDROOT
BRANCH   1   7
HETATM    7  C5  UNL     1      -0.483   0.891  -0.661  1.00  0.00     0.257 C 
HETATM    8  N2  UNL     1      -1.404   0.009  -1.151  1.00  0.00    -0.303 N 
ATOM      9  H2  UNL     1      -1.068  -0.440  -2.003  1.00  0.00     0.171 HD
HETATM   10  O1  UNL     1      -0.824   2.106  -0.448  1.00  0.00    -0.267 OA
BRANCH   8  11
HETATM   11  C4  UNL     1      -2.556  -0.404  -0.840  1.00  0.00     0.153 A 
HETATM   12  N1  UNL     1      -3.446  -0.186   0.119  1.00  0.00    -0.341 N 
HETATM   13  C1  UNL     1      -3.119   0.781   1.211  1.00  0.00     0.158 C 
HETATM   14  C2  UNL     1      -4.584  -0.826   0.093  1.00  0.00     0.100 A 
HETATM   15  C3  UNL     1      -4.813  -1.706  -0.936  1.00  0.00     0.070 A 
HETATM   16  S1  UNL     1      -3.374  -1.577  -1.828  1.00  0.00    -0.064 SA
ENDBRANCH   8  11
ENDBRANCH   1   7
BRANCH   4  17
HETATM   17  N3  UNL     1       4.951  -0.295   0.479  1.00  0.00    -0.269 N 
ATOM     18  H3  UNL     1       5.234  -0.671   1.384  1.00  0.00     0.194 HD
BRANCH  17  19
HETATM   19  O2  UNL     1       5.871  -0.059  -0.489  1.00  0.00    -0.289 OA
ATOM     20  H2  UNL     1       6.784  -0.250  -0.310  1.00  0.00     0.244 HD
ENDBRANCH  17  19
ENDBRANCH   4  17
TORSDOF 4
