REMARK  6 active torsions:
REMARK  status: ('A' for Active; 'I' for Inactive)
REMARK    1  A    between atoms: C2_2  and  O2_4 
REMARK    2  A    between atoms: O2_4  and  C3_5 
REMARK    3  A    between atoms: C3_5  and  C4_6 
REMARK    4  A    between atoms: C9_12  and  C10_13 
REMARK    5  A    between atoms: C10_13  and  C11_14 
REMARK    6  A    between atoms: C11_14  and  O4_17 
ROOT
HETATM    1  C4  UNL     1       0.914  -1.041   0.285  1.00  0.00     0.083 C 
HETATM    2  C5  UNL     1       1.948  -1.524  -0.686  1.00  0.00     0.049 C 
HETATM    3  O3  UNL     1       0.213  -2.158   0.764  1.00  0.00    -0.373 OA
HETATM    4  C6  UNL     1      -0.800  -2.452  -0.092  1.00  0.00     0.119 C 
HETATM    5  C7  UNL     1      -0.677  -3.838  -0.624  1.00  0.00     0.039 C 
HETATM    6  C8  UNL     1      -0.847  -1.376  -1.155  1.00  0.00     0.039 C 
HETATM    7  C9  UNL     1      -0.122  -0.240  -0.498  1.00  0.00     0.027 C 
ENDROOT
BRANCH   1   8
HETATM    8  C3  UNL     1       1.495  -0.306   1.421  1.00  0.00     0.216 C 
BRANCH   8   9
HETATM    9  O2  UNL     1       2.157   0.868   1.262  1.00  0.00    -0.319 OA
BRANCH   9  10
HETATM   10  C2  UNL     1       3.295   1.308   0.700  1.00  0.00     0.254 C 
HETATM   11  C1  UNL     1       3.640   2.780   0.755  1.00  0.00     0.126 C 
HETATM   12  O1  UNL     1       4.055   0.510   0.142  1.00  0.00    -0.266 OA
ENDBRANCH   9  10
ENDBRANCH   8   9
ENDBRANCH   1   8
BRANCH   7  13
HETATM   13  C10 UNL     1      -0.911   0.639   0.369  1.00  0.00     0.044 C 
BRANCH  13  14
HETATM   14  C11 UNL     1      -1.932   1.547  -0.214  1.00  0.00     0.051 C 
HETATM   15  C12 UNL     1      -3.077   0.965  -0.957  1.00  0.00     0.045 C 
HETATM   16  C13 UNL     1      -2.568   2.361   0.948  1.00  0.00     0.045 C 
BRANCH  14  17
HETATM   17  O4  UNL     1      -1.321   2.470  -1.098  1.00  0.00    -0.391 OA
ATOM     18  H4  UNL     1      -1.974   3.051  -1.471  1.00  0.00     0.210 HD
ENDBRANCH  14  17
ENDBRANCH  13  14
ENDBRANCH   7  13
TORSDOF 6
