REMARK  5 active torsions:
REMARK  status: ('A' for Active; 'I' for Inactive)
REMARK    1  A    between atoms: O1_2  and  N1_3 
REMARK    2  A    between atoms: N1_3  and  N2_5 
REMARK    3  A    between atoms: C3_7  and  O2_8 
REMARK    4  A    between atoms: N3_10  and  N4_11 
REMARK    5  A    between atoms: N4_11  and  C4_13 
ROOT
HETATM    1  N2  UNL     1       2.379  -0.716  -0.437  1.00  0.00    -0.216 N 
HETATM    2  C2  UNL     1       1.982  -0.399   0.808  1.00  0.00     0.178 A 
HETATM    3  C3  UNL     1       0.590  -0.236   0.713  1.00  0.00     0.182 A 
HETATM    4  N3  UNL     1       0.201  -0.449  -0.533  1.00  0.00    -0.204 N 
HETATM    5  C10 UNL     1       1.302  -0.746  -1.243  1.00  0.00     0.222 A 
HETATM    6  S1  UNL     1       1.377  -1.100  -2.858  1.00  0.00    -0.037 SA
ENDROOT
BRANCH   4   7
HETATM    7  N4  UNL     1      -1.063  -0.366  -1.073  1.00  0.00    -0.290 N 
ATOM      8  H4  UNL     1      -1.147  -0.676  -2.041  1.00  0.00     0.187 HD
BRANCH   7   9
HETATM    9  C4  UNL     1      -2.257   0.087  -0.477  1.00  0.00     0.048 A 
HETATM   10  C5  UNL     1      -3.402  -0.696  -0.615  1.00  0.00     0.031 A 
HETATM   11  C6  UNL     1      -4.630  -0.324  -0.114  1.00  0.00     0.002 A 
HETATM   12  C7  UNL     1      -4.768   0.869   0.560  1.00  0.00     0.000 A 
HETATM   13  C8  UNL     1      -3.647   1.655   0.705  1.00  0.00     0.002 A 
HETATM   14  C9  UNL     1      -2.404   1.267   0.191  1.00  0.00     0.031 A 
ENDBRANCH   7   9
ENDBRANCH   4   7
BRANCH   3  15
HETATM   15  O2  UNL     1      -0.144   0.096   1.844  1.00  0.00    -0.344 OA
ATOM     16  H2  UNL     1      -1.085   0.206   1.780  1.00  0.00     0.219 HD
ENDBRANCH   3  15
BRANCH   1  17
HETATM   17  N1  UNL     1       3.691  -0.972  -0.826  1.00  0.00    -0.199 N 
ATOM     18  H1  UNL     1       3.899  -1.207  -1.797  1.00  0.00     0.216 HD
BRANCH  17  19
HETATM   19  O1  UNL     1       4.679  -0.910   0.074  1.00  0.00    -0.269 OA
HETATM   20  C1  UNL     1       5.235   0.363   0.174  1.00  0.00     0.239 C 
ENDBRANCH  17  19
ENDBRANCH   1  17
TORSDOF 5
