REMARK  5 active torsions:
REMARK  status: ('A' for Active; 'I' for Inactive)
REMARK    1  A    between atoms: C1_2  and  S1_3 
REMARK       I    between atoms: C1_2  and  N2_15 
REMARK    2  A    between atoms: S1_3  and  S2_4 
REMARK    3  A    between atoms: S2_4  and  C2_5 
REMARK    4  A    between atoms: C7_10  and  N1_11 
REMARK    5  A    between atoms: N1_11  and  O2_13 
ROOT
HETATM    1  C2  UNL     1      -0.700  -0.268   0.959  1.00  0.00     0.040 A 
HETATM    2  C3  UNL     1      -1.404  -1.477   1.027  1.00  0.00     0.022 A 
HETATM    3  C4  UNL     1      -2.451  -1.796   0.213  1.00  0.00     0.002 A 
HETATM    4  C5  UNL     1      -2.860  -0.890  -0.742  1.00  0.00     0.002 A 
HETATM    5  C6  UNL     1      -2.208   0.313  -0.855  1.00  0.00     0.033 A 
HETATM    6  C7  UNL     1      -1.136   0.609  -0.004  1.00  0.00     0.071 A 
ENDROOT
BRANCH   1   7
HETATM    7  S2  UNL     1       0.559  -0.046   2.118  1.00  0.00    -0.046 SA
BRANCH   7   8
HETATM    8  S1  UNL     1       2.144  -1.139   1.274  1.00  0.00     0.015 SA
BRANCH   8   9
HETATM    9  C1  UNL     1       3.036   0.047   0.407  1.00  0.00     0.356 C 
HETATM   10  O1  UNL     1       2.827   1.308   0.393  1.00  0.00    -0.253 OA
HETATM   11  N2  UNL     1       4.129  -0.392  -0.386  1.00  0.00    -0.065 N 
HETATM   12  O3  UNL     1       4.416  -1.591  -0.436  1.00  0.00    -0.529 OA
HETATM   13  O4  UNL     1       4.867   0.500  -1.091  1.00  0.00    -0.529 OA
ENDBRANCH   8   9
ENDBRANCH   7   8
ENDBRANCH   1   7
BRANCH   6  14
HETATM   14  N1  UNL     1      -0.493   1.866  -0.118  1.00  0.00    -0.268 N 
ATOM     15  H1  UNL     1       0.179   2.006  -0.872  1.00  0.00     0.194 HD
BRANCH  14  16
HETATM   16  O2  UNL     1      -0.737   2.889   0.736  1.00  0.00    -0.289 OA
ATOM     17  H2  UNL     1      -0.306   3.732   0.660  1.00  0.00     0.244 HD
ENDBRANCH  14  16
ENDBRANCH   6  14
TORSDOF 5
