REMARK  8 active torsions:
REMARK  status: ('A' for Active; 'I' for Inactive)
REMARK    1  A    between atoms: C2_2  and  C3_3 
REMARK    2  A    between atoms: C3_3  and  O1_5 
REMARK    3  A    between atoms: O1_5  and  C5_6 
REMARK    4  A    between atoms: C5_6  and  C6_8 
REMARK    5  A    between atoms: C6_8  and  C8_11 
REMARK    6  A    between atoms: C8_11  and  S1_12 
REMARK    7  A    between atoms: S1_12  and  C9_13 
REMARK       I    between atoms: C9_13  and  N2_15 
REMARK    8  A    between atoms: N2_15  and  O4_17 
ROOT
HETATM    1  C6  UNL     1       0.911  -0.033   1.300  1.00  0.00     0.202 C 
HETATM    2  C7  UNL     1       1.748  -1.130   1.661  1.00  0.00     0.075 C 
HETATM    3  N1  UNL     1       2.407  -2.053   1.980  1.00  0.00    -0.196 NA
ENDROOT
BRANCH   1   4
HETATM    4  C5  UNL     1      -0.221  -0.476   0.423  1.00  0.00     0.277 C 
HETATM    5  O2  UNL     1      -0.299  -1.699   0.152  1.00  0.00    -0.264 OA
BRANCH   4   6
HETATM    6  O1  UNL     1      -1.167   0.356  -0.095  1.00  0.00    -0.315 OA
BRANCH   6   7
HETATM    7  C3  UNL     1      -2.235  -0.003  -0.911  1.00  0.00     0.127 C 
HETATM    8  C4  UNL     1      -2.225   0.688  -2.256  1.00  0.00     0.040 C 
BRANCH   7   9
HETATM    9  C2  UNL     1      -3.553   0.345  -0.231  1.00  0.00     0.027 C 
HETATM   10  C1  UNL     1      -3.671  -0.299   1.132  1.00  0.00     0.007 C 
ENDBRANCH   7   9
ENDBRANCH   6   7
ENDBRANCH   4   6
ENDBRANCH   1   4
BRANCH   1  11
HETATM   11  C8  UNL     1       1.603   1.153   0.758  1.00  0.00     0.113 C 
BRANCH  11  12
HETATM   12  S1  UNL     1       2.308   0.962  -0.853  1.00  0.00    -0.066 SA
BRANCH  12  13
HETATM   13  C9  UNL     1       3.833   0.106  -0.964  1.00  0.00     0.303 C 
HETATM   14  O3  UNL     1       4.146  -0.313  -2.148  1.00  0.00    -0.258 OA
HETATM   15  N2  UNL     1       4.711  -0.149   0.116  1.00  0.00    -0.228 N 
ATOM     16  H2  UNL     1       4.490   0.173   1.058  1.00  0.00     0.198 HD
BRANCH  15  17
HETATM   17  O4  UNL     1       5.851  -0.831  -0.135  1.00  0.00    -0.286 OA
ATOM     18  H4  UNL     1       6.440  -1.002   0.590  1.00  0.00     0.244 HD
ENDBRANCH  15  17
ENDBRANCH  12  13
ENDBRANCH  11  12
ENDBRANCH   1  11
TORSDOF 8
