REMARK  5 active torsions:
REMARK  status: ('A' for Active; 'I' for Inactive)
REMARK    1  A    between atoms: S1_2  and  C2_3 
REMARK    2  A    between atoms: C2_3  and  C9_17 
REMARK    3  A    between atoms: N1_4  and  N2_6 
REMARK    4  A    between atoms: N2_6  and  C3_8 
REMARK    5  A    between atoms: C6_11  and  N3_12 
ROOT
HETATM    1  N2  UNL     1       0.748   0.243   1.274  1.00  0.00    -0.300 N 
ATOM      2  H2  UNL     1       1.131   1.055   1.759  1.00  0.00     0.187 HD
ENDROOT
BRANCH   1   3
HETATM    3  N1  UNL     1       1.496  -0.882   1.127  1.00  0.00    -0.288 N 
HETATM    4  C2  UNL     1       2.615  -1.004   0.605  1.00  0.00     0.161 C 
ATOM      5  H1  UNL     1       1.083  -1.739   1.494  1.00  0.00     0.188 HD
BRANCH   4   6
HETATM    6  S1  UNL     1       3.545   0.301  -0.100  1.00  0.00    -0.108 SA
HETATM    7  C1  UNL     1       2.807   1.927  -0.047  1.00  0.00     0.097 C 
ENDBRANCH   4   6
BRANCH   4   8
HETATM    8  C9  UNL     1       3.217  -2.357   0.571  1.00  0.00     0.235 C 
HETATM    9  O3  UNL     1       4.355  -2.563   0.057  1.00  0.00    -0.642 OA
HETATM   10  O4  UNL     1       2.508  -3.413   1.120  1.00  0.00    -0.642 OA
ENDBRANCH   4   8
ENDBRANCH   1   3
BRANCH   1  11
HETATM   11  C3  UNL     1      -0.589   0.280   0.740  1.00  0.00     0.048 A 
HETATM   12  C4  UNL     1      -1.369   1.421   0.880  1.00  0.00     0.033 A 
HETATM   13  C5  UNL     1      -2.633   1.416   0.359  1.00  0.00     0.038 A 
HETATM   14  C6  UNL     1      -3.143   0.309  -0.297  1.00  0.00     0.103 A 
HETATM   15  C7  UNL     1      -2.340  -0.805  -0.417  1.00  0.00     0.038 A 
HETATM   16  C8  UNL     1      -1.059  -0.842   0.094  1.00  0.00     0.033 A 
BRANCH  14  17
HETATM   17  N3  UNL     1      -4.464   0.327  -0.832  1.00  0.00    -0.116 N 
HETATM   18  O1  UNL     1      -4.917  -0.657  -1.416  1.00  0.00    -0.532 OA
HETATM   19  O2  UNL     1      -5.227   1.460  -0.689  1.00  0.00    -0.532 OA
ENDBRANCH  14  17
ENDBRANCH   1  11
TORSDOF 5
