REMARK  4 active torsions:
REMARK  status: ('A' for Active; 'I' for Inactive)
REMARK    1  A    between atoms: N1_2  and  N2_3 
REMARK       I    between atoms: N1_2  and  C2_6 
REMARK       I    between atoms: C2_6  and  N3_8 
REMARK    2  A    between atoms: N3_8  and  N4_10 
REMARK       I    between atoms: N4_10  and  C3_12 
REMARK    3  A    between atoms: C3_12  and  C4_14 
REMARK    4  A    between atoms: C7_17  and  N5_18 
ROOT
HETATM    1  N4  UNL     1      -0.755   0.722  -0.517  1.00  0.00    -0.262 N 
ATOM      2  H4  UNL     1      -0.438   1.190  -1.366  1.00  0.00     0.190 HD
HETATM    3  C3  UNL     1       0.185   0.154   0.363  1.00  0.00     0.270 C 
HETATM    4  O2  UNL     1      -0.259  -0.427   1.426  1.00  0.00    -0.266 OA
ENDROOT
BRANCH   1   5
HETATM    5  N3  UNL     1      -2.111   0.648  -0.233  1.00  0.00    -0.247 N 
HETATM    6  C2  UNL     1      -2.733  -0.630  -0.209  1.00  0.00     0.354 C 
HETATM    7  N1  UNL     1      -4.118  -0.730   0.078  1.00  0.00    -0.253 N 
HETATM    8  O1  UNL     1      -2.054  -1.682  -0.444  1.00  0.00    -0.244 OA
HETATM    9  C1  UNL     1      -4.845   0.505   0.328  1.00  0.00     0.182 C 
ATOM     10  H3  UNL     1      -2.650   1.493  -0.045  1.00  0.00     0.192 HD
BRANCH   7  11
HETATM   11  N2  UNL     1      -4.718  -1.971   0.108  1.00  0.00    -0.339 N 
ATOM     12  H22 UNL     1      -5.714  -2.043   0.314  1.00  0.00     0.177 HD
ATOM     13  H21 UNL     1      -4.208  -2.837  -0.067  1.00  0.00     0.177 HD
ENDBRANCH   7  11
ENDBRANCH   1   5
BRANCH   3  14
HETATM   14  C4  UNL     1       1.630   0.185   0.146  1.00  0.00     0.033 A 
HETATM   15  C5  UNL     1       2.507  -0.447   1.004  1.00  0.00     0.019 A 
HETATM   16  C6  UNL     1       3.883  -0.419   0.801  1.00  0.00     0.037 A 
HETATM   17  C7  UNL     1       4.409   0.253  -0.281  1.00  0.00     0.102 A 
HETATM   18  C8  UNL     1       3.525   0.880  -1.130  1.00  0.00     0.037 A 
HETATM   19  C9  UNL     1       2.142   0.855  -0.931  1.00  0.00     0.019 A 
BRANCH  17  20
HETATM   20  N5  UNL     1       5.810   0.290  -0.495  1.00  0.00    -0.116 N 
HETATM   21  O3  UNL     1       6.560  -0.296   0.305  1.00  0.00    -0.532 OA
HETATM   22  O4  UNL     1       6.374   0.945  -1.553  1.00  0.00    -0.532 OA
ENDBRANCH  17  20
ENDBRANCH   3  14
TORSDOF 4
