REMARK  5 active torsions:
REMARK  status: ('A' for Active; 'I' for Inactive)
REMARK    1  A    between atoms: S1_2  and  C2_3 
REMARK    2  A    between atoms: C2_3  and  N2_7 
REMARK    3  A    between atoms: N2_7  and  C3_9 
REMARK    4  A    between atoms: C4_10  and  O1_11 
REMARK    5  A    between atoms: C5_15  and  N4_16 
ROOT
HETATM    1  C3  UNL     1       0.308   0.041   0.089  1.00  0.00     0.208 C 
HETATM    2  C4  UNL     1       0.024  -0.658   1.357  1.00  0.00     0.143 C 
HETATM    3  N3  UNL     1      -1.072  -0.414   1.952  1.00  0.00    -0.329 N 
ATOM      4  H3  UNL     1      -1.244  -0.911   2.826  1.00  0.00     0.165 HD
HETATM    5  C5  UNL     1      -2.083   0.488   1.513  1.00  0.00     0.394 C 
HETATM    6  N5  UNL     1      -2.059   0.648   0.054  1.00  0.00    -0.314 N 
HETATM    7  C6  UNL     1      -3.231   1.016  -0.542  1.00  0.00     0.095 A 
HETATM    8  C7  UNL     1      -3.305   1.197  -1.904  1.00  0.00     0.017 A 
HETATM    9  C8  UNL     1      -2.141   0.985  -2.610  1.00  0.00     0.003 A 
HETATM   10  C9  UNL     1      -0.968   0.614  -1.994  1.00  0.00     0.028 A 
HETATM   11  C10 UNL     1      -0.921   0.438  -0.615  1.00  0.00     0.045 A 
ENDROOT
BRANCH   1  12
HETATM   12  N2  UNL     1       1.233  -0.709  -0.706  1.00  0.00    -0.354 N 
ATOM     13  H2  UNL     1       0.944  -1.043  -1.625  1.00  0.00     0.162 HD
BRANCH  12  14
HETATM   14  C2  UNL     1       2.544  -0.998  -0.242  1.00  0.00     0.134 C 
HETATM   15  N1  UNL     1       3.051  -2.170  -0.261  1.00  0.00    -0.380 N 
ATOM     16  H12 UNL     1       3.992  -2.378   0.072  1.00  0.00     0.158 HD
ATOM     17  H11 UNL     1       2.511  -2.956  -0.623  1.00  0.00     0.158 HD
BRANCH  14  18
HETATM   18  S1  UNL     1       3.491   0.380   0.392  1.00  0.00    -0.099 SA
HETATM   19  C1  UNL     1       5.138  -0.165   0.942  1.00  0.00     0.099 C 
ENDBRANCH  14  18
ENDBRANCH  12  14
ENDBRANCH   1  12
BRANCH   2  20
HETATM   20  O1  UNL     1       0.975  -1.554   1.840  1.00  0.00    -0.348 OA
ATOM     21  H1  UNL     1       0.792  -2.004   2.656  1.00  0.00     0.219 HD
ENDBRANCH   2  20
BRANCH   5  22
HETATM   22  N4  UNL     1      -3.384  -0.127   1.825  1.00  0.00    -0.040 N 
ATOM     23  H43 UNL     1      -3.487  -1.063   1.433  1.00  0.00     0.279 HD
ATOM     24  H42 UNL     1      -3.478  -0.384   2.808  1.00  0.00     0.279 HD
ATOM     25  H41 UNL     1      -4.108   0.519   1.511  1.00  0.00     0.279 HD
ENDBRANCH   5  22
TORSDOF 5
