REMARK  5 active torsions:
REMARK  status: ('A' for Active; 'I' for Inactive)
REMARK    1  A    between atoms: C3_3  and  C4_4 
REMARK    2  A    between atoms: C3_3  and  C7_9 
REMARK       I    between atoms: C4_4  and  N1_6 
REMARK    3  A    between atoms: C7_9  and  C8_15 
REMARK    4  A    between atoms: N2_10  and  N3_12 
REMARK    5  A    between atoms: C13_20  and  N4_21 
ROOT
HETATM    1  C1  UNL     1       1.235   1.195   2.042  1.00  0.00     0.013 C 
HETATM    2  C2  UNL     1       1.100   0.499   1.057  1.00  0.00    -0.097 C 
HETATM    3  C3  UNL     1       0.913  -0.334  -0.143  1.00  0.00     0.209 C 
ENDROOT
BRANCH   3   4
HETATM    4  C4  UNL     1       2.174  -0.247  -0.901  1.00  0.00     0.240 C 
HETATM    5  O1  UNL     1       2.194   0.236  -2.038  1.00  0.00    -0.272 OA
HETATM    6  N1  UNL     1       3.380  -0.727  -0.309  1.00  0.00    -0.359 N 
HETATM    7  C5  UNL     1       3.442  -1.306   1.013  1.00  0.00     0.152 C 
HETATM    8  C6  UNL     1       4.625  -0.643  -1.048  1.00  0.00     0.152 C 
ENDBRANCH   3   4
BRANCH   3   9
HETATM    9  C7  UNL     1      -0.299   0.003  -0.895  1.00  0.00     0.076 C 
HETATM   10  N2  UNL     1      -0.204   0.404  -2.100  1.00  0.00    -0.307 N 
ATOM     11  H2  UNL     1       0.738   0.471  -2.487  1.00  0.00     0.186 HD
BRANCH  10  12
HETATM   12  N3  UNL     1      -1.244   0.758  -2.938  1.00  0.00    -0.345 N 
ATOM     13  H32 UNL     1      -2.178   0.685  -2.534  1.00  0.00     0.176 HD
ATOM     14  H31 UNL     1      -1.168   1.079  -3.903  1.00  0.00     0.176 HD
ENDBRANCH  10  12
BRANCH   9  15
HETATM   15  C8  UNL     1      -1.606  -0.117  -0.255  1.00  0.00     0.059 C 
HETATM   16  C9  UNL     1      -1.605  -0.579   1.060  1.00  0.00     0.031 C 
HETATM   17  C10 UNL     1      -2.452  -0.266   2.112  1.00  0.00     0.002 C 
HETATM   18  C11 UNL     1      -3.620   0.461   2.031  1.00  0.00     0.004 C 
HETATM   19  C12 UNL     1      -4.273   0.876   0.888  1.00  0.00     0.048 C 
HETATM   20  C13 UNL     1      -3.839   0.797  -0.440  1.00  0.00     0.099 C 
HETATM   21  N5  UNL     1      -2.713   0.215  -0.943  1.00  0.00    -0.341 N 
ATOM     22  H5  UNL     1      -2.710   0.011  -1.942  1.00  0.00     0.167 HD
BRANCH  20  23
HETATM   23  N4  UNL     1      -4.644   1.365  -1.265  1.00  0.00    -0.385 N 
ATOM     24  H42 UNL     1      -5.486   1.800  -0.889  1.00  0.00     0.157 HD
ATOM     25  H41 UNL     1      -4.328   1.307  -2.233  1.00  0.00     0.157 HD
ENDBRANCH  20  23
ENDBRANCH   9  15
ENDBRANCH   3   9
TORSDOF 5
