REMARK  5 active torsions:
REMARK  status: ('A' for Active; 'I' for Inactive)
REMARK    1  A    between atoms: N2_3  and  C2_5 
REMARK    2  A    between atoms: C2_5  and  N3_7 
REMARK    3  A    between atoms: N3_7  and  N4_9 
REMARK       I    between atoms: N4_9  and  C3_11 
REMARK    4  A    between atoms: C3_11  and  C4_13 
REMARK    5  A    between atoms: C4_13  and  N5_14 
ROOT
HETATM    1  N1  UNL     1       5.331   2.559  -2.195  1.00  0.00    -0.172 NA
HETATM    2  C1  UNL     1       4.953   1.820  -1.372  1.00  0.00     0.184 C 
HETATM    3  N2  UNL     1       4.505   0.922  -0.388  1.00  0.00    -0.269 N 
ATOM      4  H2  UNL     1       5.173   0.298   0.064  1.00  0.00     0.180 HD
ENDROOT
BRANCH   3   5
HETATM    5  C2  UNL     1       3.130   0.870  -0.011  1.00  0.00     0.199 C 
HETATM    6  S1  UNL     1       2.073   1.867  -0.742  1.00  0.00    -0.038 SA
BRANCH   5   7
HETATM    7  N3  UNL     1       2.697  -0.042   0.985  1.00  0.00    -0.273 N 
ATOM      8  H3  UNL     1       3.395  -0.650   1.412  1.00  0.00     0.189 HD
BRANCH   7   9
HETATM    9  N4  UNL     1       1.396  -0.157   1.410  1.00  0.00    -0.266 N 
HETATM   10  C3  UNL     1       0.338  -0.612   0.537  1.00  0.00     0.264 C 
HETATM   11  O1  UNL     1       0.629  -0.909  -0.643  1.00  0.00    -0.270 OA
ATOM     12  H4  UNL     1       1.169   0.087   2.374  1.00  0.00     0.190 HD
BRANCH  10  13
HETATM   13  C4  UNL     1      -1.033  -0.718   1.030  1.00  0.00     0.377 C 
BRANCH  13  14
HETATM   14  N5  UNL     1      -1.925  -1.136   0.020  1.00  0.00     0.107 N 
HETATM   15  C5  UNL     1      -2.160  -0.139  -0.949  1.00  0.00     0.284 C 
HETATM   16  C6  UNL     1      -3.183   0.863  -0.366  1.00  0.00     0.105 C 
HETATM   17  S2  UNL     1      -4.272  -0.300   0.511  1.00  0.00    -0.138 SA
HETATM   18  C7  UNL     1      -3.137  -1.745   0.450  1.00  0.00     0.346 C 
ENDBRANCH  13  14
ENDBRANCH  10  13
ENDBRANCH   7   9
ENDBRANCH   5   7
ENDBRANCH   3   5
TORSDOF 5
