REMARK  3 active torsions:
REMARK  status: ('A' for Active; 'I' for Inactive)
REMARK    1  A    between atoms: N2_5  and  C4_6 
REMARK    2  A    between atoms: C4_6  and  C5_7 
REMARK    3  A    between atoms: C7_11  and  N4_12 
ROOT
HETATM    1  N1  UNL     1       4.633  -3.272   1.572  1.00  0.00    -0.190 NA
HETATM    2  C1  UNL     1       4.083  -2.665   0.781  1.00  0.00     0.119 C 
HETATM    3  C2  UNL     1       3.386  -1.888  -0.221  1.00  0.00     0.129 A 
HETATM    4  C3  UNL     1       2.749  -0.699   0.091  1.00  0.00     0.132 A 
HETATM    5  N2  UNL     1       2.097   0.036  -0.826  1.00  0.00    -0.355 N 
HETATM    6  C10 UNL     1       2.085  -0.437  -2.086  1.00  0.00     0.108 A 
HETATM    7  C11 UNL     1       2.711  -1.623  -2.438  1.00  0.00     0.106 A 
HETATM    8  N8  UNL     1       3.354  -2.331  -1.493  1.00  0.00    -0.355 N 
ATOM      9  H8  UNL     1       3.818  -3.205  -1.740  1.00  0.00     0.166 HD
ENDROOT
BRANCH   5  10
HETATM   10  C4  UNL     1       1.425   1.269  -0.549  1.00  0.00     0.204 C 
BRANCH  10  11
HETATM   11  C5  UNL     1       0.009   1.087  -0.170  1.00  0.00     0.102 A 
HETATM   12  N3  UNL     1      -0.459   0.913   1.079  1.00  0.00    -0.338 N 
HETATM   13  C6  UNL     1      -1.808   0.781   1.030  1.00  0.00     0.122 A 
ATOM     14  H3  UNL     1       0.109   0.885   1.926  1.00  0.00     0.167 HD
HETATM   15  C7  UNL     1      -2.781   0.586   1.983  1.00  0.00     0.131 A 
HETATM   16  C9  UNL     1      -2.131   0.887  -0.319  1.00  0.00     0.138 A 
HETATM   17  N5  UNL     1      -4.062   0.494   1.622  1.00  0.00    -0.337 N 
HETATM   18  C8  UNL     1      -4.388   0.593   0.328  1.00  0.00     0.183 A 
ATOM     19  H5  UNL     1      -4.786   0.350   2.326  1.00  0.00     0.168 HD
HETATM   20  N6  UNL     1      -3.439   0.783  -0.602  1.00  0.00    -0.337 N 
ATOM     21  H6  UNL     1      -3.728   0.852  -1.578  1.00  0.00     0.168 HD
HETATM   22  N7  UNL     1      -1.012   1.073  -1.041  1.00  0.00    -0.329 N 
ATOM     23  H7  UNL     1      -0.951   1.182  -2.053  1.00  0.00     0.168 HD
BRANCH  15  24
HETATM   24  N4  UNL     1      -2.489   0.488   3.234  1.00  0.00    -0.383 N 
ATOM     25  H42 UNL     1      -1.510   0.558   3.510  1.00  0.00     0.157 HD
ATOM     26  H41 UNL     1      -3.210   0.343   3.941  1.00  0.00     0.157 HD
ENDBRANCH  15  24
ENDBRANCH  10  11
ENDBRANCH   5  10
TORSDOF 3
