REMARK  0 active torsions:
REMARK  status: ('A' for Active; 'I' for Inactive)
ROOT
HETATM    1  N1  UNL     1       3.496  -2.539  -0.728  1.00  0.00    -0.398 N 
ATOM      2  H11 UNL     1       3.068  -3.434  -0.964  1.00  0.00     0.156 HD
ATOM      3  H12 UNL     1       4.505  -2.679  -0.779  1.00  0.00     0.156 HD
HETATM    4  C1  UNL     1       2.896  -1.440  -0.425  1.00  0.00     0.049 A 
HETATM    5  C2  UNL     1       3.507  -0.163  -0.089  1.00  0.00     0.002 A 
HETATM    6  C3  UNL     1       4.828   0.263   0.008  1.00  0.00     0.014 A 
HETATM    7  C4  UNL     1       5.165   1.556   0.351  1.00  0.00     0.001 A 
HETATM    8  C5  UNL     1       4.113   2.420   0.597  1.00  0.00     0.001 A 
HETATM    9  C6  UNL     1       2.791   2.025   0.508  1.00  0.00     0.013 A 
HETATM   10  C7  UNL     1       2.479   0.728   0.163  1.00  0.00    -0.012 A 
HETATM   11  C8  UNL     1       1.216   0.053  -0.002  1.00  0.00    -0.009 A 
HETATM   12  C9  UNL     1      -0.103   0.527   0.143  1.00  0.00     0.044 A 
HETATM   13  C10 UNL     1      -1.178  -0.286  -0.061  1.00  0.00     0.050 A 
HETATM   14  C11 UNL     1      -2.453   0.199   0.086  1.00  0.00     0.001 A 
HETATM   15  C12 UNL     1      -2.705   1.507   0.440  1.00  0.00     0.014 A 
HETATM   16  C13 UNL     1      -4.006   1.933   0.572  1.00  0.00     0.001 A 
HETATM   17  C14 UNL     1      -5.070   1.078   0.356  1.00  0.00     0.001 A 
HETATM   18  C15 UNL     1      -4.812  -0.218   0.004  1.00  0.00     0.012 A 
HETATM   19  C16 UNL     1      -3.528  -0.678  -0.136  1.00  0.00    -0.022 A 
HETATM   20  C17 UNL     1      -3.243  -1.983  -0.491  1.00  0.00     0.030 A 
HETATM   21  C18 UNL     1      -1.948  -2.423  -0.626  1.00  0.00     0.097 A 
HETATM   22  N2  UNL     1      -0.926  -1.573  -0.411  1.00  0.00    -0.331 N 
HETATM   23  C19 UNL     1       0.346  -2.037  -0.552  1.00  0.00     0.111 A 
HETATM   24  C20 UNL     1       1.451  -1.239  -0.352  1.00  0.00     0.018 A 
ENDROOT
TORSDOF 0
