REMARK  5 active torsions:
REMARK  status: ('A' for Active; 'I' for Inactive)
REMARK    1  A    between atoms: N1_1  and  S1_4 
REMARK    2  A    between atoms: S1_4  and  C1_7 
REMARK    3  A    between atoms: C5_11  and  N2_12 
REMARK    4  A    between atoms: N2_12  and  C6_14 
REMARK    5  A    between atoms: C6_14  and  C7_15 
ROOT
HETATM    1  C7  UNL     1       0.496   0.445   0.954  1.00  0.00    -0.040 A 
HETATM    2  C8  UNL     1       0.154   0.470   2.288  1.00  0.00     0.011 A 
HETATM    3  C9  UNL     1      -1.185   0.414   2.605  1.00  0.00     0.031 A 
HETATM    4  C10 UNL     1      -2.174   0.334   1.647  1.00  0.00     0.043 A 
HETATM    5  N3  UNL     1      -3.532   0.270   1.738  1.00  0.00    -0.354 N 
ATOM      6  H3  UNL     1      -4.061   0.272   2.610  1.00  0.00     0.166 HD
HETATM    7  C11 UNL     1      -4.073   0.204   0.509  1.00  0.00     0.055 A 
HETATM    8  C12 UNL     1      -5.390   0.125   0.093  1.00  0.00     0.002 A 
HETATM    9  C13 UNL     1      -6.456   0.100   0.962  1.00  0.00     0.014 A 
HETATM   10  C14 UNL     1      -7.768   0.021   0.536  1.00  0.00     0.001 A 
HETATM   11  C15 UNL     1      -7.980  -0.033  -0.830  1.00  0.00     0.001 A 
HETATM   12  C16 UNL     1      -6.946  -0.010  -1.738  1.00  0.00     0.012 A 
HETATM   13  C17 UNL     1      -5.651   0.069  -1.252  1.00  0.00    -0.024 A 
HETATM   14  C18 UNL     1      -4.610   0.092  -2.153  1.00  0.00     0.013 A 
HETATM   15  C19 UNL     1      -3.283   0.171  -1.731  1.00  0.00     0.015 A 
HETATM   16  C20 UNL     1      -3.015   0.228  -0.376  1.00  0.00     0.004 A 
HETATM   17  C21 UNL     1      -1.823   0.309   0.313  1.00  0.00     0.004 A 
HETATM   18  C22 UNL     1      -0.481   0.365  -0.028  1.00  0.00     0.023 A 
ENDROOT
BRANCH   1  19
HETATM   19  C6  UNL     1       1.935   0.505   0.614  1.00  0.00     0.158 C 
BRANCH  19  20
HETATM   20  N2  UNL     1       2.499  -0.815   0.540  1.00  0.00    -0.386 N 
ATOM     21  H2  UNL     1       1.893  -1.616   0.718  1.00  0.00     0.160 HD
BRANCH  20  22
HETATM   22  C5  UNL     1       3.864  -1.051   0.230  1.00  0.00     0.029 A 
HETATM   23  C4  UNL     1       4.371  -2.328   0.167  1.00  0.00     0.029 A 
HETATM   24  C3  UNL     1       5.692  -2.569  -0.132  1.00  0.00     0.004 A 
HETATM   25  C2  UNL     1       6.547  -1.519  -0.377  1.00  0.00     0.025 A 
HETATM   26  C1  UNL     1       6.054  -0.237  -0.317  1.00  0.00     0.081 A 
HETATM   27  C23 UNL     1       4.723  -0.004  -0.016  1.00  0.00     0.054 A 
BRANCH  26  28
HETATM   28  S1  UNL     1       7.115   1.102  -0.624  1.00  0.00     0.256 S 
HETATM   29  O1  UNL     1       8.542   0.748  -0.245  1.00  0.00    -0.201 OA
HETATM   30  O2  UNL     1       6.732   2.319   0.180  1.00  0.00    -0.201 OA
BRANCH  28  31
HETATM   31  N1  UNL     1       7.068   1.448  -2.329  1.00  0.00    -0.324 N 
ATOM     32  H12 UNL     1       7.873   1.414  -2.955  1.00  0.00     0.169 HD
ATOM     33  H11 UNL     1       6.109   1.686  -2.584  1.00  0.00     0.169 HD
ENDBRANCH  28  31
ENDBRANCH  26  28
ENDBRANCH  20  22
ENDBRANCH  19  20
ENDBRANCH   1  19
TORSDOF 5
