REMARK  3 active torsions:
REMARK  status: ('A' for Active; 'I' for Inactive)
REMARK    1  A    between atoms: C3_5  and  C4_6 
REMARK    2  A    between atoms: C7_15  and  C8_16 
REMARK    3  A    between atoms: C14_24  and  C15_25 
ROOT
HETATM    1  C1  UNL     1       0.683  -1.969   1.693  1.00  0.00     0.069 C 
HETATM    2  C2  UNL     1       0.106  -1.302   0.491  1.00  0.00     0.017 A 
HETATM    3  N1  UNL     1      -1.173  -1.465   0.083  1.00  0.00    -0.357 N 
ATOM      4  H1  UNL     1      -1.860  -2.055   0.553  1.00  0.00     0.166 HD
HETATM    5  C3  UNL     1      -1.417  -0.743  -1.028  1.00  0.00     0.061 A 
HETATM    6  C13 UNL     1      -0.205  -0.102  -1.310  1.00  0.00     0.046 A 
HETATM    7  C14 UNL     1       0.744  -0.442  -0.375  1.00  0.00    -0.002 A 
ENDROOT
BRANCH   5   8
HETATM    8  C4  UNL     1      -2.645  -0.632  -1.790  1.00  0.00     0.079 A 
HETATM    9  N2  UNL     1      -2.730  -0.968  -3.085  1.00  0.00    -0.305 N 
HETATM   10  C5  UNL     1      -3.897  -0.851  -3.773  1.00  0.00     0.327 A 
ATOM     11  H2  UNL     1      -1.901  -1.319  -3.565  1.00  0.00     0.171 HD
HETATM   12  O1  UNL     1      -3.885  -1.191  -4.986  1.00  0.00    -0.247 OA
HETATM   13  N3  UNL     1      -5.017  -0.392  -3.184  1.00  0.00    -0.275 N 
HETATM   14  C6  UNL     1      -4.977  -0.043  -1.889  1.00  0.00     0.262 A 
ATOM     15  H3  UNL     1      -5.884  -0.311  -3.715  1.00  0.00     0.173 HD
HETATM   16  O2  UNL     1      -6.012   0.387  -1.324  1.00  0.00    -0.267 OA
HETATM   17  C7  UNL     1      -3.781  -0.165  -1.190  1.00  0.00     0.071 A 
BRANCH  17  18
HETATM   18  C8  UNL     1      -3.733   0.209   0.212  1.00  0.00    -0.015 A 
HETATM   19  C9  UNL     1      -4.512  -0.469   1.134  1.00  0.00     0.029 A 
HETATM   20  C10 UNL     1      -4.508  -0.154   2.475  1.00  0.00     0.088 A 
HETATM   21  N4  UNL     1      -3.721   0.849   2.916  1.00  0.00    -0.375 N 
HETATM   22  C11 UNL     1      -2.952   1.529   2.055  1.00  0.00     0.088 A 
ATOM     23  H4  UNL     1      -3.711   1.090   3.907  1.00  0.00     0.164 HD
HETATM   24  C12 UNL     1      -2.939   1.229   0.690  1.00  0.00     0.029 A 
ENDBRANCH  17  18
ENDBRANCH   5   8
BRANCH   7  25
HETATM   25  C15 UNL     1       2.136  -0.021  -0.269  1.00  0.00    -0.023 A 
HETATM   26  C16 UNL     1       2.951  -0.004  -1.381  1.00  0.00     0.013 A 
HETATM   27  C17 UNL     1       4.274   0.382  -1.350  1.00  0.00     0.013 A 
HETATM   28  C18 UNL     1       4.798   0.768  -0.134  1.00  0.00    -0.026 A 
HETATM   29  C19 UNL     1       6.110   1.158  -0.060  1.00  0.00     0.012 A 
HETATM   30  C23 UNL     1       4.030   0.772   1.019  1.00  0.00    -0.025 A 
HETATM   31  C20 UNL     1       6.704   1.558   1.126  1.00  0.00     0.001 A 
HETATM   32  C21 UNL     1       5.948   1.566   2.279  1.00  0.00     0.001 A 
HETATM   33  C22 UNL     1       4.632   1.173   2.199  1.00  0.00     0.012 A 
HETATM   34  C24 UNL     1       2.725   0.379   0.922  1.00  0.00     0.024 A 
ENDBRANCH   7  25
TORSDOF 3
