REMARK  4 active torsions:
REMARK  status: ('A' for Active; 'I' for Inactive)
REMARK    1  A    between atoms: S1_2  and  N1_4 
REMARK    2  A    between atoms: S1_2  and  C14_23 
REMARK    3  A    between atoms: N1_4  and  C1_6 
REMARK    4  A    between atoms: C6_13  and  C7_14 
ROOT
HETATM    1  C1  UNL     1      -0.044   1.557   1.001  1.00  0.00     0.071 A 
HETATM    2  C2  UNL     1       0.629   2.591   0.422  1.00  0.00     0.032 A 
HETATM    3  C3  UNL     1       0.173   3.260  -0.693  1.00  0.00     0.005 A 
HETATM    4  C4  UNL     1      -1.008   2.881  -1.259  1.00  0.00     0.032 A 
HETATM    5  C5  UNL     1      -1.727   1.850  -0.721  1.00  0.00     0.063 A 
HETATM    6  N2  UNL     1      -2.892   1.240  -1.018  1.00  0.00    -0.340 N 
ATOM      7  H2  UNL     1      -3.491   1.500  -1.802  1.00  0.00     0.167 HD
HETATM    8  C6  UNL     1      -3.167   0.249  -0.156  1.00  0.00     0.116 A 
HETATM    9  N3  UNL     1      -2.136   0.241   0.711  1.00  0.00    -0.338 N 
ATOM     10  H3  UNL     1      -2.041  -0.401   1.498  1.00  0.00     0.167 HD
HETATM   11  C13 UNL     1      -1.249   1.201   0.391  1.00  0.00     0.088 A 
ENDROOT
BRANCH   1  12
HETATM   12  N1  UNL     1       0.353   0.837   2.136  1.00  0.00    -0.277 N 
ATOM     13  H1  UNL     1      -0.358   0.286   2.618  1.00  0.00     0.179 HD
BRANCH  12  14
HETATM   14  S1  UNL     1       1.950   0.812   2.778  1.00  0.00     0.279 S 
HETATM   15  O1  UNL     1       2.396   2.181   3.204  1.00  0.00    -0.199 OA
HETATM   16  O2  UNL     1       2.024  -0.091   3.974  1.00  0.00    -0.199 OA
BRANCH  14  17
HETATM   17  C14 UNL     1       3.017   0.136   1.572  1.00  0.00     0.150 A 
HETATM   18  C15 UNL     1       3.309  -1.205   1.412  1.00  0.00     0.057 A 
HETATM   19  C16 UNL     1       4.187  -1.348   0.365  1.00  0.00    -0.007 A 
HETATM   20  C17 UNL     1       4.817  -2.408  -0.247  1.00  0.00     0.014 A 
HETATM   21  C21 UNL     1       4.433  -0.080  -0.118  1.00  0.00     0.043 A 
HETATM   22  C18 UNL     1       5.678  -2.270  -1.313  1.00  0.00     0.001 A 
HETATM   23  C19 UNL     1       5.925  -0.986  -1.801  1.00  0.00     0.002 A 
HETATM   24  C20 UNL     1       5.299   0.081  -1.195  1.00  0.00     0.030 A 
HETATM   25  N4  UNL     1       3.717   0.785   0.627  1.00  0.00    -0.345 N 
ATOM     26  H4  UNL     1       3.708   1.796   0.492  1.00  0.00     0.167 HD
ENDBRANCH  14  17
ENDBRANCH  12  14
ENDBRANCH   1  12
BRANCH   8  27
HETATM   27  C7  UNL     1      -4.338  -0.619  -0.174  1.00  0.00     0.008 A 
HETATM   28  C8  UNL     1      -5.288  -0.445  -1.155  1.00  0.00     0.015 A 
HETATM   29  C9  UNL     1      -6.406  -1.249  -1.200  1.00  0.00     0.001 A 
HETATM   30  C10 UNL     1      -6.598  -2.243  -0.265  1.00  0.00     0.000 A 
HETATM   31  C11 UNL     1      -5.646  -2.420   0.721  1.00  0.00     0.001 A 
HETATM   32  C12 UNL     1      -4.543  -1.615   0.752  1.00  0.00     0.015 A 
ENDBRANCH   8  27
TORSDOF 4
