REMARK  1 active torsions:
REMARK  status: ('A' for Active; 'I' for Inactive)
REMARK    1  A    between atoms: N1_2  and  C2_4 
ROOT
HETATM    1  C2  UNL     1       0.340   1.098  -0.229  1.00  0.00     0.097 C 
HETATM    2 BR1  UNL     1      -0.354   2.289  -1.653  1.00  0.00    -0.061 Br
HETATM    3  C3  UNL     1       1.113   0.133  -1.017  1.00  0.00     0.051 C 
HETATM    4  C4  UNL     1       0.260  -0.598  -2.035  1.00  0.00    -0.022 C 
HETATM    5  C5  UNL     1      -0.846  -1.231  -1.764  1.00  0.00    -0.019 C 
HETATM    6  C6  UNL     1      -1.593  -1.451  -0.534  1.00  0.00     0.085 C 
HETATM    7  C7  UNL     1      -0.969  -0.884   0.698  1.00  0.00     0.009 C 
HETATM    8  C8  UNL     1       0.181  -1.641   1.250  1.00  0.00     0.006 C 
HETATM    9  C9  UNL     1       1.218  -2.049   0.273  1.00  0.00     0.005 C 
HETATM   10  C10 UNL     1       1.946  -0.896  -0.363  1.00  0.00    -0.008 C 
HETATM   11  C11 UNL     1       2.999  -0.430   0.582  1.00  0.00     0.011 C 
HETATM   12  C12 UNL     1      -0.760   0.612   0.631  1.00  0.00     0.060 C 
HETATM   13  C13 UNL     1      -2.109   1.230   0.482  1.00  0.00     0.088 C 
HETATM   14 BR2  UNL     1      -3.074   0.774   2.145  1.00  0.00    -0.072 Br
HETATM   15 BR3  UNL     1      -2.139   3.146   0.473  1.00  0.00    -0.072 Br
HETATM   16  C14 UNL     1      -2.977   0.658  -0.606  1.00  0.00     0.113 C 
HETATM   17  C15 UNL     1      -2.966  -0.826  -0.698  1.00  0.00     0.253 C 
HETATM   18  F1  UNL     1      -3.376  -1.173  -1.996  1.00  0.00    -0.206 F 
HETATM   19  F2  UNL     1      -3.898  -1.421   0.141  1.00  0.00    -0.206 F 
ENDROOT
BRANCH   1  20
HETATM   20  N1  UNL     1       1.215   1.964   0.513  1.00  0.00    -0.407 N 
HETATM   21  C1  UNL     1       2.060   2.848  -0.173  1.00  0.00     0.141 C 
ATOM     22  H1  UNL     1       1.221   1.936   1.533  1.00  0.00     0.154 HD
ENDBRANCH   1  20
TORSDOF 1
