REMARK  1 active torsions:
REMARK  status: ('A' for Active; 'I' for Inactive)
REMARK    1  A    between atoms: C3_3  and  C4_4 
ROOT
HETATM    1  C4  UNL     1       1.990  -1.137   0.258  1.00  0.00     0.123 C 
HETATM    2  C5  UNL     1       2.655  -2.470   0.470  1.00  0.00     0.055 C 
HETATM    3  O1  UNL     1       1.059  -0.826   1.235  1.00  0.00    -0.224 OA
HETATM    4  O2  UNL     1      -0.140  -1.342   0.946  1.00  0.00    -0.229 OA
HETATM    5  C6  UNL     1      -0.769  -0.432   0.121  1.00  0.00     0.097 C 
HETATM    6  C7  UNL     1      -2.004  -0.995  -0.544  1.00  0.00     0.041 C 
HETATM    7  C8  UNL     1      -2.709   0.132  -1.221  1.00  0.00     0.003 C 
HETATM    8  C9  UNL     1      -3.890   0.663  -0.454  1.00  0.00     0.000 C 
HETATM    9  C10 UNL     1      -3.539   1.315   0.834  1.00  0.00     0.000 C 
HETATM   10  C11 UNL     1      -2.486   0.590   1.629  1.00  0.00     0.003 C 
HETATM   11  C12 UNL     1      -1.147   0.767   0.963  1.00  0.00     0.041 C 
HETATM   12  C13 UNL     1       0.201  -0.060  -0.983  1.00  0.00     0.060 C 
HETATM   13  C14 UNL     1       1.218  -1.178  -1.068  1.00  0.00     0.102 C 
HETATM   14 BR1  UNL     1       2.403  -0.971  -2.573  1.00  0.00    -0.087 Br
ENDROOT
BRANCH   1  15
HETATM   15  C3  UNL     1       2.999  -0.032   0.090  1.00  0.00     0.010 C 
HETATM   16  C2  UNL     1       3.292   0.800   1.067  1.00  0.00    -0.032 C 
HETATM   17  C1  UNL     1       4.283   1.879   0.891  1.00  0.00     0.036 C 
ENDBRANCH   1  15
TORSDOF 1
