REMARK  4 active torsions:
REMARK  status: ('A' for Active; 'I' for Inactive)
REMARK    1  A    between atoms: C1_4  and  C2_5 
REMARK    2  A    between atoms: C2_5  and  C3_7 
REMARK    3  A    between atoms: C4_10  and  N3_11 
REMARK    4  A    between atoms: C5_16  and  N5_17 
ROOT
HETATM    1  C3  UNL     1       0.668  -0.036  -0.056  1.00  0.00     0.144 C 
HETATM    2  N2  UNL     1       0.129   1.037  -0.653  1.00  0.00    -0.184 N 
ATOM      3  H2  UNL     1       0.807   1.708  -1.014  1.00  0.00     0.184 HD
HETATM    4  C4  UNL     1      -1.150   1.373  -0.853  1.00  0.00     0.691 C 
HETATM    5  N4  UNL     1      -2.259   0.692  -0.483  1.00  0.00    -0.023 N 
ATOM      6  H4  UNL     1      -3.147   1.162  -0.656  1.00  0.00     0.203 HD
HETATM    7  C5  UNL     1      -2.341  -0.525   0.083  1.00  0.00     0.692 C 
HETATM    8  N6  UNL     1      -1.332  -1.385   0.405  1.00  0.00    -0.174 N 
ATOM      9  H6  UNL     1      -1.603  -2.343   0.626  1.00  0.00     0.186 HD
HETATM   10  C6  UNL     1      -0.021  -1.104   0.462  1.00  0.00     0.146 C 
HETATM   11  N7  UNL     1       0.694  -1.946   1.087  1.00  0.00    -0.383 N 
ATOM     12  H71 UNL     1       0.182  -2.740   1.472  1.00  0.00     0.157 HD
ATOM     13  H72 UNL     1       1.690  -1.732   1.130  1.00  0.00     0.157 HD
ENDROOT
BRANCH   1  14
HETATM   14  C2  UNL     1       2.109  -0.041   0.036  1.00  0.00     0.217 C 
HETATM   15  O1  UNL     1       2.681  -1.018   0.584  1.00  0.00    -0.284 OA
BRANCH  14  16
HETATM   16  C1  UNL     1       2.934   1.035  -0.478  1.00  0.00     0.138 C 
HETATM   17  N1  UNL     1       4.215   1.017  -0.389  1.00  0.00    -0.405 N 
ATOM     18  H12 UNL     1       4.651   0.212   0.061  1.00  0.00     0.155 HD
ATOM     19  H11 UNL     1       4.795   1.774  -0.751  1.00  0.00     0.155 HD
ENDBRANCH  14  16
ENDBRANCH   1  14
BRANCH   4  20
HETATM   20  N3  UNL     1      -1.341   2.469  -1.467  1.00  0.00    -0.234 N 
ATOM     21  H32 UNL     1      -0.505   2.982  -1.746  1.00  0.00     0.174 HD
ATOM     22  H31 UNL     1      -2.316   2.725  -1.620  1.00  0.00     0.174 HD
ENDBRANCH   4  20
BRANCH   7  23
HETATM   23  N5  UNL     1      -3.544  -0.908   0.346  1.00  0.00    -0.234 N 
ATOM     24  H52 UNL     1      -4.298  -0.265   0.105  1.00  0.00     0.174 HD
ATOM     25  H51 UNL     1      -3.606  -1.831   0.775  1.00  0.00     0.174 HD
ENDBRANCH   7  23
TORSDOF 4
