REMARK  4 active torsions:
REMARK  status: ('A' for Active; 'I' for Inactive)
REMARK       I    between atoms: C1_2  and  N2_4 
REMARK    1  A    between atoms: N2_4  and  N3_6 
REMARK       I    between atoms: N3_6  and  C2_8 
REMARK    2  A    between atoms: C2_8  and  O3_10 
REMARK    3  A    between atoms: O3_10  and  N4_11 
REMARK    4  A    between atoms: N4_11  and  C3_13 
ROOT
HETATM    1  O3  UNL     1      -0.048   1.769  -0.584  1.00  0.00    -0.177 OA
ENDROOT
BRANCH   1   2
HETATM    2  C2  UNL     1       0.954   0.884  -0.321  1.00  0.00     0.401 C 
HETATM    3  N3  UNL     1       2.262   0.958  -0.871  1.00  0.00    -0.240 N 
ATOM      4  H3  UNL     1       2.472   1.726  -1.508  1.00  0.00     0.192 HD
HETATM    5  O2  UNL     1       0.729  -0.077   0.463  1.00  0.00    -0.235 OA
BRANCH   3   6
HETATM    6  N2  UNL     1       3.264   0.051  -0.593  1.00  0.00    -0.250 N 
HETATM    7  C1  UNL     1       3.978   0.020   0.635  1.00  0.00     0.347 C 
HETATM    8  N1  UNL     1       4.999  -0.932   0.871  1.00  0.00    -0.038 NA
HETATM    9  O1  UNL     1       3.727   0.840   1.555  1.00  0.00    -0.249 OA
ATOM     10  H2  UNL     1       3.505  -0.635  -1.308  1.00  0.00     0.191 HD
ENDBRANCH   3   6
ENDBRANCH   1   2
BRANCH   1  11
HETATM   11  N4  UNL     1      -1.320   1.722  -0.069  1.00  0.00    -0.226 N 
ATOM     12  H4  UNL     1      -1.700   2.570   0.351  1.00  0.00     0.198 HD
BRANCH  11  13
HETATM   13  C3  UNL     1      -2.139   0.557  -0.088  1.00  0.00     0.196 C 
HETATM   14  N5  UNL     1      -1.974  -0.499  -0.785  1.00  0.00    -0.359 N 
HETATM   15  C4  UNL     1      -3.010  -1.480  -0.541  1.00  0.00     0.142 C 
ATOM     16  H5  UNL     1      -1.202  -0.636  -1.438  1.00  0.00     0.162 HD
HETATM   17  C5  UNL     1      -4.114  -0.663   0.102  1.00  0.00     0.142 C 
HETATM   18  N6  UNL     1      -3.325   0.403   0.716  1.00  0.00    -0.359 N 
ATOM     19  H6  UNL     1      -3.567   0.935   1.552  1.00  0.00     0.162 HD
ENDBRANCH  11  13
ENDBRANCH   1  11
TORSDOF 4
