REMARK  8 active torsions:
REMARK  status: ('A' for Active; 'I' for Inactive)
REMARK    1  A    between atoms: C9_14  and  C10_15 
REMARK    2  A    between atoms: C10_15  and  C11_16 
REMARK    3  A    between atoms: C11_16  and  C12_17 
REMARK    4  A    between atoms: C12_17  and  C13_18 
REMARK    5  A    between atoms: C13_18  and  C14_19 
REMARK    6  A    between atoms: C13_18  and  N5_31 
REMARK    7  A    between atoms: C14_19  and  C15_20 
REMARK    8  A    between atoms: C26_37  and  O2_38 
ROOT
HETATM    1  C10 UNL     1       1.392   0.299   0.808  1.00  0.00     0.025 C 
ENDROOT
BRANCH   1   2
HETATM    2  C9  UNL     1       2.143   0.048  -0.470  1.00  0.00     0.083 C 
HETATM    3  C8  UNL     1       2.331  -1.490  -0.615  1.00  0.00     0.029 C 
HETATM    4  C7  UNL     1       3.571  -2.009   0.093  1.00  0.00     0.030 C 
HETATM    5  C6  UNL     1       4.797  -2.090  -0.722  1.00  0.00    -0.010 C 
HETATM    6  C5  UNL     1       6.138  -1.933  -0.153  1.00  0.00     0.079 C 
HETATM    7  N2  UNL     1       6.540  -0.853   0.617  1.00  0.00    -0.390 N 
HETATM    8  C4  UNL     1       7.132   0.317  -0.027  1.00  0.00     0.221 C 
ATOM      9  H2  UNL     1       6.423  -0.875   1.630  1.00  0.00     0.159 HD
HETATM   10  C3  UNL     1       6.720   1.603   0.585  1.00  0.00     0.235 C 
HETATM   11  N1  UNL     1       6.132   2.766   0.072  1.00  0.00    -0.348 N 
HETATM   12  O1  UNL     1       6.977   1.608   1.857  1.00  0.00    -0.272 OA
HETATM   13  C2  UNL     1       4.772   2.924  -0.493  1.00  0.00     0.154 C 
ATOM     14  H1  UNL     1       6.710   3.606   0.090  1.00  0.00     0.163 HD
HETATM   15  C1  UNL     1       4.946   3.848  -1.691  1.00  0.00     0.041 C 
HETATM   16  C26 UNL     1       4.251   1.599  -0.918  1.00  0.00     0.134 C 
HETATM   17  N6  UNL     1       3.419   0.668  -0.376  1.00  0.00    -0.368 N 
ATOM     18  H6  UNL     1       3.906   0.246   0.414  1.00  0.00     0.161 HD
BRANCH  16  19
HETATM   19  O2  UNL     1       4.794   1.403  -2.084  1.00  0.00    -0.348 OA
ATOM     20  H2  UNL     1       4.461   0.556  -2.356  1.00  0.00     0.219 HD
ENDBRANCH  16  19
ENDBRANCH   1   2
BRANCH   1  21
HETATM   21  C11 UNL     1       0.025  -0.267   0.922  1.00  0.00     0.004 C 
BRANCH  21  22
HETATM   22  C12 UNL     1      -0.905   0.277  -0.095  1.00  0.00     0.034 C 
BRANCH  22  23
HETATM   23  C13 UNL     1      -2.341  -0.218  -0.011  1.00  0.00     0.193 C 
BRANCH  23  24
HETATM   24  C14 UNL     1      -2.941   0.110   1.300  1.00  0.00     0.074 C 
BRANCH  24  25
HETATM   25  C15 UNL     1      -4.337  -0.276   1.563  1.00  0.00    -0.027 A 
HETATM   26  C16 UNL     1      -4.808  -1.283   2.372  1.00  0.00     0.096 A 
HETATM   27  N3  UNL     1      -6.138  -1.248   2.332  1.00  0.00    -0.365 N 
HETATM   28  C17 UNL     1      -6.564  -0.266   1.537  1.00  0.00     0.045 A 
ATOM     29  H3  UNL     1      -6.749  -1.887   2.841  1.00  0.00     0.165 HD
HETATM   30  C18 UNL     1      -7.822   0.179   1.171  1.00  0.00     0.047 A 
HETATM   31  C22 UNL     1      -5.453   0.363   1.038  1.00  0.00     0.014 A 
HETATM   32  C19 UNL     1      -7.937   1.258   0.302  1.00  0.00     0.092 A 
HETATM   33  N4  UNL     1      -6.825   1.853  -0.169  1.00  0.00    -0.370 N 
HETATM   34  C20 UNL     1      -6.983   2.995  -1.087  1.00  0.00     0.154 C 
HETATM   35  C21 UNL     1      -5.594   1.447   0.166  1.00  0.00     0.104 A 
ENDBRANCH  24  25
ENDBRANCH  23  24
BRANCH  23  36
HETATM   36  N5  UNL     1      -2.526  -1.498  -0.576  1.00  0.00    -0.074 N 
HETATM   37  C23 UNL     1      -3.846  -1.764  -1.126  1.00  0.00     0.272 C 
HETATM   38  C24 UNL     1      -1.648  -1.586  -1.773  1.00  0.00     0.272 C 
HETATM   39  C25 UNL     1      -2.166  -2.615   0.227  1.00  0.00     0.272 C 
ENDBRANCH  23  36
ENDBRANCH  22  23
ENDBRANCH  21  22
ENDBRANCH   1  21
TORSDOF 8
