REMARK  7 active torsions:
REMARK  status: ('A' for Active; 'I' for Inactive)
REMARK    1  A    between atoms: N2_6  and  C5_7 
REMARK    2  A    between atoms: C9_11  and  C10_12 
REMARK    3  A    between atoms: C10_12  and  O1_13 
REMARK    4  A    between atoms: O1_13  and  C11_14 
REMARK    5  A    between atoms: C14_17  and  C15_18 
REMARK    6  A    between atoms: C15_18  and  N3_19 
REMARK    7  A    between atoms: C18_22  and  C19_23 
ROOT
HETATM    1  C1  UNL     1      -4.926  -3.152   1.846  1.00  0.00     0.124 C 
HETATM    2  C2  UNL     1      -5.335  -2.478   0.911  1.00  0.00    -0.068 C 
HETATM    3  N1  UNL     1      -5.834  -1.725  -0.167  1.00  0.00    -0.291 N 
HETATM    4  C3  UNL     1      -7.001  -2.173  -0.703  1.00  0.00     0.123 A 
HETATM    5  C4  UNL     1      -7.564  -1.498  -1.760  1.00  0.00     0.109 A 
HETATM    6  N2  UNL     1      -6.967  -0.400  -2.265  1.00  0.00    -0.358 N 
HETATM    7  C7  UNL     1      -5.825   0.007  -1.713  1.00  0.00     0.033 A 
HETATM    8  C8  UNL     1      -5.167   1.217  -2.269  1.00  0.00     0.070 C 
HETATM    9  C9  UNL     1      -5.207  -0.642  -0.635  1.00  0.00     0.070 A 
ENDROOT
BRANCH   9  10
HETATM   10  C10 UNL     1      -3.951  -0.133  -0.087  1.00  0.00     0.236 C 
BRANCH  10  11
HETATM   11  O1  UNL     1      -3.395  -0.817   0.979  1.00  0.00    -0.345 OA
BRANCH  11  12
HETATM   12  C11 UNL     1      -2.212  -0.388   1.545  1.00  0.00     0.069 A 
HETATM   13  C12 UNL     1      -1.661  -1.086   2.622  1.00  0.00     0.037 A 
HETATM   14  C13 UNL     1      -0.476  -0.636   3.171  1.00  0.00     0.011 A 
HETATM   15  C14 UNL     1       0.202   0.476   2.710  1.00  0.00    -0.038 A 
HETATM   16  C26 UNL     1      -0.358   1.153   1.645  1.00  0.00     0.011 A 
HETATM   17  C27 UNL     1      -1.558   0.722   1.067  1.00  0.00     0.037 A 
BRANCH  15  18
HETATM   18  C15 UNL     1       1.471   0.913   3.346  1.00  0.00     0.186 C 
BRANCH  18  19
HETATM   19  N3  UNL     1       2.642   0.289   2.762  1.00  0.00    -0.299 N 
HETATM   20  C16 UNL     1       3.184  -0.867   3.170  1.00  0.00     0.113 A 
HETATM   21  C17 UNL     1       4.271  -1.105   2.367  1.00  0.00     0.052 A 
HETATM   22  C18 UNL     1       4.385  -0.091   1.477  1.00  0.00     0.078 A 
HETATM   23  N6  UNL     1       3.346   0.761   1.757  1.00  0.00    -0.296 N 
ATOM     24  H6  UNL     1       3.150   1.630   1.260  1.00  0.00     0.187 HD
BRANCH  22  25
HETATM   25  C19 UNL     1       5.351   0.170   0.409  1.00  0.00     0.086 A 
HETATM   26  C20 UNL     1       6.634  -0.041   0.564  1.00  0.00     0.035 A 
HETATM   27  C21 UNL     1       7.134  -0.559   1.854  1.00  0.00     0.070 C 
HETATM   28  N4  UNL     1       7.574   0.225  -0.510  1.00  0.00    -0.354 N 
HETATM   29  C22 UNL     1       7.151   0.722  -1.769  1.00  0.00     0.097 A 
ATOM     30  H4  UNL     1       8.567   0.049  -0.355  1.00  0.00     0.166 HD
HETATM   31  C23 UNL     1       8.008   0.960  -2.746  1.00  0.00     0.004 C 
HETATM   32  C25 UNL     1       5.715   0.951  -1.921  1.00  0.00     0.272 A 
HETATM   33  C24 UNL     1       9.445   0.693  -2.500  1.00  0.00     0.038 C 
HETATM   34  O2  UNL     1       5.303   1.389  -3.012  1.00  0.00    -0.266 OA
HETATM   35  N5  UNL     1       4.834   0.677  -0.841  1.00  0.00    -0.318 N 
ATOM     36  H5  UNL     1       3.833   0.839  -0.948  1.00  0.00     0.169 HD
ENDBRANCH  22  25
ENDBRANCH  18  19
ENDBRANCH  15  18
ENDBRANCH  11  12
ENDBRANCH  10  11
ENDBRANCH   9  10
BRANCH   6  37
HETATM   37  C5  UNL     1      -7.600   0.267  -3.366  1.00  0.00     0.124 C 
HETATM   38  C6  UNL     1      -8.566   1.313  -2.827  1.00  0.00     0.027 C 
ENDBRANCH   6  37
TORSDOF 7
