REMARK  10 active torsions:
REMARK  status: ('A' for Active; 'I' for Inactive)
REMARK    1  A    between atoms: C4_4  and  C5_5 
REMARK    2  A    between atoms: C5_5  and  N1_6 
REMARK    3  A    between atoms: C7_8  and  C8_9 
REMARK    4  A    between atoms: C9_10  and  C10_11 
REMARK    5  A    between atoms: C18_21  and  N3_22 
REMARK    6  A    between atoms: N3_22  and  S2_24 
REMARK    7  A    between atoms: S2_24  and  N4_25 
REMARK    8  A    between atoms: C19_30  and  C20_31 
REMARK    9  A    between atoms: C20_31  and  C21_32 
REMARK   10  A    between atoms: C22_33  and  C23_34 
ROOT
HETATM    1  C1  UNL     1      -2.073   0.445  -2.024  1.00  0.00     0.020 C 
HETATM    2  C2  UNL     1      -1.915  -0.402  -1.077  1.00  0.00    -0.054 C 
HETATM    3  C3  UNL     1      -0.784  -1.274  -0.977  1.00  0.00    -0.039 C 
HETATM    4  C4  UNL     1       0.457  -0.936  -1.205  1.00  0.00     0.002 C 
HETATM    5  C16 UNL     1      -1.053  -2.668  -0.505  1.00  0.00     0.096 A 
HETATM    6  S1  UNL     1      -1.226  -2.725   1.298  1.00  0.00    -0.150 SA
HETATM    7  C17 UNL     1      -2.414  -2.977  -0.043  1.00  0.00     0.090 A 
HETATM    8  C18 UNL     1      -3.472  -1.973  -0.357  1.00  0.00     0.118 C 
HETATM    9  C19 UNL     1      -3.000  -0.591  -0.027  1.00  0.00     0.046 C 
ENDROOT
BRANCH   4  10
HETATM   10  C5  UNL     1       1.058   0.330  -1.592  1.00  0.00     0.157 C 
BRANCH  10  11
HETATM   11  N1  UNL     1       2.093   0.742  -0.616  1.00  0.00    -0.348 N 
HETATM   12  C6  UNL     1       3.346   0.339  -0.837  1.00  0.00     0.114 A 
HETATM   13  C7  UNL     1       4.360   0.698   0.056  1.00  0.00     0.048 A 
HETATM   14  C13 UNL     1       3.965   1.465   1.128  1.00  0.00     0.113 A 
HETATM   15  N2  UNL     1       2.692   1.855   1.321  1.00  0.00    -0.356 N 
HETATM   16  C14 UNL     1       2.295   2.664   2.457  1.00  0.00     0.156 C 
HETATM   17  C15 UNL     1       1.740   1.488   0.436  1.00  0.00     0.184 A 
BRANCH  13  18
HETATM   18  C8  UNL     1       5.720   0.280  -0.153  1.00  0.00    -0.064 C 
HETATM   19  C9  UNL     1       6.869  -0.058  -0.318  1.00  0.00    -0.097 C 
BRANCH  19  20
HETATM   20  C10 UNL     1       8.269  -0.446  -0.517  1.00  0.00     0.057 C 
HETATM   21  C11 UNL     1       8.406  -1.617  -1.464  1.00  0.00     0.023 C 
HETATM   22  C12 UNL     1       8.994   0.778  -1.029  1.00  0.00     0.023 C 
ENDBRANCH  19  20
ENDBRANCH  13  18
ENDBRANCH  10  11
ENDBRANCH   4  10
BRANCH   9  23
HETATM   23  C20 UNL     1      -3.981   0.523  -0.127  1.00  0.00     0.038 C 
BRANCH  23  24
HETATM   24  C21 UNL     1      -5.040   0.480   0.888  1.00  0.00    -0.030 C 
HETATM   25  C22 UNL     1      -5.273   1.403   1.806  1.00  0.00    -0.031 C 
BRANCH  25  26
HETATM   26  C23 UNL     1      -4.474   2.645   1.941  1.00  0.00     0.022 C 
HETATM   27  C24 UNL     1      -3.848   2.659   3.330  1.00  0.00     0.009 C 
ENDBRANCH  25  26
ENDBRANCH  23  24
ENDBRANCH   9  23
BRANCH   8  28
HETATM   28  N3  UNL     1      -4.758  -2.367   0.124  1.00  0.00    -0.296 N 
ATOM     29  H3  UNL     1      -5.000  -2.377   1.115  1.00  0.00     0.174 HD
BRANCH  28  30
HETATM   30  S2  UNL     1      -5.854  -2.820  -1.105  1.00  0.00     0.313 S 
HETATM   31  O1  UNL     1      -5.035  -3.386  -2.250  1.00  0.00    -0.183 OA
HETATM   32  O2  UNL     1      -6.769  -3.875  -0.549  1.00  0.00    -0.183 OA
BRANCH  30  33
HETATM   33  N4  UNL     1      -6.807  -1.557  -1.725  1.00  0.00    -0.312 N 
ATOM     34  H42 UNL     1      -6.719  -0.602  -1.377  1.00  0.00     0.170 HD
ATOM     35  H41 UNL     1      -7.462  -1.828  -2.459  1.00  0.00     0.170 HD
ENDBRANCH  30  33
ENDBRANCH  28  30
ENDBRANCH   8  28
TORSDOF 10
