REMARK  10 active torsions:
REMARK  status: ('A' for Active; 'I' for Inactive)
REMARK    1  A    between atoms: C2_2  and  C3_3 
REMARK    2  A    between atoms: C3_3  and  C4_4 
REMARK    3  A    between atoms: C5_5  and  C6_6 
REMARK    4  A    between atoms: C7_9  and  C8_10 
REMARK    5  A    between atoms: C9_11  and  C10_12 
REMARK    6  A    between atoms: C11_13  and  C12_14 
REMARK    7  A    between atoms: C12_14  and  N1_15 
REMARK    8  A    between atoms: N1_15  and  C13_16 
REMARK    9  A    between atoms: C13_16  and  C14_17 
REMARK   10  A    between atoms: C20_28  and  C21_29 
ROOT
HETATM    1  C4  UNL     1      -3.324  -1.646   0.011  1.00  0.00     0.036 C 
HETATM    2  C5  UNL     1      -1.815  -1.982   0.284  1.00  0.00     0.029 C 
HETATM    3  C7  UNL     1      -1.104  -0.913   0.057  1.00  0.00    -0.043 C 
HETATM    4  C19 UNL     1      -1.970   0.209  -0.321  1.00  0.00     0.051 C 
HETATM    5  C20 UNL     1      -3.352  -0.268   0.346  1.00  0.00     0.049 C 
ENDROOT
BRANCH   3   6
HETATM    6  C8  UNL     1       0.335  -0.826   0.196  1.00  0.00     0.017 C 
HETATM    7  C9  UNL     1       1.115   0.210  -0.020  1.00  0.00     0.065 C 
BRANCH   7   8
HETATM    8  C10 UNL     1       2.551  -0.010   0.202  1.00  0.00    -0.077 C 
HETATM    9  C11 UNL     1       3.713  -0.270   0.402  1.00  0.00    -0.073 C 
BRANCH   9  10
HETATM   10  C12 UNL     1       5.060  -0.651   0.664  1.00  0.00     0.337 C 
BRANCH  10  11
HETATM   11  N1  UNL     1       6.100   0.070   0.002  1.00  0.00    -0.029 N 
HETATM   12  C15 UNL     1       5.738   1.095  -0.893  1.00  0.00     0.271 C 
HETATM   13  C16 UNL     1       5.535   2.475  -0.385  1.00  0.00     0.260 C 
HETATM   14  N3  UNL     1       6.563   2.856   0.546  1.00  0.00    -0.072 N 
HETATM   15  C17 UNL     1       6.436   1.883   1.651  1.00  0.00     0.260 C 
ATOM     16  H32 UNL     1       7.497   2.905   0.139  1.00  0.00     0.277 HD
ATOM     17  H31 UNL     1       6.517   3.831   0.842  1.00  0.00     0.277 HD
HETATM   18  C18 UNL     1       6.952   0.589   1.127  1.00  0.00     0.271 C 
BRANCH  11  19
HETATM   19  C13 UNL     1       6.978  -0.927  -0.590  1.00  0.00     0.274 C 
BRANCH  19  20
HETATM   20  C14 UNL     1       6.781  -1.294  -1.975  1.00  0.00     0.278 C 
HETATM   21  N2  UNL     1       7.645  -2.286  -2.582  1.00  0.00    -0.057 NA
HETATM   22  O3  UNL     1       5.916  -0.839  -2.759  1.00  0.00    -0.270 OA
ENDBRANCH  19  20
ENDBRANCH  11  19
ENDBRANCH  10  11
ENDBRANCH   9  10
ENDBRANCH   7   8
ENDBRANCH   3   6
BRANCH   2  23
HETATM   23  C6  UNL     1      -1.419  -3.302   0.668  1.00  0.00     0.206 C 
HETATM   24  O1  UNL     1      -0.203  -3.631   0.838  1.00  0.00    -0.644 OA
HETATM   25  O2  UNL     1      -2.325  -4.330   0.896  1.00  0.00    -0.644 OA
ENDBRANCH   2  23
BRANCH   1  26
HETATM   26  C3  UNL     1      -3.572  -2.355  -1.238  1.00  0.00     0.010 C 
BRANCH  26  27
HETATM   27  C2  UNL     1      -4.905  -2.461  -1.864  1.00  0.00    -0.004 C 
HETATM   28  C1  UNL     1      -5.919  -3.118  -0.921  1.00  0.00     0.005 C 
ENDBRANCH  26  27
ENDBRANCH   1  26
BRANCH   5  29
HETATM   29  C21 UNL     1      -4.311   0.726  -0.124  1.00  0.00     0.021 A 
HETATM   30  N4  UNL     1      -4.851   0.998  -1.301  1.00  0.00    -0.362 N 
HETATM   31  C22 UNL     1      -5.614   2.108  -1.301  1.00  0.00     0.012 A 
ATOM     32  H4  UNL     1      -4.703   0.422  -2.130  1.00  0.00     0.165 HD
HETATM   33  C23 UNL     1      -6.355   2.667  -2.482  1.00  0.00     0.068 C 
HETATM   34  C24 UNL     1      -5.570   2.600  -0.025  1.00  0.00    -0.032 A 
HETATM   35  C25 UNL     1      -6.282   3.817   0.500  1.00  0.00     0.050 C 
HETATM   36  C26 UNL     1      -4.769   1.765   0.716  1.00  0.00    -0.031 A 
HETATM   37  C27 UNL     1      -4.461   1.910   2.163  1.00  0.00     0.051 C 
ENDBRANCH   5  29
TORSDOF 10
