REMARK  2 active torsions:
REMARK  status: ('A' for Active; 'I' for Inactive)
REMARK    1  A    between atoms: N1_3  and  C3_4 
REMARK    2  A    between atoms: C3_4  and  C4_5 
ROOT
HETATM    1  C4  UNL     1       1.091  -0.828   0.168  1.00  0.00     0.410 C 
HETATM    2  N2  UNL     1       2.146  -1.146   1.082  1.00  0.00    -0.043 N 
ATOM      3  H21 UNL     1       2.698  -1.952   0.789  1.00  0.00     0.279 HD
ATOM      4  H22 UNL     1       1.808  -1.531   1.964  1.00  0.00     0.279 HD
HETATM    5  C5  UNL     1       2.937   0.049   1.254  1.00  0.00     0.262 C 
HETATM    6  C6  UNL     1       2.654   0.819  -0.005  1.00  0.00     0.262 C 
HETATM    7  N3  UNL     1       1.767   0.019  -0.814  1.00  0.00    -0.043 N 
ATOM      8  H31 UNL     1       1.141   0.555  -1.414  1.00  0.00     0.279 HD
ATOM      9  H32 UNL     1       2.225  -0.490  -1.570  1.00  0.00     0.279 HD
ENDROOT
BRANCH   1  10
HETATM   10  C3  UNL     1       0.003   0.021   0.789  1.00  0.00     0.337 C 
BRANCH  10  11
HETATM   11  N1  UNL     1      -1.005   0.279  -0.223  1.00  0.00     0.119 N 
HETATM   12  C2  UNL     1      -2.079   1.085   0.295  1.00  0.00     0.302 C 
HETATM   13  C1  UNL     1      -3.364   0.441  -0.188  1.00  0.00     0.264 C 
HETATM   14  N4  UNL     1      -2.886  -0.398  -1.273  1.00  0.00    -0.047 N 
HETATM   15  C7  UNL     1      -1.641  -0.917  -0.691  1.00  0.00     0.502 C 
ATOM     16  H42 UNL     1      -3.543  -1.103  -1.606  1.00  0.00     0.279 HD
ATOM     17  H41 UNL     1      -2.789   0.065  -2.177  1.00  0.00     0.279 HD
ENDBRANCH  10  11
ENDBRANCH   1  10
TORSDOF 2
