REMARK  2 active torsions:
REMARK  status: ('A' for Active; 'I' for Inactive)
REMARK    1  A    between atoms: N3_4  and  N4_6 
REMARK    2  A    between atoms: C5_11  and  N5_12 
ROOT
HETATM    1  N4  UNL     1       0.863  -0.096   1.397  1.00  0.00    -0.307 N 
ATOM      2  H4  UNL     1       0.700  -0.441   2.343  1.00  0.00     0.186 HD
HETATM    3  C2  UNL     1      -0.136   0.166   0.644  1.00  0.00     0.005 C 
HETATM    4  C3  UNL     1      -0.058   0.668  -0.745  1.00  0.00     0.056 C 
HETATM    5  C4  UNL     1      -1.504   0.826  -1.203  1.00  0.00     0.039 C 
HETATM    6  C5  UNL     1      -2.202   1.097   0.113  1.00  0.00     0.189 C 
HETATM    7  C6  UNL     1      -1.566   0.022   0.998  1.00  0.00     0.086 C 
ENDROOT
BRANCH   1   8
HETATM    8  N3  UNL     1       2.176   0.081   0.948  1.00  0.00    -0.276 N 
HETATM    9  C1  UNL     1       2.802  -0.927   0.455  1.00  0.00     0.215 C 
HETATM   10  N1  UNL     1       2.201  -2.198   0.357  1.00  0.00    -0.065 NA
HETATM   11  N2  UNL     1       4.132  -0.740   0.002  1.00  0.00    -0.065 NA
ATOM     12  H3  UNL     1       2.628   0.993   1.011  1.00  0.00     0.189 HD
ENDBRANCH   1   8
BRANCH   6  13
HETATM   13  N5  UNL     1      -3.630   0.892  -0.022  1.00  0.00    -0.075 N 
ATOM     14  H53 UNL     1      -4.023   1.447  -0.782  1.00  0.00     0.274 HD
ATOM     15  H52 UNL     1      -3.848  -0.036  -0.384  1.00  0.00     0.274 HD
ATOM     16  H51 UNL     1      -4.100   1.075   0.865  1.00  0.00     0.274 HD
ENDBRANCH   6  13
TORSDOF 2
