REMARK  1 active torsions:
REMARK  status: ('A' for Active; 'I' for Inactive)
REMARK    1  A    between atoms: N3_4  and  N4_6 
ROOT
HETATM    1  N4  UNL     1      -0.936   0.492  -1.043  1.00  0.00    -0.287 N 
ATOM      2  H4  UNL     1      -1.093   1.293  -1.654  1.00  0.00     0.188 HD
HETATM    3  C2  UNL     1       0.244   0.303  -0.507  1.00  0.00     0.099 C 
HETATM    4  C3  UNL     1       0.446  -0.870   0.380  1.00  0.00     0.097 C 
HETATM    5  C4  UNL     1       1.881  -1.284   0.507  1.00  0.00     0.130 C 
HETATM    6  N5  UNL     1       2.728  -0.634  -0.453  1.00  0.00    -0.364 N 
ATOM      7  H5  UNL     1       3.465  -1.157  -0.925  1.00  0.00     0.162 HD
HETATM    8  C5  UNL     1       2.532   0.743  -0.741  1.00  0.00     0.189 C 
HETATM    9  N6  UNL     1       3.653   1.594  -0.996  1.00  0.00    -0.064 NA
HETATM   10  N7  UNL     1       1.315   1.205  -0.767  1.00  0.00    -0.319 N 
ATOM     11  H7  UNL     1       1.133   2.188  -0.969  1.00  0.00     0.169 HD
ENDROOT
BRANCH   1  12
HETATM   12  N3  UNL     1      -1.973  -0.392  -0.784  1.00  0.00    -0.275 N 
HETATM   13  C1  UNL     1      -3.030   0.033  -0.196  1.00  0.00     0.215 C 
HETATM   14  N1  UNL     1      -3.124   1.388   0.176  1.00  0.00    -0.065 NA
HETATM   15  N2  UNL     1      -4.075  -0.898   0.055  1.00  0.00    -0.065 NA
ATOM     16  H3  UNL     1      -1.895  -1.371  -1.059  1.00  0.00     0.189 HD
ENDBRANCH   1  12
TORSDOF 1
