REMARK  4 active torsions:
REMARK  status: ('A' for Active; 'I' for Inactive)
REMARK    1  A    between atoms: C2_2  and  N1_3 
REMARK    2  A    between atoms: C2_2  and  C3_7 
REMARK    3  A    between atoms: C3_7  and  N2_9 
REMARK    4  A    between atoms: N2_9  and  C5_11 
ROOT
HETATM    1  N2  UNL     1       0.557  -0.903   0.792  1.00  0.00    -0.217 N 
ATOM      2  H2  UNL     1       0.191  -1.525   1.513  1.00  0.00     0.178 HD
ENDROOT
BRANCH   1   3
HETATM    3  C3  UNL     1      -0.353  -0.452  -0.219  1.00  0.00     0.125 C 
HETATM    4  C4  UNL     1      -0.954  -1.700  -0.867  1.00  0.00     0.035 C 
BRANCH   3   5
HETATM    5  C2  UNL     1      -1.505   0.349   0.341  1.00  0.00     0.202 C 
HETATM    6  C1  UNL     1      -2.441   0.727  -0.767  1.00  0.00     0.042 C 
BRANCH   5   7
HETATM    7  N1  UNL     1      -0.991   1.530   1.036  1.00  0.00    -0.073 N 
ATOM      8  H13 UNL     1      -0.555   2.185   0.387  1.00  0.00     0.274 HD
ATOM      9  H12 UNL     1      -1.749   2.123   1.374  1.00  0.00     0.274 HD
ATOM     10  H11 UNL     1      -0.354   1.273   1.790  1.00  0.00     0.274 HD
ENDBRANCH   5   7
ENDBRANCH   3   5
ENDBRANCH   1   3
BRANCH   1  11
HETATM   11  C5  UNL     1       1.801  -0.582   0.859  1.00  0.00     0.710 A 
HETATM   12  N3  UNL     1       2.619  -1.026   1.821  1.00  0.00    -0.115 N 
HETATM   13  N4  UNL     1       3.810  -0.506   1.589  1.00  0.00    -0.213 N 
ATOM     14  H3  UNL     1       2.369  -1.649   2.589  1.00  0.00     0.207 HD
HETATM   15  N5  UNL     1       3.767   0.248   0.514  1.00  0.00    -0.213 N 
ATOM     16  H4  UNL     1       4.640  -0.666   2.160  1.00  0.00     0.210 HD
HETATM   17  N6  UNL     1       2.530   0.205   0.060  1.00  0.00    -0.115 N 
ATOM     18  H5  UNL     1       4.544   0.769   0.107  1.00  0.00     0.210 HD
ATOM     19  H6  UNL     1       2.185   0.693  -0.767  1.00  0.00     0.207 HD
ENDBRANCH   1  11
TORSDOF 4
