REMARK  17 active torsions:
REMARK  status: ('A' for Active; 'I' for Inactive)
REMARK    1  A    between atoms: C2_2  and  C3_3 
REMARK    2  A    between atoms: C3_3  and  C4_4 
REMARK    3  A    between atoms: C4_4  and  C5_5 
REMARK    4  A    between atoms: C7_10  and  C8_11 
REMARK    5  A    between atoms: C8_11  and  C9_12 
REMARK    6  A    between atoms: N2_15  and  C12_16 
REMARK    7  A    between atoms: C12_16  and  C13_17 
REMARK    8  A    between atoms: C13_17  and  O2_18 
REMARK    9  A    between atoms: N3_20  and  O3_22 
REMARK   10  A    between atoms: N4_24  and  C14_25 
REMARK   11  A    between atoms: C14_25  and  C15_26 
REMARK   12  A    between atoms: C22_34  and  C23_35 
REMARK   13  A    between atoms: C23_35  and  C24_36 
REMARK   14  A    between atoms: C27_41  and  O5_42 
REMARK   15  A    between atoms: C28_44  and  C29_45 
REMARK   16  A    between atoms: C29_45  and  C30_46 
REMARK   17  A    between atoms: C30_46  and  C31_47 
ROOT
HETATM    1  C5  UNL     1      -2.632  -1.452   0.479  1.00  0.00     0.176 C 
HETATM    2  N1  UNL     1      -1.727  -2.574   0.423  1.00  0.00    -0.346 N 
ATOM      3  H1  UNL     1      -2.155  -3.482   0.604  1.00  0.00     0.163 HD
HETATM    4  C6  UNL     1      -0.363  -2.609   0.161  1.00  0.00     0.243 C 
HETATM    5  O1  UNL     1       0.397  -3.115   0.992  1.00  0.00    -0.271 OA
HETATM    6  C7  UNL     1       0.335  -2.068  -1.113  1.00  0.00     0.200 C 
HETATM    7  N2  UNL     1       1.648  -1.680  -0.762  1.00  0.00    -0.277 N 
HETATM    8  N4  UNL     1       1.768  -0.896   0.398  1.00  0.00    -0.234 N 
HETATM    9  C21 UNL     1       0.896   0.165   0.769  1.00  0.00     0.265 C 
HETATM   10  O4  UNL     1       0.510   0.130   2.003  1.00  0.00    -0.269 OA
HETATM   11  C22 UNL     1       0.377   1.283  -0.040  1.00  0.00     0.178 C 
HETATM   12  N5  UNL     1      -0.494   2.088   0.821  1.00  0.00    -0.359 N 
ATOM     13  H5  UNL     1      -0.070   2.910   1.251  1.00  0.00     0.162 HD
HETATM   14  C27 UNL     1      -1.848   1.855   1.122  1.00  0.00     0.135 C 
HETATM   15  C28 UNL     1      -2.962   1.531   0.228  1.00  0.00     0.159 C 
HETATM   16  N6  UNL     1      -2.691   0.663  -0.864  1.00  0.00    -0.347 N 
ATOM     17  H6  UNL     1      -2.383   1.077  -1.744  1.00  0.00     0.163 HD
HETATM   18  C32 UNL     1      -2.826  -0.761  -0.798  1.00  0.00     0.241 C 
HETATM   19  O8  UNL     1      -3.107  -1.391  -1.826  1.00  0.00    -0.271 OA
ENDROOT
BRANCH   7  20
HETATM   20  C12 UNL     1       2.760  -1.719  -1.566  1.00  0.00     0.169 C 
BRANCH  20  21
HETATM   21  C13 UNL     1       3.029  -0.713  -2.596  1.00  0.00     0.177 C 
HETATM   22  N3  UNL     1       4.272  -0.364  -2.812  1.00  0.00    -0.246 N 
ATOM     23  H3  UNL     1       5.037  -0.779  -2.280  1.00  0.00     0.196 HD
BRANCH  21  24
HETATM   24  O2  UNL     1       2.023  -0.135  -3.330  1.00  0.00    -0.344 OA
ATOM     25  H2  UNL     1       2.197   0.517  -3.998  1.00  0.00     0.219 HD
ENDBRANCH  21  24
BRANCH  22  26
HETATM   26  O3  UNL     1       4.510   0.576  -3.775  1.00  0.00    -0.288 OA
ATOM     27  H3  UNL     1       5.412   0.829  -3.932  1.00  0.00     0.244 HD
ENDBRANCH  22  26
ENDBRANCH  20  21
ENDBRANCH   7  20
BRANCH   6  28
HETATM   28  C8  UNL     1       0.119  -3.226  -2.012  1.00  0.00     0.041 C 
BRANCH  28  29
HETATM   29  C9  UNL     1       0.482  -3.282  -3.418  1.00  0.00    -0.020 C 
HETATM   30  C10 UNL     1       0.103  -4.705  -3.939  1.00  0.00     0.009 C 
HETATM   31  C11 UNL     1      -0.556  -2.409  -4.208  1.00  0.00     0.009 C 
ENDBRANCH  28  29
ENDBRANCH   6  28
BRANCH   8  32
HETATM   32  C14 UNL     1       2.783  -1.224   1.348  1.00  0.00     0.097 C 
BRANCH  32  33
HETATM   33  C15 UNL     1       4.088  -0.588   1.430  1.00  0.00     0.026 C 
HETATM   34  C16 UNL     1       4.869  -1.268   2.602  1.00  0.00     0.010 C 
HETATM   35  C17 UNL     1       4.573  -0.542   3.908  1.00  0.00     0.001 C 
HETATM   36  C18 UNL     1       5.391   0.738   3.850  1.00  0.00     0.000 C 
HETATM   37  C19 UNL     1       5.525   1.176   2.400  1.00  0.00     0.001 C 
HETATM   38  C20 UNL     1       4.170   0.873   1.764  1.00  0.00     0.010 C 
ENDBRANCH  32  33
ENDBRANCH   8  32
BRANCH  11  39
HETATM   39  C23 UNL     1       1.456   2.235  -0.514  1.00  0.00     0.038 C 
BRANCH  39  40
HETATM   40  C24 UNL     1       1.055   3.359  -1.377  1.00  0.00    -0.020 C 
HETATM   41  C25 UNL     1       2.395   4.096  -1.709  1.00  0.00     0.009 C 
HETATM   42  C26 UNL     1       0.200   4.430  -0.802  1.00  0.00     0.009 C 
ENDBRANCH  39  40
ENDBRANCH  11  39
BRANCH   1  43
HETATM   43  C4  UNL     1      -4.047  -1.893   0.912  1.00  0.00     0.035 C 
BRANCH  43  44
HETATM   44  C3  UNL     1      -4.032  -2.520   2.263  1.00  0.00     0.002 C 
BRANCH  44  45
HETATM   45  C2  UNL     1      -5.460  -2.930   2.637  1.00  0.00    -0.004 C 
HETATM   46  C1  UNL     1      -6.332  -1.682   2.652  1.00  0.00     0.005 C 
ENDBRANCH  44  45
ENDBRANCH  43  44
ENDBRANCH   1  43
BRANCH  14  47
HETATM   47  O5  UNL     1      -2.176   1.937   2.379  1.00  0.00    -0.348 OA
ATOM     48  H5  UNL     1      -3.091   1.780   2.582  1.00  0.00     0.219 HD
ENDBRANCH  14  47
BRANCH  15  49
HETATM   49  C29 UNL     1      -3.631   2.776  -0.332  1.00  0.00     0.044 C 
BRANCH  49  50
HETATM   50  C30 UNL     1      -4.180   3.657   0.734  1.00  0.00     0.116 C 
BRANCH  50  51
HETATM   51  C31 UNL     1      -4.808   4.846   0.116  1.00  0.00     0.172 C 
HETATM   52  O6  UNL     1      -4.808   4.960  -1.143  1.00  0.00    -0.648 OA
HETATM   53  O7  UNL     1      -5.402   5.853   0.852  1.00  0.00    -0.648 OA
ENDBRANCH  50  51
ENDBRANCH  49  50
ENDBRANCH  15  49
TORSDOF 17
