REMARK  18 active torsions:
REMARK  status: ('A' for Active; 'I' for Inactive)
REMARK    1  A    between atoms: C2_2  and  C3_3 
REMARK    2  A    between atoms: C3_3  and  C4_4 
REMARK       I    between atoms: C4_4  and  N1_6 
REMARK    3  A    between atoms: N1_6  and  C5_8 
REMARK    4  A    between atoms: C5_8  and  C7_10 
REMARK    5  A    between atoms: C7_10  and  O3_16 
REMARK    6  A    between atoms: C8_11  and  C9_12 
REMARK    7  A    between atoms: C9_12  and  O2_14 
REMARK    8  A    between atoms: O3_16  and  C12_17 
REMARK    9  A    between atoms: C12_17  and  O4_18 
REMARK   10  A    between atoms: C14_21  and  O5_22 
REMARK   11  A    between atoms: C19_28  and  C31_47 
REMARK   12  A    between atoms: C21_30  and  C22_31 
REMARK   13  A    between atoms: C22_31  and  C23_32 
REMARK       I    between atoms: C23_32  and  N2_34 
REMARK   14  A    between atoms: N2_34  and  C24_36 
REMARK   15  A    between atoms: C24_36  and  C25_37 
REMARK   16  A    between atoms: C24_36  and  C28_42 
REMARK   17  A    between atoms: C25_37  and  C26_38 
REMARK   18  A    between atoms: C26_38  and  C27_39 
ROOT
HETATM    1  C12 UNL     1      -1.984  -0.686  -1.020  1.00  0.00     0.173 C 
HETATM    2  C13 UNL     1      -1.739   0.796  -1.190  1.00  0.00     0.107 C 
HETATM    3  C14 UNL     1      -0.310   1.100  -1.652  1.00  0.00     0.067 C 
HETATM    4  C15 UNL     1      -0.051   2.572  -1.582  1.00  0.00     0.039 C 
HETATM    5  C16 UNL     1       1.304   3.033  -1.252  1.00  0.00     0.008 C 
HETATM    6  C17 UNL     1       2.389   2.087  -0.943  1.00  0.00    -0.004 C 
HETATM    7  C18 UNL     1       2.068   0.638  -1.050  1.00  0.00     0.001 C 
HETATM    8  C19 UNL     1       2.546   0.282  -2.412  1.00  0.00    -0.004 C 
HETATM    9  C20 UNL     1       2.854   1.600  -3.136  1.00  0.00     0.011 C 
HETATM   10  C21 UNL     1       3.577   2.212  -1.911  1.00  0.00     0.008 C 
HETATM   11  C32 UNL     1       0.621   0.392  -0.746  1.00  0.00     0.025 C 
HETATM   12  C33 UNL     1       0.327  -1.072  -0.524  1.00  0.00     0.017 C 
HETATM   13  C34 UNL     1      -1.099  -1.228   0.038  1.00  0.00     0.045 C 
HETATM   14  C35 UNL     1      -1.162  -0.581   1.367  1.00  0.00     0.015 C 
ENDROOT
BRANCH   1  15
HETATM   15  O3  UNL     1      -3.308  -0.986  -1.033  1.00  0.00    -0.316 OA
BRANCH  15  16
HETATM   16  C7  UNL     1      -4.381  -0.776  -0.270  1.00  0.00     0.071 C 
HETATM   17  C8  UNL     1      -4.886  -1.678   0.526  1.00  0.00     0.039 C 
BRANCH  16  18
HETATM   18  C5  UNL     1      -5.057   0.569  -0.321  1.00  0.00     0.137 C 
HETATM   19  C6  UNL     1      -5.474   0.891  -1.752  1.00  0.00     0.039 C 
BRANCH  18  20
HETATM   20  N1  UNL     1      -6.267   0.574   0.458  1.00  0.00    -0.351 N 
HETATM   21  C4  UNL     1      -6.538   1.370   1.585  1.00  0.00     0.218 C 
HETATM   22  O1  UNL     1      -5.679   2.171   2.002  1.00  0.00    -0.274 OA
ATOM     23  H1  UNL     1      -7.004  -0.066   0.162  1.00  0.00     0.163 HD
BRANCH  21  24
HETATM   24  C3  UNL     1      -7.837   1.263   2.279  1.00  0.00     0.102 C 
BRANCH  24  25
HETATM   25  C2  UNL     1      -7.934   2.201   3.467  1.00  0.00     0.005 C 
HETATM   26  C1  UNL     1      -9.287   2.062   4.143  1.00  0.00     0.005 C 
ENDBRANCH  24  25
ENDBRANCH  21  24
ENDBRANCH  18  20
ENDBRANCH  16  18
BRANCH  17  27
HETATM   27  C9  UNL     1      -4.434  -3.052   0.764  1.00  0.00     0.142 C 
HETATM   28  C10 UNL     1      -4.324  -3.247   2.275  1.00  0.00     0.044 C 
BRANCH  27  29
HETATM   29  O2  UNL     1      -5.293  -4.004   0.212  1.00  0.00    -0.387 OA
HETATM   30  C11 UNL     1      -4.624  -4.864  -0.660  1.00  0.00     0.202 C 
ENDBRANCH  27  29
ENDBRANCH  17  27
ENDBRANCH  15  16
ENDBRANCH   1  15
BRANCH   1  31
HETATM   31  O4  UNL     1      -1.468  -1.273  -2.223  1.00  0.00    -0.364 OA
ATOM     32  H4  UNL     1      -0.542  -1.063  -2.214  1.00  0.00     0.213 HD
ENDBRANCH   1  31
BRANCH   3  33
HETATM   33  O5  UNL     1      -0.275   0.599  -2.964  1.00  0.00    -0.389 OA
ATOM     34  H5  UNL     1       0.611   0.787  -3.250  1.00  0.00     0.210 HD
ENDBRANCH   3  33
BRANCH   8  35
HETATM   35  C31 UNL     1       4.009  -0.157  -2.186  1.00  0.00     0.008 A 
HETATM   36  C22 UNL     1       4.616   1.186  -1.750  1.00  0.00     0.049 A 
HETATM   37  C29 UNL     1       5.506   1.067  -2.978  1.00  0.00     0.020 A 
HETATM   38  C30 UNL     1       4.868  -0.235  -3.389  1.00  0.00     0.007 A 
BRANCH  36  39
HETATM   39  C23 UNL     1       5.423   1.156  -0.526  1.00  0.00     0.228 C 
HETATM   40  O6  UNL     1       5.256   1.948   0.447  1.00  0.00    -0.273 OA
HETATM   41  N2  UNL     1       6.464   0.210  -0.365  1.00  0.00    -0.347 N 
ATOM     42  H2  UNL     1       6.646  -0.456  -1.116  1.00  0.00     0.163 HD
BRANCH  41  43
HETATM   43  C24 UNL     1       7.280   0.157   0.834  1.00  0.00     0.174 C 
BRANCH  43  44
HETATM   44  C25 UNL     1       7.337  -1.231   1.357  1.00  0.00     0.043 C 
BRANCH  44  45
HETATM   45  C26 UNL     1       6.002  -1.778   1.708  1.00  0.00     0.102 C 
BRANCH  45  46
HETATM   46  C27 UNL     1       5.343  -1.032   2.773  1.00  0.00     0.231 C 
HETATM   47  N3  UNL     1       3.962  -1.249   3.119  1.00  0.00    -0.062 NA
HETATM   48  O7  UNL     1       5.950  -0.162   3.446  1.00  0.00    -0.277 OA
ENDBRANCH  45  46
ENDBRANCH  44  45
ENDBRANCH  43  44
BRANCH  43  49
HETATM   49  C28 UNL     1       8.694   0.548   0.498  1.00  0.00     0.254 C 
HETATM   50  N4  UNL     1       9.711   0.600   1.471  1.00  0.00    -0.060 NA
HETATM   51  O8  UNL     1       8.978   0.837  -0.689  1.00  0.00    -0.275 OA
ENDBRANCH  43  49
ENDBRANCH  41  43
ENDBRANCH  36  39
ENDBRANCH   8  35
TORSDOF 18
