REMARK  14 active torsions:
REMARK  status: ('A' for Active; 'I' for Inactive)
REMARK    1  A    between atoms: C2_2  and  C3_3 
REMARK    2  A    between atoms: C3_3  and  C4_4 
REMARK    3  A    between atoms: C4_4  and  C5_5 
REMARK    4  A    between atoms: C5_5  and  C6_6 
REMARK    5  A    between atoms: C6_6  and  C7_7 
REMARK    6  A    between atoms: C7_7  and  C8_8 
REMARK    7  A    between atoms: C8_8  and  C9_9 
REMARK       I    between atoms: C9_9  and  N1_11 
REMARK    8  A    between atoms: N1_11  and  C10_12 
REMARK    9  A    between atoms: C10_12  and  C11_13 
REMARK   10  A    between atoms: C11_13  and  O2_14 
REMARK   11  A    between atoms: O2_14  and  C12_15 
REMARK   12  A    between atoms: C15_18  and  C16_19 
REMARK   13  A    between atoms: C27_32  and  O3_33 
REMARK   14  A    between atoms: C33_47  and  O7_48 
ROOT
HETATM    1  C12 UNL     1      -0.543  -0.434   0.319  1.00  0.00     0.159 C 
HETATM    2  C13 UNL     1      -1.481  -1.367  -0.367  1.00  0.00     0.006 C 
HETATM    3  C14 UNL     1      -2.743  -1.571  -0.631  1.00  0.00     0.003 C 
HETATM    4  C15 UNL     1      -4.072  -0.946  -0.383  1.00  0.00    -0.060 C 
HETATM    5  C22 UNL     1      -4.052   0.517  -0.068  1.00  0.00     0.058 C 
HETATM    6  C23 UNL     1      -5.382   1.101  -0.647  1.00  0.00     0.048 C 
HETATM    7  C24 UNL     1      -5.425   2.574  -0.650  1.00  0.00    -0.023 C 
HETATM    8  C25 UNL     1      -4.742   3.400   0.312  1.00  0.00     0.022 C 
HETATM    9  C26 UNL     1      -3.450   3.074   0.948  1.00  0.00     0.026 C 
HETATM   10  N2  UNL     1      -3.471   1.994   1.842  1.00  0.00    -0.365 N 
ATOM     11  H2  UNL     1      -3.059   2.041   2.774  1.00  0.00     0.162 HD
HETATM   12  C27 UNL     1      -4.123   0.811   1.336  1.00  0.00     0.233 C 
HETATM   13  C28 UNL     1      -2.199   3.075   0.117  1.00  0.00     0.171 C 
HETATM   14  C29 UNL     1      -2.501   3.998  -0.983  1.00  0.00     0.072 C 
HETATM   15  N3  UNL     1      -2.777   4.747  -1.851  1.00  0.00    -0.196 NA
HETATM   16  C30 UNL     1      -1.810   1.685  -0.400  1.00  0.00     0.146 C 
HETATM   17  C31 UNL     1      -0.974   0.951   0.552  1.00  0.00     0.141 C 
HETATM   18  C32 UNL     1       0.312   1.772   0.574  1.00  0.00     0.239 C 
HETATM   19  O4  UNL     1       0.828   2.423   1.540  1.00  0.00    -0.272 OA
HETATM   20  N4  UNL     1       0.818   1.651  -0.738  1.00  0.00    -0.253 N 
ATOM     21  H4  UNL     1       1.779   1.489  -1.039  1.00  0.00     0.181 HD
HETATM   22  S1  UNL     1      -0.620   1.850  -1.718  1.00  0.00     0.246 S 
HETATM   23  O5  UNL     1      -0.432   3.177  -2.288  1.00  0.00    -0.205 OA
HETATM   24  O6  UNL     1      -0.714   0.777  -2.737  1.00  0.00    -0.205 OA
HETATM   25  C33 UNL     1      -3.051   1.166  -0.969  1.00  0.00     0.163 C 
ENDROOT
BRANCH  25  26
HETATM   26  O7  UNL     1      -2.945   0.391  -2.138  1.00  0.00    -0.392 OA
ATOM     27  H7  UNL     1      -2.309   0.803  -2.711  1.00  0.00     0.210 HD
ENDBRANCH  25  26
BRANCH  12  28
HETATM   28  O3  UNL     1      -3.792  -0.168   2.268  1.00  0.00    -0.376 OA
ATOM     29  H3  UNL     1      -3.839   0.026   3.197  1.00  0.00     0.212 HD
ENDBRANCH  12  28
BRANCH   1  30
HETATM   30  O2  UNL     1      -0.080  -1.010   1.386  1.00  0.00    -0.379 OA
BRANCH  30  31
HETATM   31  C11 UNL     1       0.453  -1.558   2.330  1.00  0.00     0.202 C 
BRANCH  31  32
HETATM   32  C10 UNL     1       1.746  -0.893   2.906  1.00  0.00     0.247 C 
BRANCH  32  33
HETATM   33  N1  UNL     1       2.716  -0.814   1.956  1.00  0.00    -0.413 NA
HETATM   34  C9  UNL     1       3.687  -0.743   1.005  1.00  0.00     0.286 C 
HETATM   35  O1  UNL     1       4.230  -1.664   0.341  1.00  0.00    -0.258 OA
BRANCH  34  36
HETATM   36  C8  UNL     1       4.264   0.633   0.663  1.00  0.00     0.119 C 
BRANCH  36  37
HETATM   37  C7  UNL     1       5.735   0.643   0.523  1.00  0.00     0.010 C 
BRANCH  37  38
HETATM   38  C6  UNL     1       6.413  -0.167  -0.515  1.00  0.00     0.001 C 
BRANCH  38  39
HETATM   39  C5  UNL     1       7.930   0.109  -0.290  1.00  0.00     0.000 C 
BRANCH  39  40
HETATM   40  C4  UNL     1       8.678  -0.718  -1.309  1.00  0.00     0.000 C 
BRANCH  40  41
HETATM   41  C3  UNL     1      10.159  -0.486  -1.046  1.00  0.00    -0.000 C 
BRANCH  41  42
HETATM   42  C2  UNL     1      10.532   0.950  -1.177  1.00  0.00    -0.005 C 
HETATM   43  C1  UNL     1      10.253   1.500  -2.552  1.00  0.00     0.005 C 
ENDBRANCH  41  42
ENDBRANCH  40  41
ENDBRANCH  39  40
ENDBRANCH  38  39
ENDBRANCH  37  38
ENDBRANCH  36  37
ENDBRANCH  34  36
ENDBRANCH  32  33
ENDBRANCH  31  32
ENDBRANCH  30  31
ENDBRANCH   1  30
BRANCH   4  44
HETATM   44  C16 UNL     1      -5.098  -1.860   0.127  1.00  0.00     0.015 C 
HETATM   45  C17 UNL     1      -5.635  -2.784  -1.020  1.00  0.00     0.009 C 
HETATM   46  C18 UNL     1      -6.815  -3.553  -0.569  1.00  0.00     0.001 C 
HETATM   47  C19 UNL     1      -6.383  -4.521   0.521  1.00  0.00     0.000 C 
HETATM   48  C20 UNL     1      -5.809  -3.630   1.624  1.00  0.00     0.001 C 
HETATM   49  C21 UNL     1      -4.548  -3.001   1.015  1.00  0.00     0.009 C 
ENDBRANCH   4  44
TORSDOF 14
