REMARK  20 active torsions:
REMARK  status: ('A' for Active; 'I' for Inactive)
REMARK    1  A    between atoms: C3_3  and  C4_4 
REMARK    2  A    between atoms: C13_13  and  O1_14 
REMARK    3  A    between atoms: C23_25  and  O2_26 
REMARK    4  A    between atoms: C23_25  and  C24_28 
REMARK    5  A    between atoms: C24_28  and  C25_29 
REMARK    6  A    between atoms: C25_29  and  C26_30 
REMARK       I    between atoms: C26_30  and  N1_32 
REMARK    7  A    between atoms: N1_32  and  C27_34 
REMARK    8  A    between atoms: C27_34  and  C28_35 
REMARK    9  A    between atoms: C28_35  and  N2_36 
REMARK   10  A    between atoms: N2_36  and  C30_38 
REMARK   11  A    between atoms: C30_38  and  C31_39 
REMARK   12  A    between atoms: C31_39  and  O4_40 
REMARK   13  A    between atoms: O4_40  and  C32_41 
REMARK   14  A    between atoms: C32_41  and  C33_42 
REMARK   15  A    between atoms: C33_42  and  O5_43 
REMARK   16  A    between atoms: O5_43  and  C34_44 
REMARK   17  A    between atoms: C34_44  and  C35_45 
REMARK   18  A    between atoms: C35_45  and  N3_46 
REMARK   19  A    between atoms: C36_50  and  O6_51 
REMARK   20  A    between atoms: C37_53  and  O7_54 
ROOT
HETATM    1  C1  UNL     1      -4.402   0.773  -4.421  1.00  0.00     0.112 C 
HETATM    2  C2  UNL     1      -3.922   0.130  -3.202  1.00  0.00    -0.110 C 
HETATM    3  C3  UNL     1      -3.503  -0.393  -2.196  1.00  0.00    -0.093 C 
ENDROOT
BRANCH   3   4
HETATM    4  C4  UNL     1      -2.949  -1.029  -0.942  1.00  0.00     0.063 C 
HETATM    5  C5  UNL     1      -1.738  -0.301  -0.601  1.00  0.00     0.012 C 
HETATM    6  C6  UNL     1      -1.788   0.730   0.467  1.00  0.00     0.007 C 
HETATM    7  C22 UNL     1      -0.525  -1.189  -0.252  1.00  0.00     0.047 C 
HETATM    8  C7  UNL     1      -3.010   0.711   1.340  1.00  0.00     0.007 C 
HETATM    9  C8  UNL     1      -4.199   0.440   0.484  1.00  0.00     0.004 C 
HETATM   10  C9  UNL     1      -5.513   0.897   1.063  1.00  0.00    -0.035 C 
HETATM   11  C20 UNL     1      -4.114  -0.977   0.030  1.00  0.00    -0.018 C 
HETATM   12  C10 UNL     1      -5.765   0.466   2.455  1.00  0.00     0.016 C 
HETATM   13  C11 UNL     1      -5.436   2.429   1.087  1.00  0.00     0.012 C 
HETATM   14  C17 UNL     1      -6.554   0.537   0.057  1.00  0.00     0.004 C 
HETATM   15  C12 UNL     1      -6.765   3.062   1.364  1.00  0.00     0.033 C 
HETATM   16  C13 UNL     1      -7.885   2.596   0.510  1.00  0.00     0.126 C 
HETATM   17  C14 UNL     1      -7.897   1.131   0.207  1.00  0.00    -0.017 C 
HETATM   18  C15 UNL     1      -8.804   0.343   1.142  1.00  0.00     0.018 C 
HETATM   19  C16 UNL     1      -8.572   1.006  -1.175  1.00  0.00     0.018 C 
HETATM   20  C18 UNL     1      -6.635  -0.958  -0.022  1.00  0.00     0.007 C 
HETATM   21  C19 UNL     1      -5.369  -1.515  -0.602  1.00  0.00     0.012 C 
HETATM   22  C21 UNL     1      -3.818  -1.954   1.149  1.00  0.00     0.017 C 
HETATM   23  C23 UNL     1      -0.165  -2.212  -1.200  1.00  0.00     0.087 C 
HETATM   24  C36 UNL     1      -1.343  -2.342  -2.203  1.00  0.00     0.182 C 
HETATM   25  C37 UNL     1      -2.641  -2.442  -1.385  1.00  0.00     0.171 C 
BRANCH  16  26
HETATM   26  O1  UNL     1      -7.880   3.370  -0.673  1.00  0.00    -0.395 OA
ATOM     27  H1  UNL     1      -8.597   3.072  -1.220  1.00  0.00     0.210 HD
ENDBRANCH  16  26
BRANCH  23  28
HETATM   28  O2  UNL     1      -0.245  -3.463  -0.455  1.00  0.00    -0.387 OA
ATOM     29  H2  UNL     1      -0.008  -4.138  -1.080  1.00  0.00     0.210 HD
ENDBRANCH  23  28
BRANCH  23  30
HETATM   30  C24 UNL     1       1.119  -2.307  -1.902  1.00  0.00     0.050 C 
BRANCH  30  31
HETATM   31  C25 UNL     1       2.391  -2.450  -1.208  1.00  0.00     0.106 C 
BRANCH  31  32
HETATM   32  C26 UNL     1       2.946  -1.343  -0.440  1.00  0.00     0.217 C 
HETATM   33  O3  UNL     1       2.733  -0.109  -0.663  1.00  0.00    -0.274 OA
HETATM   34  N1  UNL     1       3.818  -1.574   0.684  1.00  0.00    -0.359 N 
ATOM     35  H1  UNL     1       4.034  -2.543   0.918  1.00  0.00     0.162 HD
BRANCH  34  36
HETATM   36  C27 UNL     1       4.401  -0.563   1.491  1.00  0.00     0.152 C 
BRANCH  36  37
HETATM   37  C28 UNL     1       5.326   0.328   0.760  1.00  0.00     0.291 C 
BRANCH  37  38
HETATM   38  N2  UNL     1       6.487  -0.261   0.175  1.00  0.00     0.087 N 
HETATM   39  C29 UNL     1       6.275  -1.117  -0.949  1.00  0.00     0.310 C 
BRANCH  38  40
HETATM   40  C30 UNL     1       7.400  -0.797   1.134  1.00  0.00     0.298 C 
BRANCH  40  41
HETATM   41  C31 UNL     1       8.095   0.206   1.973  1.00  0.00     0.198 C 
BRANCH  41  42
HETATM   42  O4  UNL     1       8.879   1.095   1.349  1.00  0.00    -0.387 OA
BRANCH  42  43
HETATM   43  C32 UNL     1       8.478   1.959   0.421  1.00  0.00     0.193 C 
BRANCH  43  44
HETATM   44  C33 UNL     1       9.569   2.910  -0.057  1.00  0.00     0.193 C 
BRANCH  44  45
HETATM   45  O5  UNL     1      10.641   2.321  -0.624  1.00  0.00    -0.387 OA
BRANCH  45  46
HETATM   46  C34 UNL     1      11.406   1.439   0.049  1.00  0.00     0.195 C 
BRANCH  46  47
HETATM   47  C35 UNL     1      12.583   1.053  -0.860  1.00  0.00     0.255 C 
BRANCH  47  48
HETATM   48  N3  UNL     1      13.302   2.275  -1.141  1.00  0.00    -0.077 N 
ATOM     49  H33 UNL     1      12.713   3.009  -1.533  1.00  0.00     0.274 HD
ATOM     50  H32 UNL     1      13.588   2.777  -0.301  1.00  0.00     0.274 HD
ATOM     51  H31 UNL     1      14.083   2.019  -1.744  1.00  0.00     0.274 HD
ENDBRANCH  47  48
ENDBRANCH  46  47
ENDBRANCH  45  46
ENDBRANCH  44  45
ENDBRANCH  43  44
ENDBRANCH  42  43
ENDBRANCH  41  42
ENDBRANCH  40  41
ENDBRANCH  38  40
ENDBRANCH  37  38
ENDBRANCH  36  37
ENDBRANCH  34  36
ENDBRANCH  31  32
ENDBRANCH  30  31
ENDBRANCH  23  30
BRANCH  24  52
HETATM   52  O6  UNL     1      -1.221  -3.550  -2.875  1.00  0.00    -0.390 OA
ATOM     53  H6  UNL     1      -1.942  -3.630  -3.489  1.00  0.00     0.210 HD
ENDBRANCH  24  52
BRANCH  25  54
HETATM   54  O7  UNL     1      -3.601  -2.950  -2.251  1.00  0.00    -0.391 OA
ATOM     55  H7  UNL     1      -3.408  -3.837  -2.529  1.00  0.00     0.210 HD
ENDBRANCH  25  54
ENDBRANCH   3   4
TORSDOF 20
