REMARK  16 active torsions:
REMARK  status: ('A' for Active; 'I' for Inactive)
REMARK    1  A    between atoms: C2_2  and  C3_3 
REMARK    2  A    between atoms: C3_3  and  C5_5 
REMARK    3  A    between atoms: C8_11  and  C9_12 
REMARK    4  A    between atoms: C9_12  and  C10_13 
REMARK    5  A    between atoms: C10_13  and  C11_14 
REMARK    6  A    between atoms: C11_14  and  C12_15 
REMARK    7  A    between atoms: C12_15  and  O1_19 
REMARK    8  A    between atoms: C16_23  and  C17_24 
REMARK    9  A    between atoms: C17_24  and  C18_26 
REMARK   10  A    between atoms: C18_26  and  C19_27 
REMARK   11  A    between atoms: C19_27  and  C20_28 
REMARK   12  A    between atoms: C19_27  and  C26_41 
REMARK       I    between atoms: C20_28  and  N3_30 
REMARK   13  A    between atoms: C21_32  and  C22_33 
REMARK   14  A    between atoms: C21_32  and  C25_38 
REMARK   15  A    between atoms: C22_33  and  C23_34 
REMARK   16  A    between atoms: C23_34  and  C24_35 
ROOT
HETATM    1  C5  UNL     1      -3.994  -2.457  -0.381  1.00  0.00     0.280 C 
HETATM    2  N1  UNL     1      -3.719  -1.398  -1.327  1.00  0.00    -0.062 N 
ATOM      3  H11 UNL     1      -4.189  -1.574  -2.215  1.00  0.00     0.278 HD
ATOM      4  H12 UNL     1      -2.749  -1.434  -1.640  1.00  0.00     0.278 HD
HETATM    5  C6  UNL     1      -4.045  -0.097  -0.828  1.00  0.00     0.233 C 
HETATM    6  C7  UNL     1      -2.921   0.881  -1.070  1.00  0.00     0.032 C 
HETATM    7  C8  UNL     1      -2.025   1.030   0.164  1.00  0.00    -0.007 C 
HETATM    8  C14 UNL     1      -0.578   1.163  -0.150  1.00  0.00     0.016 C 
HETATM    9  C15 UNL     1      -0.007   2.509   0.166  1.00  0.00     0.012 C 
HETATM   10  C16 UNL     1       0.319   0.037   0.341  1.00  0.00     0.162 C 
HETATM   11  N5  UNL     1      -0.424  -0.742   1.355  1.00  0.00    -0.348 N 
ATOM     12  H5  UNL     1      -0.807  -0.245   2.159  1.00  0.00     0.163 HD
HETATM   13  C29 UNL     1      -0.631  -2.131   1.271  1.00  0.00     0.236 C 
HETATM   14  O7  UNL     1      -0.684  -2.844   2.303  1.00  0.00    -0.272 OA
HETATM   15  C30 UNL     1      -0.789  -2.779  -0.050  1.00  0.00     0.225 C 
HETATM   16  N6  UNL     1      -1.815  -3.790  -0.087  1.00  0.00    -0.351 N 
ATOM     17  H6  UNL     1      -1.590  -4.693   0.330  1.00  0.00     0.163 HD
HETATM   18  C31 UNL     1      -3.107  -3.646  -0.649  1.00  0.00     0.249 C 
HETATM   19  O8  UNL     1      -3.499  -4.596  -1.414  1.00  0.00    -0.271 OA
ENDROOT
BRANCH  10  20
HETATM   20  C17 UNL     1       1.517   0.473   1.020  1.00  0.00     0.169 C 
HETATM   21  O2  UNL     1       1.250   0.919   2.188  1.00  0.00    -0.291 OA
BRANCH  20  22
HETATM   22  C18 UNL     1       2.895   0.513   0.700  1.00  0.00     0.040 C 
BRANCH  22  23
HETATM   23  C19 UNL     1       3.648   0.177  -0.469  1.00  0.00     0.107 C 
BRANCH  23  24
HETATM   24  C20 UNL     1       5.146   0.392  -0.091  1.00  0.00     0.230 C 
HETATM   25  O3  UNL     1       5.351   0.832   1.065  1.00  0.00    -0.272 OA
HETATM   26  N3  UNL     1       6.181   0.123  -0.955  1.00  0.00    -0.326 N 
HETATM   27  C21 UNL     1       6.866  -0.954  -1.115  1.00  0.00     0.077 C 
ATOM     28  H3  UNL     1       6.447   0.897  -1.563  1.00  0.00     0.168 HD
BRANCH  27  29
HETATM   29  C22 UNL     1       6.575  -2.128  -0.296  1.00  0.00     0.073 C 
BRANCH  29  30
HETATM   30  C23 UNL     1       7.393  -2.350   0.919  1.00  0.00     0.119 C 
BRANCH  30  31
HETATM   31  C24 UNL     1       8.823  -2.510   0.830  1.00  0.00     0.172 C 
HETATM   32  O4  UNL     1       9.571  -1.475   0.939  1.00  0.00    -0.648 OA
HETATM   33  O5  UNL     1       9.497  -3.718   0.632  1.00  0.00    -0.648 OA
ENDBRANCH  30  31
ENDBRANCH  29  30
ENDBRANCH  27  29
BRANCH  27  34
HETATM   34  C25 UNL     1       7.934  -0.935  -2.062  1.00  0.00     0.277 C 
HETATM   35  N4  UNL     1       8.714  -2.071  -2.336  1.00  0.00    -0.056 NA
HETATM   36  O6  UNL     1       8.211   0.117  -2.688  1.00  0.00    -0.270 OA
ENDBRANCH  27  34
ENDBRANCH  23  24
BRANCH  23  37
HETATM   37  C26 UNL     1       3.558   0.784  -1.795  1.00  0.00    -0.006 C 
HETATM   38  C27 UNL     1       2.283   0.699  -2.565  1.00  0.00     0.011 C 
HETATM   39  C28 UNL     1       4.151   2.194  -1.861  1.00  0.00     0.011 C 
ENDBRANCH  23  37
ENDBRANCH  22  23
ENDBRANCH  20  22
ENDBRANCH  10  20
BRANCH   7  40
HETATM   40  C9  UNL     1      -2.617   1.913   1.189  1.00  0.00     0.005 C 
BRANCH  40  41
HETATM   41  C10 UNL     1      -2.957   3.320   0.804  1.00  0.00     0.008 C 
BRANCH  41  42
HETATM   42  C11 UNL     1      -3.547   3.975   2.074  1.00  0.00     0.083 C 
BRANCH  42  43
HETATM   43  C12 UNL     1      -3.918   5.381   1.813  1.00  0.00     0.110 C 
HETATM   44  N2  UNL     1      -3.401   6.395   2.417  1.00  0.00    -0.384 N 
ATOM     45  H22 UNL     1      -2.688   6.206   3.122  1.00  0.00     0.157 HD
ATOM     46  H21 UNL     1      -3.657   7.366   2.237  1.00  0.00     0.157 HD
BRANCH  43  47
HETATM   47  O1  UNL     1      -4.887   5.638   0.855  1.00  0.00    -0.344 OA
HETATM   48  C13 UNL     1      -5.332   6.975   0.606  1.00  0.00     0.211 C 
ENDBRANCH  43  47
ENDBRANCH  42  43
ENDBRANCH  41  42
ENDBRANCH  40  41
ENDBRANCH   7  40
BRANCH   1  49
HETATM   49  C3  UNL     1      -5.398  -2.965  -0.460  1.00  0.00     0.021 C 
HETATM   50  C4  UNL     1      -6.470  -1.933  -0.440  1.00  0.00     0.012 C 
BRANCH  49  51
HETATM   51  C2  UNL     1      -5.686  -4.053   0.526  1.00  0.00     0.002 C 
HETATM   52  C1  UNL     1      -5.785  -3.540   1.946  1.00  0.00     0.005 C 
ENDBRANCH  49  51
ENDBRANCH   1  49
TORSDOF 16
