REMARK  18 active torsions:
REMARK  status: ('A' for Active; 'I' for Inactive)
REMARK    1  A    between atoms: C2_2  and  N1_3 
REMARK    2  A    between atoms: C2_2  and  C15_24 
REMARK    3  A    between atoms: N1_3  and  C3_5 
REMARK    4  A    between atoms: C3_5  and  C4_6 
REMARK    5  A    between atoms: C3_5  and  C11_13 
REMARK    6  A    between atoms: C4_6  and  C5_7 
REMARK    7  A    between atoms: C11_13  and  C12_15 
REMARK    8  A    between atoms: C12_15  and  N2_16 
REMARK    9  A    between atoms: C12_15  and  C13_20 
REMARK   10  A    between atoms: C13_20  and  C14_21 
REMARK       I    between atoms: C15_24  and  N4_26 
REMARK   11  A    between atoms: N4_26  and  C16_28 
REMARK   12  A    between atoms: C16_28  and  O4_29 
REMARK   13  A    between atoms: C16_28  and  C17_31 
REMARK       I    between atoms: C17_31  and  N5_33 
REMARK       I    between atoms: N6_36  and  C20_37 
REMARK       I    between atoms: C20_37  and  N7_39 
REMARK   14  A    between atoms: N7_39  and  C21_41 
REMARK   15  A    between atoms: C21_41  and  C22_42 
REMARK   16  A    between atoms: C22_42  and  C23_43 
REMARK   17  A    between atoms: C23_43  and  C24_44 
REMARK   18  A    between atoms: C24_44  and  C25_45 
ROOT
HETATM    1  C15 UNL     1      -3.421  -0.319  -0.967  1.00  0.00     0.242 C 
HETATM    2  O3  UNL     1      -3.290  -0.159  -2.214  1.00  0.00    -0.271 OA
HETATM    3  N4  UNL     1      -2.311  -0.176  -0.115  1.00  0.00    -0.325 N 
ATOM      4  H4  UNL     1      -2.438  -0.292   0.890  1.00  0.00     0.165 HD
ENDROOT
BRANCH   3   5
HETATM    5  C16 UNL     1      -0.997   0.131  -0.626  1.00  0.00     0.314 C 
BRANCH   5   6
HETATM    6  O4  UNL     1      -0.781   1.530  -0.687  1.00  0.00    -0.368 OA
ATOM      7  H4  UNL     1       0.084   1.732  -1.023  1.00  0.00     0.212 HD
ENDBRANCH   5   6
BRANCH   5   8
HETATM    8  C17 UNL     1       0.030  -0.552   0.160  1.00  0.00     0.268 C 
HETATM    9  O5  UNL     1      -0.249  -1.542   0.920  1.00  0.00    -0.268 OA
HETATM   10  N5  UNL     1       1.392  -0.144   0.116  1.00  0.00    -0.345 N 
HETATM   11  C18 UNL     1       2.338  -0.758   1.040  1.00  0.00     0.146 C 
HETATM   12  C32 UNL     1       1.785   0.817  -0.883  1.00  0.00     0.146 C 
HETATM   13  C19 UNL     1       3.626   0.056   1.018  1.00  0.00     0.147 C 
HETATM   14  N6  UNL     1       4.083   0.067  -0.361  1.00  0.00    -0.331 N 
HETATM   15  C20 UNL     1       5.313  -0.464  -0.734  1.00  0.00     0.318 C 
HETATM   16  C31 UNL     1       3.209   0.647  -1.382  1.00  0.00     0.147 C 
HETATM   17  O6  UNL     1       5.643  -0.452  -1.960  1.00  0.00    -0.247 OA
HETATM   18  N7  UNL     1       6.216  -1.020   0.197  1.00  0.00    -0.343 N 
ATOM     19  H7  UNL     1       5.984  -1.035   1.190  1.00  0.00     0.164 HD
BRANCH  18  20
HETATM   20  C21 UNL     1       7.489  -1.575  -0.270  1.00  0.00     0.124 C 
BRANCH  20  21
HETATM   21  C22 UNL     1       8.268  -2.031   0.945  1.00  0.00     0.020 C 
BRANCH  21  22
HETATM   22  C23 UNL     1       8.571  -0.911   1.866  1.00  0.00     0.002 C 
BRANCH  22  23
HETATM   23  C24 UNL     1       9.388   0.210   1.346  1.00  0.00     0.005 C 
BRANCH  23  24
HETATM   24  C25 UNL     1      10.802  -0.007   0.988  1.00  0.00    -0.014 C 
HETATM   25  C26 UNL     1      11.112  -1.014  -0.035  1.00  0.00     0.004 C 
HETATM   26  C27 UNL     1      12.466  -0.634  -0.703  1.00  0.00     0.000 C 
HETATM   27  C28 UNL     1      13.337  -0.041   0.370  1.00  0.00     0.000 C 
HETATM   28  C29 UNL     1      13.046  -0.650   1.730  1.00  0.00     0.000 C 
HETATM   29  C30 UNL     1      11.692  -0.190   2.223  1.00  0.00     0.004 C 
ENDBRANCH  23  24
ENDBRANCH  22  23
ENDBRANCH  21  22
ENDBRANCH  20  21
ENDBRANCH  18  20
ENDBRANCH   5   8
ENDBRANCH   3   5
BRANCH   1  30
HETATM   30  C2  UNL     1      -4.822  -0.665  -0.458  1.00  0.00     0.169 C 
HETATM   31  C1  UNL     1      -4.690  -0.769   1.022  1.00  0.00     0.042 C 
BRANCH  30  32
HETATM   32  N1  UNL     1      -5.702   0.117  -1.137  1.00  0.00    -0.377 N 
ATOM     33  H1  UNL     1      -5.275   0.837  -1.720  1.00  0.00     0.160 HD
BRANCH  32  34
HETATM   34  C3  UNL     1      -7.099   0.092  -1.163  1.00  0.00     0.054 C 
BRANCH  34  35
HETATM   35  C4  UNL     1      -7.794   0.511   0.051  1.00  0.00     0.065 C 
BRANCH  35  36
HETATM   36  C5  UNL     1      -7.677   1.904   0.532  1.00  0.00    -0.009 C 
HETATM   37  C6  UNL     1      -8.224   2.910  -0.510  1.00  0.00     0.005 C 
HETATM   38  C7  UNL     1      -8.754   4.096   0.293  1.00  0.00     0.000 C 
HETATM   39  C8  UNL     1      -7.983   4.316   1.556  1.00  0.00     0.000 C 
HETATM   40  C9  UNL     1      -6.546   3.921   1.339  1.00  0.00     0.000 C 
HETATM   41  C10 UNL     1      -6.407   2.455   1.001  1.00  0.00     0.005 C 
ENDBRANCH  35  36
ENDBRANCH  34  35
BRANCH  34  42
HETATM   42  C11 UNL     1      -7.581  -1.118  -1.868  1.00  0.00     0.202 C 
HETATM   43  O1  UNL     1      -6.667  -1.885  -2.231  1.00  0.00    -0.289 OA
BRANCH  42  44
HETATM   44  C12 UNL     1      -8.922  -1.553  -2.206  1.00  0.00     0.267 C 
BRANCH  44  45
HETATM   45  N2  UNL     1      -9.996  -0.626  -2.013  1.00  0.00    -0.067 N 
ATOM     46  H23 UNL     1      -9.984  -0.296  -1.048  1.00  0.00     0.275 HD
ATOM     47  H22 UNL     1      -9.788   0.237  -2.515  1.00  0.00     0.275 HD
ATOM     48  H21 UNL     1     -10.939  -0.932  -2.251  1.00  0.00     0.275 HD
ENDBRANCH  44  45
BRANCH  44  49
HETATM   49  C13 UNL     1      -9.259  -2.926  -1.589  1.00  0.00     0.140 C 
BRANCH  49  50
HETATM   50  C14 UNL     1     -10.624  -3.349  -1.941  1.00  0.00     0.233 C 
HETATM   51  N3  UNL     1     -11.717  -3.161  -1.051  1.00  0.00    -0.062 NA
HETATM   52  O2  UNL     1     -10.901  -3.907  -3.059  1.00  0.00    -0.277 OA
ENDBRANCH  49  50
ENDBRANCH  44  49
ENDBRANCH  42  44
ENDBRANCH  34  42
ENDBRANCH  32  34
ENDBRANCH  30  32
ENDBRANCH   1  30
TORSDOF 18
