REMARK  18 active torsions:
REMARK  status: ('A' for Active; 'I' for Inactive)
REMARK    1  A    between atoms: C2_2  and  N1_3 
REMARK    2  A    between atoms: N1_3  and  C3_4 
REMARK       I    between atoms: N1_3  and  C5_6 
REMARK    3  A    between atoms: C5_6  and  C6_8 
REMARK    4  A    between atoms: N2_20  and  C18_21 
REMARK    5  A    between atoms: C18_21  and  C19_22 
REMARK    6  A    between atoms: C19_22  and  N3_23 
REMARK       I    between atoms: N3_23  and  C20_24 
REMARK    7  A    between atoms: C20_24  and  C21_26 
REMARK    8  A    between atoms: C21_26  and  C22_27 
REMARK    9  A    between atoms: C22_27  and  C23_28 
REMARK   10  A    between atoms: C22_27  and  N5_36 
REMARK   11  A    between atoms: C23_28  and  C24_29 
REMARK   12  A    between atoms: C24_29  and  N4_30 
REMARK   13  A    between atoms: C24_29  and  O3_34 
REMARK   14  A    between atoms: N5_36  and  C25_38 
REMARK   15  A    between atoms: C25_38  and  C26_39 
REMARK   16  A    between atoms: C26_39  and  N6_40 
REMARK   17  A    between atoms: C26_39  and  C27_44 
REMARK   18  A    between atoms: C27_44  and  C28_45 
ROOT
HETATM    1  C18 UNL     1      -1.639  -1.108  -1.259  1.00  0.00     0.128 C 
ENDROOT
BRANCH   1   2
HETATM    2  N2  UNL     1      -0.305  -0.955  -1.587  1.00  0.00    -0.289 NA
HETATM    3  C17 UNL     1       0.663  -1.392  -0.661  1.00  0.00     0.064 C 
HETATM    4  C16 UNL     1       1.411  -0.189  -0.291  1.00  0.00    -0.051 C 
HETATM    5  C14 UNL     1       2.692  -0.235   0.441  1.00  0.00    -0.014 C 
HETATM    6  C30 UNL     1       1.329   0.737  -1.424  1.00  0.00    -0.007 C 
HETATM    7  C13 UNL     1       3.912  -0.758  -0.152  1.00  0.00     0.020 C 
HETATM    8  C15 UNL     1       2.426  -1.072   1.706  1.00  0.00     0.020 C 
HETATM    9  C34 UNL     1       2.944   1.187   0.932  1.00  0.00     0.006 C 
HETATM   10  C12 UNL     1       5.006  -0.062   0.693  1.00  0.00     0.008 C 
HETATM   11  C6  UNL     1       6.263  -0.042  -0.069  1.00  0.00     0.083 C 
HETATM   12  C10 UNL     1       4.426   1.161   1.268  1.00  0.00    -0.035 C 
HETATM   13  C7  UNL     1       6.762   1.263  -0.523  1.00  0.00     0.014 C 
HETATM   14  C8  UNL     1       6.023   2.491  -0.164  1.00  0.00     0.002 C 
HETATM   15  C9  UNL     1       5.119   2.442   0.994  1.00  0.00     0.010 C 
HETATM   16  C11 UNL     1       4.473   1.002   2.802  1.00  0.00     0.016 C 
HETATM   17  C33 UNL     1       2.540   2.273   0.023  1.00  0.00     0.007 C 
HETATM   18  C32 UNL     1       1.294   2.107  -0.775  1.00  0.00     0.015 C 
HETATM   19  C29 UNL     1       0.046   0.357  -2.087  1.00  0.00     0.108 C 
HETATM   20  C31 UNL     1       2.391   0.723  -2.477  1.00  0.00     0.021 C 
BRANCH  11  21
HETATM   21  C5  UNL     1       7.339  -0.866   0.567  1.00  0.00     0.224 C 
HETATM   22  N1  UNL     1       8.380  -1.541  -0.100  1.00  0.00    -0.353 N 
HETATM   23  O1  UNL     1       7.333  -0.985   1.855  1.00  0.00    -0.273 OA
BRANCH  22  24
HETATM   24  C2  UNL     1       9.351  -2.344   0.665  1.00  0.00     0.121 C 
HETATM   25  C1  UNL     1      10.514  -1.517   1.112  1.00  0.00     0.026 C 
ENDBRANCH  22  24
BRANCH  22  26
HETATM   26  C3  UNL     1       8.541  -1.524  -1.514  1.00  0.00     0.121 C 
HETATM   27  C4  UNL     1       9.464  -0.429  -1.961  1.00  0.00     0.026 C 
ENDBRANCH  22  26
ENDBRANCH  11  21
ENDBRANCH   1   2
BRANCH   1  28
HETATM   28  C19 UNL     1      -2.276  -0.272  -0.182  1.00  0.00     0.236 C 
BRANCH  28  29
HETATM   29  N3  UNL     1      -3.662  -0.543  -0.166  1.00  0.00    -0.414 NA
HETATM   30  C20 UNL     1      -4.976  -0.815  -0.146  1.00  0.00     0.288 C 
HETATM   31  O2  UNL     1      -5.548  -1.879   0.149  1.00  0.00    -0.258 OA
BRANCH  30  32
HETATM   32  C21 UNL     1      -5.965   0.297  -0.544  1.00  0.00     0.144 C 
BRANCH  32  33
HETATM   33  C22 UNL     1      -7.199  -0.330  -1.084  1.00  0.00     0.094 C 
BRANCH  33  34
HETATM   34  C23 UNL     1      -8.133   0.751  -1.587  1.00  0.00     0.086 C 
BRANCH  34  35
HETATM   35  C24 UNL     1      -9.301   0.104  -2.293  1.00  0.00     0.318 C 
BRANCH  35  36
HETATM   36  N4  UNL     1     -10.233   1.097  -2.763  1.00  0.00    -0.053 N 
ATOM     37  H43 UNL     1     -10.542   1.710  -2.009  1.00  0.00     0.277 HD
ATOM     38  H42 UNL     1      -9.776   1.793  -3.352  1.00  0.00     0.277 HD
ATOM     39  H41 UNL     1     -11.022   0.660  -3.240  1.00  0.00     0.277 HD
ENDBRANCH  35  36
BRANCH  35  40
HETATM   40  O3  UNL     1      -9.819  -0.942  -1.596  1.00  0.00    -0.370 OA
ATOM     41  H3  UNL     1     -10.554  -1.349  -2.040  1.00  0.00     0.212 HD
ENDBRANCH  35  40
ENDBRANCH  34  35
ENDBRANCH  33  34
BRANCH  33  42
HETATM   42  N5  UNL     1      -7.926  -1.065  -0.051  1.00  0.00    -0.395 N 
ATOM     43  H5  UNL     1      -8.154  -2.053  -0.158  1.00  0.00     0.159 HD
BRANCH  42  44
HETATM   44  C25 UNL     1      -8.294  -0.345   1.093  1.00  0.00     0.089 C 
BRANCH  44  45
HETATM   45  C26 UNL     1      -9.423  -0.962   1.879  1.00  0.00     0.231 C 
BRANCH  45  46
HETATM   46  N6  UNL     1      -9.118  -2.283   2.371  1.00  0.00    -0.070 N 
ATOM     47  H63 UNL     1      -8.829  -2.896   1.609  1.00  0.00     0.275 HD
ATOM     48  H62 UNL     1      -8.257  -2.277   2.917  1.00  0.00     0.275 HD
ATOM     49  H61 UNL     1      -9.882  -2.700   2.903  1.00  0.00     0.275 HD
ENDBRANCH  45  46
BRANCH  45  50
HETATM   50  C27 UNL     1      -9.882  -0.093   3.029  1.00  0.00     0.151 C 
BRANCH  50  51
HETATM   51  C28 UNL     1     -10.328   1.247   2.524  1.00  0.00     0.174 C 
HETATM   52  O4  UNL     1      -9.460   2.169   2.671  1.00  0.00    -0.648 OA
HETATM   53  O5  UNL     1     -11.548   1.497   1.950  1.00  0.00    -0.648 OA
ENDBRANCH  50  51
ENDBRANCH  45  50
ENDBRANCH  44  45
ENDBRANCH  42  44
ENDBRANCH  33  42
ENDBRANCH  32  33
ENDBRANCH  30  32
ENDBRANCH  28  29
ENDBRANCH   1  28
TORSDOF 18
