REMARK  15 active torsions:
REMARK  status: ('A' for Active; 'I' for Inactive)
REMARK    1  A    between atoms: C2_2  and  C3_3 
REMARK    2  A    between atoms: C3_3  and  N1_4 
REMARK    3  A    between atoms: N1_4  and  S1_6 
REMARK    4  A    between atoms: S1_6  and  N2_9 
REMARK       I    between atoms: N2_9  and  C4_11 
REMARK    5  A    between atoms: C4_11  and  C5_13 
REMARK    6  A    between atoms: C14_25  and  C15_26 
REMARK    7  A    between atoms: C15_26  and  C16_27 
REMARK       I    between atoms: C16_27  and  N4_29 
REMARK    8  A    between atoms: N4_29  and  C17_31 
REMARK    9  A    between atoms: C17_31  and  C18_32 
REMARK   10  A    between atoms: C18_32  and  N5_33 
REMARK   11  A    between atoms: N5_33  and  C20_35 
REMARK   12  A    between atoms: C20_35  and  C21_36 
REMARK   13  A    between atoms: C21_36  and  N6_37 
REMARK   14  A    between atoms: N6_37  and  C22_39 
REMARK   15  A    between atoms: C22_39  and  C23_40 
ROOT
HETATM    1  C5  UNL     1      -5.544  -2.692   0.438  1.00  0.00     0.087 C 
HETATM    2  C6  UNL     1      -5.192  -3.211  -0.915  1.00  0.00     0.015 C 
HETATM    3  C7  UNL     1      -3.845  -2.627  -1.288  1.00  0.00     0.007 C 
HETATM    4  C8  UNL     1      -3.333  -1.942  -0.053  1.00  0.00    -0.001 C 
HETATM    5  C9  UNL     1      -2.367  -0.814  -0.319  1.00  0.00    -0.002 C 
HETATM    6  C10 UNL     1      -2.152  -0.743  -1.804  1.00  0.00     0.033 C 
HETATM    7  C11 UNL     1      -0.992   0.086  -2.231  1.00  0.00    -0.019 C 
HETATM    8  C12 UNL     1      -0.230   0.966  -1.584  1.00  0.00    -0.019 C 
HETATM    9  C13 UNL     1       0.884   1.880  -1.695  1.00  0.00     0.270 C 
HETATM   10  N3  UNL     1       0.232   2.659  -0.628  1.00  0.00    -0.055 N 
ATOM     11  H31 UNL     1      -0.335   3.481  -0.835  1.00  0.00     0.279 HD
ATOM     12  H32 UNL     1       0.770   3.236   0.019  1.00  0.00     0.279 HD
HETATM   13  C14 UNL     1      -0.395   1.348  -0.193  1.00  0.00     0.174 C 
HETATM   14  C27 UNL     1      -1.887   1.662   0.044  1.00  0.00     0.053 C 
HETATM   15  C28 UNL     1      -2.661   0.425   0.401  1.00  0.00    -0.007 C 
HETATM   16  C29 UNL     1      -4.112   0.834   0.435  1.00  0.00     0.006 C 
HETATM   17  C30 UNL     1      -5.074  -0.273   0.069  1.00  0.00     0.011 C 
HETATM   18  C31 UNL     1      -4.598  -1.544   0.661  1.00  0.00    -0.028 C 
HETATM   19  C32 UNL     1      -4.388  -1.457   2.163  1.00  0.00     0.016 C 
ENDROOT
BRANCH  13  20
HETATM   20  C15 UNL     1       0.334   0.943   0.983  1.00  0.00     0.090 C 
BRANCH  20  21
HETATM   21  C16 UNL     1       1.729   1.315   1.199  1.00  0.00     0.240 C 
HETATM   22  O4  UNL     1       2.232   2.376   0.810  1.00  0.00    -0.269 OA
HETATM   23  N4  UNL     1       2.623   0.426   1.908  1.00  0.00    -0.356 N 
ATOM     24  H4  UNL     1       2.241  -0.455   2.251  1.00  0.00     0.162 HD
BRANCH  23  25
HETATM   25  C17 UNL     1       3.996   0.694   2.160  1.00  0.00     0.153 C 
BRANCH  25  26
HETATM   26  C18 UNL     1       4.781   0.804   0.891  1.00  0.00     0.291 C 
BRANCH  26  27
HETATM   27  N5  UNL     1       6.180   1.067   1.142  1.00  0.00     0.087 N 
HETATM   28  C19 UNL     1       6.328   2.402   1.695  1.00  0.00     0.310 C 
BRANCH  27  29
HETATM   29  C20 UNL     1       6.931   1.006  -0.079  1.00  0.00     0.291 C 
BRANCH  29  30
HETATM   30  C21 UNL     1       7.053  -0.351  -0.692  1.00  0.00     0.149 C 
BRANCH  30  31
HETATM   31  N6  UNL     1       7.657  -1.330   0.128  1.00  0.00    -0.399 N 
ATOM     32  H6  UNL     1       7.105  -2.113   0.477  1.00  0.00     0.158 HD
BRANCH  31  33
HETATM   33  C22 UNL     1       9.020  -1.225   0.463  1.00  0.00     0.088 C 
BRANCH  33  34
HETATM   34  C23 UNL     1      10.023  -1.426  -0.618  1.00  0.00     0.223 C 
HETATM   35  C24 UNL     1      11.397  -1.276   0.032  1.00  0.00     0.040 C 
HETATM   36  C25 UNL     1      12.294  -0.673  -1.003  1.00  0.00     0.030 C 
HETATM   37  C26 UNL     1      11.354  -0.575  -2.208  1.00  0.00     0.233 C 
HETATM   38  N7  UNL     1      10.084  -0.298  -1.552  1.00  0.00    -0.066 N 
ATOM     39  H72 UNL     1       9.280  -0.190  -2.170  1.00  0.00     0.278 HD
ATOM     40  H71 UNL     1       9.993   0.628  -1.135  1.00  0.00     0.278 HD
ENDBRANCH  33  34
ENDBRANCH  31  33
ENDBRANCH  30  31
ENDBRANCH  29  30
ENDBRANCH  27  29
ENDBRANCH  26  27
ENDBRANCH  25  26
ENDBRANCH  23  25
ENDBRANCH  20  21
ENDBRANCH  13  20
BRANCH   1  41
HETATM   41  C4  UNL     1      -6.969  -2.390   0.496  1.00  0.00     0.237 C 
HETATM   42  N2  UNL     1      -7.714  -1.643  -0.447  1.00  0.00    -0.237 N 
ATOM     43  H2  UNL     1      -7.220  -1.270  -1.258  1.00  0.00     0.183 HD
HETATM   44  O3  UNL     1      -7.658  -2.826   1.487  1.00  0.00    -0.272 OA
BRANCH  42  45
HETATM   45  S1  UNL     1      -9.399  -1.324  -0.314  1.00  0.00     0.321 S 
HETATM   46  O1  UNL     1     -10.209  -2.315  -1.111  1.00  0.00    -0.182 OA
HETATM   47  O2  UNL     1      -9.851  -1.375   1.136  1.00  0.00    -0.182 OA
BRANCH  45  48
HETATM   48  N1  UNL     1      -9.721   0.275  -0.876  1.00  0.00    -0.302 N 
ATOM     49  H1  UNL     1      -9.933   0.519  -1.843  1.00  0.00     0.173 HD
BRANCH  48  50
HETATM   50  C3  UNL     1      -9.648   1.223   0.217  1.00  0.00     0.133 C 
BRANCH  50  51
HETATM   51  C2  UNL     1      -9.940   2.604  -0.333  1.00  0.00     0.016 C 
HETATM   52  C1  UNL     1     -11.326   2.643  -0.950  1.00  0.00     0.006 C 
ENDBRANCH  50  51
ENDBRANCH  48  50
ENDBRANCH  45  48
ENDBRANCH  42  45
ENDBRANCH   1  41
TORSDOF 15
