REMARK  8 active torsions:
REMARK  status: ('A' for Active; 'I' for Inactive)
REMARK    1  A    between atoms: C2_2  and  C5_5 
REMARK    2  A    between atoms: C6_6  and  C7_7 
REMARK    3  A    between atoms: C8_8  and  C9_9 
REMARK    4  A    between atoms: C9_9  and  O1_10 
REMARK       I    between atoms: N1_16  and  C14_17 
REMARK       I    between atoms: C14_17  and  N2_19 
REMARK    5  A    between atoms: N2_19  and  C15_21 
REMARK    6  A    between atoms: C15_21  and  C16_22 
REMARK    7  A    between atoms: C16_22  and  C17_23 
REMARK    8  A    between atoms: C18_25  and  O3_26 
ROOT
HETATM    1  C9  UNL     1       0.361   0.799   1.544  1.00  0.00     0.149 C 
HETATM    2  C10 UNL     1      -0.790   0.707   0.598  1.00  0.00     0.080 C 
HETATM    3  C11 UNL     1      -1.971   0.624   1.568  1.00  0.00     0.101 C 
HETATM    4  C12 UNL     1      -1.441  -0.264   2.669  1.00  0.00     0.059 C 
HETATM    5  C13 UNL     1      -2.132  -1.365   1.884  1.00  0.00     0.137 C 
HETATM    6  N1  UNL     1      -2.944  -0.362   1.236  1.00  0.00    -0.328 N 
HETATM    7  C14 UNL     1      -4.204  -0.302   0.533  1.00  0.00     0.318 C 
HETATM    8  O2  UNL     1      -4.823  -1.386   0.415  1.00  0.00    -0.247 OA
HETATM    9  N2  UNL     1      -4.701   0.905   0.016  1.00  0.00    -0.343 N 
ATOM     10  H2  UNL     1      -4.156   1.757   0.147  1.00  0.00     0.164 HD
HETATM   11  C18 UNL     1       0.055  -0.257   2.571  1.00  0.00     0.172 C 
ENDROOT
BRANCH   1  12
HETATM   12  C8  UNL     1       1.618   0.491   0.859  1.00  0.00    -0.051 C 
HETATM   13  C7  UNL     1       2.667   0.232   0.311  1.00  0.00    -0.012 C 
BRANCH  13  14
HETATM   14  C6  UNL     1       3.906  -0.072  -0.308  1.00  0.00    -0.014 C 
HETATM   15  C5  UNL     1       4.980  -0.322  -0.824  1.00  0.00    -0.084 C 
BRANCH  15  16
HETATM   16  C2  UNL     1       6.282  -0.627  -1.422  1.00  0.00     0.013 C 
HETATM   17  C1  UNL     1       7.167  -1.226  -0.374  1.00  0.00     0.028 C 
HETATM   18  C3  UNL     1       6.060  -1.539  -2.602  1.00  0.00     0.028 C 
HETATM   19  C4  UNL     1       6.956   0.660  -1.916  1.00  0.00     0.028 C 
ENDBRANCH  15  16
ENDBRANCH  13  14
ENDBRANCH   1  12
BRANCH   1  20
HETATM   20  O1  UNL     1       0.376   2.040   2.145  1.00  0.00    -0.375 OA
ATOM     21  H1  UNL     1      -0.440   2.240   2.589  1.00  0.00     0.212 HD
ENDBRANCH   1  20
BRANCH  11  22
HETATM   22  O3  UNL     1       0.547   0.155   3.824  1.00  0.00    -0.391 OA
ATOM     23  H3  UNL     1       0.354  -0.512   4.472  1.00  0.00     0.210 HD
ENDBRANCH  11  22
BRANCH   9  24
HETATM   24  C15 UNL     1      -5.944   0.983  -0.688  1.00  0.00     0.127 C 
BRANCH  24  25
HETATM   25  C16 UNL     1      -5.921   0.146  -1.940  1.00  0.00     0.051 C 
BRANCH  25  26
HETATM   26  C17 UNL     1      -7.251   0.259  -2.666  1.00  0.00     0.224 C 
HETATM   27  F1  UNL     1      -7.161  -0.527  -3.798  1.00  0.00    -0.255 F 
ENDBRANCH  25  26
ENDBRANCH  24  25
ENDBRANCH   9  24
TORSDOF 8
