REMARK  3 active torsions:
REMARK  status: ('A' for Active; 'I' for Inactive)
REMARK    1  A    between atoms: N1_2  and  C2_5 
REMARK    2  A    between atoms: C2_5  and  C3_6 
REMARK    3  A    between atoms: N3_22  and  C15_23 
ROOT
HETATM    1  C3  UNL     1       1.820   0.253  -0.748  1.00  0.00     0.169 C 
HETATM    2  C4  UNL     1       0.383   0.645  -0.676  1.00  0.00     0.002 C 
HETATM    3  C5  UNL     1      -0.033   1.625  -1.458  1.00  0.00     0.195 C 
HETATM    4  F1  UNL     1       0.830   2.272  -2.319  1.00  0.00    -0.219 F 
HETATM    5  C6  UNL     1      -0.582  -0.013   0.226  1.00  0.00     0.124 C 
HETATM    6  C7  UNL     1      -1.094  -1.347  -0.426  1.00  0.00     0.063 C 
HETATM    7  C8  UNL     1      -2.357  -1.861   0.086  1.00  0.00    -0.024 C 
HETATM    8  C9  UNL     1      -3.702  -1.407  -0.198  1.00  0.00    -0.008 C 
HETATM    9  C10 UNL     1      -4.183  -0.037  -0.255  1.00  0.00    -0.026 C 
HETATM   10  C11 UNL     1      -4.061   0.986   0.792  1.00  0.00     0.038 C 
HETATM   11  C12 UNL     1      -2.663   1.685   0.905  1.00  0.00     0.085 C 
HETATM   12  C13 UNL     1      -1.756   0.688   0.509  1.00  0.00    -0.158 C 
HETATM   13  C14 UNL     1       0.228  -0.501   1.403  1.00  0.00     0.261 C 
HETATM   14  O1  UNL     1      -0.162  -0.254   2.551  1.00  0.00    -0.270 OA
HETATM   15  N2  UNL     1       1.402  -1.222   1.131  1.00  0.00    -0.263 N 
ATOM     16  H2  UNL     1       1.771  -1.881   1.817  1.00  0.00     0.190 HD
HETATM   17  N3  UNL     1       2.064  -1.029  -0.091  1.00  0.00    -0.256 N 
ENDROOT
BRANCH   1  18
HETATM   18  C2  UNL     1       2.702   1.277  -0.053  1.00  0.00     0.263 C 
BRANCH  18  19
HETATM   19  N1  UNL     1       4.083   0.907  -0.118  1.00  0.00    -0.077 N 
HETATM   20  C1  UNL     1       4.845   1.949   0.573  1.00  0.00     0.267 C 
ATOM     21  H12 UNL     1       4.407   0.741  -1.071  1.00  0.00     0.276 HD
ATOM     22  H11 UNL     1       4.263  -0.028   0.248  1.00  0.00     0.276 HD
ENDBRANCH  18  19
ENDBRANCH   1  18
BRANCH  17  23
HETATM   23  C15 UNL     1       2.914  -2.027  -0.642  1.00  0.00     0.202 C 
HETATM   24  N4  UNL     1       3.594  -1.856  -1.876  1.00  0.00    -0.068 NA
HETATM   25  S1  UNL     1       3.108  -3.420   0.186  1.00  0.00    -0.043 SA
ENDBRANCH  17  23
TORSDOF 3
