REMARK  3 active torsions:
REMARK  status: ('A' for Active; 'I' for Inactive)
REMARK       I    between atoms: C1_2  and  N1_3 
REMARK       I    between atoms: C1_2  and  N2_11 
REMARK    1  A    between atoms: N1_3  and  C2_5 
REMARK    2  A    between atoms: C2_5  and  C3_6 
REMARK    3  A    between atoms: N2_11  and  C6_13 
ROOT
HETATM    1  O1  UNL     1       1.675  -0.831   1.049  1.00  0.00    -0.247 OA
HETATM    2  C1  UNL     1       1.683  -0.798  -0.198  1.00  0.00     0.316 C 
HETATM    3  N1  UNL     1       2.906  -0.990  -0.900  1.00  0.00    -0.341 N 
ATOM      4  H1  UNL     1       2.876  -0.959  -1.919  1.00  0.00     0.164 HD
HETATM    5  N2  UNL     1       0.491  -0.571  -0.892  1.00  0.00    -0.339 N 
ATOM      6  H2  UNL     1       0.529  -0.548  -1.911  1.00  0.00     0.164 HD
ENDROOT
BRANCH   5   7
HETATM    7  C6  UNL     1      -0.798  -0.366  -0.254  1.00  0.00     0.086 C 
HETATM    8  C7  UNL     1      -1.690  -1.482  -0.696  1.00  0.00     0.025 C 
HETATM    9  C8  UNL     1      -2.811  -1.777   0.260  1.00  0.00     0.002 C 
HETATM   10  C9  UNL     1      -4.116  -1.195  -0.273  1.00  0.00     0.000 C 
HETATM   11  C10 UNL     1      -4.667  -0.150   0.661  1.00  0.00     0.000 C 
HETATM   12  C11 UNL     1      -4.841   1.169  -0.007  1.00  0.00     0.000 C 
HETATM   13  C12 UNL     1      -3.631   1.699  -0.688  1.00  0.00     0.000 C 
HETATM   14  C13 UNL     1      -2.362   1.571   0.107  1.00  0.00     0.002 C 
HETATM   15  C14 UNL     1      -1.266   0.996  -0.709  1.00  0.00     0.025 C 
ENDBRANCH   5   7
BRANCH   3  16
HETATM   16  C2  UNL     1       4.175  -1.223  -0.279  1.00  0.00     0.158 C 
BRANCH  16  17
HETATM   17  C3  UNL     1       4.643  -0.111   0.627  1.00  0.00     0.165 C 
HETATM   18  C4  UNL     1       4.962   1.148  -0.102  1.00  0.00     0.204 C 
HETATM   19  O2  UNL     1       6.310   1.434   0.104  1.00  0.00    -0.364 OA
HETATM   20  C5  UNL     1       6.602   0.740   1.292  1.00  0.00     0.338 C 
HETATM   21  O3  UNL     1       5.901  -0.457   1.171  1.00  0.00    -0.358 OA
ENDBRANCH  16  17
ENDBRANCH   3  16
TORSDOF 3
