REMARK  5 active torsions:
REMARK  status: ('A' for Active; 'I' for Inactive)
REMARK    1  A    between atoms: C2_2  and  O1_3 
REMARK    2  A    between atoms: C5_7  and  C6_8 
REMARK    3  A    between atoms: C12_15  and  C13_16 
REMARK    4  A    between atoms: C13_16  and  C14_17 
REMARK    5  A    between atoms: C14_17  and  C15_18 
ROOT
HETATM    1  C1  UNL     1       2.205  -1.224  -1.331  1.00  0.00     0.048 C 
HETATM    2  C2  UNL     1       1.552  -1.502  -0.045  1.00  0.00     0.080 C 
HETATM    3  C3  UNL     1       0.180  -2.102  -0.435  1.00  0.00     0.042 C 
HETATM    4  C4  UNL     1      -0.866  -1.748   0.584  1.00  0.00     0.035 C 
HETATM    5  C5  UNL     1      -1.041  -0.317   0.822  1.00  0.00     0.127 C 
HETATM    6  O2  UNL     1       0.197   0.305   0.455  1.00  0.00    -0.377 OA
HETATM    7  C12 UNL     1       1.279  -0.425   0.917  1.00  0.00     0.156 C 
ENDROOT
BRANCH   5   8
HETATM    8  C6  UNL     1      -2.172   0.442   0.291  1.00  0.00     0.023 C 
HETATM    9  C7  UNL     1      -2.286   0.665  -1.190  1.00  0.00    -0.007 C 
HETATM   10  C8  UNL     1      -3.327   1.767  -1.235  1.00  0.00     0.005 C 
HETATM   11  C11 UNL     1      -3.197  -0.542  -1.227  1.00  0.00     0.010 C 
HETATM   12  C9  UNL     1      -4.304   1.215  -0.169  1.00  0.00     0.005 C 
HETATM   13  C10 UNL     1      -3.536  -0.093   0.161  1.00  0.00    -0.007 C 
ENDBRANCH   5   8
BRANCH   7  14
HETATM   14  C13 UNL     1       2.356   0.474   1.366  1.00  0.00     0.045 C 
BRANCH  14  15
HETATM   15  C14 UNL     1       3.087   1.306   0.407  1.00  0.00     0.116 C 
BRANCH  15  16
HETATM   16  C15 UNL     1       4.106   2.099   1.202  1.00  0.00     0.172 C 
HETATM   17  O3  UNL     1       4.225   1.998   2.430  1.00  0.00    -0.648 OA
HETATM   18  O4  UNL     1       4.942   2.980   0.512  1.00  0.00    -0.648 OA
ENDBRANCH  15  16
ENDBRANCH  14  15
ENDBRANCH   7  14
BRANCH   2  19
HETATM   19  O1  UNL     1       2.236  -2.541   0.588  1.00  0.00    -0.388 OA
ATOM     20  H1  UNL     1       1.814  -2.721   1.420  1.00  0.00     0.210 HD
ENDBRANCH   2  19
TORSDOF 5
