REMARK  3 active torsions:
REMARK  status: ('A' for Active; 'I' for Inactive)
REMARK    1  A    between atoms: N1_1  and  C1_5 
REMARK    2  A    between atoms: C1_5  and  C2_6 
REMARK    3  A    between atoms: C1_5  and  C5_13 
ROOT
HETATM    1  C1  UNL     1      -0.305  -0.047  -1.127  1.00  0.00     0.303 C 
ENDROOT
BRANCH   1   2
HETATM    2  N1  UNL     1      -0.511  -1.462  -1.380  1.00  0.00    -0.063 N 
ATOM      3  H13 UNL     1       0.252  -1.898  -1.898  1.00  0.00     0.275 HD
ATOM      4  H12 UNL     1      -0.438  -2.040  -0.543  1.00  0.00     0.275 HD
ATOM      5  H11 UNL     1      -1.415  -1.535  -1.847  1.00  0.00     0.275 HD
ENDBRANCH   1   2
BRANCH   1   6
HETATM    6  C2  UNL     1       1.024   0.061  -0.440  1.00  0.00     0.064 A 
HETATM    7  C3  UNL     1       1.501  -0.718   0.591  1.00  0.00     0.116 A 
HETATM    8  N2  UNL     1       2.728  -0.304   0.924  1.00  0.00    -0.360 N 
HETATM    9  C4  UNL     1       3.026   0.723   0.115  1.00  0.00     0.180 A 
ATOM     10  H2  UNL     1       3.324  -0.695   1.654  1.00  0.00     0.166 HD
HETATM   11  N3  UNL     1       1.996   0.949  -0.714  1.00  0.00    -0.353 N 
ATOM     12  H3  UNL     1       1.957   1.673  -1.432  1.00  0.00     0.166 HD
ENDBRANCH   1   6
BRANCH   1  13
HETATM   13  C5  UNL     1      -1.396   0.417  -0.213  1.00  0.00     0.144 A 
HETATM   14  N4  UNL     1      -1.203   1.204   0.864  1.00  0.00    -0.272 N 
HETATM   15  N5  UNL     1      -2.387   1.405   1.425  1.00  0.00    -0.007 NA
ATOM     16  H4  UNL     1      -0.310   1.576   1.188  1.00  0.00     0.185 HD
HETATM   17  N6  UNL     1      -3.332   0.773   0.745  1.00  0.00    -0.007 NA
HETATM   18  N7  UNL     1      -2.702   0.173  -0.257  1.00  0.00    -0.272 N 
ATOM     19  H7  UNL     1      -3.159  -0.399  -0.967  1.00  0.00     0.185 HD
ENDBRANCH   1  13
TORSDOF 3
