REMARK  2 active torsions:
REMARK  status: ('A' for Active; 'I' for Inactive)
REMARK       I    between atoms: N1_1  and  C1_5 
REMARK       I    between atoms: C1_5  and  N2_6 
REMARK       I    between atoms: C1_5  and  N3_10 
REMARK    1  A    between atoms: N3_10  and  N4_12 
REMARK    2  A    between atoms: C2_14  and  C3_15 
ROOT
HETATM    1  N1  UNL     1      -3.096  -1.154   0.651  1.00  0.00    -0.032 N 
ATOM      2  H11 UNL     1      -2.604  -2.043   0.735  1.00  0.00     0.279 HD
ATOM      3  H12 UNL     1      -3.988  -1.239   0.163  1.00  0.00     0.279 HD
ATOM      4  H13 UNL     1      -3.461  -0.818   1.542  1.00  0.00     0.279 HD
HETATM    5  C1  UNL     1      -2.190  -0.205   0.015  1.00  0.00     0.494 C 
HETATM    6  N2  UNL     1      -2.884   1.049  -0.103  1.00  0.00    -0.032 N 
ATOM      7  H21 UNL     1      -2.250   1.713  -0.548  1.00  0.00     0.279 HD
ATOM      8  H22 UNL     1      -3.249   1.385   0.788  1.00  0.00     0.279 HD
ATOM      9  H23 UNL     1      -3.776   0.964  -0.591  1.00  0.00     0.279 HD
HETATM   10  N3  UNL     1      -1.018  -0.093   0.881  1.00  0.00    -0.284 N 
ATOM     11  H3  UNL     1      -0.746   0.800   1.291  1.00  0.00     0.184 HD
ENDROOT
BRANCH  10  12
HETATM   12  N4  UNL     1      -0.290  -1.248   1.123  1.00  0.00    -0.310 N 
HETATM   13  C2  UNL     1       0.942  -1.413   0.797  1.00  0.00     0.144 C 
ATOM     14  H4  UNL     1      -0.765  -2.019   1.592  1.00  0.00     0.185 HD
BRANCH  13  15
HETATM   15  C3  UNL     1       1.705  -0.375   0.128  1.00  0.00     0.091 A 
HETATM   16  C4  UNL     1       3.015  -0.409  -0.276  1.00  0.00     0.040 A 
HETATM   17  C5  UNL     1       3.277   0.811  -0.859  1.00  0.00     0.027 A 
HETATM   18  C6  UNL     1       2.113   1.543  -0.788  1.00  0.00     0.142 A 
HETATM   19  O1  UNL     1       1.216   0.818  -0.205  1.00  0.00    -0.321 OA
ENDBRANCH  13  15
ENDBRANCH  10  12
TORSDOF 2
