REMARK  7 active torsions:
REMARK  status: ('A' for Active; 'I' for Inactive)
REMARK    1  A    between atoms: N1_1  and  C1_4 
REMARK    2  A    between atoms: C3_8  and  N3_9 
REMARK    3  A    between atoms: C6_12  and  N4_13 
REMARK       I    between atoms: N5_16  and  C9_17 
REMARK    4  A    between atoms: C9_17  and  C10_19 
REMARK    5  A    between atoms: C10_19  and  N6_20 
REMARK    6  A    between atoms: C10_19  and  C11_24 
REMARK    7  A    between atoms: C11_24  and  O2_25 
ROOT
HETATM    1  N3  UNL     1      -3.187   0.497   0.391  1.00  0.00    -0.377 N 
HETATM    2  C4  UNL     1      -2.961   1.835   0.893  1.00  0.00     0.125 C 
HETATM    3  C5  UNL     1      -1.515   2.092   0.540  1.00  0.00     0.046 C 
HETATM    4  C6  UNL     1      -0.980   0.805  -0.041  1.00  0.00     0.098 C 
HETATM    5  C14 UNL     1      -1.928  -0.197   0.570  1.00  0.00     0.148 C 
ENDROOT
BRANCH   4   6
HETATM    6  N4  UNL     1       0.379   0.550   0.164  1.00  0.00    -0.403 N 
HETATM    7  C7  UNL     1       1.301   1.474  -0.405  1.00  0.00     0.137 C 
HETATM    8  C8  UNL     1       2.524   1.686   0.474  1.00  0.00     0.145 C 
HETATM    9  N5  UNL     1       3.114   0.331   0.623  1.00  0.00    -0.347 N 
HETATM   10  C9  UNL     1       4.478   0.139   0.323  1.00  0.00     0.252 C 
HETATM   11  C12 UNL     1       2.214  -0.685   1.073  1.00  0.00     0.145 C 
HETATM   12  O1  UNL     1       5.143   1.171  -0.066  1.00  0.00    -0.271 OA
HETATM   13  C13 UNL     1       0.811  -0.126   1.318  1.00  0.00     0.137 C 
BRANCH  10  14
HETATM   14  C10 UNL     1       5.259  -1.098   0.394  1.00  0.00     0.298 C 
BRANCH  14  15
HETATM   15  N6  UNL     1       4.447  -2.193   0.821  1.00  0.00    -0.064 N 
ATOM     16  H63 UNL     1       3.979  -1.992   1.705  1.00  0.00     0.275 HD
ATOM     17  H62 UNL     1       3.622  -2.302   0.231  1.00  0.00     0.275 HD
ATOM     18  H61 UNL     1       4.991  -3.054   0.870  1.00  0.00     0.275 HD
ENDBRANCH  14  15
BRANCH  14  19
HETATM   19  C11 UNL     1       5.894  -1.345  -0.966  1.00  0.00     0.206 C 
BRANCH  19  20
HETATM   20  O2  UNL     1       6.666  -0.202  -1.269  1.00  0.00    -0.398 OA
ATOM     21  H2  UNL     1       7.063  -0.356  -2.118  1.00  0.00     0.209 HD
ENDBRANCH  19  20
ENDBRANCH  14  19
ENDBRANCH  10  14
ENDBRANCH   4   6
BRANCH   1  22
HETATM   22  C3  UNL     1      -4.408   0.011  -0.151  1.00  0.00     0.062 A 
HETATM   23  C2  UNL     1      -5.530   0.802  -0.273  1.00  0.00     0.136 A 
HETATM   24  N2  UNL     1      -6.666   0.280  -0.796  1.00  0.00    -0.200 N 
HETATM   25  C1  UNL     1      -6.761  -0.987  -1.210  1.00  0.00     0.675 A 
ATOM     26  H2  UNL     1      -7.486   0.882  -0.877  1.00  0.00     0.183 HD
HETATM   27  N7  UNL     1      -5.681  -1.776  -1.101  1.00  0.00    -0.200 N 
HETATM   28  C15 UNL     1      -4.515  -1.294  -0.581  1.00  0.00     0.136 A 
ATOM     29  H7  UNL     1      -5.732  -2.747  -1.410  1.00  0.00     0.183 HD
BRANCH  25  30
HETATM   30  N1  UNL     1      -7.863  -1.483  -1.713  1.00  0.00    -0.234 N 
ATOM     31  H12 UNL     1      -8.684  -0.883  -1.796  1.00  0.00     0.174 HD
ATOM     32  H11 UNL     1      -7.936  -2.450  -2.029  1.00  0.00     0.174 HD
ENDBRANCH  25  30
ENDBRANCH   1  22
TORSDOF 7
