REMARK  6 active torsions:
REMARK  status: ('A' for Active; 'I' for Inactive)
REMARK    1  A    between atoms: N1_2  and  S1_4 
REMARK    2  A    between atoms: S1_4  and  N2_7 
REMARK    3  A    between atoms: N2_7  and  S2_9 
REMARK    4  A    between atoms: S2_9  and  N3_12 
REMARK    5  A    between atoms: N3_12  and  C2_14 
REMARK    6  A    between atoms: C4_24  and  N8_25 
ROOT
HETATM    1  C2  UNL     1      -1.414  -1.523  -0.286  1.00  0.00     0.153 A 
HETATM    2  N4  UNL     1      -1.867  -2.802  -0.017  1.00  0.00    -0.269 N 
ATOM      3  H4  UNL     1      -1.278  -3.626  -0.132  1.00  0.00     0.190 HD
HETATM    4  N5  UNL     1      -3.109  -2.878   0.397  1.00  0.00    -0.239 N 
ATOM      5  H5  UNL     1      -3.465  -3.812   0.601  1.00  0.00     0.208 HD
HETATM    6  N6  UNL     1      -3.940  -1.884   0.576  1.00  0.00    -0.270 N 
ATOM      7  H6  UNL     1      -4.886  -2.077   0.903  1.00  0.00     0.190 HD
HETATM    8  C3  UNL     1      -3.563  -0.579   0.331  1.00  0.00     0.144 A 
HETATM    9  N7  UNL     1      -4.287   0.498   0.468  1.00  0.00    -0.321 N 
ATOM     10  H7  UNL     1      -5.253   0.437   0.791  1.00  0.00     0.169 HD
HETATM   11  C4  UNL     1      -3.741   1.679   0.178  1.00  0.00     0.144 A 
HETATM   12  S3  UNL     1      -2.161   1.254  -0.300  1.00  0.00    -0.047 SA
HETATM   13  C5  UNL     1      -2.269  -0.445  -0.106  1.00  0.00     0.100 A 
ENDROOT
BRANCH   1  14
HETATM   14  N3  UNL     1      -0.252  -1.331  -0.685  1.00  0.00    -0.250 N 
ATOM     15  H3  UNL     1       0.255  -2.212  -0.770  1.00  0.00     0.182 HD
BRANCH  14  16
HETATM   16  S2  UNL     1       0.710  -0.045  -1.120  1.00  0.00     0.334 S 
HETATM   17  O3  UNL     1       0.089   0.661  -2.324  1.00  0.00    -0.181 OA
HETATM   18  O4  UNL     1       0.894   0.987  -0.027  1.00  0.00    -0.181 OA
BRANCH  16  19
HETATM   19  N2  UNL     1       2.269  -0.655  -1.613  1.00  0.00    -0.177 N 
ATOM     20  H2  UNL     1       2.490  -0.918  -2.573  1.00  0.00     0.195 HD
BRANCH  19  21
HETATM   21  S1  UNL     1       3.382  -0.767  -0.332  1.00  0.00     0.328 S 
HETATM   22  O1  UNL     1       2.658  -0.890   0.980  1.00  0.00    -0.182 OA
HETATM   23  O2  UNL     1       4.211  -2.034  -0.480  1.00  0.00    -0.182 OA
BRANCH  21  24
HETATM   24  N1  UNL     1       4.423   0.580  -0.296  1.00  0.00    -0.306 N 
HETATM   25  C1  UNL     1       4.003   1.633   0.581  1.00  0.00     0.161 C 
ATOM     26  H1  UNL     1       5.276   0.633  -0.853  1.00  0.00     0.173 HD
ENDBRANCH  21  24
ENDBRANCH  19  21
ENDBRANCH  16  19
ENDBRANCH  14  16
ENDBRANCH   1  14
BRANCH  11  27
HETATM   27  N8  UNL     1      -4.311   2.862   0.254  1.00  0.00    -0.380 N 
ATOM     28  H82 UNL     1      -5.256   3.116   0.540  1.00  0.00     0.158 HD
ATOM     29  H81 UNL     1      -3.893   3.766   0.032  1.00  0.00     0.158 HD
ENDBRANCH  11  27
TORSDOF 6
