REMARK  5 active torsions:
REMARK  status: ('A' for Active; 'I' for Inactive)
REMARK    1  A    between atoms: C5_5  and  C6_6 
REMARK    2  A    between atoms: C11_14  and  C12_15 
REMARK    3  A    between atoms: C12_15  and  C13_16 
REMARK    4  A    between atoms: C17_24  and  C18_25 
REMARK    5  A    between atoms: N3_26  and  N4_28 
ROOT
HETATM    1  C1  UNL     1      -1.965  -0.491   3.763  1.00  0.00     0.025 C 
HETATM    2  C2  UNL     1      -1.528  -0.120   2.587  1.00  0.00    -0.026 A 
HETATM    3  C3  UNL     1      -1.749   1.200   2.227  1.00  0.00    -0.043 A 
HETATM    4  C4  UNL     1      -2.507   2.105   3.153  1.00  0.00     0.049 C 
HETATM    5  C5  UNL     1      -1.325   1.705   1.047  1.00  0.00    -0.024 A 
HETATM    6  C8  UNL     1      -0.656   0.851   0.196  1.00  0.00     0.053 A 
HETATM    7  N1  UNL     1      -0.143   1.110  -1.011  1.00  0.00    -0.350 N 
ATOM      8  H1  UNL     1      -0.177   2.009  -1.492  1.00  0.00     0.166 HD
HETATM    9  C9  UNL     1       0.419   0.000  -1.480  1.00  0.00     0.112 A 
HETATM   10  C10 UNL     1       1.074  -0.271  -2.655  1.00  0.00     0.208 A 
HETATM   11  O1  UNL     1       1.212   0.664  -3.509  1.00  0.00    -0.285 OA
HETATM   12  C11 UNL     1       1.572  -1.521  -2.911  1.00  0.00     0.020 A 
HETATM   13  C14 UNL     1       1.422  -2.524  -1.994  1.00  0.00     0.100 A 
HETATM   14  N2  UNL     1       0.767  -2.232  -0.830  1.00  0.00    -0.363 N 
ATOM     15  H2  UNL     1       0.652  -2.974  -0.140  1.00  0.00     0.165 HD
HETATM   16  C15 UNL     1       0.272  -1.029  -0.552  1.00  0.00     0.076 A 
HETATM   17  C16 UNL     1      -0.407  -0.496   0.513  1.00  0.00     0.033 A 
HETATM   18  C17 UNL     1      -0.841  -1.027   1.733  1.00  0.00     0.005 A 
ENDROOT
BRANCH  18  19
HETATM   19  C18 UNL     1      -0.682  -2.223   2.137  1.00  0.00     0.119 C 
HETATM   20  N3  UNL     1      -0.167  -3.445   1.827  1.00  0.00    -0.318 N 
ATOM     21  H3  UNL     1       0.843  -3.588   1.810  1.00  0.00     0.185 HD
BRANCH  20  22
HETATM   22  N4  UNL     1      -0.973  -4.427   1.553  1.00  0.00    -0.345 N 
ATOM     23  H42 UNL     1      -1.980  -4.267   1.574  1.00  0.00     0.176 HD
ATOM     24  H41 UNL     1      -0.587  -5.342   1.321  1.00  0.00     0.176 HD
ENDBRANCH  20  22
ENDBRANCH  18  19
BRANCH   5  25
HETATM   25  C6  UNL     1      -1.541   3.110   0.674  1.00  0.00     0.037 C 
HETATM   26  C7  UNL     1      -0.573   4.049   1.348  1.00  0.00     0.010 C 
ENDBRANCH   5  25
BRANCH  12  27
HETATM   27  C12 UNL     1       2.271  -1.788  -4.174  1.00  0.00     0.157 C 
BRANCH  27  28
HETATM   28  C13 UNL     1       3.640  -1.221  -4.122  1.00  0.00     0.177 C 
HETATM   29  O2  UNL     1       4.040  -0.621  -3.101  1.00  0.00    -0.648 OA
HETATM   30  O3  UNL     1       4.455  -1.372  -5.227  1.00  0.00    -0.648 OA
ENDBRANCH  27  28
ENDBRANCH  12  27
TORSDOF 5
