REMARK  4 active torsions:
REMARK  status: ('A' for Active; 'I' for Inactive)
REMARK    1  A    between atoms: C5_9  and  C6_10 
REMARK    2  A    between atoms: C6_10  and  N3_11 
REMARK    3  A    between atoms: N3_11  and  S1_13 
REMARK    4  A    between atoms: S1_13  and  C7_16 
ROOT
HETATM    1  N3  UNL     1      -0.260  -0.619   1.256  1.00  0.00    -0.290 N 
ATOM      2  H3  UNL     1      -0.634  -1.435   1.741  1.00  0.00     0.178 HD
ENDROOT
BRANCH   1   3
HETATM    3  C6  UNL     1      -1.103   0.066   0.352  1.00  0.00     0.111 C 
BRANCH   3   4
HETATM    4  C5  UNL     1      -2.409  -0.058   0.407  1.00  0.00    -0.017 A 
HETATM    5  C4  UNL     1      -3.093  -0.844   1.322  1.00  0.00     0.044 A 
HETATM    6  C3  UNL     1      -4.459  -0.743   1.096  1.00  0.00     0.061 A 
HETATM    7  N2  UNL     1      -5.719  -1.079   1.414  1.00  0.00    -0.299 N 
HETATM    8  C15 UNL     1      -4.567   0.170  -0.035  1.00  0.00     0.020 A 
HETATM    9  N1  UNL     1      -6.563  -0.468   0.599  1.00  0.00    -0.300 N 
ATOM     10  H2  UNL     1      -5.985  -1.710   2.170  1.00  0.00     0.187 HD
HETATM   11  C2  UNL     1      -5.922   0.297  -0.292  1.00  0.00     0.051 A 
ATOM     12  H1  UNL     1      -7.577  -0.568   0.644  1.00  0.00     0.187 HD
HETATM   13  C1  UNL     1      -6.461   1.041  -1.247  1.00  0.00     0.045 C 
HETATM   14  C14 UNL     1      -3.313   0.572  -0.435  1.00  0.00     0.029 A 
ENDBRANCH   3   4
ENDBRANCH   1   3
BRANCH   1  15
HETATM   15  S1  UNL     1       1.357  -0.153   1.581  1.00  0.00     0.266 S 
HETATM   16  O1  UNL     1       1.944  -1.052   2.620  1.00  0.00    -0.200 OA
HETATM   17  O2  UNL     1       1.356   1.287   2.053  1.00  0.00    -0.200 OA
BRANCH  15  18
HETATM   18  C7  UNL     1       2.257  -0.272   0.063  1.00  0.00     0.124 A 
HETATM   19  C8  UNL     1       1.772  -0.675  -1.161  1.00  0.00     0.116 A 
HETATM   20  N4  UNL     1       2.751  -0.642  -2.090  1.00  0.00    -0.362 N 
HETATM   21  C9  UNL     1       3.863  -0.218  -1.465  1.00  0.00     0.062 A 
ATOM     22  H4  UNL     1       2.664  -0.891  -3.075  1.00  0.00     0.165 HD
HETATM   23  C10 UNL     1       5.218   0.091  -1.607  1.00  0.00     0.056 A 
HETATM   24  C13 UNL     1       3.585   0.017  -0.139  1.00  0.00     0.084 A 
HETATM   25  C11 UNL     1       5.714   0.498  -0.377  1.00  0.00     0.008 A 
HETATM   26  C12 UNL     1       7.108   0.923  -0.054  1.00  0.00     0.068 C 
HETATM   27  N5  UNL     1       4.688   0.439   0.491  1.00  0.00    -0.357 N 
ATOM     28  H5  UNL     1       4.742   0.680   1.481  1.00  0.00     0.166 HD
ENDBRANCH  15  18
ENDBRANCH   1  15
TORSDOF 4
