REMARK  8 active torsions:
REMARK  status: ('A' for Active; 'I' for Inactive)
REMARK    1  A    between atoms: C3_3  and  C4_4 
REMARK    2  A    between atoms: C4_4  and  C5_5 
REMARK    3  A    between atoms: C8_8  and  C9_9 
REMARK    4  A    between atoms: C9_9  and  C10_10 
REMARK    5  A    between atoms: C10_10  and  C11_11 
REMARK    6  A    between atoms: C14_16  and  C15_17 
REMARK    7  A    between atoms: C15_17  and  C16_18 
REMARK    8  A    between atoms: C16_18  and  O1_19 
ROOT
HETATM    1  C1  UNL     1       6.952   2.531   2.941  1.00  0.00     0.012 C 
HETATM    2  C2  UNL     1       6.606   1.896   1.970  1.00  0.00    -0.117 C 
HETATM    3  C3  UNL     1       6.213   1.117   0.793  1.00  0.00     0.097 C 
ENDROOT
BRANCH   3   4
HETATM    4  C4  UNL     1       5.953  -0.324   1.219  1.00  0.00     0.040 C 
BRANCH   4   5
HETATM    5  C5  UNL     1       5.553  -1.159   0.072  1.00  0.00    -0.012 C 
HETATM    6  C6  UNL     1       4.307  -1.290  -0.352  1.00  0.00    -0.011 A 
HETATM    7  C7  UNL     1       3.225  -0.664   0.225  1.00  0.00     0.052 A 
HETATM    8  C20 UNL     1       3.838  -2.040  -1.406  1.00  0.00     0.033 A 
HETATM    9  C8  UNL     1       2.096  -1.030  -0.476  1.00  0.00     0.088 A 
HETATM   10  N3  UNL     1       2.506  -1.858  -1.449  1.00  0.00    -0.349 N 
ATOM     11  H3  UNL     1       1.887  -2.293  -2.133  1.00  0.00     0.166 HD
HETATM   12  C21 UNL     1       4.558  -2.785  -2.207  1.00  0.00     0.044 C 
BRANCH   9  13
HETATM   13  C9  UNL     1       0.739  -0.601  -0.209  1.00  0.00    -0.043 C 
BRANCH  13  14
HETATM   14  C10 UNL     1      -0.410  -0.258   0.006  1.00  0.00    -0.058 C 
BRANCH  14  15
HETATM   15  C11 UNL     1      -1.768   0.123   0.248  1.00  0.00     0.051 A 
HETATM   16  C12 UNL     1      -2.229   0.944   1.253  1.00  0.00     0.110 A 
HETATM   17  N1  UNL     1      -3.570   1.054   1.138  1.00  0.00    -0.363 N 
HETATM   18  C13 UNL     1      -3.991   0.340   0.103  1.00  0.00     0.057 A 
ATOM     19  H1  UNL     1      -4.169   1.603   1.754  1.00  0.00     0.165 HD
HETATM   20  C14 UNL     1      -5.244   0.111  -0.446  1.00  0.00    -0.013 A 
HETATM   21  C19 UNL     1      -2.887  -0.245  -0.462  1.00  0.00     0.079 A 
HETATM   22  C17 UNL     1      -5.301  -0.706  -1.546  1.00  0.00     0.101 A 
HETATM   23  N2  UNL     1      -4.224  -1.282  -2.103  1.00  0.00    -0.332 N 
HETATM   24  C18 UNL     1      -3.020  -1.053  -1.564  1.00  0.00     0.259 A 
ATOM     25  H2  UNL     1      -4.321  -1.883  -2.922  1.00  0.00     0.168 HD
HETATM   26  O2  UNL     1      -1.993  -1.589  -2.079  1.00  0.00    -0.267 OA
BRANCH  20  27
HETATM   27  C15 UNL     1      -6.429   0.755   0.174  1.00  0.00     0.068 C 
BRANCH  27  28
HETATM   28  C16 UNL     1      -6.460   2.195  -0.226  1.00  0.00     0.168 C 
BRANCH  28  29
HETATM   29  O1  UNL     1      -7.539   2.886   0.310  1.00  0.00    -0.401 OA
ATOM     30  H1  UNL     1      -7.559   3.801   0.056  1.00  0.00     0.209 HD
ENDBRANCH  28  29
ENDBRANCH  27  28
ENDBRANCH  20  27
ENDBRANCH  14  15
ENDBRANCH  13  14
ENDBRANCH   9  13
ENDBRANCH   4   5
ENDBRANCH   3   4
TORSDOF 8
