REMARK  8 active torsions:
REMARK  status: ('A' for Active; 'I' for Inactive)
REMARK    1  A    between atoms: C3_3  and  C4_4 
REMARK    2  A    between atoms: C5_5  and  C6_6 
REMARK    3  A    between atoms: N3_17  and  C12_18 
REMARK    4  A    between atoms: C12_18  and  C13_19 
REMARK    5  A    between atoms: C13_19  and  C14_20 
REMARK    6  A    between atoms: C14_20  and  C15_21 
REMARK    7  A    between atoms: C16_22  and  C17_23 
REMARK    8  A    between atoms: C19_27  and  N5_28 
ROOT
HETATM    1  C1  UNL     1       1.595   0.945   1.384  1.00  0.00     0.070 C 
HETATM    2  C2  UNL     1       1.469  -0.530   1.528  1.00  0.00     0.026 A 
HETATM    3  C3  UNL     1       2.507  -1.282   0.930  1.00  0.00     0.040 A 
HETATM    4  C9  UNL     1       2.475  -2.645   1.030  1.00  0.00     0.024 A 
HETATM    5  C10 UNL     1       1.443  -3.283   1.706  1.00  0.00     0.019 A 
HETATM    6  C11 UNL     1       0.450  -2.546   2.276  1.00  0.00     0.091 A 
HETATM    7  N3  UNL     1       0.498  -1.183   2.166  1.00  0.00    -0.359 N 
ENDROOT
BRANCH   7   8
HETATM    8  C12 UNL     1      -0.594  -0.483   2.770  1.00  0.00     0.129 C 
BRANCH   8   9
HETATM    9  C13 UNL     1      -1.820  -0.318   1.953  1.00  0.00     0.032 C 
BRANCH   9  10
HETATM   10  C14 UNL     1      -1.680   0.438   0.666  1.00  0.00     0.096 C 
BRANCH  10  11
HETATM   11  C15 UNL     1      -3.036   0.445   0.040  1.00  0.00    -0.100 C 
HETATM   12  C16 UNL     1      -4.120   0.459  -0.480  1.00  0.00    -0.047 C 
BRANCH  12  13
HETATM   13  C17 UNL     1      -5.425   0.496  -1.126  1.00  0.00     0.118 A 
HETATM   14  C18 UNL     1      -6.543  -0.215  -0.761  1.00  0.00     0.145 A 
HETATM   15  N4  UNL     1      -7.513   0.121  -1.623  1.00  0.00    -0.199 N 
HETATM   16  C19 UNL     1      -7.044   1.013  -2.510  1.00  0.00     0.676 A 
ATOM     17  H4  UNL     1      -8.465  -0.246  -1.607  1.00  0.00     0.183 HD
HETATM   18  N6  UNL     1      -5.761   1.232  -2.190  1.00  0.00    -0.183 N 
ATOM     19  H6  UNL     1      -5.134   1.866  -2.685  1.00  0.00     0.185 HD
BRANCH  16  20
HETATM   20  N5  UNL     1      -7.723   1.550  -3.486  1.00  0.00    -0.234 N 
ATOM     21  H52 UNL     1      -8.699   1.383  -3.730  1.00  0.00     0.174 HD
ATOM     22  H51 UNL     1      -7.367   2.228  -4.160  1.00  0.00     0.174 HD
ENDBRANCH  16  20
ENDBRANCH  12  13
ENDBRANCH  10  11
ENDBRANCH   9  10
ENDBRANCH   8   9
ENDBRANCH   7   8
BRANCH   3  23
HETATM   23  C4  UNL     1       3.582  -0.645   0.228  1.00  0.00    -0.058 C 
HETATM   24  C5  UNL     1       4.487  -0.104  -0.368  1.00  0.00    -0.042 C 
BRANCH  24  25
HETATM   25  C6  UNL     1       5.550   0.548  -1.084  1.00  0.00     0.106 A 
HETATM   26  C7  UNL     1       5.842   0.346  -2.411  1.00  0.00     0.132 A 
HETATM   27  N1  UNL     1       6.892   1.111  -2.760  1.00  0.00    -0.316 N 
HETATM   28  C8  UNL     1       7.277   1.804  -1.667  1.00  0.00     0.325 A 
ATOM     29  H1  UNL     1       7.320   1.159  -3.684  1.00  0.00     0.170 HD
HETATM   30  O1  UNL     1       8.207   2.619  -1.567  1.00  0.00    -0.247 OA
HETATM   31  N2  UNL     1       6.448   1.449  -0.651  1.00  0.00    -0.300 N 
ATOM     32  H2  UNL     1       6.500   1.813   0.301  1.00  0.00     0.171 HD
ENDBRANCH  24  25
ENDBRANCH   3  23
TORSDOF 8
