REMARK  8 active torsions:
REMARK  status: ('A' for Active; 'I' for Inactive)
REMARK    1  A    between atoms: C4_4  and  C5_5 
REMARK    2  A    between atoms: C5_5  and  C6_6 
REMARK    3  A    between atoms: C6_6  and  C7_7 
REMARK    4  A    between atoms: C7_7  and  N1_8 
REMARK    5  A    between atoms: C11_12  and  C12_13 
REMARK    6  A    between atoms: C12_13  and  C13_14 
REMARK    7  A    between atoms: C13_14  and  C14_15 
REMARK    8  A    between atoms: C15_18  and  C16_19 
ROOT
HETATM    1  C13 UNL     1       0.959   0.708  -0.911  1.00  0.00     0.014 C 
ENDROOT
BRANCH   1   2
HETATM    2  C12 UNL     1      -0.020   1.699  -1.380  1.00  0.00     0.088 C 
BRANCH   2   3
HETATM    3  C11 UNL     1      -0.980   2.106  -0.342  1.00  0.00     0.032 A 
HETATM    4  C4  UNL     1      -2.049   1.357   0.100  1.00  0.00     0.042 A 
HETATM    5  C3  UNL     1      -2.683   2.127   1.081  1.00  0.00     0.047 A 
HETATM    6  C2  UNL     1      -1.983   3.317   1.206  1.00  0.00     0.006 A 
HETATM    7  C1  UNL     1      -2.272   4.458   2.120  1.00  0.00     0.068 C 
HETATM    8  N5  UNL     1      -0.969   3.262   0.333  1.00  0.00    -0.362 N 
ATOM      9  H5  UNL     1      -0.280   4.002   0.200  1.00  0.00     0.165 HD
BRANCH   4  10
HETATM   10  C5  UNL     1      -2.469   0.051  -0.326  1.00  0.00    -0.063 C 
BRANCH  10  11
HETATM   11  C6  UNL     1      -2.820  -1.056  -0.666  1.00  0.00    -0.073 C 
BRANCH  11  12
HETATM   12  C7  UNL     1      -3.249  -2.410  -1.056  1.00  0.00     0.329 C 
BRANCH  12  13
HETATM   13  N1  UNL     1      -4.694  -2.514  -1.124  1.00  0.00    -0.069 N 
HETATM   14  C8  UNL     1      -5.119  -2.880  -2.438  1.00  0.00     0.272 C 
HETATM   15  C9  UNL     1      -5.131  -3.506  -0.149  1.00  0.00     0.272 C 
HETATM   16  C10 UNL     1      -5.248  -1.241  -0.691  1.00  0.00     0.272 C 
ENDBRANCH  12  13
ENDBRANCH  11  12
ENDBRANCH  10  11
ENDBRANCH   4  10
ENDBRANCH   2   3
ENDBRANCH   1   2
BRANCH   1  17
HETATM   17  C14 UNL     1       2.167   0.940  -0.488  1.00  0.00     0.099 A 
HETATM   18  N2  UNL     1       3.039  -0.012  -0.063  1.00  0.00    -0.338 N 
HETATM   19  C15 UNL     1       4.201   0.549   0.310  1.00  0.00     0.112 A 
ATOM     20  H2  UNL     1       2.839  -1.012  -0.032  1.00  0.00     0.167 HD
HETATM   21  N4  UNL     1       4.042   1.861   0.113  1.00  0.00    -0.307 N 
HETATM   22  C20 UNL     1       2.830   2.154  -0.370  1.00  0.00     0.273 A 
ATOM     23  H4  UNL     1       4.761   2.558   0.308  1.00  0.00     0.170 HD
HETATM   24  O1  UNL     1       2.423   3.309  -0.643  1.00  0.00    -0.266 OA
BRANCH  19  25
HETATM   25  C16 UNL     1       5.265  -0.089   0.773  1.00  0.00    -0.009 C 
HETATM   26  C17 UNL     1       5.347  -1.560   0.958  1.00  0.00     0.067 C 
HETATM   27  C18 UNL     1       6.843  -1.810   1.060  1.00  0.00     0.237 C 
HETATM   28  N3  UNL     1       7.264  -0.620   1.773  1.00  0.00    -0.071 N 
HETATM   29  C19 UNL     1       6.561   0.488   1.196  1.00  0.00     0.270 C 
ATOM     30  H32 UNL     1       7.137  -0.692   2.782  1.00  0.00     0.277 HD
ATOM     31  H31 UNL     1       8.276  -0.493   1.777  1.00  0.00     0.277 HD
ENDBRANCH  19  25
ENDBRANCH   1  17
TORSDOF 8
