REMARK  5 active torsions:
REMARK  status: ('A' for Active; 'I' for Inactive)
REMARK    1  A    between atoms: C6_7  and  C7_8 
REMARK    2  A    between atoms: C7_8  and  C8_9 
REMARK    3  A    between atoms: C14_16  and  C15_17 
REMARK    4  A    between atoms: C16_18  and  C17_19 
REMARK    5  A    between atoms: C18_24  and  O1_25 
ROOT
HETATM    1  C8  UNL     1      -1.165   0.204   0.850  1.00  0.00     0.065 A 
HETATM    2  C9  UNL     1      -0.323   1.191   0.348  1.00  0.00     0.023 A 
HETATM    3  C10 UNL     1      -0.491   2.562   0.181  1.00  0.00     0.033 A 
HETATM    4  C11 UNL     1       0.624   3.069  -0.370  1.00  0.00     0.092 A 
HETATM    5  N2  UNL     1       1.538   2.074  -0.577  1.00  0.00    -0.359 N 
HETATM    6  C12 UNL     1       2.792   2.246  -1.269  1.00  0.00     0.156 C 
HETATM    7  C13 UNL     1       1.031   0.907  -0.156  1.00  0.00     0.075 A 
HETATM    8  C14 UNL     1       1.496  -0.382  -0.124  1.00  0.00     0.076 A 
HETATM    9  N5  UNL     1       0.588  -1.280   0.386  1.00  0.00    -0.296 N 
ATOM     10  H5  UNL     1       0.888  -2.254   0.423  1.00  0.00     0.187 HD
HETATM   11  N6  UNL     1      -0.605  -1.030   0.825  1.00  0.00    -0.295 N 
HETATM   12  C19 UNL     1      -1.361  -2.181   1.329  1.00  0.00     0.178 C 
ENDROOT
BRANCH   8  13
HETATM   13  C15 UNL     1       2.835  -0.842  -0.317  1.00  0.00     0.036 C 
HETATM   14  C16 UNL     1       4.011  -0.412  -0.071  1.00  0.00     0.038 C 
BRANCH  14  15
HETATM   15  C17 UNL     1       5.225  -1.190  -0.435  1.00  0.00     0.100 A 
HETATM   16  N3  UNL     1       5.497  -2.365  -1.039  1.00  0.00    -0.295 N 
HETATM   17  N4  UNL     1       6.823  -2.233  -0.911  1.00  0.00    -0.278 N 
ATOM     18  H3  UNL     1       4.907  -3.091  -1.446  1.00  0.00     0.187 HD
HETATM   19  C18 UNL     1       6.592  -1.051  -0.302  1.00  0.00     0.183 A 
ATOM     20  H4  UNL     1       7.645  -2.783  -1.163  1.00  0.00     0.189 HD
BRANCH  19  21
HETATM   21  O1  UNL     1       7.412  -0.086   0.241  1.00  0.00    -0.343 OA
ATOM     22  H1  UNL     1       8.353   0.010   0.333  1.00  0.00     0.219 HD
ENDBRANCH  19  21
ENDBRANCH  14  15
ENDBRANCH   8  13
BRANCH   1  23
HETATM   23  C7  UNL     1      -2.520   0.462   1.281  1.00  0.00     0.061 C 
BRANCH  23  24
HETATM   24  C6  UNL     1      -3.709   0.079   0.556  1.00  0.00     0.035 A 
HETATM   25  N1  UNL     1      -4.200   0.548  -0.577  1.00  0.00    -0.361 N 
HETATM   26  C1  UNL     1      -3.564   1.599  -1.334  1.00  0.00     0.155 C 
HETATM   27  C2  UNL     1      -5.376   0.078  -1.103  1.00  0.00     0.090 A 
HETATM   28  C3  UNL     1      -6.136  -0.891  -0.528  1.00  0.00     0.017 A 
HETATM   29  C4  UNL     1      -5.670  -1.414   0.660  1.00  0.00     0.004 A 
HETATM   30  C5  UNL     1      -4.503  -0.929   1.157  1.00  0.00     0.029 A 
ENDBRANCH  23  24
ENDBRANCH   1  23
TORSDOF 5
