REMARK  10 active torsions:
REMARK  status: ('A' for Active; 'I' for Inactive)
REMARK    1  A    between atoms: C2_2  and  N1_3 
REMARK    2  A    between atoms: N1_3  and  C3_6 
REMARK    3  A    between atoms: C3_6  and  C4_7 
REMARK    4  A    between atoms: C4_7  and  N2_8 
REMARK    5  A    between atoms: N2_8  and  C5_10 
REMARK    6  A    between atoms: C7_12  and  C8_13 
REMARK    7  A    between atoms: C9_14  and  C10_15 
REMARK       I    between atoms: C10_15  and  N3_17 
REMARK    8  A    between atoms: N3_17  and  C11_19 
REMARK    9  A    between atoms: C11_19  and  C12_20 
REMARK   10  A    between atoms: C12_20  and  C13_21 
ROOT
HETATM    1  C5  UNL     1       3.088  -1.121   0.452  1.00  0.00     0.103 A 
HETATM    2  C6  UNL     1       2.238  -0.465  -0.379  1.00  0.00     0.059 A 
HETATM    3  C7  UNL     1       0.857  -0.744  -0.550  1.00  0.00    -0.028 A 
HETATM    4  C19 UNL     1       0.400  -1.782   0.219  1.00  0.00     0.073 A 
HETATM    5  C20 UNL     1       1.278  -2.454   1.075  1.00  0.00     0.190 A 
HETATM    6  F2  UNL     1       0.756  -3.469   1.808  1.00  0.00    -0.186 F 
HETATM    7  N4  UNL     1       2.564  -2.130   1.179  1.00  0.00    -0.319 N 
ATOM      8  H4  UNL     1       3.163  -2.652   1.818  1.00  0.00     0.169 HD
ENDROOT
BRANCH   3   9
HETATM    9  C8  UNL     1       0.138  -0.008  -1.530  1.00  0.00     0.017 C 
HETATM   10  C9  UNL     1      -1.061   0.294  -1.770  1.00  0.00     0.075 C 
BRANCH  10  11
HETATM   11  C10 UNL     1      -2.304   0.015  -1.108  1.00  0.00     0.241 C 
HETATM   12  O1  UNL     1      -2.483  -0.607  -0.054  1.00  0.00    -0.269 OA
HETATM   13  N3  UNL     1      -3.491   0.535  -1.770  1.00  0.00    -0.357 N 
ATOM     14  H3  UNL     1      -3.397   1.052  -2.644  1.00  0.00     0.162 HD
BRANCH  13  15
HETATM   15  C11 UNL     1      -4.778   0.329  -1.210  1.00  0.00     0.127 C 
BRANCH  15  16
HETATM   16  C12 UNL     1      -4.952   0.961   0.144  1.00  0.00     0.061 C 
BRANCH  16  17
HETATM   17  C13 UNL     1      -6.351   0.679   0.613  1.00  0.00    -0.018 A 
HETATM   18  C14 UNL     1      -6.616  -0.305   1.541  1.00  0.00     0.011 A 
HETATM   19  C15 UNL     1      -7.900  -0.586   1.969  1.00  0.00     0.020 A 
HETATM   20  C16 UNL     1      -8.954   0.130   1.463  1.00  0.00     0.013 A 
HETATM   21 BR1  UNL     1     -10.742  -0.230   2.028  1.00  0.00    -0.051 Br
HETATM   22  C17 UNL     1      -8.711   1.115   0.538  1.00  0.00     0.061 A 
HETATM   23  C18 UNL     1      -7.425   1.378   0.125  1.00  0.00     0.124 A 
HETATM   24  F1  UNL     1      -7.189   2.355  -0.791  1.00  0.00    -0.206 F 
ENDBRANCH  16  17
ENDBRANCH  15  16
ENDBRANCH  13  15
ENDBRANCH  10  11
ENDBRANCH   3   9
BRANCH   1  25
HETATM   25  N2  UNL     1       4.349  -0.814   0.569  1.00  0.00    -0.375 N 
ATOM     26  H2  UNL     1       4.960  -1.328   1.204  1.00  0.00     0.161 HD
BRANCH  25  27
HETATM   27  C4  UNL     1       4.848   0.269  -0.223  1.00  0.00     0.148 C 
BRANCH  27  28
HETATM   28  C3  UNL     1       6.244   0.700   0.122  1.00  0.00     0.251 C 
BRANCH  28  29
HETATM   29  N1  UNL     1       7.242  -0.312  -0.020  1.00  0.00    -0.074 N 
ATOM     30  H12 UNL     1       7.240  -0.723  -0.953  1.00  0.00     0.277 HD
ATOM     31  H11 UNL     1       7.014  -1.152   0.512  1.00  0.00     0.277 HD
BRANCH  29  32
HETATM   32  C2  UNL     1       8.529   0.217   0.333  1.00  0.00     0.228 C 
HETATM   33  C1  UNL     1       8.666   0.541   1.789  1.00  0.00     0.034 C 
ENDBRANCH  29  32
ENDBRANCH  28  29
ENDBRANCH  27  28
ENDBRANCH  25  27
ENDBRANCH   1  25
TORSDOF 10
