REMARK  13 active torsions:
REMARK  status: ('A' for Active; 'I' for Inactive)
REMARK       I    between atoms: C1_4  and  N3_6 
REMARK    1  A    between atoms: N3_6  and  C2_8 
REMARK    2  A    between atoms: C2_8  and  C3_9 
REMARK    3  A    between atoms: C3_9  and  N4_10 
REMARK    4  A    between atoms: N4_10  and  C4_12 
REMARK    5  A    between atoms: N6_16  and  C6_18 
REMARK    6  A    between atoms: C6_18  and  C7_19 
REMARK    7  A    between atoms: C7_19  and  C8_20 
REMARK    8  A    between atoms: C8_20  and  C9_21 
REMARK    9  A    between atoms: C12_24  and  N7_25 
REMARK   10  A    between atoms: N7_25  and  C13_26 
REMARK   11  A    between atoms: N7_25  and  C15_29 
REMARK   12  A    between atoms: C13_26  and  C14_27 
REMARK   13  A    between atoms: C15_29  and  C16_30 
ROOT
HETATM    1  C4  UNL     1       4.140  -1.083   0.104  1.00  0.00     0.140 A 
HETATM    2  N5  UNL     1       3.250  -1.008  -0.915  1.00  0.00    -0.175 N 
ATOM      3  H5  UNL     1       2.829  -0.100  -1.109  1.00  0.00     0.186 HD
HETATM    4  C5  UNL     1       2.883  -2.040  -1.687  1.00  0.00     0.683 A 
HETATM    5  N6  UNL     1       2.043  -2.007  -2.653  1.00  0.00    -0.205 N 
ATOM      6  H6  UNL     1       1.867  -2.881  -3.149  1.00  0.00     0.183 HD
HETATM    7  N8  UNL     1       3.486  -3.239  -1.376  1.00  0.00    -0.200 N 
ATOM      8  H8  UNL     1       3.245  -4.061  -1.930  1.00  0.00     0.183 HD
HETATM    9  C19 UNL     1       4.369  -3.378  -0.386  1.00  0.00     0.133 A 
HETATM   10  C20 UNL     1       4.720  -2.298   0.383  1.00  0.00     0.094 A 
HETATM   11 CL3  UNL     1       5.873  -2.412   1.697  1.00  0.00    -0.079 Cl
ENDROOT
BRANCH   5  12
HETATM   12  C6  UNL     1       1.346  -0.872  -3.086  1.00  0.00     0.079 C 
BRANCH  12  13
HETATM   13  C7  UNL     1      -0.105  -0.790  -2.651  1.00  0.00     0.049 C 
BRANCH  13  14
HETATM   14  C8  UNL     1      -0.189  -0.781  -1.152  1.00  0.00     0.043 C 
BRANCH  14  15
HETATM   15  C9  UNL     1      -1.575  -0.681  -0.673  1.00  0.00    -0.058 A 
HETATM   16  C10 UNL     1      -2.341  -1.790  -0.422  1.00  0.00     0.009 A 
HETATM   17  C11 UNL     1      -3.637  -1.688   0.030  1.00  0.00     0.030 A 
HETATM   18  C12 UNL     1      -4.210  -0.443   0.247  1.00  0.00     0.030 A 
HETATM   19  C17 UNL     1      -3.451   0.675  -0.002  1.00  0.00     0.030 A 
HETATM   20  C18 UNL     1      -2.148   0.548  -0.457  1.00  0.00     0.009 A 
BRANCH  18  21
HETATM   21  N7  UNL     1      -5.527  -0.335   0.705  1.00  0.00    -0.379 N 
BRANCH  21  22
HETATM   22  C13 UNL     1      -6.616   0.100  -0.111  1.00  0.00     0.138 C 
BRANCH  22  23
HETATM   23  C14 UNL     1      -6.276   0.480  -1.505  1.00  0.00     0.134 C 
HETATM   24 CL1  UNL     1      -5.585  -0.855  -2.437  1.00  0.00    -0.129 Cl
ENDBRANCH  22  23
ENDBRANCH  21  22
BRANCH  21  25
HETATM   25  C15 UNL     1      -5.808  -0.704   2.083  1.00  0.00     0.138 C 
BRANCH  25  26
HETATM   26  C16 UNL     1      -6.224   0.452   2.940  1.00  0.00     0.134 C 
HETATM   27 CL2  UNL     1      -4.992   1.719   3.047  1.00  0.00    -0.129 Cl
ENDBRANCH  25  26
ENDBRANCH  21  25
ENDBRANCH  18  21
ENDBRANCH  14  15
ENDBRANCH  13  14
ENDBRANCH  12  13
ENDBRANCH   5  12
BRANCH   1  28
HETATM   28  N4  UNL     1       4.422  -0.038   0.810  1.00  0.00    -0.373 N 
ATOM     29  H4  UNL     1       5.098  -0.161   1.563  1.00  0.00     0.161 HD
BRANCH  28  30
HETATM   30  C3  UNL     1       3.881   1.271   0.640  1.00  0.00     0.141 C 
BRANCH  30  31
HETATM   31  C2  UNL     1       4.054   2.139   1.864  1.00  0.00     0.142 C 
BRANCH  31  32
HETATM   32  N3  UNL     1       5.411   2.351   2.261  1.00  0.00    -0.363 N 
HETATM   33  C1  UNL     1       6.355   3.118   1.537  1.00  0.00     0.181 C 
HETATM   34  N1  UNL     1       7.478   3.478   2.112  1.00  0.00    -0.374 N 
HETATM   35  N2  UNL     1       6.100   3.503   0.198  1.00  0.00    -0.064 NA
ATOM     36  H12 UNL     1       8.158   4.031   1.590  1.00  0.00     0.158 HD
ATOM     37  H11 UNL     1       7.662   3.201   3.076  1.00  0.00     0.158 HD
ATOM     38  H3  UNL     1       5.722   1.917   3.130  1.00  0.00     0.162 HD
ENDBRANCH  31  32
ENDBRANCH  30  31
ENDBRANCH  28  30
ENDBRANCH   1  28
TORSDOF 13
