REMARK  15 active torsions:
REMARK  status: ('A' for Active; 'I' for Inactive)
REMARK    1  A    between atoms: C2_2  and  C4_4 
REMARK    2  A    between atoms: C4_4  and  C5_5 
REMARK    3  A    between atoms: C4_4  and  N5_38 
REMARK    4  A    between atoms: C5_5  and  C6_6 
REMARK    5  A    between atoms: C6_6  and  C7_7 
REMARK    6  A    between atoms: C7_7  and  C8_8 
REMARK    7  A    between atoms: C7_7  and  C18_28 
REMARK    8  A    between atoms: C9_9  and  C10_10 
REMARK    9  A    between atoms: C12_15  and  C13_16 
REMARK   10  A    between atoms: C13_16  and  C14_17 
REMARK   11  A    between atoms: C14_17  and  C15_18 
REMARK   12  A    between atoms: C15_18  and  C16_19 
REMARK   13  A    between atoms: C16_19  and  N2_20 
REMARK   14  A    between atoms: C18_28  and  C19_29 
REMARK   15  A    between atoms: N5_38  and  N6_39 
ROOT
HETATM    1  C7  UNL     1      -1.891   0.305  -0.562  1.00  0.00     0.012 C 
ENDROOT
BRANCH   1   2
HETATM    2  C6  UNL     1      -2.869  -0.139   0.467  1.00  0.00     0.015 C 
BRANCH   2   3
HETATM    3  C5  UNL     1      -3.322  -1.541   0.170  1.00  0.00     0.071 C 
BRANCH   3   4
HETATM    4  C4  UNL     1      -4.319  -2.021   1.174  1.00  0.00     0.089 C 
BRANCH   4   5
HETATM    5  C2  UNL     1      -4.847  -3.395   0.987  1.00  0.00     0.040 C 
HETATM    6  C1  UNL     1      -5.842  -3.726   2.075  1.00  0.00     0.017 C 
HETATM    7  C3  UNL     1      -5.497  -3.437  -0.378  1.00  0.00     0.017 C 
ENDBRANCH   4   5
BRANCH   4   8
HETATM    8  N5  UNL     1      -4.674  -1.287   2.110  1.00  0.00    -0.342 NA
BRANCH   8   9
HETATM    9  N6  UNL     1      -5.009  -0.616   3.097  1.00  0.00    -0.280 N 
ATOM     10  H62 UNL     1      -4.700  -1.506   3.487  1.00  0.00     0.191 HD
ATOM     11  H61 UNL     1      -5.301  -0.013   3.866  1.00  0.00     0.191 HD
ENDBRANCH   8   9
ENDBRANCH   4   8
ENDBRANCH   3   4
ENDBRANCH   2   3
ENDBRANCH   1   2
BRANCH   1  12
HETATM   12  C8  UNL     1      -0.710  -0.557  -0.573  1.00  0.00    -0.023 C 
HETATM   13  C9  UNL     1       0.515  -0.066  -0.456  1.00  0.00     0.004 C 
BRANCH  13  14
HETATM   14  C10 UNL     1       1.725  -0.933  -0.465  1.00  0.00     0.199 C 
HETATM   15  N1  UNL     1       2.462  -0.624   0.744  1.00  0.00    -0.343 N 
HETATM   16  C11 UNL     1       3.750  -0.026   0.686  1.00  0.00     0.241 C 
ATOM     17  H1  UNL     1       2.049  -0.839   1.652  1.00  0.00     0.163 HD
HETATM   18  O1  UNL     1       4.006   0.826   1.580  1.00  0.00    -0.271 OA
HETATM   19  C12 UNL     1       4.670  -0.430  -0.379  1.00  0.00     0.176 C 
HETATM   20  N3  UNL     1       3.930  -0.838  -1.585  1.00  0.00    -0.346 N 
HETATM   21  C17 UNL     1       2.536  -0.812  -1.669  1.00  0.00     0.244 C 
ATOM     22  H3  UNL     1       4.460  -1.154  -2.397  1.00  0.00     0.163 HD
HETATM   23  O2  UNL     1       1.977  -0.683  -2.784  1.00  0.00    -0.271 OA
BRANCH  19  24
HETATM   24  C13 UNL     1       5.635   0.605  -0.834  1.00  0.00     0.035 C 
BRANCH  24  25
HETATM   25  C14 UNL     1       6.575   1.151   0.169  1.00  0.00     0.004 C 
BRANCH  25  26
HETATM   26  C15 UNL     1       7.473   0.136   0.807  1.00  0.00     0.027 C 
BRANCH  26  27
HETATM   27  C16 UNL     1       8.341  -0.573  -0.188  1.00  0.00     0.229 C 
BRANCH  27  28
HETATM   28  N2  UNL     1       9.197  -1.553   0.497  1.00  0.00    -0.079 N 
ATOM     29  H23 UNL     1       9.744  -1.126   1.245  1.00  0.00     0.274 HD
ATOM     30  H22 UNL     1       8.654  -2.205   1.063  1.00  0.00     0.274 HD
ATOM     31  H21 UNL     1       9.788  -2.036  -0.180  1.00  0.00     0.274 HD
ENDBRANCH  27  28
ENDBRANCH  26  27
ENDBRANCH  25  26
ENDBRANCH  24  25
ENDBRANCH  19  24
ENDBRANCH  13  14
ENDBRANCH   1  12
BRANCH   1  32
HETATM   32  C18 UNL     1      -1.530   1.775  -0.415  1.00  0.00     0.048 C 
BRANCH  32  33
HETATM   33  C19 UNL     1      -2.694   2.652  -0.538  1.00  0.00    -0.034 A 
HETATM   34  C20 UNL     1      -3.232   3.192   0.615  1.00  0.00     0.038 A 
HETATM   35  C21 UNL     1      -4.330   4.026   0.597  1.00  0.00     0.085 A 
HETATM   36  N4  UNL     1      -4.886   4.581   1.778  1.00  0.00    -0.099 NA
HETATM   37  C22 UNL     1      -4.873   4.298  -0.653  1.00  0.00     0.142 A 
HETATM   38  F1  UNL     1      -5.957   5.119  -0.693  1.00  0.00    -0.204 F 
HETATM   39  C23 UNL     1      -4.340   3.760  -1.806  1.00  0.00     0.068 A 
HETATM   40  C24 UNL     1      -3.236   2.924  -1.773  1.00  0.00     0.043 A 
HETATM   41 CL1  UNL     1      -2.585   2.262  -3.259  1.00  0.00    -0.084 Cl
ENDBRANCH  32  33
ENDBRANCH   1  32
TORSDOF 15
