REMARK  10 active torsions:
REMARK  status: ('A' for Active; 'I' for Inactive)
REMARK    1  A    between atoms: C2_2  and  N1_5 
REMARK    2  A    between atoms: N1_5  and  C5_7 
REMARK    3  A    between atoms: C5_7  and  O1_8 
REMARK    4  A    between atoms: C5_7  and  C6_10 
REMARK    5  A    between atoms: C6_10  and  C7_11 
REMARK    6  A    between atoms: C7_11  and  C8_12 
REMARK    7  A    between atoms: C8_12  and  N2_13 
REMARK       I    between atoms: C9_15  and  N4_17 
REMARK    8  A    between atoms: N4_17  and  C10_18 
REMARK    9  A    between atoms: N4_17  and  C12_22 
REMARK   10  A    between atoms: C10_18  and  C11_19 
ROOT
HETATM    1  N2  UNL     1       1.473   0.058   0.703  1.00  0.00    -0.344 N 
ATOM      2  H2  UNL     1       1.876   0.995   0.717  1.00  0.00     0.167 HD
HETATM    3  C9  UNL     1       2.082  -0.690  -0.100  1.00  0.00     0.194 C 
HETATM    4  N3  UNL     1       1.806  -2.055  -0.386  1.00  0.00    -0.063 NA
HETATM    5  N4  UNL     1       3.221  -0.153  -0.829  1.00  0.00    -0.316 N 
ENDROOT
BRANCH   1   6
HETATM    6  C8  UNL     1       0.399  -0.045   1.578  1.00  0.00     0.064 C 
BRANCH   6   7
HETATM    7  C7  UNL     1      -0.947  -0.416   1.013  1.00  0.00     0.049 C 
BRANCH   7   8
HETATM    8  C6  UNL     1      -1.398   0.573  -0.027  1.00  0.00     0.058 C 
BRANCH   8   9
HETATM    9  C5  UNL     1      -2.802   0.175  -0.554  1.00  0.00     0.214 C 
BRANCH   9  10
HETATM   10  N1  UNL     1      -3.716   0.178   0.507  1.00  0.00    -0.389 N 
ATOM     11  H1  UNL     1      -3.418   0.584   1.394  1.00  0.00     0.156 HD
BRANCH  10  12
HETATM   12  C2  UNL     1      -4.997  -0.335   0.427  1.00  0.00     0.017 C 
HETATM   13  C1  UNL     1      -5.852   0.422  -0.558  1.00  0.00     0.037 C 
HETATM   14  C3  UNL     1      -5.664  -0.150   1.806  1.00  0.00     0.037 C 
HETATM   15  C4  UNL     1      -5.110  -1.800   0.077  1.00  0.00     0.037 C 
ENDBRANCH  10  12
ENDBRANCH   9  10
BRANCH   9  16
HETATM   16  O1  UNL     1      -3.112   1.185  -1.459  1.00  0.00    -0.377 OA
ATOM     17  H1  UNL     1      -2.492   1.183  -2.179  1.00  0.00     0.212 HD
ENDBRANCH   9  16
ENDBRANCH   8   9
ENDBRANCH   7   8
ENDBRANCH   6   7
ENDBRANCH   1   6
BRANCH   5  18
HETATM   18  C10 UNL     1       3.237   0.100  -2.220  1.00  0.00     0.203 C 
BRANCH  18  19
HETATM   19  C11 UNL     1       3.197  -1.093  -3.122  1.00  0.00     0.371 C 
HETATM   20  F1  UNL     1       3.223  -0.615  -4.444  1.00  0.00    -0.213 F 
HETATM   21  F2  UNL     1       4.344  -1.876  -3.017  1.00  0.00    -0.213 F 
ENDBRANCH  18  19
ENDBRANCH   5  18
BRANCH   5  22
HETATM   22  C12 UNL     1       4.358   0.100   0.020  1.00  0.00     0.041 A 
HETATM   23  C13 UNL     1       4.665   1.401   0.326  1.00  0.00     0.075 A 
HETATM   24  C14 UNL     1       5.740   1.691   1.151  1.00  0.00     0.158 A 
HETATM   25  F3  UNL     1       6.008   2.988   1.422  1.00  0.00    -0.203 F 
HETATM   26  C15 UNL     1       6.504   0.676   1.670  1.00  0.00     0.172 A 
HETATM   27  F4  UNL     1       7.545   0.936   2.472  1.00  0.00    -0.201 F 
HETATM   28  C16 UNL     1       6.182  -0.657   1.353  1.00  0.00     0.054 A 
HETATM   29 BR1  UNL     1       7.252  -2.052   2.076  1.00  0.00    -0.048 Br
HETATM   30  C17 UNL     1       5.116  -0.938   0.534  1.00  0.00     0.052 A 
ENDBRANCH   5  22
TORSDOF 10
