REMARK  7 active torsions:
REMARK  status: ('A' for Active; 'I' for Inactive)
REMARK    1  A    between atoms: C6_13  and  C7_14 
REMARK    2  A    between atoms: C7_14  and  C8_15 
REMARK    3  A    between atoms: C8_15  and  C9_16 
REMARK       I    between atoms: C9_16  and  N2_18 
REMARK    4  A    between atoms: N2_18  and  C10_20 
REMARK    5  A    between atoms: C10_20  and  C11_21 
REMARK    6  A    between atoms: C11_21  and  N3_22 
REMARK       I    between atoms: N3_22  and  C12_24 
REMARK    7  A    between atoms: C12_24  and  C13_26 
ROOT
HETATM    1  C9  UNL     1      -1.455   2.294  -0.094  1.00  0.00     0.217 C 
HETATM    2  O2  UNL     1      -1.432   1.357  -0.928  1.00  0.00    -0.274 OA
HETATM    3  N2  UNL     1      -0.226   2.797   0.387  1.00  0.00    -0.360 N 
ATOM      4  H2  UNL     1      -0.256   3.560   1.064  1.00  0.00     0.162 HD
ENDROOT
BRANCH   1   5
HETATM    5  C8  UNL     1      -2.772   2.813   0.334  1.00  0.00     0.107 C 
BRANCH   5   6
HETATM    6  C7  UNL     1      -3.943   2.085  -0.175  1.00  0.00     0.053 C 
BRANCH   6   7
HETATM    7  C6  UNL     1      -4.184   0.711   0.200  1.00  0.00     0.015 A 
HETATM    8  C1  UNL     1      -5.136  -0.039  -0.656  1.00  0.00     0.089 A 
HETATM    9  N1  UNL     1      -5.723   0.562  -1.642  1.00  0.00    -0.395 N 
HETATM   10  C2  UNL     1      -5.443  -1.441  -0.430  1.00  0.00     0.240 A 
ATOM     11  H12 UNL     1      -6.377   0.046  -2.230  1.00  0.00     0.156 HD
ATOM     12  H11 UNL     1      -5.507   1.546  -1.801  1.00  0.00     0.156 HD
HETATM   13  O1  UNL     1      -6.247  -2.091  -1.146  1.00  0.00    -0.282 OA
HETATM   14  C3  UNL     1      -4.763  -2.080   0.688  1.00  0.00     0.210 A 
HETATM   15  F1  UNL     1      -5.013  -3.402   0.947  1.00  0.00    -0.198 F 
HETATM   16  C4  UNL     1      -3.940  -1.362   1.399  1.00  0.00     0.198 A 
HETATM   17  F2  UNL     1      -3.310  -1.973   2.443  1.00  0.00    -0.199 F 
HETATM   18  C5  UNL     1      -3.624   0.055   1.181  1.00  0.00     0.166 A 
HETATM   19  F3  UNL     1      -2.757   0.669   2.067  1.00  0.00    -0.202 F 
ENDBRANCH   6   7
ENDBRANCH   5   6
ENDBRANCH   1   5
BRANCH   3  20
HETATM   20  C10 UNL     1       1.061   2.308  -0.012  1.00  0.00     0.142 C 
BRANCH  20  21
HETATM   21  C11 UNL     1       1.283   0.866   0.303  1.00  0.00     0.142 C 
BRANCH  21  22
HETATM   22  N3  UNL     1       2.637   0.443  -0.140  1.00  0.00    -0.355 N 
HETATM   23  C12 UNL     1       3.060  -0.880   0.058  1.00  0.00     0.255 C 
HETATM   24  O3  UNL     1       2.199  -1.662   0.624  1.00  0.00    -0.268 OA
ATOM     25  H3  UNL     1       3.259   1.115  -0.588  1.00  0.00     0.162 HD
BRANCH  23  26
HETATM   26  C13 UNL     1       4.321  -1.460  -0.295  1.00  0.00     0.075 A 
HETATM   27  C14 UNL     1       5.497  -0.798  -0.534  1.00  0.00     0.053 A 
HETATM   28 CL1  UNL     1       5.594   0.935  -0.294  1.00  0.00    -0.083 Cl
HETATM   29  C15 UNL     1       6.662  -1.471  -0.929  1.00  0.00     0.048 A 
HETATM   30  C16 UNL     1       6.687  -2.815  -1.094  1.00  0.00     0.037 A 
HETATM   31 CL2  UNL     1       8.129  -3.659  -1.586  1.00  0.00    -0.084 Cl
HETATM   32  C17 UNL     1       5.523  -3.504  -0.860  1.00  0.00     0.048 A 
HETATM   33  C18 UNL     1       4.379  -2.850  -0.473  1.00  0.00     0.053 A 
HETATM   34 CL3  UNL     1       2.904  -3.760  -0.185  1.00  0.00    -0.083 Cl
ENDBRANCH  23  26
ENDBRANCH  21  22
ENDBRANCH  20  21
ENDBRANCH   3  20
TORSDOF 7
