REMARK  7 active torsions:
REMARK  status: ('A' for Active; 'I' for Inactive)
REMARK    1  A    between atoms: C5_6  and  N1_7 
REMARK    2  A    between atoms: N1_7  and  C6_9 
REMARK    3  A    between atoms: C6_9  and  C7_10 
REMARK    4  A    between atoms: C7_10  and  C8_11 
REMARK    5  A    between atoms: C8_11  and  N2_12 
REMARK       I    between atoms: N2_12  and  C9_14 
REMARK       I    between atoms: C9_14  and  N3_16 
REMARK    6  A    between atoms: N3_16  and  C10_18 
REMARK    7  A    between atoms: C10_18  and  C11_19 
ROOT
HETATM    1  N2  UNL     1       0.390   1.092   0.659  1.00  0.00    -0.343 N 
ATOM      2  H2  UNL     1       0.411   1.896   0.032  1.00  0.00     0.164 HD
HETATM    3  C9  UNL     1       1.545   0.283   0.830  1.00  0.00     0.320 C 
HETATM    4  O1  UNL     1       1.510  -0.705   1.606  1.00  0.00    -0.247 OA
HETATM    5  N3  UNL     1       2.778   0.566   0.131  1.00  0.00    -0.318 N 
ATOM      6  H3  UNL     1       2.858   1.357  -0.509  1.00  0.00     0.170 HD
ENDROOT
BRANCH   1   7
HETATM    7  C8  UNL     1      -0.798   0.765   1.375  1.00  0.00     0.126 C 
BRANCH   7   8
HETATM    8  C7  UNL     1      -1.944   1.696   1.106  1.00  0.00     0.039 C 
BRANCH   8   9
HETATM    9  C6  UNL     1      -2.339   1.710  -0.363  1.00  0.00     0.123 C 
BRANCH   9  10
HETATM   10  N1  UNL     1      -2.721   0.394  -0.728  1.00  0.00    -0.374 N 
ATOM     11  H1  UNL     1      -2.001  -0.178  -1.170  1.00  0.00     0.161 HD
BRANCH  10  12
HETATM   12  C5  UNL     1      -3.858  -0.157  -0.568  1.00  0.00     0.138 A 
HETATM   13  C4  UNL     1      -4.093  -1.455  -0.974  1.00  0.00     0.081 A 
HETATM   14  C3  UNL     1      -5.336  -2.058  -0.799  1.00  0.00     0.053 A 
HETATM   15 CL1  UNL     1      -2.772  -2.326  -1.718  1.00  0.00    -0.080 Cl
HETATM   16  C2  UNL     1      -6.358  -1.344  -0.208  1.00  0.00     0.023 A 
HETATM   17  C1  UNL     1      -7.711  -1.948   0.001  1.00  0.00     0.070 C 
HETATM   18  N5  UNL     1      -6.078  -0.084   0.168  1.00  0.00    -0.304 N 
HETATM   19  N4  UNL     1      -4.887   0.493   0.001  1.00  0.00    -0.284 N 
ATOM     20  H5  UNL     1      -6.819   0.462   0.606  1.00  0.00     0.186 HD
ATOM     21  H4  UNL     1      -4.754   1.455   0.314  1.00  0.00     0.188 HD
ENDBRANCH  10  12
ENDBRANCH   9  10
ENDBRANCH   8   9
ENDBRANCH   7   8
ENDBRANCH   1   7
BRANCH   5  22
HETATM   22  C10 UNL     1       3.858  -0.292   0.370  1.00  0.00     0.110 C 
BRANCH  22  23
HETATM   23  C11 UNL     1       5.117  -0.062  -0.300  1.00  0.00     0.063 A 
HETATM   24  C12 UNL     1       6.156  -0.976  -0.001  1.00  0.00     0.172 A 
HETATM   25  F1  UNL     1       5.917  -1.979   0.865  1.00  0.00    -0.202 F 
HETATM   26  C13 UNL     1       7.399  -0.888  -0.556  1.00  0.00     0.197 A 
HETATM   27  F2  UNL     1       8.355  -1.811  -0.217  1.00  0.00    -0.199 F 
HETATM   28  C14 UNL     1       7.678   0.126  -1.445  1.00  0.00     0.199 A 
HETATM   29  F3  UNL     1       8.927   0.191  -1.984  1.00  0.00    -0.199 F 
HETATM   30  C15 UNL     1       6.708   1.038  -1.769  1.00  0.00     0.197 A 
HETATM   31  F4  UNL     1       6.982   2.044  -2.651  1.00  0.00    -0.199 F 
HETATM   32  C16 UNL     1       5.443   0.916  -1.181  1.00  0.00     0.172 A 
HETATM   33  F5  UNL     1       4.574   1.888  -1.590  1.00  0.00    -0.202 F 
ENDBRANCH  22  23
ENDBRANCH   5  22
TORSDOF 7
