REMARK  7 active torsions:
REMARK  status: ('A' for Active; 'I' for Inactive)
REMARK       I    between atoms: C1_2  and  N1_3 
REMARK    1  A    between atoms: C1_2  and  C5_10 
REMARK    2  A    between atoms: N1_3  and  C2_5 
REMARK    3  A    between atoms: C2_5  and  C3_6 
REMARK    4  A    between atoms: C3_6  and  C4_7 
REMARK    5  A    between atoms: C4_7  and  O2_8 
REMARK    6  A    between atoms: C9_18  and  C10_19 
REMARK    7  A    between atoms: C10_19  and  C11_20 
ROOT
HETATM    1  C5  UNL     1       0.336   0.823   0.731  1.00  0.00     0.067 A 
HETATM    2  C6  UNL     1       0.809   1.252   1.944  1.00  0.00     0.066 A 
HETATM    3 CL1  UNL     1       2.531   1.379   2.214  1.00  0.00    -0.082 Cl
HETATM    4  C7  UNL     1      -0.032   1.652   2.997  1.00  0.00     0.116 A 
HETATM    5  N2  UNL     1      -1.347   1.606   2.778  1.00  0.00    -0.332 N 
ATOM      6  H2  UNL     1      -1.989   1.890   3.518  1.00  0.00     0.168 HD
HETATM    7  C8  UNL     1      -1.844   1.187   1.585  1.00  0.00     0.253 A 
HETATM    8  O3  UNL     1      -3.092   1.193   1.508  1.00  0.00    -0.268 OA
HETATM    9  C9  UNL     1      -1.045   0.784   0.529  1.00  0.00     0.032 A 
ENDROOT
BRANCH   9  10
HETATM   10  C10 UNL     1      -1.565   0.318  -0.750  1.00  0.00     0.089 C 
BRANCH  10  11
HETATM   11  C11 UNL     1      -3.010  -0.004  -0.801  1.00  0.00     0.013 A 
HETATM   12  C12 UNL     1      -3.447  -1.191  -0.268  1.00  0.00     0.166 A 
HETATM   13  F1  UNL     1      -2.568  -2.055   0.319  1.00  0.00    -0.202 F 
HETATM   14  C13 UNL     1      -4.776  -1.525  -0.319  1.00  0.00     0.197 A 
HETATM   15  F2  UNL     1      -5.195  -2.691   0.207  1.00  0.00    -0.199 F 
HETATM   16  C14 UNL     1      -5.685  -0.666  -0.909  1.00  0.00     0.198 A 
HETATM   17  F3  UNL     1      -7.005  -0.983  -0.967  1.00  0.00    -0.199 F 
HETATM   18  C15 UNL     1      -5.283   0.535  -1.455  1.00  0.00     0.180 A 
HETATM   19  F4  UNL     1      -6.190   1.382  -2.038  1.00  0.00    -0.201 F 
HETATM   20  C16 UNL     1      -3.938   0.828  -1.381  1.00  0.00     0.085 A 
HETATM   21 CL2  UNL     1      -3.433   2.372  -2.084  1.00  0.00    -0.080 Cl
ENDBRANCH  10  11
ENDBRANCH   9  10
BRANCH   1  22
HETATM   22  C1  UNL     1       1.232   0.362  -0.301  1.00  0.00     0.254 C 
HETATM   23  O1  UNL     1       0.960   0.610  -1.537  1.00  0.00    -0.268 OA
HETATM   24  N1  UNL     1       2.418  -0.364  -0.138  1.00  0.00    -0.357 N 
ATOM     25  H1  UNL     1       2.728  -0.624   0.798  1.00  0.00     0.162 HD
BRANCH  24  26
HETATM   26  C2  UNL     1       3.204  -0.747  -1.284  1.00  0.00     0.125 C 
BRANCH  26  27
HETATM   27  C3  UNL     1       4.452  -1.521  -0.925  1.00  0.00     0.046 C 
BRANCH  27  28
HETATM   28  C4  UNL     1       5.352  -0.691  -0.040  1.00  0.00     0.165 C 
BRANCH  28  29
HETATM   29  O2  UNL     1       6.512  -1.330   0.322  1.00  0.00    -0.401 OA
ATOM     30  H2  UNL     1       7.078  -0.808   0.879  1.00  0.00     0.209 HD
ENDBRANCH  28  29
ENDBRANCH  27  28
ENDBRANCH  26  27
ENDBRANCH  24  26
ENDBRANCH   1  22
TORSDOF 7
