REMARK  7 active torsions:
REMARK  status: ('A' for Active; 'I' for Inactive)
REMARK    1  A    between atoms: C3_4  and  C4_5 
REMARK    2  A    between atoms: C4_5  and  C5_6 
REMARK    3  A    between atoms: C12_15  and  C13_16 
REMARK    4  A    between atoms: C13_16  and  O2_17 
REMARK    5  A    between atoms: C13_16  and  N1_19 
REMARK    6  A    between atoms: N1_19  and  C14_21 
REMARK    7  A    between atoms: C14_21  and  C15_22 
ROOT
HETATM    1  O1  UNL     1      -0.679  -2.341   3.047  1.00  0.00    -0.268 OA
HETATM    2  C1  UNL     1      -0.926  -1.933   1.899  1.00  0.00     0.246 A 
HETATM    3  C2  UNL     1      -2.154  -2.076   1.282  1.00  0.00     0.081 A 
HETATM    4  C3  UNL     1      -2.322  -1.598  -0.002  1.00  0.00    -0.046 A 
HETATM    5  C11 UNL     1      -1.245  -0.990  -0.634  1.00  0.00     0.041 A 
HETATM    6  C12 UNL     1      -0.061  -0.869   0.001  1.00  0.00     0.086 A 
HETATM    7  N2  UNL     1       0.114  -1.327   1.243  1.00  0.00    -0.320 N 
ATOM      8  H2  UNL     1       1.019  -1.226   1.702  1.00  0.00     0.169 HD
ENDROOT
BRANCH   6   9
HETATM    9  C13 UNL     1       1.054  -0.167  -0.714  1.00  0.00     0.167 C 
BRANCH   9  10
HETATM   10  O2  UNL     1       0.756   0.863  -1.495  1.00  0.00    -0.344 OA
ATOM     11  H2  UNL     1       1.463   1.308  -1.948  1.00  0.00     0.219 HD
ENDBRANCH   9  10
BRANCH   9  12
HETATM   12  N1  UNL     1       2.203  -0.088   0.119  1.00  0.00    -0.342 N 
ATOM     13  H1  UNL     1       2.446  -0.821   0.785  1.00  0.00     0.167 HD
BRANCH  12  14
HETATM   14  C14 UNL     1       2.979   1.070  -0.040  1.00  0.00     0.131 C 
BRANCH  14  15
HETATM   15  C15 UNL     1       4.379   0.805   0.331  1.00  0.00     0.135 A 
HETATM   16  O3  UNL     1       4.965   0.672   1.455  1.00  0.00    -0.277 OA
HETATM   17  C16 UNL     1       6.250   0.469   1.623  1.00  0.00     0.273 A 
HETATM   18  F3  UNL     1       6.822   0.342   2.874  1.00  0.00    -0.174 F 
HETATM   19  C17 UNL     1       7.108   0.385   0.525  1.00  0.00     0.221 A 
HETATM   20  F4  UNL     1       8.451   0.195   0.651  1.00  0.00    -0.197 F 
HETATM   21  C18 UNL     1       6.550   0.512  -0.733  1.00  0.00     0.201 A 
HETATM   22  F5  UNL     1       7.280   0.460  -1.891  1.00  0.00    -0.199 F 
HETATM   23  C19 UNL     1       5.217   0.716  -0.826  1.00  0.00     0.193 A 
HETATM   24  F6  UNL     1       4.591   0.813  -2.016  1.00  0.00    -0.200 F 
ENDBRANCH  14  15
ENDBRANCH  12  14
ENDBRANCH   9  12
ENDBRANCH   6   9
BRANCH   4  25
HETATM   25  C4  UNL     1      -3.623  -1.701  -0.738  1.00  0.00     0.077 C 
BRANCH  25  26
HETATM   26  C5  UNL     1      -4.349  -0.401  -0.501  1.00  0.00    -0.048 A 
HETATM   27  C6  UNL     1      -4.017   0.441   0.548  1.00  0.00     0.049 A 
HETATM   28  C7  UNL     1      -4.723   1.629   0.811  1.00  0.00     0.119 A 
HETATM   29  F1  UNL     1      -4.313   2.392   1.864  1.00  0.00    -0.206 F 
HETATM   30  C8  UNL     1      -5.765   1.936  -0.015  1.00  0.00     0.084 A 
HETATM   31  C9  UNL     1      -6.121   1.129  -1.073  1.00  0.00     0.119 A 
HETATM   32  F2  UNL     1      -7.174   1.517  -1.847  1.00  0.00    -0.206 F 
HETATM   33  C10 UNL     1      -5.412  -0.036  -1.314  1.00  0.00     0.049 A 
ENDBRANCH  25  26
ENDBRANCH   4  25
TORSDOF 7
