REMARK  7 active torsions:
REMARK  status: ('A' for Active; 'I' for Inactive)
REMARK    1  A    between atoms: C6_7  and  N1_8 
REMARK    2  A    between atoms: N1_8  and  C7_10 
REMARK    3  A    between atoms: C7_10  and  C8_11 
REMARK    4  A    between atoms: C8_11  and  C9_12 
REMARK    5  A    between atoms: C9_12  and  N2_13 
REMARK       I    between atoms: N2_13  and  C10_15 
REMARK    6  A    between atoms: C10_15  and  C11_17 
REMARK    7  A    between atoms: C11_17  and  C12_18 
ROOT
HETATM    1  C1  UNL     1       8.890   1.335   0.895  1.00  0.00     0.018 C 
HETATM    2  C2  UNL     1       7.822   0.805   0.657  1.00  0.00    -0.074 C 
HETATM    3  C3  UNL     1       6.555   0.181   0.401  1.00  0.00     0.059 A 
HETATM    4  C4  UNL     1       6.501  -1.141   0.002  1.00  0.00     0.051 A 
HETATM    5  C5  UNL     1       5.237  -1.697  -0.232  1.00  0.00     0.079 A 
HETATM    6 CL1  UNL     1       5.060  -3.361  -0.740  1.00  0.00    -0.080 Cl
HETATM    7  C6  UNL     1       4.098  -0.941  -0.066  1.00  0.00     0.124 A 
HETATM    8  N3  UNL     1       4.197   0.337   0.322  1.00  0.00    -0.329 N 
ATOM      9  H3  UNL     1       3.346   0.886   0.441  1.00  0.00     0.168 HD
HETATM   10  C18 UNL     1       5.407   0.926   0.563  1.00  0.00     0.136 A 
HETATM   11  N4  UNL     1       5.374   2.277   0.965  1.00  0.00    -0.081 NA
ENDROOT
BRANCH   7  12
HETATM   12  N1  UNL     1       2.949  -1.478  -0.288  1.00  0.00    -0.375 N 
ATOM     13  H1  UNL     1       2.881  -2.452  -0.583  1.00  0.00     0.161 HD
BRANCH  12  14
HETATM   14  C7  UNL     1       1.737  -0.667  -0.110  1.00  0.00     0.123 C 
BRANCH  14  15
HETATM   15  C8  UNL     1       0.496  -1.485  -0.377  1.00  0.00     0.039 C 
BRANCH  15  16
HETATM   16  C9  UNL     1      -0.682  -0.567  -0.176  1.00  0.00     0.124 C 
BRANCH  16  17
HETATM   17  N2  UNL     1      -1.957  -1.208  -0.390  1.00  0.00    -0.361 N 
HETATM   18  C10 UNL     1      -3.141  -0.465  -0.244  1.00  0.00     0.222 C 
HETATM   19  O1  UNL     1      -3.099   0.741   0.066  1.00  0.00    -0.273 OA
ATOM     20  H2  UNL     1      -1.999  -2.195  -0.646  1.00  0.00     0.162 HD
BRANCH  18  21
HETATM   21  C11 UNL     1      -4.451  -1.113  -0.458  1.00  0.00     0.147 C 
BRANCH  21  22
HETATM   22  C12 UNL     1      -5.558  -0.109  -0.263  1.00  0.00     0.034 A 
HETATM   23  C13 UNL     1      -5.833   0.827  -1.238  1.00  0.00     0.168 A 
HETATM   24  F1  UNL     1      -5.080   0.803  -2.359  1.00  0.00    -0.202 F 
HETATM   25  C14 UNL     1      -6.852   1.771  -1.083  1.00  0.00     0.197 A 
HETATM   26  F2  UNL     1      -7.097   2.675  -2.054  1.00  0.00    -0.199 F 
HETATM   27  C15 UNL     1      -7.602   1.772   0.071  1.00  0.00     0.199 A 
HETATM   28  F3  UNL     1      -8.606   2.691   0.243  1.00  0.00    -0.199 F 
HETATM   29  C16 UNL     1      -7.321   0.834   1.038  1.00  0.00     0.197 A 
HETATM   30  F4  UNL     1      -8.045   0.820   2.171  1.00  0.00    -0.199 F 
HETATM   31  C17 UNL     1      -6.305  -0.115   0.894  1.00  0.00     0.168 A 
HETATM   32  F5  UNL     1      -6.056  -1.029   1.877  1.00  0.00    -0.202 F 
ENDBRANCH  21  22
ENDBRANCH  18  21
ENDBRANCH  16  17
ENDBRANCH  15  16
ENDBRANCH  14  15
ENDBRANCH  12  14
ENDBRANCH   7  12
TORSDOF 7
