REMARK  9 active torsions:
REMARK  status: ('A' for Active; 'I' for Inactive)
REMARK    1  A    between atoms: C6_8  and  C7_9 
REMARK    2  A    between atoms: C7_9  and  N1_10 
REMARK    3  A    between atoms: N1_10  and  C8_12 
REMARK    4  A    between atoms: C9_15  and  N3_16 
REMARK    5  A    between atoms: N3_16  and  C10_18 
REMARK    6  A    between atoms: C10_18  and  C11_19 
REMARK    7  A    between atoms: N5_24  and  C13_26 
REMARK    8  A    between atoms: C13_26  and  C14_27 
REMARK    9  A    between atoms: C14_27  and  C15_28 
ROOT
HETATM    1  C8  UNL     1      -0.702   1.008  -0.853  1.00  0.00     0.707 A 
HETATM    2  N2  UNL     1       0.144   1.956  -0.359  1.00  0.00    -0.022 N 
ATOM      3  H2  UNL     1      -0.177   2.916  -0.238  1.00  0.00     0.203 HD
HETATM    4  C9  UNL     1       1.393   1.622  -0.035  1.00  0.00     0.707 A 
HETATM    5  N4  UNL     1       1.757   0.340  -0.217  1.00  0.00    -0.022 N 
ATOM      6  H4  UNL     1       2.713   0.085   0.031  1.00  0.00     0.203 HD
HETATM    7  C12 UNL     1       0.969  -0.625  -0.696  1.00  0.00     0.707 A 
HETATM    8  N5  UNL     1       1.311  -1.855  -0.873  1.00  0.00    -0.225 N 
ATOM      9  H5  UNL     1       0.632  -2.518  -1.246  1.00  0.00     0.177 HD
HETATM   10  N6  UNL     1      -0.310  -0.258  -1.022  1.00  0.00    -0.022 N 
ATOM     11  H6  UNL     1      -0.961  -0.950  -1.393  1.00  0.00     0.203 HD
ENDROOT
BRANCH   1  12
HETATM   12  N1  UNL     1      -1.905   1.338  -1.161  1.00  0.00    -0.221 N 
ATOM     13  H1  UNL     1      -2.189   2.308  -1.024  1.00  0.00     0.178 HD
BRANCH  12  14
HETATM   14  C7  UNL     1      -2.873   0.415  -1.688  1.00  0.00     0.180 C 
BRANCH  14  15
HETATM   15  C6  UNL     1      -3.597  -0.309  -0.600  1.00  0.00     0.000 A 
HETATM   16  C1  UNL     1      -4.563  -1.240  -0.940  1.00  0.00     0.145 A 
HETATM   17  F1  UNL     1      -4.820  -1.466  -2.272  1.00  0.00    -0.204 F 
HETATM   18  C2  UNL     1      -5.241  -1.913   0.045  1.00  0.00     0.073 A 
HETATM   19 CL1  UNL     1      -6.468  -3.096  -0.404  1.00  0.00    -0.081 Cl
HETATM   20  C3  UNL     1      -4.998  -1.701   1.393  1.00  0.00     0.027 A 
HETATM   21  C4  UNL     1      -4.031  -0.769   1.713  1.00  0.00     0.002 A 
HETATM   22  C5  UNL     1      -3.332  -0.074   0.728  1.00  0.00     0.012 A 
ENDBRANCH  14  15
ENDBRANCH  12  14
ENDBRANCH   1  12
BRANCH   4  23
HETATM   23  N3  UNL     1       2.261   2.442   0.436  1.00  0.00    -0.224 N 
ATOM     24  H3  UNL     1       3.183   2.057   0.643  1.00  0.00     0.177 HD
BRANCH  23  25
HETATM   25  C10 UNL     1       2.081   3.819   0.700  1.00  0.00     0.153 C 
BRANCH  25  26
HETATM   26  C11 UNL     1       2.855   4.611  -0.362  1.00  0.00     0.135 C 
HETATM   27 CL2  UNL     1       2.192   4.172  -1.943  1.00  0.00    -0.129 Cl
ENDBRANCH  25  26
ENDBRANCH  23  25
ENDBRANCH   4  23
BRANCH   8  28
HETATM   28  C13 UNL     1       2.641  -2.305  -0.550  1.00  0.00     0.147 C 
BRANCH  28  29
HETATM   29  C14 UNL     1       2.722  -2.567   0.952  1.00  0.00     0.137 C 
BRANCH  29  30
HETATM   30  C15 UNL     1       4.100  -3.032   1.303  1.00  0.00     0.389 C 
HETATM   31  F2  UNL     1       4.445  -4.198   0.648  1.00  0.00    -0.171 F 
HETATM   32  F3  UNL     1       4.179  -3.184   2.682  1.00  0.00    -0.171 F 
HETATM   33  F4  UNL     1       5.054  -2.081   0.922  1.00  0.00    -0.171 F 
ENDBRANCH  29  30
ENDBRANCH  28  29
ENDBRANCH   8  28
TORSDOF 9
