REMARK  8 active torsions:
REMARK  status: ('A' for Active; 'I' for Inactive)
REMARK       I    between atoms: C1_2  and  N1_3 
REMARK       I    between atoms: C1_2  and  N2_21 
REMARK    1  A    between atoms: N1_3  and  C2_5 
REMARK    2  A    between atoms: C2_5  and  C3_6 
REMARK    3  A    between atoms: C3_6  and  C4_7 
REMARK    4  A    between atoms: C4_7  and  C5_8 
REMARK    5  A    between atoms: C5_8  and  C6_9 
REMARK    6  A    between atoms: C8_11  and  O2_12 
REMARK    7  A    between atoms: C8_11  and  C9_14 
REMARK    8  A    between atoms: N2_21  and  C11_23 
ROOT
HETATM    1  C3  UNL     1       0.673  -1.634   0.245  1.00  0.00     0.020 C 
ENDROOT
BRANCH   1   2
HETATM    2  C2  UNL     1       0.114  -1.643  -1.143  1.00  0.00     0.124 C 
BRANCH   2   3
HETATM    3  N1  UNL     1      -1.323  -1.589  -1.094  1.00  0.00    -0.343 N 
HETATM    4  C1  UNL     1      -1.989  -0.479  -0.538  1.00  0.00     0.316 C 
HETATM    5  O1  UNL     1      -1.397   0.535  -0.064  1.00  0.00    -0.247 OA
HETATM    6  N2  UNL     1      -3.433  -0.512  -0.511  1.00  0.00    -0.334 N 
ATOM      7  H2  UNL     1      -3.938  -1.315  -0.884  1.00  0.00     0.164 HD
ATOM      8  H1  UNL     1      -1.868  -2.366  -1.468  1.00  0.00     0.164 HD
BRANCH   6   9
HETATM    9  C11 UNL     1      -4.154   0.610   0.053  1.00  0.00     0.144 C 
HETATM   10  C12 UNL     1      -4.941   1.246  -1.062  1.00  0.00     0.195 C 
HETATM   11  O3  UNL     1      -5.743   2.233  -0.492  1.00  0.00    -0.389 OA
HETATM   12  C13 UNL     1      -6.758   1.606   0.191  1.00  0.00     0.170 C 
HETATM   13  C14 UNL     1      -6.327   0.737   1.313  1.00  0.00     0.065 C 
HETATM   14  C15 UNL     1      -5.002   0.100   1.171  1.00  0.00     0.197 C 
HETATM   15  F4  UNL     1      -4.267   0.283   2.351  1.00  0.00    -0.247 F 
ENDBRANCH   6   9
ENDBRANCH   2   3
ENDBRANCH   1   2
BRANCH   1  16
HETATM   16  C4  UNL     1       2.175  -1.732   0.202  1.00  0.00     0.002 C 
BRANCH  16  17
HETATM   17  C5  UNL     1       2.746  -0.559  -0.541  1.00  0.00     0.008 C 
BRANCH  17  18
HETATM   18  C6  UNL     1       4.274  -0.707  -0.510  1.00  0.00     0.031 C 
HETATM   19  C7  UNL     1       4.963   0.429  -1.235  1.00  0.00     0.058 C 
HETATM   20  C8  UNL     1       5.716   0.719   0.037  1.00  0.00     0.191 C 
HETATM   21  C10 UNL     1       4.812  -0.186   0.812  1.00  0.00     0.156 C 
HETATM   22 CL1  UNL     1       5.677  -1.509   1.658  1.00  0.00    -0.098 Cl
HETATM   23 CL2  UNL     1       3.635   0.581   1.860  1.00  0.00    -0.098 Cl
BRANCH  20  24
HETATM   24  O2  UNL     1       7.008   0.198  -0.021  1.00  0.00    -0.378 OA
ATOM     25  H2  UNL     1       7.483   0.381   0.781  1.00  0.00     0.211 HD
ENDBRANCH  20  24
BRANCH  20  26
HETATM   26  C9  UNL     1       5.725   2.168   0.446  1.00  0.00     0.421 C 
HETATM   27  F1  UNL     1       6.331   2.894  -0.589  1.00  0.00    -0.168 F 
HETATM   28  F2  UNL     1       6.440   2.414   1.571  1.00  0.00    -0.168 F 
HETATM   29  F3  UNL     1       4.437   2.658   0.536  1.00  0.00    -0.168 F 
ENDBRANCH  20  26
ENDBRANCH  17  18
ENDBRANCH  16  17
ENDBRANCH   1  16
TORSDOF 8
