REMARK  12 active torsions:
REMARK  status: ('A' for Active; 'I' for Inactive)
REMARK    1  A    between atoms: C2_2  and  C4_4 
REMARK    2  A    between atoms: C4_4  and  C5_6 
REMARK    3  A    between atoms: C5_6  and  C6_7 
REMARK    4  A    between atoms: C6_7  and  N1_8 
REMARK    5  A    between atoms: C6_7  and  C9_15 
REMARK       I    between atoms: N1_8  and  C7_10 
REMARK    6  A    between atoms: C7_10  and  C8_12 
REMARK    7  A    between atoms: C10_16  and  O3_17 
REMARK    8  A    between atoms: C16_24  and  C17_25 
REMARK    9  A    between atoms: C17_25  and  C18_26 
REMARK   10  A    between atoms: C18_26  and  C19_27 
REMARK   11  A    between atoms: C19_27  and  C20_28 
REMARK   12  A    between atoms: C20_28  and  C21_29 
ROOT
HETATM    1  C9  UNL     1      -0.470   0.937   0.673  1.00  0.00     0.041 C 
HETATM    2  C10 UNL     1      -0.986   2.315   0.663  1.00  0.00     0.125 C 
HETATM    3  C11 UNL     1      -0.296   3.325  -0.178  1.00  0.00     0.041 C 
HETATM    4  C12 UNL     1       0.184   2.769  -1.495  1.00  0.00    -0.045 C 
HETATM    5  C13 UNL     1       1.032   3.849  -2.147  1.00  0.00     0.015 C 
HETATM    6  C14 UNL     1      -0.916   2.405  -2.427  1.00  0.00     0.015 C 
HETATM    7  C15 UNL     1       1.106   1.649  -1.133  1.00  0.00     0.014 C 
HETATM    8  C16 UNL     1       0.497   0.516  -0.360  1.00  0.00    -0.005 C 
ENDROOT
BRANCH   1   9
HETATM    9  C6  UNL     1      -1.636   0.007   0.871  1.00  0.00     0.098 C 
BRANCH   9  10
HETATM   10  C5  UNL     1      -1.306  -1.439   0.883  1.00  0.00     0.104 C 
BRANCH  10  11
HETATM   11  C4  UNL     1      -2.483  -2.296   0.660  1.00  0.00     0.132 C 
HETATM   12  O1  UNL     1      -2.367  -3.485   1.041  1.00  0.00    -0.298 OA
BRANCH  11  13
HETATM   13  C2  UNL     1      -3.758  -1.921   0.042  1.00  0.00     0.047 C 
HETATM   14  C1  UNL     1      -4.741  -3.078   0.147  1.00  0.00     0.017 C 
HETATM   15  C3  UNL     1      -3.533  -1.751  -1.470  1.00  0.00     0.017 C 
ENDBRANCH  11  13
ENDBRANCH  10  11
ENDBRANCH   9  10
BRANCH   9  16
HETATM   16  N1  UNL     1      -2.520   0.458   1.901  1.00  0.00    -0.354 N 
HETATM   17  C7  UNL     1      -2.917  -0.176   3.100  1.00  0.00     0.247 C 
HETATM   18  O2  UNL     1      -2.526  -1.300   3.486  1.00  0.00    -0.271 OA
ATOM     19  H1  UNL     1      -2.927   1.380   1.746  1.00  0.00     0.162 HD
BRANCH  17  20
HETATM   20  C8  UNL     1      -3.887   0.481   4.049  1.00  0.00     0.245 C 
HETATM   21 CL1  UNL     1      -3.285   1.981   4.721  1.00  0.00    -0.103 Cl
HETATM   22 BR1  UNL     1      -5.441   0.922   2.942  1.00  0.00    -0.064 Br
ENDBRANCH  17  20
ENDBRANCH   9  16
ENDBRANCH   1   9
BRANCH   2  23
HETATM   23  O3  UNL     1      -1.037   2.824   1.966  1.00  0.00    -0.395 OA
ATOM     24  H3  UNL     1      -1.370   3.714   1.960  1.00  0.00     0.210 HD
ENDBRANCH   2  23
BRANCH   8  25
HETATM   25  C17 UNL     1       1.721  -0.192   0.251  1.00  0.00     0.005 C 
BRANCH  25  26
HETATM   26  C18 UNL     1       2.707  -0.631  -0.794  1.00  0.00     0.001 C 
BRANCH  26  27
HETATM   27  C19 UNL     1       3.897  -1.341  -0.168  1.00  0.00     0.007 C 
BRANCH  27  28
HETATM   28  C20 UNL     1       4.833  -1.748  -1.269  1.00  0.00     0.072 C 
BRANCH  28  29
HETATM   29  C21 UNL     1       6.030  -2.454  -0.739  1.00  0.00     0.086 C 
HETATM   30  N2  UNL     1       6.303  -3.676  -1.094  1.00  0.00    -0.391 N 
ATOM     31  H22 UNL     1       5.681  -4.152  -1.748  1.00  0.00     0.157 HD
ATOM     32  H21 UNL     1       7.124  -4.160  -0.731  1.00  0.00     0.157 HD
HETATM   33  N3  UNL     1       6.891  -1.795   0.166  1.00  0.00    -0.088 NA
ENDBRANCH  28  29
ENDBRANCH  27  28
ENDBRANCH  26  27
ENDBRANCH  25  26
ENDBRANCH   8  25
TORSDOF 12
