REMARK  12 active torsions:
REMARK  status: ('A' for Active; 'I' for Inactive)
REMARK    1  A    between atoms: C1_2  and  C2_4 
REMARK    2  A    between atoms: C2_4  and  C3_5 
REMARK    3  A    between atoms: C3_5  and  C4_6 
REMARK    4  A    between atoms: C4_6  and  N1_7 
REMARK    5  A    between atoms: C4_6  and  N2_21 
REMARK       I    between atoms: N1_7  and  C5_9 
REMARK    6  A    between atoms: C5_9  and  C6_11 
REMARK    7  A    between atoms: C6_11  and  C7_13 
REMARK    8  A    between atoms: C7_13  and  C8_14 
REMARK       I    between atoms: N2_21  and  C15_23 
REMARK    9  A    between atoms: C15_23  and  C16_25 
REMARK   10  A    between atoms: C16_25  and  C17_26 
REMARK   11  A    between atoms: C16_25  and  C18_29 
REMARK   12  A    between atoms: C21_32  and  C22_33 
ROOT
HETATM    1  C4  UNL     1       0.136  -1.510  -0.002  1.00  0.00     0.187 C 
ENDROOT
BRANCH   1   2
HETATM    2  C3  UNL     1       0.417  -2.964   0.234  1.00  0.00     0.057 C 
BRANCH   2   3
HETATM    3  C2  UNL     1      -0.745  -3.850  -0.108  1.00  0.00     0.117 C 
BRANCH   3   4
HETATM    4  C1  UNL     1      -0.373  -5.252   0.155  1.00  0.00     0.172 C 
HETATM    5  O1  UNL     1       0.764  -5.538   0.575  1.00  0.00    -0.648 OA
HETATM    6  O2  UNL     1      -1.291  -6.267  -0.064  1.00  0.00    -0.648 OA
ENDBRANCH   3   4
ENDBRANCH   2   3
ENDBRANCH   1   2
BRANCH   1   7
HETATM    7  N1  UNL     1       1.304  -0.726   0.354  1.00  0.00    -0.338 N 
HETATM    8  C5  UNL     1       1.858   0.155  -0.595  1.00  0.00     0.253 C 
HETATM    9  O3  UNL     1       1.340   0.256  -1.726  1.00  0.00    -0.270 OA
ATOM     10  H1  UNL     1       1.719  -0.812   1.282  1.00  0.00     0.164 HD
BRANCH   8  11
HETATM   11  C6  UNL     1       3.066   0.970  -0.250  1.00  0.00     0.262 C 
HETATM   12  F1  UNL     1       3.269   1.905  -1.280  1.00  0.00    -0.239 F 
BRANCH  11  13
HETATM   13  C7  UNL     1       4.289   0.126  -0.160  1.00  0.00     0.051 C 
BRANCH  13  14
HETATM   14  C8  UNL     1       5.544   0.875   0.176  1.00  0.00    -0.011 C 
HETATM   15  C9  UNL     1       5.461   1.526   1.504  1.00  0.00     0.005 C 
HETATM   16  C10 UNL     1       6.262   2.813   1.512  1.00  0.00     0.000 C 
HETATM   17  C11 UNL     1       7.588   2.560   0.835  1.00  0.00     0.000 C 
HETATM   18  C12 UNL     1       8.225   1.397   1.525  1.00  0.00     0.000 C 
HETATM   19  C13 UNL     1       7.741   0.053   1.108  1.00  0.00     0.000 C 
HETATM   20  C14 UNL     1       6.783   0.031  -0.039  1.00  0.00     0.005 C 
ENDBRANCH  13  14
ENDBRANCH  11  13
ENDBRANCH   8  11
ENDBRANCH   1   7
BRANCH   1  21
HETATM   21  N2  UNL     1      -1.039  -1.034   0.710  1.00  0.00    -0.339 N 
HETATM   22  C15 UNL     1      -2.119  -0.391   0.033  1.00  0.00     0.234 C 
HETATM   23  O4  UNL     1      -2.013  -0.253  -1.207  1.00  0.00    -0.273 OA
ATOM     24  H2  UNL     1      -1.093  -1.163   1.720  1.00  0.00     0.164 HD
BRANCH  22  25
HETATM   25  C16 UNL     1      -3.296   0.078   0.804  1.00  0.00     0.182 C 
BRANCH  25  26
HETATM   26  C17 UNL     1      -3.996  -1.012   1.487  1.00  0.00     0.186 C 
HETATM   27  O5  UNL     1      -4.122  -0.999   2.733  1.00  0.00    -0.647 OA
HETATM   28  O6  UNL     1      -4.547  -2.095   0.808  1.00  0.00    -0.647 OA
ENDBRANCH  25  26
BRANCH  25  29
HETATM   29  C18 UNL     1      -4.153   0.999   0.001  1.00  0.00     0.009 C 
HETATM   30  C19 UNL     1      -5.339   1.454   0.859  1.00  0.00     0.006 C 
HETATM   31  C20 UNL     1      -6.377   1.886  -0.151  1.00  0.00     0.008 C 
HETATM   32  C21 UNL     1      -5.879   1.475  -1.492  1.00  0.00     0.026 C 
HETATM   33  C25 UNL     1      -4.889   0.358  -1.143  1.00  0.00     0.013 C 
BRANCH  32  34
HETATM   34  C22 UNL     1      -6.931   1.030  -2.448  1.00  0.00     0.107 A 
HETATM   35  F2  UNL     1      -6.436   0.659  -3.696  1.00  0.00    -0.243 F 
HETATM   36  C23 UNL     1      -8.254   0.555  -2.053  1.00  0.00     0.047 A 
HETATM   37  C24 UNL     1      -8.123   1.996  -2.528  1.00  0.00     0.047 A 
ENDBRANCH  32  34
ENDBRANCH  25  29
ENDBRANCH  22  25
ENDBRANCH   1  21
TORSDOF 12
