REMARK  2 active torsions:
REMARK  status: ('A' for Active; 'I' for Inactive)
REMARK    1  A    between atoms: C7_7  and  O1_8 
REMARK    2  A    between atoms: C8_10  and  O2_11 
ROOT
HETATM    1  C1  UNL     1       2.648   0.649   0.160  1.00  0.00     0.010 C 
HETATM    2  C2  UNL     1       1.486  -0.093   0.714  1.00  0.00    -0.011 C 
HETATM    3  C3  UNL     1       1.209  -1.365  -0.044  1.00  0.00     0.010 C 
HETATM    4  C4  UNL     1      -0.196  -1.696   0.378  1.00  0.00    -0.009 C 
HETATM    5  C5  UNL     1      -1.157  -1.605  -0.798  1.00  0.00     0.012 C 
HETATM    6  C6  UNL     1      -1.850  -0.484  -0.082  1.00  0.00     0.022 C 
HETATM    7  C7  UNL     1      -1.714   0.879  -0.705  1.00  0.00     0.151 C 
HETATM    8  C8  UNL     1      -0.196   1.101  -0.721  1.00  0.00     0.152 C 
HETATM    9  C9  UNL     1       0.181   0.630   0.639  1.00  0.00     0.025 C 
HETATM   10  C10 UNL     1      -0.807  -0.488   0.981  1.00  0.00     0.003 C 
ENDROOT
BRANCH   7  11
HETATM   11  O1  UNL     1      -2.324   1.809   0.115  1.00  0.00    -0.393 OA
ATOM     12  H1  UNL     1      -2.238   2.669  -0.278  1.00  0.00     0.210 HD
ENDBRANCH   7  11
BRANCH   8  13
HETATM   13  O2  UNL     1       0.046   2.454  -0.940  1.00  0.00    -0.393 OA
ATOM     14  H2  UNL     1       0.986   2.591  -0.950  1.00  0.00     0.210 HD
ENDBRANCH   8  13
TORSDOF 2
