REMARK  3 active torsions:
REMARK  status: ('A' for Active; 'I' for Inactive)
REMARK    1  A    between atoms: N1_1  and  C1_5 
REMARK    2  A    between atoms: C5_9  and  O1_10 
REMARK    3  A    between atoms: C7_13  and  O2_14 
ROOT
HETATM    1  C1  UNL     1      -2.118   0.206  -0.213  1.00  0.00     0.184 C 
HETATM    2  C2  UNL     1      -1.838  -1.215  -0.475  1.00  0.00     0.033 C 
HETATM    3  C3  UNL     1      -0.440  -1.672  -0.418  1.00  0.00     0.010 C 
HETATM    4  C4  UNL     1       0.606  -0.650  -0.640  1.00  0.00     0.021 C 
HETATM    5  C5  UNL     1       1.940  -0.971  -0.013  1.00  0.00     0.125 C 
HETATM    6  C6  UNL     1       2.623   0.395  -0.094  1.00  0.00     0.064 C 
HETATM    7  C7  UNL     1       1.482   1.415  -0.006  1.00  0.00     0.125 C 
HETATM    8  C8  UNL     1       0.248   0.596   0.186  1.00  0.00     0.023 C 
HETATM    9  C9  UNL     1      -0.985   1.155  -0.426  1.00  0.00     0.040 C 
ENDROOT
BRANCH   1  10
HETATM   10  N1  UNL     1      -2.673   0.391   1.137  1.00  0.00    -0.075 N 
ATOM     11  H13 UNL     1      -3.498  -0.190   1.288  1.00  0.00     0.274 HD
ATOM     12  H12 UNL     1      -2.067  -0.012   1.852  1.00  0.00     0.274 HD
ATOM     13  H11 UNL     1      -2.867   1.376   1.319  1.00  0.00     0.274 HD
ENDBRANCH   1  10
BRANCH   7  14
HETATM   14  O2  UNL     1       1.745   2.297   1.017  1.00  0.00    -0.395 OA
ATOM     15  H2  UNL     1       1.038   2.929   1.072  1.00  0.00     0.210 HD
ENDBRANCH   7  14
BRANCH   5  16
HETATM   16  O1  UNL     1       1.743  -1.219   1.347  1.00  0.00    -0.395 OA
ATOM     17  H1  UNL     1       2.583  -1.421   1.742  1.00  0.00     0.210 HD
ENDBRANCH   5  16
TORSDOF 3
