REMARK  2 active torsions:
REMARK  status: ('A' for Active; 'I' for Inactive)
REMARK    1  A    between atoms: C4_4  and  N1_5 
REMARK    2  A    between atoms: N1_5  and  C5_7 
ROOT
HETATM    1  C5  UNL     1       1.917  -0.156  -0.436  1.00  0.00     0.690 A 
HETATM    2  N2  UNL     1       3.092  -0.575  -0.738  1.00  0.00    -0.208 N 
ATOM      3  H2  UNL     1       3.323  -1.475  -1.160  1.00  0.00     0.179 HD
HETATM    4  C6  UNL     1       4.024   0.461  -0.371  1.00  0.00     0.279 A 
HETATM    5  N3  UNL     1       3.216   1.519   0.179  1.00  0.00    -0.304 N 
ATOM      6  H3  UNL     1       3.554   2.410   0.542  1.00  0.00     0.182 HD
HETATM    7  N4  UNL     1       2.014   1.141   0.130  1.00  0.00    -0.135 N 
ATOM      8  H4  UNL     1       1.219   1.693   0.453  1.00  0.00     0.205 HD
ENDROOT
BRANCH   1   9
HETATM    9  N1  UNL     1       0.707  -0.874  -0.635  1.00  0.00    -0.220 N 
ATOM     10  H1  UNL     1       0.656  -1.617  -1.332  1.00  0.00     0.178 HD
BRANCH   9  11
HETATM   11  C4  UNL     1      -0.455  -0.538   0.165  1.00  0.00     0.099 C 
HETATM   12  C3  UNL     1      -0.896   0.888  -0.015  1.00  0.00     0.026 C 
HETATM   13  C2  UNL     1      -2.388   0.891  -0.156  1.00  0.00     0.002 C 
HETATM   14  C1  UNL     1      -2.796  -0.483   0.331  1.00  0.00     0.002 C 
HETATM   15  C7  UNL     1      -1.662  -1.344  -0.242  1.00  0.00     0.026 C 
ENDBRANCH   9  11
ENDBRANCH   1   9
TORSDOF 2
