REMARK  4 active torsions:
REMARK  status: ('A' for Active; 'I' for Inactive)
REMARK    1  A    between atoms: N1_1  and  O1_4 
REMARK    2  A    between atoms: O1_4  and  C1_5 
REMARK    3  A    between atoms: C1_5  and  C2_10 
REMARK    4  A    between atoms: N2_6  and  O2_8 
ROOT
HETATM    1  C1  UNL     1       1.615  -0.278   0.137  1.00  0.00     0.169 C 
HETATM    2  N2  UNL     1       2.377   0.633   0.577  1.00  0.00    -0.249 N 
ATOM      3  H2  UNL     1       3.321   0.353   0.845  1.00  0.00     0.196 HD
ENDROOT
BRANCH   1   4
HETATM    4  O1  UNL     1       2.168  -1.573   0.072  1.00  0.00    -0.229 OA
BRANCH   4   5
HETATM    5  N1  UNL     1       3.540  -1.743   0.032  1.00  0.00    -0.304 N 
ATOM      6  H12 UNL     1       4.140  -0.918   0.050  1.00  0.00     0.184 HD
ATOM      7  H11 UNL     1       3.940  -2.680  -0.015  1.00  0.00     0.184 HD
ENDBRANCH   4   5
ENDBRANCH   1   4
BRANCH   1   8
HETATM    8  C2  UNL     1       0.225  -0.145  -0.313  1.00  0.00     0.065 C 
HETATM    9  C3  UNL     1      -0.629  -1.040   0.569  1.00  0.00     0.013 C 
HETATM   10  C4  UNL     1      -1.937  -0.360   0.942  1.00  0.00     0.001 C 
HETATM   11  C5  UNL     1      -2.561   0.125  -0.340  1.00  0.00     0.000 C 
HETATM   12  C6  UNL     1      -1.702   1.191  -0.943  1.00  0.00     0.001 C 
HETATM   13  C7  UNL     1      -0.312   1.244  -0.288  1.00  0.00     0.013 C 
ENDBRANCH   1   8
BRANCH   2  14
HETATM   14  O2  UNL     1       2.064   1.938   0.727  1.00  0.00    -0.288 OA
ATOM     15  H2  UNL     1       2.636   2.621   1.057  1.00  0.00     0.244 HD
ENDBRANCH   2  14
TORSDOF 4
