REMARK  2 active torsions:
REMARK  status: ('A' for Active; 'I' for Inactive)
REMARK    1  A    between atoms: C2_2  and  C3_3 
REMARK    2  A    between atoms: C3_3  and  O1_4 
ROOT
HETATM    1  C3  UNL     1      -1.174  -0.495   0.058  1.00  0.00     0.316 C 
HETATM    2  N1  UNL     1      -0.569  -0.081  -1.170  1.00  0.00    -0.282 N 
ATOM      3  H1  UNL     1      -1.165   0.010  -1.993  1.00  0.00     0.185 HD
HETATM    4  N2  UNL     1       0.621   0.170  -1.289  1.00  0.00    -0.326 N 
ATOM      5  H2  UNL     1       0.970   0.459  -2.203  1.00  0.00     0.180 HD
HETATM    6  C4  UNL     1       1.533   0.077  -0.216  1.00  0.00     0.062 C 
HETATM    7  C5  UNL     1       2.548   1.237  -0.302  1.00  0.00     0.041 C 
HETATM    8  C6  UNL     1       2.399  -1.162  -0.433  1.00  0.00     0.041 C 
HETATM    9  C7  UNL     1       0.844   0.068   1.094  1.00  0.00     0.270 C 
HETATM   10  N3  UNL     1      -0.563   0.310   1.096  1.00  0.00    -0.020 N 
ATOM     11  H31 UNL     1      -0.985   0.152   2.011  1.00  0.00     0.283 HD
ATOM     12  H32 UNL     1      -0.789   1.301   1.005  1.00  0.00     0.283 HD
ENDROOT
BRANCH   1  13
HETATM   13  C2  UNL     1      -2.656  -0.267  -0.059  1.00  0.00     0.090 C 
HETATM   14  C1  UNL     1      -3.026   1.163  -0.302  1.00  0.00     0.012 C 
ENDBRANCH   1  13
BRANCH   1  15
HETATM   15  O1  UNL     1      -1.006  -1.862   0.280  1.00  0.00    -0.348 OA
ATOM     16  H1  UNL     1      -0.070  -2.006   0.354  1.00  0.00     0.214 HD
ENDBRANCH   1  15
TORSDOF 2
