REMARK  2 active torsions:
REMARK  status: ('A' for Active; 'I' for Inactive)
REMARK    1  A    between atoms: C2_2  and  N2_6 
REMARK    2  A    between atoms: N3_8  and  N4_10 
ROOT
HETATM    1  N2  UNL     1      -1.638  -0.280  -0.662  1.00  0.00    -0.275 N 
ATOM      2  H2  UNL     1      -1.051  -0.804  -1.311  1.00  0.00     0.189 HD
HETATM    3  N3  UNL     1      -1.122   0.433   0.251  1.00  0.00    -0.238 N 
ATOM      4  H3  UNL     1      -1.696   0.963   0.907  1.00  0.00     0.208 HD
ENDROOT
BRANCH   3   5
HETATM    5  N4  UNL     1       0.293   0.455   0.311  1.00  0.00    -0.272 N 
HETATM    6  C3  UNL     1       1.085   1.571   0.659  1.00  0.00     0.197 C 
HETATM    7  N5  UNL     1       2.300   1.255   0.948  1.00  0.00    -0.379 N 
HETATM    8  C4  UNL     1       2.429  -0.183   0.809  1.00  0.00     0.098 C 
ATOM      9  H5  UNL     1       3.039   1.901   1.225  1.00  0.00     0.160 HD
HETATM   10  C5  UNL     1       3.716  -0.573   0.144  1.00  0.00     0.034 C 
HETATM   11  C6  UNL     1       1.207  -0.635   0.036  1.00  0.00     0.176 C 
ENDBRANCH   3   5
BRANCH   1  12
HETATM   12  C2  UNL     1      -3.050  -0.329  -0.757  1.00  0.00     0.086 C 
HETATM   13  C1  UNL     1      -3.853   0.829  -0.305  1.00  0.00     0.090 C 
HETATM   14  N1  UNL     1      -3.669  -1.358  -1.227  1.00  0.00    -0.388 N 
ATOM     15  H12 UNL     1      -4.686  -1.393  -1.295  1.00  0.00     0.157 HD
ATOM     16  H11 UNL     1      -3.116  -2.156  -1.539  1.00  0.00     0.157 HD
ENDBRANCH   1  12
TORSDOF 2
