REMARK  4 active torsions:
REMARK  status: ('A' for Active; 'I' for Inactive)
REMARK    1  A    between atoms: C2_2  and  O1_3 
REMARK    2  A    between atoms: O1_3  and  C3_4 
REMARK    3  A    between atoms: N1_6  and  O2_8 
REMARK    4  A    between atoms: O2_8  and  C4_9 
ROOT
HETATM    1  C3  UNL     1      -0.043   0.177   0.692  1.00  0.00     0.214 C 
HETATM    2  S1  UNL     1       0.895  -0.245   2.147  1.00  0.00    -0.003 SA
HETATM    3  N1  UNL     1       0.523   0.621  -0.374  1.00  0.00    -0.228 N 
ATOM      4  H1  UNL     1      -0.052   0.851  -1.185  1.00  0.00     0.197 HD
ENDROOT
BRANCH   3   5
HETATM    5  O2  UNL     1       1.883   0.793  -0.446  1.00  0.00    -0.181 OA
BRANCH   5   6
HETATM    6  C4  UNL     1       2.661  -0.168  -1.076  1.00  0.00     0.394 C 
HETATM    7  N2  UNL     1       4.086  -0.026  -1.173  1.00  0.00    -0.031 NA
HETATM    8  O3  UNL     1       2.068  -1.166  -1.558  1.00  0.00    -0.240 OA
ENDBRANCH   5   6
ENDBRANCH   3   5
BRANCH   1   9
HETATM    9  O1  UNL     1      -1.402   0.025   0.708  1.00  0.00    -0.329 OA
BRANCH   9  10
HETATM   10  C2  UNL     1      -2.096  -0.045  -0.527  1.00  0.00     0.173 C 
HETATM   11  C1  UNL     1      -3.566  -0.211  -0.185  1.00  0.00     0.034 C 
ENDBRANCH   9  10
ENDBRANCH   1   9
TORSDOF 4
