REMARK  19 active torsions:
REMARK  status: ('A' for Active; 'I' for Inactive)
REMARK    1  A    between atoms: N1_1  and  C1_5 
REMARK    2  A    between atoms: C1_5  and  C2_6 
REMARK    3  A    between atoms: C2_6  and  C3_7 
REMARK    4  A    between atoms: C3_7  and  C4_8 
REMARK    5  A    between atoms: C4_8  and  N2_9 
REMARK    6  A    between atoms: N2_9  and  C5_11 
REMARK    7  A    between atoms: C5_11  and  N3_13 
REMARK    8  A    between atoms: N3_13  and  C6_15 
REMARK    9  A    between atoms: C6_15  and  C7_16 
REMARK   10  A    between atoms: C9_18  and  N4_19 
REMARK   11  A    between atoms: N4_19  and  S2_21 
REMARK   12  A    between atoms: S2_21  and  C10_24 
REMARK   13  A    between atoms: C13_27  and  C14_28 
REMARK       I    between atoms: C14_28  and  N5_30 
REMARK   14  A    between atoms: N5_30  and  C15_32 
REMARK   15  A    between atoms: C15_32  and  C16_33 
REMARK   16  A    between atoms: C16_33  and  C17_34 
REMARK   17  A    between atoms: C17_34  and  C18_35 
REMARK   18  A    between atoms: C18_35  and  N6_36 
REMARK       I    between atoms: N6_36  and  C19_38 
REMARK   19  A    between atoms: C19_38  and  C20_40 
ROOT
HETATM    1  S2  UNL     1      -1.486   0.883  -0.602  1.00  0.00     0.264 S 
HETATM    2  O1  UNL     1      -1.881   2.200  -1.184  1.00  0.00    -0.200 OA
HETATM    3  O2  UNL     1      -1.663  -0.212  -1.642  1.00  0.00    -0.200 OA
ENDROOT
BRANCH   1   4
HETATM    4  N4  UNL     1      -2.434   0.560   0.785  1.00  0.00    -0.266 N 
ATOM      5  H4  UNL     1      -1.990   0.516   1.702  1.00  0.00     0.180 HD
BRANCH   4   6
HETATM    6  C9  UNL     1      -3.685   0.375   0.681  1.00  0.00     0.117 A 
HETATM    7  C8  UNL     1      -4.381   0.415  -0.501  1.00  0.00     0.075 A 
HETATM    8  C7  UNL     1      -5.766   0.167  -0.534  1.00  0.00     0.031 A 
HETATM    9  N8  UNL     1      -6.357  -0.102   0.625  1.00  0.00    -0.354 N 
HETATM   10  C28 UNL     1      -5.696  -0.145   1.790  1.00  0.00     0.182 A 
ATOM     11  H8  UNL     1      -7.361  -0.284   0.628  1.00  0.00     0.166 HD
HETATM   12  N7  UNL     1      -4.379   0.093   1.796  1.00  0.00    -0.338 N 
ATOM     13  H7  UNL     1      -3.881   0.059   2.685  1.00  0.00     0.168 HD
BRANCH   8  14
HETATM   14  C6  UNL     1      -6.506   0.189  -1.816  1.00  0.00     0.179 C 
BRANCH  14  15
HETATM   15  N3  UNL     1      -7.291  -0.995  -2.043  1.00  0.00    -0.362 N 
ATOM     16  H3  UNL     1      -6.864  -1.728  -2.610  1.00  0.00     0.162 HD
BRANCH  15  17
HETATM   17  C5  UNL     1      -8.578  -1.240  -1.564  1.00  0.00     0.167 C 
HETATM   18  S1  UNL     1      -9.298  -2.690  -1.911  1.00  0.00    -0.041 SA
BRANCH  17  19
HETATM   19  N2  UNL     1      -9.297  -0.315  -0.803  1.00  0.00    -0.367 N 
ATOM     20  H2  UNL     1      -8.880   0.590  -0.587  1.00  0.00     0.161 HD
BRANCH  19  21
HETATM   21  C4  UNL     1     -10.624  -0.621  -0.316  1.00  0.00     0.122 C 
BRANCH  21  22
HETATM   22  C3  UNL     1     -11.194   0.535   0.473  1.00  0.00     0.021 C 
BRANCH  22  23
HETATM   23  C2  UNL     1     -12.578   0.235   0.994  1.00  0.00     0.029 C 
BRANCH  23  24
HETATM   24  C1  UNL     1     -13.550  -0.057  -0.129  1.00  0.00     0.229 C 
BRANCH  24  25
HETATM   25  N1  UNL     1     -14.851  -0.330   0.449  1.00  0.00    -0.079 N 
ATOM     26  H13 UNL     1     -14.822  -1.075   1.145  1.00  0.00     0.274 HD
ATOM     27  H12 UNL     1     -15.173   0.420   1.061  1.00  0.00     0.274 HD
ATOM     28  H11 UNL     1     -15.506  -0.527  -0.308  1.00  0.00     0.274 HD
ENDBRANCH  24  25
ENDBRANCH  23  24
ENDBRANCH  22  23
ENDBRANCH  21  22
ENDBRANCH  19  21
ENDBRANCH  17  19
ENDBRANCH  15  17
ENDBRANCH  14  15
ENDBRANCH   8  14
ENDBRANCH   4   6
ENDBRANCH   1   4
BRANCH   1  29
HETATM   29  C10 UNL     1       0.227   0.982  -0.184  1.00  0.00     0.081 A 
HETATM   30  C11 UNL     1       0.817   2.194   0.081  1.00  0.00     0.026 A 
HETATM   31  C12 UNL     1       2.157   2.262   0.418  1.00  0.00     0.020 A 
HETATM   32  C13 UNL     1       2.970   1.124   0.505  1.00  0.00     0.053 A 
HETATM   33  C26 UNL     1       2.361  -0.081   0.235  1.00  0.00     0.051 A 
HETATM   34 CL1  UNL     1       3.281  -1.580   0.335  1.00  0.00    -0.083 Cl
HETATM   35  C27 UNL     1       1.008  -0.148  -0.105  1.00  0.00     0.050 A 
BRANCH  32  36
HETATM   36  C14 UNL     1       4.377   1.262   0.859  1.00  0.00     0.253 C 
HETATM   37  O3  UNL     1       4.699   1.190   2.066  1.00  0.00    -0.268 OA
HETATM   38  N5  UNL     1       5.412   1.477  -0.097  1.00  0.00    -0.357 N 
ATOM     39  H5  UNL     1       5.140   1.534  -1.078  1.00  0.00     0.162 HD
BRANCH  38  40
HETATM   40  C15 UNL     1       6.798   1.619   0.209  1.00  0.00     0.123 C 
BRANCH  40  41
HETATM   41  C16 UNL     1       7.354   0.394   0.836  1.00  0.00     0.021 C 
BRANCH  41  42
HETATM   42  C17 UNL     1       7.288  -0.820  -0.067  1.00  0.00     0.021 C 
BRANCH  42  43
HETATM   43  C18 UNL     1       8.079  -0.643  -1.312  1.00  0.00     0.123 C 
BRANCH  43  44
HETATM   44  N6  UNL     1       9.499  -0.404  -1.039  1.00  0.00    -0.357 N 
HETATM   45  C19 UNL     1      10.285  -1.356  -0.394  1.00  0.00     0.254 C 
HETATM   46  O4  UNL     1       9.759  -2.487  -0.040  1.00  0.00    -0.268 OA
ATOM     47  H6  UNL     1       9.921   0.479  -1.328  1.00  0.00     0.162 HD
BRANCH  45  48
HETATM   48  C20 UNL     1      11.710  -1.163  -0.081  1.00  0.00     0.070 A 
HETATM   49  C21 UNL     1      12.482  -2.291   0.217  1.00  0.00     0.020 A 
HETATM   50  C22 UNL     1      13.812  -2.197   0.497  1.00  0.00     0.001 A 
HETATM   51  C23 UNL     1      14.471  -0.974   0.500  1.00  0.00     0.003 A 
HETATM   52  C24 UNL     1      13.700   0.126   0.205  1.00  0.00     0.043 A 
HETATM   53  C25 UNL     1      12.334   0.043  -0.084  1.00  0.00     0.132 A 
HETATM   54  F1  UNL     1      11.724   1.214  -0.327  1.00  0.00    -0.205 F 
ENDBRANCH  45  48
ENDBRANCH  43  44
ENDBRANCH  42  43
ENDBRANCH  41  42
ENDBRANCH  40  41
ENDBRANCH  38  40
ENDBRANCH  32  36
ENDBRANCH   1  29
TORSDOF 19
