REMARK  18 active torsions:
REMARK  status: ('A' for Active; 'I' for Inactive)
REMARK    1  A    between atoms: C3_3  and  N1_4 
REMARK    2  A    between atoms: N1_4  and  C4_5 
REMARK    3  A    between atoms: N1_4  and  C26_45 
REMARK    4  A    between atoms: C4_5  and  C5_6 
REMARK    5  A    between atoms: C8_9  and  C9_10 
REMARK    6  A    between atoms: C9_10  and  N2_11 
REMARK    7  A    between atoms: C9_10  and  C10_15 
REMARK       I    between atoms: C10_15  and  N3_17 
REMARK    8  A    between atoms: N3_17  and  C11_18 
REMARK    9  A    between atoms: C11_18  and  C12_19 
REMARK   10  A    between atoms: C12_19  and  N4_20 
REMARK   11  A    between atoms: C13_22  and  C14_23 
REMARK   12  A    between atoms: C13_22  and  C17_28 
REMARK   13  A    between atoms: C14_23  and  C15_24 
REMARK   14  A    between atoms: C15_24  and  C16_25 
REMARK   15  A    between atoms: C17_28  and  O4_29 
REMARK   16  A    between atoms: O4_29  and  C18_30 
REMARK   17  A    between atoms: N5_38  and  N6_40 
REMARK   18  A    between atoms: C26_45  and  C27_46 
ROOT
HETATM    1  C1  UNL     1       6.433  -2.448  -1.678  1.00  0.00     0.013 C 
HETATM    2  C2  UNL     1       5.987  -1.479  -1.126  1.00  0.00    -0.087 C 
HETATM    3  C3  UNL     1       5.406  -0.332  -0.480  1.00  0.00     0.365 C 
ENDROOT
BRANCH   3   4
HETATM    4  N1  UNL     1       5.539  -0.212   0.931  1.00  0.00     0.107 N 
BRANCH   4   5
HETATM    5  C4  UNL     1       4.737  -1.284   1.555  1.00  0.00     0.312 C 
BRANCH   5   6
HETATM    6  C5  UNL     1       3.320  -1.312   1.216  1.00  0.00    -0.030 A 
HETATM    7  C6  UNL     1       2.805  -2.258   0.325  1.00  0.00     0.009 A 
HETATM    8  C7  UNL     1       1.476  -2.377   0.014  1.00  0.00     0.010 A 
HETATM    9  C8  UNL     1       0.517  -1.522   0.598  1.00  0.00    -0.018 A 
HETATM   10  C24 UNL     1       1.008  -0.595   1.461  1.00  0.00     0.010 A 
HETATM   11  C25 UNL     1       2.368  -0.477   1.776  1.00  0.00     0.009 A 
BRANCH   9  12
HETATM   12  C9  UNL     1      -0.907  -1.755   0.320  1.00  0.00     0.322 C 
BRANCH  12  13
HETATM   13  N2  UNL     1      -1.091  -3.005  -0.408  1.00  0.00    -0.061 N 
ATOM     14  H23 UNL     1      -0.530  -3.033  -1.259  1.00  0.00     0.275 HD
ATOM     15  H22 UNL     1      -0.667  -3.793   0.081  1.00  0.00     0.275 HD
ATOM     16  H21 UNL     1      -2.079  -3.167  -0.601  1.00  0.00     0.275 HD
ENDBRANCH  12  13
BRANCH  12  17
HETATM   17  C10 UNL     1      -1.681  -0.627  -0.309  1.00  0.00     0.322 C 
HETATM   18  O1  UNL     1      -1.867  -0.831  -1.569  1.00  0.00    -0.255 OA
HETATM   19  N3  UNL     1      -2.100   0.413   0.386  1.00  0.00    -0.406 NA
BRANCH  19  20
HETATM   20  C11 UNL     1      -2.554   1.533   1.123  1.00  0.00     0.299 C 
BRANCH  20  21
HETATM   21  C12 UNL     1      -4.110   1.569   1.098  1.00  0.00     0.126 C 
HETATM   22  N5  UNL     1      -4.689   2.525   1.581  1.00  0.00    -0.293 N 
ATOM     23  H5  UNL     1      -5.694   2.382   1.480  1.00  0.00     0.187 HD
BRANCH  21  24
HETATM   24  N4  UNL     1      -4.746   0.477   0.550  1.00  0.00    -0.348 N 
HETATM   25  C13 UNL     1      -5.397   0.064  -0.370  1.00  0.00     0.013 C 
ATOM     26  H4  UNL     1      -4.606  -0.304   1.191  1.00  0.00     0.167 HD
BRANCH  25  27
HETATM   27  C14 UNL     1      -5.904   0.738  -1.598  1.00  0.00     0.065 C 
BRANCH  27  28
HETATM   28  C15 UNL     1      -6.107   2.213  -1.473  1.00  0.00     0.119 C 
BRANCH  28  29
HETATM   29  C16 UNL     1      -6.614   2.696  -2.836  1.00  0.00     0.172 C 
HETATM   30  O2  UNL     1      -6.619   2.005  -3.853  1.00  0.00    -0.648 OA
HETATM   31  O3  UNL     1      -7.101   4.018  -2.886  1.00  0.00    -0.648 OA
ENDBRANCH  28  29
ENDBRANCH  27  28
ENDBRANCH  25  27
BRANCH  25  32
HETATM   32  C17 UNL     1      -5.757  -1.445  -0.354  1.00  0.00     0.228 C 
BRANCH  32  33
HETATM   33  O4  UNL     1      -7.105  -1.550  -0.687  1.00  0.00    -0.343 OA
BRANCH  33  34
HETATM   34  C18 UNL     1      -8.200  -1.038  -0.038  1.00  0.00     0.107 A 
HETATM   35  C19 UNL     1      -8.175  -0.324   1.115  1.00  0.00     0.043 A 
HETATM   36  C20 UNL     1      -9.355   0.156   1.693  1.00  0.00     0.045 A 
HETATM   37  C21 UNL     1     -10.590  -0.061   1.144  1.00  0.00     0.119 A 
HETATM   38  F1  UNL     1     -11.730   0.413   1.711  1.00  0.00    -0.206 F 
HETATM   39  C22 UNL     1     -10.616  -0.798  -0.042  1.00  0.00     0.087 A 
HETATM   40  C23 UNL     1      -9.456  -1.265  -0.605  1.00  0.00     0.152 A 
HETATM   41  F2  UNL     1      -9.552  -1.961  -1.750  1.00  0.00    -0.203 F 
ENDBRANCH  33  34
ENDBRANCH  32  33
ENDBRANCH  25  32
ENDBRANCH  21  24
BRANCH  22  42
HETATM   42  N6  UNL     1      -4.485   3.693   2.195  1.00  0.00    -0.344 N 
ATOM     43  H62 UNL     1      -3.476   3.810   2.282  1.00  0.00     0.176 HD
ATOM     44  H61 UNL     1      -4.970   4.494   2.600  1.00  0.00     0.176 HD
ENDBRANCH  22  42
ENDBRANCH  20  21
ENDBRANCH  19  20
ENDBRANCH  12  17
ENDBRANCH   9  12
ENDBRANCH   5   6
ENDBRANCH   4   5
BRANCH   4  45
HETATM   45  C26 UNL     1       6.842  -0.435   1.484  1.00  0.00     0.312 C 
BRANCH  45  46
HETATM   46  C27 UNL     1       8.006   0.208   0.894  1.00  0.00    -0.028 A 
HETATM   47  C28 UNL     1       8.138   1.564   0.792  1.00  0.00     0.011 A 
HETATM   48  C29 UNL     1       9.311   2.069   0.255  1.00  0.00     0.032 A 
HETATM   49  C30 UNL     1      10.344   1.245  -0.171  1.00  0.00     0.063 A 
HETATM   50  N7  UNL     1      11.579   1.454  -0.706  1.00  0.00    -0.307 N 
HETATM   51  C32 UNL     1      10.178  -0.109  -0.051  1.00  0.00     0.063 A 
HETATM   52  C31 UNL     1      12.183   0.270  -0.931  1.00  0.00     0.325 A 
ATOM     53  H7  UNL     1      11.985   2.368  -0.906  1.00  0.00     0.170 HD
HETATM   54  O5  UNL     1      13.319   0.021  -1.419  1.00  0.00    -0.247 OA
HETATM   55  N8  UNL     1      11.322  -0.685  -0.528  1.00  0.00    -0.306 N 
ATOM     56  H8  UNL     1      11.498  -1.689  -0.572  1.00  0.00     0.170 HD
HETATM   57  C33 UNL     1       9.034  -0.625   0.467  1.00  0.00     0.040 A 
ENDBRANCH  45  46
ENDBRANCH   4  45
ENDBRANCH   3   4
TORSDOF 18
