REMARK  19 active torsions:
REMARK  status: ('A' for Active; 'I' for Inactive)
REMARK    1  A    between atoms: N1_2  and  C2_3 
REMARK    2  A    between atoms: N1_2  and  C8_13 
REMARK    3  A    between atoms: C2_3  and  C3_4 
REMARK    4  A    between atoms: C3_4  and  C4_5 
REMARK    5  A    between atoms: C4_5  and  C5_6 
REMARK    6  A    between atoms: C9_16  and  N5_17 
REMARK    7  A    between atoms: N5_17  and  C10_19 
REMARK    8  A    between atoms: C10_19  and  C11_20 
REMARK    9  A    between atoms: C17_29  and  N7_30 
REMARK   10  A    between atoms: N7_30  and  C18_31 
REMARK   11  A    between atoms: C18_31  and  C19_32 
REMARK   12  A    between atoms: C19_32  and  C20_33 
REMARK   13  A    between atoms: C20_33  and  C21_34 
REMARK   14  A    between atoms: C21_34  and  N8_35 
REMARK       I    between atoms: N8_35  and  C22_37 
REMARK   15  A    between atoms: C22_37  and  C23_39 
REMARK       I    between atoms: C23_39  and  N9_41 
REMARK   16  A    between atoms: N9_41  and  C24_43 
REMARK   17  A    between atoms: C24_43  and  C25_44 
REMARK   18  A    between atoms: C25_44  and  C26_45 
REMARK   19  A    between atoms: C26_45  and  N10_46 
ROOT
HETATM    1  C8  UNL     1      -3.110  -1.075   0.610  1.00  0.00     0.141 A 
HETATM    2  N4  UNL     1      -3.645   0.172   0.814  1.00  0.00    -0.175 N 
ATOM      3  H4  UNL     1      -4.640   0.253   1.026  1.00  0.00     0.186 HD
HETATM    4  C9  UNL     1      -2.909   1.280   0.745  1.00  0.00     0.682 A 
HETATM    5  N6  UNL     1      -1.607   1.151   0.488  1.00  0.00    -0.163 N 
ATOM      6  H6  UNL     1      -1.062   2.013   0.456  1.00  0.00     0.187 HD
HETATM    7  C17 UNL     1      -0.927  -0.003   0.264  1.00  0.00     0.213 A 
HETATM    8  C27 UNL     1      -1.738  -1.130   0.329  1.00  0.00     0.114 A 
HETATM    9 BR1  UNL     1      -0.895  -2.776  -0.027  1.00  0.00    -0.042 Br
ENDROOT
BRANCH   7  10
HETATM   10  N7  UNL     1       0.261   0.065   0.118  1.00  0.00    -0.402 NA
BRANCH  10  11
HETATM   11  C18 UNL     1       1.608  -0.049  -0.072  1.00  0.00     0.157 C 
BRANCH  11  12
HETATM   12  C19 UNL     1       2.185   1.099  -0.901  1.00  0.00     0.061 C 
BRANCH  12  13
HETATM   13  C20 UNL     1       3.632   1.041  -1.077  1.00  0.00     0.026 C 
BRANCH  13  14
HETATM   14  C21 UNL     1       4.501   1.344   0.132  1.00  0.00     0.123 C 
BRANCH  14  15
HETATM   15  N8  UNL     1       5.924   1.284  -0.255  1.00  0.00    -0.353 N 
HETATM   16  C22 UNL     1       6.550  -0.000  -0.436  1.00  0.00     0.309 C 
HETATM   17  O1  UNL     1       5.872  -1.022  -0.179  1.00  0.00    -0.262 OA
ATOM     18  H8  UNL     1       6.458   2.142  -0.393  1.00  0.00     0.162 HD
BRANCH  16  19
HETATM   19  C23 UNL     1       7.897  -0.175  -0.897  1.00  0.00     0.309 C 
HETATM   20  O2  UNL     1       8.519   0.745  -1.482  1.00  0.00    -0.262 OA
HETATM   21  N9  UNL     1       8.574  -1.403  -0.700  1.00  0.00    -0.353 N 
ATOM     22  H9  UNL     1       8.123  -2.163  -0.190  1.00  0.00     0.162 HD
BRANCH  21  23
HETATM   23  C24 UNL     1       9.901  -1.569  -1.224  1.00  0.00     0.125 C 
BRANCH  23  24
HETATM   24  C25 UNL     1      10.708  -2.531  -0.347  1.00  0.00     0.047 C 
BRANCH  24  25
HETATM   25  C26 UNL     1      10.833  -1.674   0.976  1.00  0.00     0.231 C 
BRANCH  25  26
HETATM   26  N10 UNL     1      11.445  -0.408   0.527  1.00  0.00    -0.079 N 
ATOM     27 3H10 UNL     1      12.322  -0.524   0.018  1.00  0.00     0.274 HD
ATOM     28 2H10 UNL     1      10.940   0.057  -0.227  1.00  0.00     0.274 HD
ATOM     29 1H10 UNL     1      11.526   0.145   1.380  1.00  0.00     0.274 HD
ENDBRANCH  25  26
ENDBRANCH  24  25
ENDBRANCH  23  24
ENDBRANCH  21  23
ENDBRANCH  16  19
ENDBRANCH  14  15
ENDBRANCH  13  14
ENDBRANCH  12  13
ENDBRANCH  11  12
ENDBRANCH  10  11
ENDBRANCH   7  10
BRANCH   4  30
HETATM   30  N5  UNL     1      -3.459   2.457   0.921  1.00  0.00    -0.222 N 
ATOM     31  H5  UNL     1      -4.452   2.534   1.143  1.00  0.00     0.178 HD
BRANCH  30  32
HETATM   32  C10 UNL     1      -2.645   3.643   0.798  1.00  0.00     0.178 C 
BRANCH  32  33
HETATM   33  C11 UNL     1      -3.506   4.839   0.455  1.00  0.00    -0.018 A 
HETATM   34  C12 UNL     1      -4.496   5.369   1.196  1.00  0.00     0.010 A 
HETATM   35  C13 UNL     1      -5.182   6.532   0.840  1.00  0.00     0.001 A 
HETATM   36  C14 UNL     1      -4.837   7.197  -0.354  1.00  0.00     0.002 A 
HETATM   37  C15 UNL     1      -3.805   6.667  -1.138  1.00  0.00     0.024 A 
HETATM   38  C16 UNL     1      -3.153   5.526  -0.752  1.00  0.00     0.042 A 
HETATM   39 CL1  UNL     1      -1.873   4.889  -1.764  1.00  0.00    -0.084 Cl
ENDBRANCH  32  33
ENDBRANCH  30  32
ENDBRANCH   4  30
BRANCH   1  40
HETATM   40  N1  UNL     1      -3.933  -2.250   0.633  1.00  0.00    -0.370 N 
HETATM   41  C1  UNL     1      -3.478  -3.526   1.079  1.00  0.00     0.151 C 
BRANCH  40  42
HETATM   42  C2  UNL     1      -5.317  -2.152   0.163  1.00  0.00     0.124 C 
BRANCH  42  43
HETATM   43  C3  UNL     1      -6.254  -2.255   1.312  1.00  0.00     0.026 C 
BRANCH  43  44
HETATM   44  C4  UNL     1      -7.712  -2.206   0.983  1.00  0.00     0.060 C 
BRANCH  44  45
HETATM   45  C5  UNL     1      -8.291  -3.351   0.248  1.00  0.00     0.025 A 
HETATM   46  C6  UNL     1      -8.364  -3.628  -1.086  1.00  0.00     0.113 A 
HETATM   47  N2  UNL     1      -9.034  -4.781  -1.316  1.00  0.00    -0.360 N 
HETATM   48  C7  UNL     1      -9.391  -5.243  -0.093  1.00  0.00     0.180 A 
ATOM     49  H2  UNL     1      -9.229  -5.212  -2.220  1.00  0.00     0.166 HD
HETATM   50  N3  UNL     1      -8.960  -4.404   0.870  1.00  0.00    -0.355 N 
ATOM     51  H3  UNL     1      -9.099  -4.519   1.874  1.00  0.00     0.166 HD
ENDBRANCH  44  45
ENDBRANCH  43  44
ENDBRANCH  42  43
ENDBRANCH  40  42
ENDBRANCH   1  40
TORSDOF 19
