REMARK  6 active torsions:
REMARK  status: ('A' for Active; 'I' for Inactive)
REMARK    1  A    between atoms: C4_4  and  C5_5 
REMARK    2  A    between atoms: C5_5  and  C6_6 
REMARK    3  A    between atoms: C11_11  and  O1_12 
REMARK    4  A    between atoms: O1_12  and  C12_13 
REMARK    5  A    between atoms: C12_13  and  C13_14 
REMARK    6  A    between atoms: C13_14  and  C14_15 
ROOT
HETATM    1  C6  UNL     1       2.376  -0.450   0.011  1.00  0.00    -0.021 A 
HETATM    2  C7  UNL     1       3.209  -1.371  -0.558  1.00  0.00     0.010 A 
HETATM    3  C8  UNL     1       2.779  -2.640  -0.822  1.00  0.00     0.001 A 
HETATM    4  C9  UNL     1       1.486  -2.963  -0.498  1.00  0.00     0.003 A 
HETATM    5  C10 UNL     1       0.625  -2.026   0.085  1.00  0.00     0.037 A 
HETATM    6  C11 UNL     1       1.046  -0.748   0.353  1.00  0.00     0.075 A 
ENDROOT
BRANCH   6   7
HETATM    7  O1  UNL     1       0.284   0.221   0.917  1.00  0.00    -0.350 OA
BRANCH   7   8
HETATM    8  C12 UNL     1      -1.013   0.280   1.343  1.00  0.00     0.180 C 
BRANCH   8   9
HETATM    9  C13 UNL     1      -1.999   0.099   0.218  1.00  0.00     0.067 C 
BRANCH   9  10
HETATM   10  C14 UNL     1      -3.384   0.175   0.813  1.00  0.00    -0.028 A 
HETATM   11  C15 UNL     1      -3.714   0.374   2.143  1.00  0.00     0.096 A 
HETATM   12  N1  UNL     1      -5.049   0.384   2.300  1.00  0.00    -0.365 N 
HETATM   13  C16 UNL     1      -5.568   0.193   1.078  1.00  0.00     0.042 A 
ATOM     14  H1  UNL     1      -5.563   0.511   3.172  1.00  0.00     0.165 HD
HETATM   15  C17 UNL     1      -6.893   0.113   0.639  1.00  0.00     0.030 A 
HETATM   16  C21 UNL     1      -4.580   0.061   0.139  1.00  0.00    -0.002 A 
HETATM   17  C18 UNL     1      -7.156  -0.092  -0.693  1.00  0.00     0.002 A 
HETATM   18  C19 UNL     1      -6.166  -0.225  -1.639  1.00  0.00     0.001 A 
HETATM   19  C20 UNL     1      -4.860  -0.145  -1.202  1.00  0.00     0.014 A 
ENDBRANCH   9  10
ENDBRANCH   8   9
ENDBRANCH   7   8
ENDBRANCH   6   7
BRANCH   1  20
HETATM   20  C5  UNL     1       2.842   0.931   0.298  1.00  0.00     0.080 C 
BRANCH  20  21
HETATM   21  C4  UNL     1       4.261   1.107  -0.114  1.00  0.00    -0.054 A 
HETATM   22  C3  UNL     1       4.542   1.529  -1.373  1.00  0.00     0.007 A 
HETATM   23  C2  UNL     1       5.847   1.697  -1.772  1.00  0.00     0.001 A 
HETATM   24  C1  UNL     1       6.896   1.446  -0.919  1.00  0.00     0.000 A 
HETATM   25  C23 UNL     1       6.582   1.017   0.358  1.00  0.00     0.001 A 
HETATM   26  C22 UNL     1       5.286   0.848   0.760  1.00  0.00     0.007 A 
ENDBRANCH  20  21
ENDBRANCH   1  20
TORSDOF 6
