REMARK  6 active torsions:
REMARK  status: ('A' for Active; 'I' for Inactive)
REMARK    1  A    between atoms: C4_4  and  C5_5 
REMARK    2  A    between atoms: C5_5  and  C6_6 
REMARK    3  A    between atoms: C6_6  and  C7_7 
REMARK    4  A    between atoms: C12_14  and  O1_15 
REMARK    5  A    between atoms: O1_15  and  C13_16 
REMARK    6  A    between atoms: C13_16  and  C14_17 
ROOT
HETATM    1  C7  UNL     1       2.094  -1.498  -0.652  1.00  0.00    -0.030 A 
HETATM    2  C8  UNL     1       2.887  -2.241   0.205  1.00  0.00     0.096 A 
HETATM    3  N1  UNL     1       2.194  -2.551   1.295  1.00  0.00    -0.365 N 
ATOM      4  H1  UNL     1       2.531  -3.092   2.091  1.00  0.00     0.165 HD
HETATM    5  C9  UNL     1       0.949  -2.014   1.154  1.00  0.00     0.043 A 
HETATM    6  C10 UNL     1      -0.119  -2.065   2.013  1.00  0.00     0.033 A 
HETATM    7  C11 UNL     1      -1.277  -1.424   1.610  1.00  0.00     0.039 A 
HETATM    8  C12 UNL     1      -1.388  -0.757   0.413  1.00  0.00     0.070 A 
HETATM    9  C20 UNL     1      -0.301  -0.712  -0.449  1.00  0.00     0.051 A 
HETATM   10  C21 UNL     1       0.854  -1.351  -0.050  1.00  0.00     0.001 A 
ENDROOT
BRANCH   1  11
HETATM   11  C6  UNL     1       2.523  -0.980  -1.950  1.00  0.00     0.045 C 
BRANCH  11  12
HETATM   12  C5  UNL     1       2.832   0.496  -1.973  1.00  0.00     0.043 C 
BRANCH  12  13
HETATM   13  C4  UNL     1       3.926   0.825  -1.024  1.00  0.00    -0.058 A 
HETATM   14  C3  UNL     1       5.263   0.805  -1.387  1.00  0.00     0.007 A 
HETATM   15  C2  UNL     1       6.235   1.121  -0.463  1.00  0.00     0.001 A 
HETATM   16  C1  UNL     1       5.900   1.461   0.833  1.00  0.00     0.000 A 
HETATM   17  C23 UNL     1       4.574   1.478   1.185  1.00  0.00     0.001 A 
HETATM   18  C22 UNL     1       3.601   1.165   0.270  1.00  0.00     0.007 A 
ENDBRANCH  12  13
ENDBRANCH  11  12
ENDBRANCH   1  11
BRANCH   8  19
HETATM   19  O1  UNL     1      -2.555  -0.146   0.075  1.00  0.00    -0.347 OA
BRANCH  19  20
HETATM   20  C13 UNL     1      -3.655  -0.198   0.958  1.00  0.00     0.214 C 
BRANCH  20  21
HETATM   21  C14 UNL     1      -4.834   0.525   0.419  1.00  0.00    -0.034 A 
HETATM   22  C15 UNL     1      -4.850   1.156  -0.807  1.00  0.00     0.009 A 
HETATM   23  C16 UNL     1      -6.014   1.793  -1.185  1.00  0.00     0.001 A 
HETATM   24  C17 UNL     1      -7.153   1.820  -0.386  1.00  0.00     0.000 A 
HETATM   25  C18 UNL     1      -7.122   1.186   0.835  1.00  0.00     0.001 A 
HETATM   26  C19 UNL     1      -5.968   0.543   1.231  1.00  0.00     0.009 A 
ENDBRANCH  20  21
ENDBRANCH  19  20
ENDBRANCH   8  19
TORSDOF 6
