REMARK  4 active torsions:
REMARK  status: ('A' for Active; 'I' for Inactive)
REMARK    1  A    between atoms: N1_2  and  N2_4 
REMARK    2  A    between atoms: N2_4  and  C2_6 
REMARK    3  A    between atoms: C2_6  and  N3_7 
REMARK    4  A    between atoms: C2_6  and  C3_11 
ROOT
HETATM    1  C2  UNL     1       0.020   0.698   0.832  1.00  0.00     0.347 C 
ENDROOT
BRANCH   1   2
HETATM    2  N2  UNL     1       1.223  -0.090   0.735  1.00  0.00    -0.306 N 
ATOM      3  H2  UNL     1       1.657  -0.530   1.546  1.00  0.00     0.182 HD
BRANCH   2   4
HETATM    4  N1  UNL     1       1.739  -0.203  -0.530  1.00  0.00    -0.343 N 
HETATM    5  C1  UNL     1       2.767   0.740  -0.846  1.00  0.00     0.167 C 
ATOM      6  H1  UNL     1       1.415  -0.905  -1.195  1.00  0.00     0.179 HD
ENDBRANCH   2   4
ENDBRANCH   1   2
BRANCH   1   7
HETATM    7  N3  UNL     1      -0.331   0.760   2.249  1.00  0.00    -0.051 N 
ATOM      8  H33 UNL     1      -0.417  -0.159   2.683  1.00  0.00     0.277 HD
ATOM      9  H32 UNL     1       0.427   1.109   2.836  1.00  0.00     0.277 HD
ATOM     10  H31 UNL     1      -1.182   1.318   2.318  1.00  0.00     0.277 HD
ENDBRANCH   1   7
BRANCH   1  11
HETATM   11  C3  UNL     1      -1.128   0.140   0.072  1.00  0.00     0.077 A 
HETATM   12  C4  UNL     1      -2.415  -0.031   0.553  1.00  0.00     0.118 A 
HETATM   13  N4  UNL     1      -3.146  -0.550  -0.443  1.00  0.00    -0.360 N 
HETATM   14  C5  UNL     1      -2.390  -0.714  -1.519  1.00  0.00     0.180 A 
ATOM     15  H4  UNL     1      -4.137  -0.784  -0.382  1.00  0.00     0.166 HD
HETATM   16  N5  UNL     1      -1.135  -0.282  -1.193  1.00  0.00    -0.351 N 
ATOM     17  H5  UNL     1      -0.330  -0.282  -1.819  1.00  0.00     0.166 HD
ENDBRANCH   1  11
TORSDOF 4
