REMARK  3 active torsions:
REMARK  status: ('A' for Active; 'I' for Inactive)
REMARK    1  A    between atoms: N1_1  and  N2_4 
REMARK    2  A    between atoms: N2_4  and  N3_6 
REMARK    3  A    between atoms: N3_6  and  C1_8 
ROOT
HETATM    1  C1  UNL     1       0.087  -0.311   0.243  1.00  0.00     0.145 A 
HETATM    2  N4  UNL     1       0.450   0.950  -0.024  1.00  0.00    -0.350 N 
ATOM      3  H4  UNL     1       1.442   1.188  -0.013  1.00  0.00     0.166 HD
HETATM    4  C2  UNL     1      -0.447   1.919  -0.307  1.00  0.00     0.090 A 
HETATM    5  C3  UNL     1      -1.787   1.597  -0.323  1.00  0.00     0.019 A 
HETATM    6  C4  UNL     1      -2.195   0.308  -0.053  1.00  0.00     0.032 A 
HETATM    7  C5  UNL     1      -1.256  -0.665   0.235  1.00  0.00     0.091 A 
HETATM    8  N5  UNL     1      -1.712  -1.970   0.505  1.00  0.00    -0.098 NA
ENDROOT
BRANCH   1   9
HETATM    9  N3  UNL     1       0.978  -1.194   0.506  1.00  0.00    -0.270 N 
ATOM     10  H3  UNL     1       0.711  -2.157   0.711  1.00  0.00     0.190 HD
BRANCH   9  11
HETATM   11  N2  UNL     1       2.319  -0.812   0.507  1.00  0.00    -0.248 N 
ATOM     12  H2  UNL     1       2.774  -0.629   1.401  1.00  0.00     0.207 HD
BRANCH  11  13
HETATM   13  N1  UNL     1       3.068  -0.669  -0.671  1.00  0.00    -0.331 N 
ATOM     14  H12 UNL     1       2.597  -0.856  -1.556  1.00  0.00     0.178 HD
ATOM     15  H11 UNL     1       4.049  -0.390  -0.670  1.00  0.00     0.178 HD
ENDBRANCH  11  13
ENDBRANCH   9  11
ENDBRANCH   1   9
TORSDOF 3
