REMARK  4 active torsions:
REMARK  status: ('A' for Active; 'I' for Inactive)
REMARK    1  A    between atoms: C2_2  and  N1_3 
REMARK    2  A    between atoms: C2_2  and  O1_7 
REMARK    3  A    between atoms: O1_7  and  C3_8 
REMARK    4  A    between atoms: C4_11  and  N3_12 
ROOT
HETATM    1  C3  UNL     1       0.744  -0.361   0.068  1.00  0.00     0.255 A 
HETATM    2  N2  UNL     1       1.219   0.871   0.307  1.00  0.00    -0.153 N 
ATOM      3  H2  UNL     1       0.654   1.712   0.425  1.00  0.00     0.188 HD
HETATM    4  C4  UNL     1       2.561   0.816   0.366  1.00  0.00     0.693 A 
HETATM    5  N4  UNL     1       2.876  -0.479   0.156  1.00  0.00    -0.129 N 
ATOM      6  H4  UNL     1       3.825  -0.853   0.139  1.00  0.00     0.205 HD
HETATM    7  N5  UNL     1       1.788  -1.186  -0.023  1.00  0.00    -0.250 N 
ATOM      8  H5  UNL     1       1.747  -2.190  -0.201  1.00  0.00     0.191 HD
ENDROOT
BRANCH   1   9
HETATM    9  O1  UNL     1      -0.585  -0.685  -0.057  1.00  0.00    -0.287 OA
BRANCH   9  10
HETATM   10  C2  UNL     1      -1.635   0.230   0.049  1.00  0.00     0.323 C 
HETATM   11  C1  UNL     1      -2.596  -0.199   1.123  1.00  0.00     0.071 C 
BRANCH  10  12
HETATM   12  N1  UNL     1      -2.359   0.338  -1.206  1.00  0.00    -0.053 N 
ATOM     13  H13 UNL     1      -2.855  -0.520  -1.446  1.00  0.00     0.277 HD
ATOM     14  H12 UNL     1      -3.169   0.954  -1.138  1.00  0.00     0.277 HD
ATOM     15  H11 UNL     1      -1.707   0.629  -1.935  1.00  0.00     0.277 HD
ENDBRANCH  10  12
ENDBRANCH   9  10
ENDBRANCH   1   9
BRANCH   4  16
HETATM   16  N3  UNL     1       3.435   1.738   0.572  1.00  0.00    -0.233 N 
ATOM     17  H32 UNL     1       3.197   2.717   0.731  1.00  0.00     0.174 HD
ATOM     18  H31 UNL     1       4.453   1.696   0.617  1.00  0.00     0.174 HD
ENDBRANCH   4  16
TORSDOF 4
