REMARK  1 active torsions:
REMARK  status: ('A' for Active; 'I' for Inactive)
REMARK    1  A    between atoms: N1_2  and  C2_4 
ROOT
HETATM    1  C2  UNL     1       0.204  -0.059   0.032  1.00  0.00     0.150 A 
HETATM    2  N2  UNL     1       0.104  -1.344   0.406  1.00  0.00    -0.241 N 
ATOM      3  H2  UNL     1       0.896  -1.955   0.605  1.00  0.00     0.196 HD
HETATM    4  O1  UNL     1      -1.144  -1.701   0.479  1.00  0.00    -0.216 OA
HETATM    5  C3  UNL     1      -1.933  -0.717   0.170  1.00  0.00     0.192 A 
HETATM    6  N3  UNL     1      -3.217  -0.654   0.119  1.00  0.00    -0.377 N 
ATOM      7  H31 UNL     1      -3.837   0.119  -0.124  1.00  0.00     0.158 HD
ATOM      8  H32 UNL     1      -3.827  -1.443   0.335  1.00  0.00     0.158 HD
HETATM    9  C4  UNL     1      -1.102   0.358  -0.124  1.00  0.00     0.144 A 
HETATM   10  N4  UNL     1      -1.452   1.675  -0.520  1.00  0.00    -0.094 NA
ENDROOT
BRANCH   1  11
HETATM   11  N1  UNL     1       1.430   0.632  -0.140  1.00  0.00    -0.378 N 
HETATM   12  C1  UNL     1       2.695   0.006   0.076  1.00  0.00     0.148 C 
ATOM     13  H1  UNL     1       1.408   1.610  -0.428  1.00  0.00     0.160 HD
ENDBRANCH   1  11
TORSDOF 1
