REMARK  2 active torsions:
REMARK  status: ('A' for Active; 'I' for Inactive)
REMARK    1  A    between atoms: C2_2  and  C3_4 
REMARK    2  A    between atoms: C4_7  and  N3_8 
ROOT
HETATM    1  C3  UNL     1       0.025  -0.055   0.181  1.00  0.00     0.208 A 
HETATM    2  N2  UNL     1       0.701   0.379  -0.914  1.00  0.00    -0.165 N 
ATOM      3  H2  UNL     1       0.266   0.637  -1.800  1.00  0.00     0.186 HD
HETATM    4  C4  UNL     1       2.020   0.422  -0.669  1.00  0.00     0.698 A 
HETATM    5  N4  UNL     1       2.143   0.004   0.603  1.00  0.00    -0.089 N 
ATOM      6  H4  UNL     1       3.022  -0.085   1.114  1.00  0.00     0.213 HD
HETATM    7  O1  UNL     1       0.964  -0.269   1.079  1.00  0.00    -0.203 OA
ENDROOT
BRANCH   1   8
HETATM    8  C2  UNL     1      -1.418  -0.243   0.331  1.00  0.00     0.090 C 
HETATM    9  C1  UNL     1      -1.866  -0.673   1.478  1.00  0.00     0.044 C 
HETATM   10  N1  UNL     1      -2.238   0.055  -0.786  1.00  0.00    -0.099 NA
ENDBRANCH   1   8
BRANCH   4  11
HETATM   11  N3  UNL     1       2.992   0.774  -1.439  1.00  0.00    -0.233 N 
ATOM     12  H32 UNL     1       2.899   1.091  -2.404  1.00  0.00     0.174 HD
ATOM     13  H31 UNL     1       3.994   0.807  -1.253  1.00  0.00     0.174 HD
ENDBRANCH   4  11
TORSDOF 2
