REMARK  1 active torsions:
REMARK  status: ('A' for Active; 'I' for Inactive)
REMARK    1  A    between atoms: N1_2  and  C2_4 
ROOT
HETATM    1  C2  UNL     1      -0.571   0.354  -0.141  1.00  0.00     0.248 A 
HETATM    2  N2  UNL     1       0.530  -0.218  -0.874  1.00  0.00    -0.337 N 
ATOM      3  H2  UNL     1       0.415  -0.724  -1.752  1.00  0.00     0.164 HD
HETATM    4  C3  UNL     1       1.663  -0.029  -0.317  1.00  0.00     0.191 A 
HETATM    5  N3  UNL     1       2.923  -0.475  -0.806  1.00  0.00    -0.063 NA
HETATM    6  N4  UNL     1       1.475   0.698   0.908  1.00  0.00    -0.317 N 
ATOM      7  H4  UNL     1       2.205   0.990   1.558  1.00  0.00     0.170 HD
HETATM    8  C4  UNL     1       0.088   0.933   1.043  1.00  0.00     0.120 A 
HETATM    9  N5  UNL     1      -0.463   1.552   2.058  1.00  0.00    -0.386 N 
ATOM     10  H51 UNL     1      -0.007   1.953   2.878  1.00  0.00     0.157 HD
ATOM     11  H52 UNL     1      -1.464   1.722   2.155  1.00  0.00     0.157 HD
ENDROOT
BRANCH   1  12
HETATM   12  N1  UNL     1      -1.545  -0.645   0.159  1.00  0.00    -0.400 N 
HETATM   13  C1  UNL     1      -2.563  -0.816  -0.837  1.00  0.00     0.142 C 
ATOM     14  H1  UNL     1      -1.519  -1.196   1.017  1.00  0.00     0.155 HD
ENDBRANCH   1  12
TORSDOF 1
