REMARK  10 active torsions:
REMARK  status: ('A' for Active; 'I' for Inactive)
REMARK    1  A    between atoms: C2_2  and  C3_3 
REMARK    2  A    between atoms: C3_3  and  C4_4 
REMARK    3  A    between atoms: C4_4  and  C5_5 
REMARK    4  A    between atoms: C5_5  and  C6_6 
REMARK    5  A    between atoms: C6_6  and  C7_7 
REMARK    6  A    between atoms: C7_7  and  C8_8 
REMARK    7  A    between atoms: C8_8  and  N1_9 
REMARK       I    between atoms: C9_11  and  N2_12 
REMARK       I    between atoms: C9_11  and  N7_31 
REMARK       I    between atoms: N3_15  and  C12_16 
REMARK    8  A    between atoms: C12_16  and  C13_18 
REMARK    9  A    between atoms: C13_18  and  C14_19 
REMARK   10  A    between atoms: C16_23  and  N5_24 
ROOT
HETATM    1  N1  UNL     1       0.579   0.698  -1.387  1.00  0.00    -0.226 N 
ATOM      2  H1  UNL     1      -0.058  -0.095  -1.314  1.00  0.00     0.177 HD
HETATM    3  C9  UNL     1       0.137   1.596  -0.693  1.00  0.00     0.682 C 
HETATM    4  N2  UNL     1      -1.132   1.240  -0.001  1.00  0.00    -0.214 N 
HETATM    5  C10 UNL     1      -2.380   1.719  -0.516  1.00  0.00     0.161 C 
HETATM    6  C11 UNL     1      -3.506   1.484   0.500  1.00  0.00     0.146 C 
HETATM    7  N3  UNL     1      -3.469   0.074   0.838  1.00  0.00    -0.349 N 
HETATM    8  C12 UNL     1      -4.615  -0.761   0.716  1.00  0.00     0.225 C 
HETATM    9  O1  UNL     1      -5.723  -0.330   0.306  1.00  0.00    -0.273 OA
HETATM   10  C17 UNL     1      -2.236  -0.493   1.319  1.00  0.00     0.146 C 
HETATM   11  C18 UNL     1      -1.049   0.413   1.173  1.00  0.00     0.161 C 
HETATM   12  N7  UNL     1       0.624   2.894  -0.460  1.00  0.00    -0.124 N 
HETATM   13  C19 UNL     1      -0.033   3.837   0.469  1.00  0.00     0.387 C 
HETATM   14  N8  UNL     1       1.049   4.625   1.013  1.00  0.00    -0.050 N 
HETATM   15  C20 UNL     1       1.577   4.030   2.231  1.00  0.00     0.274 C 
HETATM   16  C21 UNL     1       0.636   5.970   1.333  1.00  0.00     0.274 C 
HETATM   17  C22 UNL     1       2.101   4.672   0.054  1.00  0.00     0.341 C 
HETATM   18  C23 UNL     1       1.719   3.606  -0.935  1.00  0.00     0.266 C 
HETATM   19  O2  UNL     1       2.342   3.457  -1.986  1.00  0.00    -0.271 OA
ENDROOT
BRANCH   1  20
HETATM   20  C8  UNL     1       1.595   0.342  -2.223  1.00  0.00     0.138 C 
BRANCH  20  21
HETATM   21  C7  UNL     1       2.905  -0.035  -1.510  1.00  0.00     0.020 C 
BRANCH  21  22
HETATM   22  C6  UNL     1       2.607  -1.216  -0.624  1.00  0.00     0.002 C 
BRANCH  22  23
HETATM   23  C5  UNL     1       3.831  -1.637   0.123  1.00  0.00     0.000 C 
BRANCH  23  24
HETATM   24  C4  UNL     1       4.937  -2.017  -0.799  1.00  0.00     0.000 C 
BRANCH  24  25
HETATM   25  C3  UNL     1       4.504  -3.154  -1.683  1.00  0.00    -0.000 C 
BRANCH  25  26
HETATM   26  C2  UNL     1       5.628  -3.573  -2.619  1.00  0.00    -0.005 C 
HETATM   27  C1  UNL     1       6.796  -4.019  -1.787  1.00  0.00     0.005 C 
ENDBRANCH  25  26
ENDBRANCH  24  25
ENDBRANCH  23  24
ENDBRANCH  22  23
ENDBRANCH  21  22
ENDBRANCH  20  21
ENDBRANCH   1  20
BRANCH   8  28
HETATM   28  C13 UNL     1      -4.504  -2.184   1.083  1.00  0.00     0.162 C 
BRANCH  28  29
HETATM   29  C14 UNL     1      -5.786  -2.865   0.892  1.00  0.00     0.051 A 
HETATM   30  C15 UNL     1      -6.240  -3.523  -0.237  1.00  0.00     0.132 A 
HETATM   31  N4  UNL     1      -7.457  -3.999   0.018  1.00  0.00    -0.200 N 
HETATM   32  C16 UNL     1      -7.756  -3.647   1.280  1.00  0.00     0.675 A 
ATOM     33  H4  UNL     1      -8.049  -4.529  -0.622  1.00  0.00     0.183 HD
HETATM   34  N6  UNL     1      -6.748  -2.956   1.825  1.00  0.00    -0.194 N 
ATOM     35  H6  UNL     1      -6.716  -2.572   2.769  1.00  0.00     0.184 HD
BRANCH  32  36
HETATM   36  N5  UNL     1      -8.851  -3.922   1.907  1.00  0.00    -0.234 N 
ATOM     37  H52 UNL     1      -9.619  -4.449   1.492  1.00  0.00     0.174 HD
ATOM     38  H51 UNL     1      -9.078  -3.655   2.865  1.00  0.00     0.174 HD
ENDBRANCH  32  36
ENDBRANCH  28  29
ENDBRANCH   8  28
TORSDOF 10
