REMARK  11 active torsions:
REMARK  status: ('A' for Active; 'I' for Inactive)
REMARK    1  A    between atoms: C2_2  and  C3_3 
REMARK    2  A    between atoms: C3_3  and  N1_4 
REMARK    3  A    between atoms: N1_4  and  C4_5 
REMARK    4  A    between atoms: C4_5  and  C5_6 
REMARK       I    between atoms: C5_6  and  N2_8 
REMARK    5  A    between atoms: C8_11  and  C9_12 
REMARK       I    between atoms: C9_12  and  N3_14 
REMARK    6  A    between atoms: N3_14  and  C10_16 
REMARK    7  A    between atoms: C10_16  and  C11_17 
REMARK    8  A    between atoms: C11_17  and  C14_20 
REMARK    9  A    between atoms: C14_20  and  N4_21 
REMARK   10  A    between atoms: N4_21  and  C15_23 
REMARK   11  A    between atoms: C16_28  and  N7_29 
ROOT
HETATM    1  C9  UNL     1       1.145   0.955  -2.928  1.00  0.00     0.221 C 
HETATM    2  O2  UNL     1       0.830   2.071  -3.389  1.00  0.00    -0.273 OA
HETATM    3  N3  UNL     1       2.469   0.697  -2.512  1.00  0.00    -0.360 N 
ATOM      4  H3  UNL     1       2.714  -0.219  -2.137  1.00  0.00     0.162 HD
ENDROOT
BRANCH   3   5
HETATM    5  C10 UNL     1       3.472   1.717  -2.614  1.00  0.00     0.133 C 
BRANCH   5   6
HETATM    6  C11 UNL     1       4.816   1.254  -2.124  1.00  0.00    -0.015 C 
HETATM    7  C12 UNL     1       5.785   2.425  -2.285  1.00  0.00     0.018 C 
HETATM    8  C13 UNL     1       5.357   0.108  -2.921  1.00  0.00     0.018 C 
BRANCH   6   9
HETATM    9  C14 UNL     1       4.783   0.945  -0.636  1.00  0.00     0.148 C 
BRANCH   9  10
HETATM   10  N4  UNL     1       6.105   0.509  -0.244  1.00  0.00    -0.224 N 
ATOM     11  H4  UNL     1       6.866   0.566  -0.921  1.00  0.00     0.177 HD
BRANCH  10  12
HETATM   12  C15 UNL     1       6.351   0.049   0.940  1.00  0.00     0.707 A 
HETATM   13  N5  UNL     1       7.596  -0.361   1.306  1.00  0.00    -0.117 N 
HETATM   14  N6  UNL     1       7.529  -0.774   2.561  1.00  0.00    -0.117 N 
ATOM     15  H5  UNL     1       8.430  -0.352   0.719  1.00  0.00     0.206 HD
HETATM   16  C16 UNL     1       6.261  -0.635   3.005  1.00  0.00     0.707 A 
ATOM     17  H6  UNL     1       8.310  -1.139   3.106  1.00  0.00     0.206 HD
HETATM   18  N8  UNL     1       5.549  -0.125   1.989  1.00  0.00    -0.020 N 
ATOM     19  H8  UNL     1       4.553   0.094   2.016  1.00  0.00     0.203 HD
BRANCH  16  20
HETATM   20  N7  UNL     1       5.842  -0.942   4.185  1.00  0.00    -0.229 N 
HETATM   21  C17 UNL     1       6.746  -1.486   5.170  1.00  0.00     0.165 C 
ATOM     22  H7  UNL     1       4.861  -0.799   4.425  1.00  0.00     0.177 HD
ENDBRANCH  16  20
ENDBRANCH  10  12
ENDBRANCH   9  10
ENDBRANCH   6   9
ENDBRANCH   5   6
ENDBRANCH   3   5
BRANCH   1  23
HETATM   23  C8  UNL     1       0.118  -0.110  -2.817  1.00  0.00     0.081 C 
HETATM   24  C7  UNL     1      -1.213   0.362  -3.335  1.00  0.00     0.034 C 
HETATM   25  C6  UNL     1      -1.854   1.197  -2.263  1.00  0.00     0.126 C 
HETATM   26  N2  UNL     1      -2.116   0.306  -1.149  1.00  0.00    -0.351 N 
HETATM   27  C5  UNL     1      -3.427   0.275  -0.612  1.00  0.00     0.245 C 
HETATM   28  C19 UNL     1      -1.072  -0.523  -0.608  1.00  0.00     0.126 C 
HETATM   29  O1  UNL     1      -4.281   1.032  -1.153  1.00  0.00    -0.272 OA
HETATM   30  C18 UNL     1       0.090  -0.758  -1.482  1.00  0.00     0.034 C 
BRANCH  27  31
HETATM   31  C4  UNL     1      -3.698  -0.617   0.512  1.00  0.00     0.339 C 
BRANCH  31  32
HETATM   32  N1  UNL     1      -5.097  -0.571   0.991  1.00  0.00    -0.059 N 
HETATM   33  C20 UNL     1      -5.444   0.740   1.362  1.00  0.00     0.238 C 
HETATM   34  C21 UNL     1      -5.668   0.794   2.865  1.00  0.00     0.029 C 
HETATM   35  C22 UNL     1      -5.835  -0.655   3.263  1.00  0.00     0.029 C 
HETATM   36  C23 UNL     1      -5.052  -1.387   2.204  1.00  0.00     0.238 C 
BRANCH  32  37
HETATM   37  C3  UNL     1      -5.853  -1.279   0.035  1.00  0.00     0.237 C 
BRANCH  37  38
HETATM   38  C2  UNL     1      -7.263  -1.615   0.281  1.00  0.00     0.023 C 
HETATM   39  C1  UNL     1      -8.215  -0.462   0.429  1.00  0.00     0.007 C 
ENDBRANCH  37  38
ENDBRANCH  32  37
ENDBRANCH  31  32
ENDBRANCH  27  31
ENDBRANCH   1  23
TORSDOF 11
