REMARK  9 active torsions:
REMARK  status: ('A' for Active; 'I' for Inactive)
REMARK    1  A    between atoms: C1_2  and  C2_4 
REMARK    2  A    between atoms: C2_4  and  C3_5 
REMARK    3  A    between atoms: C3_5  and  C4_6 
REMARK    4  A    between atoms: C4_6  and  C5_7 
REMARK    5  A    between atoms: C5_7  and  C6_8 
REMARK       I    between atoms: C6_8  and  N2_10 
REMARK    6  A    between atoms: C7_11  and  C8_12 
REMARK       I    between atoms: C8_12  and  N3_14 
REMARK    7  A    between atoms: C10_19  and  C11_20 
REMARK       I    between atoms: C11_20  and  N6_22 
REMARK    8  A    between atoms: N6_22  and  C12_23 
REMARK    9  A    between atoms: C12_23  and  C13_24 
ROOT
HETATM    1  C6  UNL     1       3.192  -0.448  -0.406  1.00  0.00     0.221 C 
HETATM    2  O2  UNL     1       4.009  -0.251  -1.375  1.00  0.00    -0.273 OA
HETATM    3  N2  UNL     1       1.831  -0.267  -0.673  1.00  0.00    -0.332 N 
HETATM    4  C7  UNL     1       0.809  -0.603   0.309  1.00  0.00     0.194 C 
HETATM    5  C10 UNL     1      -0.488   0.031   0.048  1.00  0.00     0.130 C 
HETATM    6  C19 UNL     1      -0.539   0.716  -1.336  1.00  0.00     0.015 C 
HETATM    7  C20 UNL     1       0.114  -0.231  -2.362  1.00  0.00     0.032 C 
HETATM    8  C21 UNL     1       1.406   0.375  -1.930  1.00  0.00     0.097 C 
HETATM    9  C22 UNL     1       0.613   1.582  -1.497  1.00  0.00    -0.015 A 
HETATM   10  C23 UNL     1       0.651   2.901  -2.096  1.00  0.00     0.013 A 
HETATM   11  C24 UNL     1       1.087   2.634  -0.637  1.00  0.00     0.013 A 
ENDROOT
BRANCH   5  12
HETATM   12  C11 UNL     1      -1.731  -0.805   0.109  1.00  0.00     0.298 C 
HETATM   13  O4  UNL     1      -1.612  -1.974  -0.334  1.00  0.00    -0.257 OA
HETATM   14  N6  UNL     1      -2.901  -0.284   0.614  1.00  0.00    -0.387 NA
BRANCH  14  15
HETATM   15  C12 UNL     1      -4.055   0.230   1.112  1.00  0.00     0.163 C 
BRANCH  15  16
HETATM   16  C13 UNL     1      -5.265   0.291   0.163  1.00  0.00     0.038 C 
HETATM   17  C14 UNL     1      -6.389   0.894   0.991  1.00  0.00     0.011 C 
HETATM   18  C15 UNL     1      -7.434   1.440   0.031  1.00  0.00     0.001 C 
HETATM   19  C16 UNL     1      -6.888   2.697  -0.579  1.00  0.00     0.000 C 
HETATM   20  C17 UNL     1      -5.366   2.639  -0.681  1.00  0.00     0.001 C 
HETATM   21  C18 UNL     1      -4.940   1.197  -0.983  1.00  0.00     0.011 C 
ENDBRANCH  15  16
ENDBRANCH  14  15
ENDBRANCH   5  12
BRANCH   4  22
HETATM   22  C8  UNL     1       0.714  -2.046   0.592  1.00  0.00     0.247 C 
HETATM   23  O3  UNL     1       0.098  -2.342   1.679  1.00  0.00    -0.271 OA
HETATM   24  N3  UNL     1       1.252  -3.042  -0.251  1.00  0.00    -0.302 N 
HETATM   25  C9  UNL     1       1.048  -4.285  -0.095  1.00  0.00     0.203 C 
ATOM     26  H3  UNL     1       1.839  -2.746  -1.031  1.00  0.00     0.171 HD
HETATM   27  N4  UNL     1       1.637  -5.240  -1.003  1.00  0.00    -0.066 NA
HETATM   28  N5  UNL     1       0.239  -4.884   0.919  1.00  0.00    -0.066 NA
ENDBRANCH   4  22
BRANCH   1  29
HETATM   29  C5  UNL     1       3.772  -0.828   0.875  1.00  0.00     0.103 C 
BRANCH  29  30
HETATM   30  C4  UNL     1       5.131  -1.436   0.835  1.00  0.00     0.010 C 
BRANCH  30  31
HETATM   31  C3  UNL     1       6.243  -0.638   0.278  1.00  0.00     0.009 C 
BRANCH  31  32
HETATM   32  C2  UNL     1       6.520   0.677   0.916  1.00  0.00     0.099 C 
BRANCH  32  33
HETATM   33  C1  UNL     1       6.869   0.587   2.338  1.00  0.00     0.231 C 
HETATM   34  N1  UNL     1       7.088   1.834   3.038  1.00  0.00    -0.062 NA
HETATM   35  O1  UNL     1       7.000  -0.438   3.029  1.00  0.00    -0.277 OA
ENDBRANCH  32  33
ENDBRANCH  31  32
ENDBRANCH  30  31
ENDBRANCH  29  30
ENDBRANCH   1  29
TORSDOF 9
