REMARK  6 active torsions:
REMARK  status: ('A' for Active; 'I' for Inactive)
REMARK    1  A    between atoms: C2_2  and  N1_3 
REMARK    2  A    between atoms: N1_3  and  C3_6 
REMARK    3  A    between atoms: C3_6  and  C4_7 
REMARK    4  A    between atoms: C4_7  and  O1_8 
REMARK    5  A    between atoms: O1_8  and  C5_9 
REMARK    6  A    between atoms: C7_13  and  O2_14 
ROOT
HETATM    1  C5  UNL     1       1.318  -1.233   0.668  1.00  0.00     0.088 A 
HETATM    2  C6  UNL     1       2.053  -2.032   1.513  1.00  0.00     0.127 A 
HETATM    3  N2  UNL     1       3.355  -1.621   1.486  1.00  0.00    -0.344 N 
ATOM      4  H2  UNL     1       4.112  -2.044   2.023  1.00  0.00     0.167 HD
HETATM    5  C7  UNL     1       3.493  -0.589   0.659  1.00  0.00     0.144 A 
HETATM    6  C9  UNL     1       2.229  -0.339   0.142  1.00  0.00     0.094 A 
ENDROOT
BRANCH   1   7
HETATM    7  O1  UNL     1      -0.069  -1.299   0.390  1.00  0.00    -0.348 OA
BRANCH   7   8
HETATM    8  C4  UNL     1      -0.533  -0.344  -0.511  1.00  0.00     0.203 C 
BRANCH   8   9
HETATM    9  C3  UNL     1      -1.980  -0.327  -0.804  1.00  0.00     0.258 C 
BRANCH   9  10
HETATM   10  N1  UNL     1      -2.801  -0.107   0.348  1.00  0.00    -0.073 N 
ATOM     11  H12 UNL     1      -2.430   0.655   0.916  1.00  0.00     0.277 HD
ATOM     12  H11 UNL     1      -2.705  -0.875   1.012  1.00  0.00     0.277 HD
BRANCH  10  13
HETATM   13  C2  UNL     1      -4.172   0.119   0.033  1.00  0.00     0.228 C 
HETATM   14  C1  UNL     1      -4.316   1.495  -0.593  1.00  0.00     0.034 C 
ENDBRANCH  10  13
ENDBRANCH   9  10
ENDBRANCH   8   9
ENDBRANCH   7   8
ENDBRANCH   1   7
BRANCH   5  15
HETATM   15  O2  UNL     1       4.576   0.168   0.293  1.00  0.00    -0.341 OA
HETATM   16  C8  UNL     1       4.568   1.239  -0.593  1.00  0.00     0.211 C 
ENDBRANCH   5  15
TORSDOF 6
