REMARK  6 active torsions:
REMARK  status: ('A' for Active; 'I' for Inactive)
REMARK    1  A    between atoms: C2_2  and  C3_3 
REMARK    2  A    between atoms: C3_3  and  N1_4 
REMARK    3  A    between atoms: N1_4  and  C4_6 
REMARK    4  A    between atoms: C4_6  and  C5_7 
REMARK    5  A    between atoms: C5_7  and  N2_8 
REMARK    6  A    between atoms: N2_8  and  C6_10 
ROOT
HETATM    1  N2  UNL     1      -0.863   0.012   0.796  1.00  0.00    -0.412 N 
ATOM      2  H2  UNL     1      -0.698  -0.096   1.797  1.00  0.00     0.153 HD
ENDROOT
BRANCH   1   3
HETATM    3  C5  UNL     1       0.274   0.161  -0.043  1.00  0.00     0.158 C 
BRANCH   3   4
HETATM    4  C4  UNL     1       1.486   0.406   0.883  1.00  0.00     0.074 C 
BRANCH   4   5
HETATM    5  N1  UNL     1       2.719   0.588   0.274  1.00  0.00    -0.401 N 
ATOM      6  H1  UNL     1       3.165   1.505   0.279  1.00  0.00     0.158 HD
BRANCH   5   7
HETATM    7  C3  UNL     1       3.350  -0.508  -0.352  1.00  0.00     0.118 C 
BRANCH   7   8
HETATM    8  C2  UNL     1       4.807  -0.138  -0.694  1.00  0.00     0.015 C 
HETATM    9  C1  UNL     1       5.444   0.191   0.651  1.00  0.00     0.006 C 
ENDBRANCH   7   8
ENDBRANCH   5   7
ENDBRANCH   4   5
ENDBRANCH   3   4
ENDBRANCH   1   3
BRANCH   1  10
HETATM   10  C6  UNL     1      -2.154   0.002   0.369  1.00  0.00     0.086 C 
HETATM   11  C7  UNL     1      -2.698   1.244  -0.305  1.00  0.00     0.069 C 
HETATM   12  C8  UNL     1      -4.185   1.230   0.010  1.00  0.00     0.062 C 
HETATM   13  N3  UNL     1      -4.833   0.021  -0.262  1.00  0.00    -0.382 N 
HETATM   14  C9  UNL     1      -4.123  -1.135  -0.635  1.00  0.00     0.062 C 
ATOM     15  H3  UNL     1      -5.849  -0.024  -0.188  1.00  0.00     0.163 HD
HETATM   16  C10 UNL     1      -2.629  -1.115  -0.525  1.00  0.00     0.069 C 
ENDBRANCH   1  10
TORSDOF 6
