REMARK  8 active torsions:
REMARK  status: ('A' for Active; 'I' for Inactive)
REMARK    1  A    between atoms: C2_2  and  C4_4 
REMARK    2  A    between atoms: C4_4  and  O1_5 
REMARK    3  A    between atoms: O1_5  and  C5_6 
REMARK    4  A    between atoms: C5_6  and  C6_8 
REMARK    5  A    between atoms: C10_18  and  O5_19 
REMARK    6  A    between atoms: O5_19  and  C11_20 
REMARK    7  A    between atoms: C11_20  and  C12_22 
REMARK    8  A    between atoms: C24_34  and  O7_35 
ROOT
HETATM    1  C6  UNL     1       3.636  -0.568  -1.471  1.00  0.00     0.163 C 
HETATM    2  C7  UNL     1       3.491  -1.975  -1.897  1.00  0.00     0.022 C 
HETATM    3  N1  UNL     1       4.434  -2.377  -2.662  1.00  0.00    -0.403 N 
ATOM      4  H11 UNL     1       4.334  -3.349  -2.956  1.00  0.00     0.155 HD
ATOM      5  H12 UNL     1       5.146  -1.677  -2.868  1.00  0.00     0.155 HD
HETATM    6  C8  UNL     1       2.447  -3.001  -1.595  1.00  0.00     0.254 C 
HETATM    7  O3  UNL     1       2.067  -2.884  -0.278  1.00  0.00    -0.269 OA
HETATM    8  N2  UNL     1       1.237  -1.839  -0.065  1.00  0.00    -0.216 N 
HETATM    9  C9  UNL     1      -0.168  -1.978   0.082  1.00  0.00     0.273 C 
HETATM   10  O4  UNL     1      -0.850  -2.987  -0.194  1.00  0.00    -0.268 OA
HETATM   11  C10 UNL     1      -0.671  -0.718   0.619  1.00  0.00     0.228 C 
HETATM   12  C22 UNL     1       0.320   0.298   0.184  1.00  0.00     0.073 C 
HETATM   13  C23 UNL     1       1.624  -0.460   0.047  1.00  0.00     0.151 C 
HETATM   14  C24 UNL     1       2.324   0.087  -1.151  1.00  0.00     0.162 C 
ENDROOT
BRANCH  11  15
HETATM   15  O5  UNL     1      -1.996  -0.425   0.243  1.00  0.00    -0.306 OA
BRANCH  15  16
HETATM   16  C11 UNL     1      -3.010  -0.271   1.176  1.00  0.00     0.268 C 
HETATM   17  O6  UNL     1      -2.693  -0.406   2.385  1.00  0.00    -0.264 OA
BRANCH  16  18
HETATM   18  C12 UNL     1      -4.373   0.037   0.690  1.00  0.00     0.049 C 
HETATM   19  C13 UNL     1      -4.902  -1.043  -0.229  1.00  0.00     0.024 C 
HETATM   20  C14 UNL     1      -6.262  -0.613  -0.697  1.00  0.00    -0.013 C 
HETATM   21  C15 UNL     1      -7.229  -0.485   0.484  1.00  0.00     0.009 C 
HETATM   22  C19 UNL     1      -6.254   0.715  -1.398  1.00  0.00     0.009 C 
HETATM   23  C16 UNL     1      -6.679   0.529   1.434  1.00  0.00    -0.013 C 
HETATM   24  C17 UNL     1      -6.563   1.874   0.751  1.00  0.00     0.009 C 
HETATM   25  C21 UNL     1      -5.306   0.108   1.875  1.00  0.00     0.024 C 
HETATM   26  C18 UNL     1      -5.688   1.777  -0.455  1.00  0.00    -0.013 C 
HETATM   27  C20 UNL     1      -4.306   1.338  -0.067  1.00  0.00     0.024 C 
ENDBRANCH  16  18
ENDBRANCH  15  16
ENDBRANCH  11  15
BRANCH  14  28
HETATM   28  O7  UNL     1       2.557   1.444  -0.946  1.00  0.00    -0.392 OA
ATOM     29  H7  UNL     1       1.727   1.859  -0.743  1.00  0.00     0.210 HD
ENDBRANCH  14  28
BRANCH   1  30
HETATM   30  C5  UNL     1       4.637  -0.407  -0.388  1.00  0.00     0.271 C 
HETATM   31  O2  UNL     1       5.225  -1.429   0.035  1.00  0.00    -0.264 OA
BRANCH  30  32
HETATM   32  O1  UNL     1       4.955   0.806   0.180  1.00  0.00    -0.320 OA
BRANCH  32  33
HETATM   33  C4  UNL     1       5.890   1.033   1.203  1.00  0.00     0.182 C 
BRANCH  33  34
HETATM   34  C2  UNL     1       7.272   0.619   0.755  1.00  0.00     0.002 C 
HETATM   35  C1  UNL     1       7.692   1.411  -0.470  1.00  0.00     0.011 C 
HETATM   36  C3  UNL     1       8.275   0.994   1.854  1.00  0.00     0.011 C 
ENDBRANCH  33  34
ENDBRANCH  32  33
ENDBRANCH  30  32
ENDBRANCH   1  30
TORSDOF 8
