REMARK  8 active torsions:
REMARK  status: ('A' for Active; 'I' for Inactive)
REMARK    1  A    between atoms: C2_2  and  C3_3 
REMARK    2  A    between atoms: C3_3  and  C4_4 
REMARK    3  A    between atoms: C8_10  and  C9_11 
REMARK    4  A    between atoms: C11_13  and  C12_14 
REMARK    5  A    between atoms: C12_14  and  S1_15 
REMARK    6  A    between atoms: S1_15  and  C13_16 
REMARK    7  A    between atoms: C13_16  and  N2_20 
REMARK    8  A    between atoms: N2_20  and  N3_22 
ROOT
HETATM    1  C4  UNL     1      -3.448  -0.784  -0.335  1.00  0.00     0.042 C 
HETATM    2  C5  UNL     1      -2.702  -1.740   0.506  1.00  0.00    -0.013 C 
HETATM    3  C6  UNL     1      -1.481  -2.194   0.272  1.00  0.00     0.079 C 
HETATM    4  C7  UNL     1      -0.654  -1.825  -0.866  1.00  0.00     0.283 C 
HETATM    5  O1  UNL     1      -0.115  -2.758  -1.561  1.00  0.00    -0.260 OA
HETATM    6  O2  UNL     1      -0.393  -0.520  -1.270  1.00  0.00    -0.298 OA
HETATM    7  C8  UNL     1       0.039   0.508  -0.364  1.00  0.00     0.252 C 
HETATM    8  C16 UNL     1      -0.570   1.812  -0.733  1.00  0.00     0.252 C 
HETATM    9  O3  UNL     1      -0.696   2.063  -1.960  1.00  0.00    -0.270 OA
HETATM   10  N4  UNL     1      -1.010   2.775   0.196  1.00  0.00    -0.352 N 
ATOM     11  H4  UNL     1      -1.162   3.733  -0.120  1.00  0.00     0.163 HD
HETATM   12  C17 UNL     1      -1.257   2.444   1.608  1.00  0.00     0.104 C 
HETATM   13  C18 UNL     1      -1.551   3.698   2.401  1.00  0.00     0.034 C 
HETATM   14  C19 UNL     1      -2.444   1.518   1.752  1.00  0.00     0.193 C 
HETATM   15  O4  UNL     1      -2.993   1.356   0.491  1.00  0.00    -0.378 OA
HETATM   16  C20 UNL     1      -3.980   0.386   0.430  1.00  0.00     0.060 C 
HETATM   17  C21 UNL     1      -4.516   0.015   1.785  1.00  0.00     0.046 C 
HETATM   18  C22 UNL     1      -5.127   0.984  -0.361  1.00  0.00     0.046 C 
ENDROOT
BRANCH   7  19
HETATM   19  C9  UNL     1       1.523   0.597  -0.534  1.00  0.00    -0.049 C 
HETATM   20  C10 UNL     1       2.032   0.911  -1.907  1.00  0.00     0.046 C 
HETATM   21  C11 UNL     1       2.345   0.410   0.467  1.00  0.00    -0.011 C 
BRANCH  21  22
HETATM   22  C12 UNL     1       3.814   0.501   0.285  1.00  0.00     0.110 C 
BRANCH  22  23
HETATM   23  S1  UNL     1       4.656  -1.021   0.698  1.00  0.00    -0.089 SA
BRANCH  23  24
HETATM   24  C13 UNL     1       6.409  -0.814   0.450  1.00  0.00     0.156 C 
HETATM   25  N1  UNL     1       7.261  -1.757   0.670  1.00  0.00    -0.374 N 
HETATM   26  C14 UNL     1       6.882  -3.067   1.138  1.00  0.00     0.148 C 
ATOM     27  H1  UNL     1       8.249  -1.567   0.505  1.00  0.00     0.161 HD
BRANCH  24  28
HETATM   28  N2  UNL     1       6.913   0.432  -0.010  1.00  0.00    -0.282 N 
HETATM   29  C15 UNL     1       7.693   1.256   0.876  1.00  0.00     0.179 C 
BRANCH  28  30
HETATM   30  N3  UNL     1       6.663   0.881  -1.324  1.00  0.00    -0.341 N 
ATOM     31  H32 UNL     1       6.110   0.297  -1.952  1.00  0.00     0.177 HD
ATOM     32  H31 UNL     1       7.025   1.776  -1.654  1.00  0.00     0.177 HD
ENDBRANCH  28  30
ENDBRANCH  24  28
ENDBRANCH  23  24
ENDBRANCH  22  23
ENDBRANCH  21  22
ENDBRANCH   7  19
BRANCH   1  33
HETATM   33  C3  UNL     1      -4.649  -1.502  -0.964  1.00  0.00     0.011 C 
BRANCH  33  34
HETATM   34  C2  UNL     1      -4.143  -2.671  -1.822  1.00  0.00    -0.004 C 
HETATM   35  C1  UNL     1      -5.372  -3.328  -2.407  1.00  0.00     0.005 C 
ENDBRANCH  33  34
ENDBRANCH   1  33
TORSDOF 8
