REMARK  7 active torsions:
REMARK  status: ('A' for Active; 'I' for Inactive)
REMARK    1  A    between atoms: C4_4  and  O1_5 
REMARK    2  A    between atoms: C6_9  and  O3_10 
REMARK    3  A    between atoms: O3_10  and  C7_11 
REMARK    4  A    between atoms: C7_11  and  C8_12 
REMARK    5  A    between atoms: C8_12  and  N1_13 
REMARK    6  A    between atoms: N1_13  and  C10_15 
REMARK    7  A    between atoms: C18_23  and  O4_24 
ROOT
HETATM    1  C1  UNL     1      -6.227   2.616   1.215  1.00  0.00     0.010 C 
HETATM    2  C2  UNL     1      -5.400   1.856   0.203  1.00  0.00    -0.008 C 
HETATM    3  C3  UNL     1      -4.408   2.847  -0.458  1.00  0.00     0.048 C 
HETATM    4  C4  UNL     1      -3.138   2.508   0.261  1.00  0.00     0.124 A 
HETATM    5  C5  UNL     1      -2.102   1.583   0.096  1.00  0.00     0.203 A 
HETATM    6  O2  UNL     1      -1.434   1.115  -1.041  1.00  0.00    -0.349 OA
HETATM    7  C6  UNL     1      -0.649  -0.021  -0.775  1.00  0.00     0.272 C 
HETATM    8  C16 UNL     1      -1.318  -1.294  -0.604  1.00  0.00     0.048 C 
HETATM    9  C17 UNL     1      -0.965  -2.019   0.705  1.00  0.00     0.049 C 
HETATM   10  C18 UNL     1      -0.094  -3.013  -0.026  1.00  0.00     0.120 C 
HETATM   11  C19 UNL     1      -0.585  -2.416  -1.309  1.00  0.00     0.049 C 
HETATM   12  C20 UNL     1      -2.819  -1.358  -0.762  1.00  0.00     0.105 C 
HETATM   13  C21 UNL     1      -3.256  -2.661  -1.471  1.00  0.00     0.050 C 
HETATM   14  C22 UNL     1      -3.587  -1.403   0.514  1.00  0.00     0.042 C 
HETATM   15  C23 UNL     1      -4.924  -0.640   0.482  1.00  0.00     0.011 C 
HETATM   16  C24 UNL     1      -4.526   0.800   0.866  1.00  0.00     0.033 C 
HETATM   17  C25 UNL     1      -3.345   0.984   0.040  1.00  0.00     0.162 A 
HETATM   18  O5  UNL     1      -3.767   0.625  -1.274  1.00  0.00    -0.222 OA
HETATM   19  O6  UNL     1      -3.185  -0.422  -1.694  1.00  0.00    -0.228 OA
ENDROOT
BRANCH   7  20
HETATM   20  O3  UNL     1       0.116   0.352   0.316  1.00  0.00    -0.359 OA
BRANCH  20  21
HETATM   21  C7  UNL     1       1.378   0.780   0.087  1.00  0.00     0.190 C 
BRANCH  21  22
HETATM   22  C8  UNL     1       2.356  -0.136  -0.557  1.00  0.00     0.143 C 
BRANCH  22  23
HETATM   23  N1  UNL     1       3.604   0.518  -0.704  1.00  0.00    -0.410 N 
HETATM   24  C9  UNL     1       3.704   1.587  -1.608  1.00  0.00     0.143 C 
BRANCH  23  25
HETATM   25  C10 UNL     1       4.517   0.393   0.362  1.00  0.00     0.078 C 
HETATM   26  C11 UNL     1       5.012  -1.005   0.592  1.00  0.00     0.025 C 
HETATM   27  C12 UNL     1       6.503  -1.068   0.834  1.00  0.00     0.002 C 
HETATM   28  C13 UNL     1       7.270  -0.406  -0.282  1.00  0.00     0.000 C 
HETATM   29  C14 UNL     1       6.833   1.011  -0.448  1.00  0.00     0.002 C 
HETATM   30  C15 UNL     1       5.640   1.382   0.354  1.00  0.00     0.025 C 
ENDBRANCH  23  25
ENDBRANCH  22  23
ENDBRANCH  21  22
ENDBRANCH  20  21
ENDBRANCH   7  20
BRANCH   4  31
HETATM   31  O1  UNL     1      -3.330   2.973   1.601  1.00  0.00    -0.384 OA
ATOM     32  H1  UNL     1      -2.525   2.758   2.057  1.00  0.00     0.210 HD
ENDBRANCH   4  31
BRANCH  10  33
HETATM   33  O4  UNL     1      -0.438  -4.341   0.069  1.00  0.00    -0.396 OA
ATOM     34  H4  UNL     1       0.110  -4.966  -0.391  1.00  0.00     0.210 HD
ENDBRANCH  10  33
TORSDOF 7
