REMARK  7 active torsions:
REMARK  status: ('A' for Active; 'I' for Inactive)
REMARK    1  A    between atoms: C2_2  and  C3_3 
REMARK    2  A    between atoms: C19_22  and  O4_23 
REMARK    3  A    between atoms: C19_22  and  C20_25 
REMARK    4  A    between atoms: C20_25  and  O5_26 
REMARK    5  A    between atoms: O5_26  and  C21_27 
REMARK    6  A    between atoms: C21_27  and  C22_28 
REMARK    7  A    between atoms: C24_31  and  O7_32 
ROOT
HETATM    1  C3  UNL     1      -0.067   2.026  -2.580  1.00  0.00     0.178 C 
HETATM    2  O1  UNL     1      -1.002   1.053  -2.368  1.00  0.00    -0.371 OA
HETATM    3  C4  UNL     1      -1.437   1.135  -1.049  1.00  0.00     0.135 C 
HETATM    4  C5  UNL     1      -2.975   1.155  -1.129  1.00  0.00     0.042 C 
HETATM    5  C6  UNL     1      -3.408   0.353   0.034  1.00  0.00    -0.031 C 
HETATM    6  C7  UNL     1      -4.413   0.981   0.923  1.00  0.00     0.016 C 
HETATM    7  C8  UNL     1      -2.132  -0.061   0.789  1.00  0.00     0.025 C 
HETATM    8  C9  UNL     1      -1.135  -0.129  -0.284  1.00  0.00     0.028 C 
HETATM    9  C10 UNL     1      -1.507  -1.289  -1.218  1.00  0.00     0.094 C 
HETATM   10  C11 UNL     1      -2.938  -1.295  -1.595  1.00  0.00     0.132 C 
HETATM   11  O2  UNL     1      -3.290  -1.570  -2.726  1.00  0.00    -0.298 OA
HETATM   12  C12 UNL     1      -3.973  -0.952  -0.555  1.00  0.00     0.059 C 
HETATM   13  C13 UNL     1      -5.270  -0.607  -1.239  1.00  0.00     0.018 C 
HETATM   14  C14 UNL     1       0.293  -0.347   0.105  1.00  0.00     0.111 C 
HETATM   15  C15 UNL     1       0.251  -1.538   1.078  1.00  0.00     0.045 C 
HETATM   16  C16 UNL     1       1.138  -2.603   0.522  1.00  0.00     0.034 C 
HETATM   17  C17 UNL     1       1.311  -2.131  -0.894  1.00  0.00     0.118 C 
HETATM   18  C18 UNL     1       2.754  -2.485  -1.277  1.00  0.00     0.039 C 
HETATM   19  O3  UNL     1       0.976  -0.841  -0.996  1.00  0.00    -0.371 OA
HETATM   20  C19 UNL     1       1.057   0.818   0.621  1.00  0.00     0.159 C 
HETATM   21  C24 UNL     1       1.423   1.911  -0.337  1.00  0.00     0.091 C 
HETATM   22  C25 UNL     1       1.159   1.803  -1.749  1.00  0.00    -0.003 C 
HETATM   23  C26 UNL     1       2.148   1.461  -2.539  1.00  0.00     0.024 C 
ENDROOT
BRANCH  20  24
HETATM   24  O4  UNL     1       0.383   1.473   1.681  1.00  0.00    -0.378 OA
ATOM     25  H4  UNL     1       0.872   2.218   2.011  1.00  0.00     0.211 HD
ENDBRANCH  20  24
BRANCH  20  26
HETATM   26  C20 UNL     1       2.396   0.467   1.253  1.00  0.00     0.215 C 
BRANCH  26  27
HETATM   27  O5  UNL     1       2.352  -0.275   2.408  1.00  0.00    -0.385 OA
BRANCH  27  28
HETATM   28  C21 UNL     1       3.613  -0.553   2.914  1.00  0.00     0.201 C 
BRANCH  28  29
HETATM   29  C22 UNL     1       3.540  -1.366   4.175  1.00  0.00     0.169 A 
HETATM   30  C23 UNL     1       4.300  -2.641   4.177  1.00  0.00     0.202 A 
HETATM   31  O6  UNL     1       2.884  -2.648   4.008  1.00  0.00    -0.379 OA
ENDBRANCH  28  29
ENDBRANCH  27  28
ENDBRANCH  26  27
ENDBRANCH  20  26
BRANCH  21  32
HETATM   32  O7  UNL     1       2.717   2.424  -0.178  1.00  0.00    -0.361 OA
ATOM     33  H7  UNL     1       2.949   3.117  -0.785  1.00  0.00     0.217 HD
ENDBRANCH  21  32
BRANCH   1  34
HETATM   34  C2  UNL     1      -0.586   3.384  -2.290  1.00  0.00    -0.001 C 
HETATM   35  C1  UNL     1       0.216   4.403  -2.034  1.00  0.00     0.010 C 
ENDBRANCH   1  34
TORSDOF 7
