REMARK  7 active torsions:
REMARK  status: ('A' for Active; 'I' for Inactive)
REMARK    1  A    between atoms: O1_2  and  C2_3 
REMARK    2  A    between atoms: C5_8  and  C6_9 
REMARK    3  A    between atoms: C6_9  and  N2_11 
REMARK    4  A    between atoms: N2_11  and  C8_12 
REMARK    5  A    between atoms: N2_11  and  C21_29 
REMARK       I    between atoms: N3_18  and  C14_19 
REMARK    6  A    between atoms: C14_19  and  O3_21 
REMARK    7  A    between atoms: O3_21  and  C15_22 
ROOT
HETATM    1  C8  UNL     1      -1.090   0.544  -0.318  1.00  0.00     0.229 C 
HETATM    2  C9  UNL     1      -1.136   1.762  -1.160  1.00  0.00     0.042 C 
HETATM    3  C10 UNL     1       0.222   2.459  -1.188  1.00  0.00     0.008 C 
HETATM    4  C11 UNL     1       0.406   2.995   0.240  1.00  0.00     0.031 C 
HETATM    5  C12 UNL     1       0.759   1.724   0.923  1.00  0.00     0.091 C 
HETATM    6  C13 UNL     1      -0.325   0.673   0.947  1.00  0.00     0.061 C 
HETATM    7  N3  UNL     1       1.822   1.229   0.066  1.00  0.00    -0.323 N 
HETATM    8  C14 UNL     1       3.033   0.641   0.511  1.00  0.00     0.363 C 
HETATM    9  O2  UNL     1       3.259   0.519   1.736  1.00  0.00    -0.238 OA
HETATM   10  C20 UNL     1       1.368   1.479  -1.288  1.00  0.00     0.133 C 
ENDROOT
BRANCH   1  11
HETATM   11  N2  UNL     1      -2.405  -0.056  -0.028  1.00  0.00     0.134 N 
BRANCH  11  12
HETATM   12  C6  UNL     1      -3.233   0.627   0.827  1.00  0.00     0.259 C 
HETATM   13  C7  UNL     1      -3.482   2.057   0.990  1.00  0.00     0.048 C 
BRANCH  12  14
HETATM   14  C5  UNL     1      -4.659   0.238   0.252  1.00  0.00     0.027 A 
HETATM   15  C2  UNL     1      -5.000  -0.687  -0.663  1.00  0.00     0.150 A 
HETATM   16  N1  UNL     1      -6.367  -0.745  -0.728  1.00  0.00    -0.346 N 
HETATM   17  C3  UNL     1      -6.900   0.131   0.127  1.00  0.00     0.091 A 
ATOM     18  H1  UNL     1      -6.899  -1.365  -1.339  1.00  0.00     0.167 HD
HETATM   19  C4  UNL     1      -5.830   0.758   0.750  1.00  0.00     0.030 A 
BRANCH  15  20
HETATM   20  O1  UNL     1      -4.171  -1.476  -1.449  1.00  0.00    -0.340 OA
HETATM   21  C1  UNL     1      -4.698  -2.398  -2.360  1.00  0.00     0.211 C 
ENDBRANCH  15  20
ENDBRANCH  12  14
ENDBRANCH  11  12
BRANCH  11  22
HETATM   22  C21 UNL     1      -1.899  -1.295   0.695  1.00  0.00     0.446 A 
HETATM   23  C22 UNL     1      -2.644  -2.322   1.276  1.00  0.00     0.300 A 
HETATM   24  N4  UNL     1      -1.933  -1.328   2.119  1.00  0.00    -0.038 N 
ATOM     25  H42 UNL     1      -1.250  -1.352   2.876  1.00  0.00     0.279 HD
ATOM     26  H41 UNL     1      -2.178  -0.682   2.870  1.00  0.00     0.279 HD
ENDBRANCH  11  22
ENDBRANCH   1  11
BRANCH   8  27
HETATM   27  O3  UNL     1       4.031   0.172  -0.364  1.00  0.00    -0.296 OA
BRANCH  27  28
HETATM   28  C15 UNL     1       5.219  -0.400   0.196  1.00  0.00     0.157 C 
HETATM   29  C16 UNL     1       5.321  -1.870  -0.182  1.00  0.00     0.037 C 
HETATM   30  C17 UNL     1       6.730  -2.377  -0.012  1.00  0.00     0.029 C 
HETATM   31  C18 UNL     1       7.779  -1.375  -0.414  1.00  0.00     0.167 C 
HETATM   32  O4  UNL     1       7.155  -0.381  -1.185  1.00  0.00    -0.389 OA
HETATM   33  C19 UNL     1       6.421   0.390  -0.254  1.00  0.00     0.200 C 
ENDBRANCH  27  28
ENDBRANCH   8  27
TORSDOF 7
