REMARK  7 active torsions:
REMARK  status: ('A' for Active; 'I' for Inactive)
REMARK    1  A    between atoms: O1_2  and  C2_3 
REMARK    2  A    between atoms: C2_3  and  C3_5 
REMARK    3  A    between atoms: C3_5  and  O3_6 
REMARK    4  A    between atoms: C6_10  and  N1_11 
REMARK       I    between atoms: N1_11  and  C7_13 
REMARK    5  A    between atoms: C7_13  and  C8_15 
REMARK    6  A    between atoms: C8_15  and  C9_16 
REMARK    7  A    between atoms: C14_21  and  O5_22 
ROOT
HETATM    1  C9  UNL     1      -2.212  -0.774  -0.986  1.00  0.00    -0.009 A 
HETATM    2  C10 UNL     1      -2.599  -1.719  -0.058  1.00  0.00    -0.042 A 
HETATM    3  C11 UNL     1      -3.868  -1.665   0.521  1.00  0.00    -0.044 A 
HETATM    4  C12 UNL     1      -4.773  -0.679   0.193  1.00  0.00    -0.041 A 
HETATM    5  C13 UNL     1      -4.386   0.263  -0.731  1.00  0.00    -0.016 A 
HETATM    6  C14 UNL     1      -3.120   0.203  -1.304  1.00  0.00     0.082 A 
HETATM    7  C16 UNL     1      -5.516   1.208  -0.912  1.00  0.00     0.061 C 
HETATM    8  C17 UNL     1      -6.701   0.321  -0.599  1.00  0.00     0.101 C 
HETATM    9  C18 UNL     1      -7.877   1.104  -0.233  1.00  0.00     0.064 C 
HETATM   10  N2  UNL     1      -8.812   1.721   0.050  1.00  0.00    -0.197 NA
HETATM   11  C19 UNL     1      -6.172  -0.394   0.653  1.00  0.00     0.059 C 
HETATM   12  C20 UNL     1      -4.034  -2.791   1.486  1.00  0.00     0.040 C 
HETATM   13  C21 UNL     1      -2.579  -3.060   1.845  1.00  0.00     0.009 C 
HETATM   14  C22 UNL     1      -1.908  -2.894   0.509  1.00  0.00     0.040 C 
ENDROOT
BRANCH   6  15
HETATM   15  O5  UNL     1      -2.753   1.157  -2.229  1.00  0.00    -0.355 OA
HETATM   16  C15 UNL     1      -2.126   2.335  -1.747  1.00  0.00     0.210 C 
ENDBRANCH   6  15
BRANCH   1  17
HETATM   17  C8  UNL     1      -0.893  -0.771  -1.621  1.00  0.00     0.144 C 
BRANCH  17  18
HETATM   18  C7  UNL     1       0.186  -0.252  -0.758  1.00  0.00     0.222 C 
HETATM   19  N1  UNL     1       1.541  -0.164  -1.148  1.00  0.00    -0.356 N 
ATOM     20  H1  UNL     1       1.796  -0.479  -2.084  1.00  0.00     0.162 HD
HETATM   21  O4  UNL     1      -0.104   0.138   0.394  1.00  0.00    -0.273 OA
BRANCH  19  22
HETATM   22  C6  UNL     1       2.572   0.343  -0.300  1.00  0.00     0.084 C 
HETATM   23  C5  UNL     1       3.646  -0.704  -0.016  1.00  0.00     0.028 C 
HETATM   24  C4  UNL     1       4.331  -0.281   1.266  1.00  0.00     0.050 C 
HETATM   25  C3  UNL     1       4.776   1.146   1.104  1.00  0.00     0.145 C 
HETATM   26  C24 UNL     1       4.711   1.634  -0.322  1.00  0.00     0.050 C 
HETATM   27  C23 UNL     1       3.311   1.526  -0.891  1.00  0.00     0.028 C 
BRANCH  25  28
HETATM   28  C2  UNL     1       6.221   1.216   1.504  1.00  0.00     0.293 C 
HETATM   29  O2  UNL     1       6.593   1.926   2.484  1.00  0.00    -0.262 OA
BRANCH  28  30
HETATM   30  O1  UNL     1       7.198   0.513   0.823  1.00  0.00    -0.324 OA
HETATM   31  C1  UNL     1       8.570   0.604   1.233  1.00  0.00     0.213 C 
ENDBRANCH  28  30
ENDBRANCH  25  28
BRANCH  25  32
HETATM   32  O3  UNL     1       4.015   1.950   1.958  1.00  0.00    -0.380 OA
ATOM     33  H3  UNL     1       3.100   1.906   1.705  1.00  0.00     0.211 HD
ENDBRANCH  25  32
ENDBRANCH  19  22
ENDBRANCH  17  18
ENDBRANCH   1  17
TORSDOF 7
