REMARK  8 active torsions:
REMARK  status: ('A' for Active; 'I' for Inactive)
REMARK    1  A    between atoms: C6_6  and  O1_7 
REMARK    2  A    between atoms: O1_7  and  C7_8 
REMARK       I    between atoms: C7_8  and  N1_10 
REMARK    3  A    between atoms: N1_10  and  C8_12 
REMARK    4  A    between atoms: C8_12  and  C9_13 
REMARK    5  A    between atoms: C9_13  and  C10_14 
REMARK    6  A    between atoms: C10_14  and  C11_15 
REMARK       I    between atoms: C11_15  and  N2_17 
REMARK       I    between atoms: N3_20  and  C14_21 
REMARK    7  A    between atoms: C14_21  and  O5_23 
REMARK    8  A    between atoms: O5_23  and  C15_24 
ROOT
HETATM    1  C9  UNL     1      -0.923  -0.581  -1.007  1.00  0.00     0.029 C 
ENDROOT
BRANCH   1   2
HETATM    2  C8  UNL     1      -1.634  -0.003  -2.196  1.00  0.00     0.125 C 
BRANCH   2   3
HETATM    3  N1  UNL     1      -3.043  -0.250  -2.071  1.00  0.00    -0.337 N 
HETATM    4  C7  UNL     1      -3.771   0.283  -0.985  1.00  0.00     0.362 C 
HETATM    5  O2  UNL     1      -3.315   0.988  -0.069  1.00  0.00    -0.238 OA
ATOM      6  H1  UNL     1      -3.522  -0.815  -2.772  1.00  0.00     0.164 HD
BRANCH   4   7
HETATM    7  O1  UNL     1      -5.149   0.016  -0.889  1.00  0.00    -0.278 OA
BRANCH   7   8
HETATM    8  C6  UNL     1      -5.919   0.530   0.180  1.00  0.00     0.227 C 
HETATM    9  C5  UNL     1      -6.539  -0.523   1.010  1.00  0.00     0.054 C 
HETATM   10  C4  UNL     1      -7.832  -0.203   1.666  1.00  0.00     0.014 C 
HETATM   11  C2  UNL     1      -8.745   0.468   0.662  1.00  0.00    -0.032 C 
HETATM   12  C1  UNL     1      -8.909  -0.477  -0.504  1.00  0.00     0.016 C 
HETATM   13  C3  UNL     1     -10.082   0.826   1.216  1.00  0.00     0.016 C 
HETATM   14  C21 UNL     1      -8.030   1.741   0.259  1.00  0.00     0.125 C 
HETATM   15  N4  UNL     1      -6.819   1.478  -0.414  1.00  0.00    -0.396 N 
ATOM     16  H4  UNL     1      -6.591   1.945  -1.292  1.00  0.00     0.155 HD
ENDBRANCH   7   8
ENDBRANCH   4   7
ENDBRANCH   2   3
ENDBRANCH   1   2
BRANCH   1  17
HETATM   17  C10 UNL     1       0.575  -0.362  -1.077  1.00  0.00     0.104 C 
BRANCH  17  18
HETATM   18  C11 UNL     1       1.176  -0.969   0.135  1.00  0.00     0.219 C 
HETATM   19  O3  UNL     1       0.446  -1.536   1.003  1.00  0.00    -0.273 OA
HETATM   20  N2  UNL     1       2.588  -0.899   0.296  1.00  0.00    -0.349 N 
HETATM   21  C12 UNL     1       3.237  -1.486   1.478  1.00  0.00     0.145 C 
HETATM   22  C20 UNL     1       3.373  -0.246  -0.713  1.00  0.00     0.145 C 
HETATM   23  C13 UNL     1       4.441  -0.597   1.792  1.00  0.00     0.148 C 
HETATM   24  N3  UNL     1       5.299  -0.526   0.637  1.00  0.00    -0.325 N 
HETATM   25  C14 UNL     1       6.666  -0.196   0.782  1.00  0.00     0.363 C 
HETATM   26  C19 UNL     1       4.789  -0.789  -0.692  1.00  0.00     0.148 C 
HETATM   27  O4  UNL     1       7.117   0.031   1.921  1.00  0.00    -0.238 OA
BRANCH  25  28
HETATM   28  O5  UNL     1       7.539  -0.113  -0.297  1.00  0.00    -0.294 OA
BRANCH  28  29
HETATM   29  C15 UNL     1       8.893   0.209  -0.193  1.00  0.00     0.061 C 
HETATM   30  C16 UNL     1       9.681  -0.756   0.665  1.00  0.00     0.046 C 
HETATM   31  C17 UNL     1       9.490   0.154  -1.597  1.00  0.00     0.046 C 
HETATM   32  C18 UNL     1       9.113   1.632   0.294  1.00  0.00     0.046 C 
ENDBRANCH  28  29
ENDBRANCH  25  28
ENDBRANCH  17  18
ENDBRANCH   1  17
TORSDOF 8
