REMARK  9 active torsions:
REMARK  status: ('A' for Active; 'I' for Inactive)
REMARK       I    between atoms: C2_2  and  N1_4 
REMARK    1  A    between atoms: N1_4  and  C3_6 
REMARK    2  A    between atoms: C3_6  and  C4_7 
REMARK    3  A    between atoms: C3_6  and  C9_15 
REMARK    4  A    between atoms: C9_15  and  C10_16 
REMARK    5  A    between atoms: C9_15  and  N4_28 
REMARK    6  A    between atoms: C10_16  and  C11_18 
REMARK    7  A    between atoms: C11_18  and  N3_20 
REMARK       I    between atoms: N3_20  and  C13_22 
REMARK    8  A    between atoms: C13_22  and  C14_24 
REMARK    9  A    between atoms: C22_34  and  O4_35 
ROOT
HETATM    1  C9  UNL     1      -0.641  -0.061  -0.552  1.00  0.00     0.085 C 
ENDROOT
BRANCH   1   2
HETATM    2  C3  UNL     1      -1.694  -1.021  -0.787  1.00  0.00     0.142 C 
BRANCH   2   3
HETATM    3  N1  UNL     1      -2.779  -0.238  -1.450  1.00  0.00    -0.351 N 
HETATM    4  C2  UNL     1      -3.132  -0.387  -2.799  1.00  0.00     0.214 C 
HETATM    5  C1  UNL     1      -4.210   0.429  -3.380  1.00  0.00     0.117 C 
HETATM    6  O1  UNL     1      -2.513  -1.226  -3.501  1.00  0.00    -0.274 OA
ATOM      7  H1  UNL     1      -3.292   0.443  -0.890  1.00  0.00     0.163 HD
ENDBRANCH   2   3
BRANCH   2   8
HETATM    8  C4  UNL     1      -2.382  -1.940   0.085  1.00  0.00     0.018 C 
HETATM    9  C5  UNL     1      -3.304  -1.408   1.155  1.00  0.00     0.034 C 
HETATM   10  C6  UNL     1      -4.373  -2.478   1.460  1.00  0.00     0.232 C 
HETATM   11  N2  UNL     1      -3.624  -3.563   2.088  1.00  0.00    -0.075 N 
HETATM   12  C7  UNL     1      -2.686  -4.130   1.139  1.00  0.00     0.232 C 
ATOM     13  H22 UNL     1      -3.164  -3.263   2.948  1.00  0.00     0.277 HD
ATOM     14  H21 UNL     1      -4.239  -4.271   2.488  1.00  0.00     0.277 HD
HETATM   15  C8  UNL     1      -1.660  -3.116   0.681  1.00  0.00     0.034 C 
ENDBRANCH   2   8
ENDBRANCH   1   2
BRANCH   1  16
HETATM   16  C10 UNL     1       0.647  -0.517   0.061  1.00  0.00     0.196 C 
HETATM   17  O2  UNL     1       0.793  -0.349   1.251  1.00  0.00    -0.289 OA
BRANCH  16  18
HETATM   18  C11 UNL     1       1.776  -1.145  -0.650  1.00  0.00     0.156 C 
HETATM   19  C12 UNL     1       1.757  -2.622  -0.791  1.00  0.00     0.041 C 
BRANCH  18  20
HETATM   20  N3  UNL     1       3.042  -0.838   0.060  1.00  0.00    -0.349 N 
HETATM   21  C13 UNL     1       4.089  -0.111  -0.572  1.00  0.00     0.226 C 
HETATM   22  O3  UNL     1       3.867   0.247  -1.781  1.00  0.00    -0.273 OA
ATOM     23  H3  UNL     1       3.164  -1.155   1.022  1.00  0.00     0.163 HD
BRANCH  21  24
HETATM   24  C14 UNL     1       5.350   0.220   0.093  1.00  0.00     0.030 C 
HETATM   25  C15 UNL     1       6.278   0.894  -0.902  1.00  0.00     0.024 C 
HETATM   26  C16 UNL     1       6.062  -0.951   0.712  1.00  0.00     0.024 C 
HETATM   27  C17 UNL     1       5.150   1.254   1.207  1.00  0.00     0.024 C 
ENDBRANCH  21  24
ENDBRANCH  18  20
ENDBRANCH  16  18
ENDBRANCH   1  16
BRANCH   1  28
HETATM   28  N4  UNL     1      -0.990   1.236  -0.025  1.00  0.00    -0.325 N 
HETATM   29  C18 UNL     1      -1.495   1.466   1.218  1.00  0.00     0.110 C 
HETATM   30  C19 UNL     1      -1.011   2.733   1.920  1.00  0.00     0.102 C 
HETATM   31  N5  UNL     1      -0.646   3.789   1.061  1.00  0.00    -0.389 N 
HETATM   32  C20 UNL     1      -1.548   4.879   0.949  1.00  0.00     0.149 C 
HETATM   33  C21 UNL     1       0.108   3.438  -0.084  1.00  0.00     0.175 C 
HETATM   34  C22 UNL     1      -0.628   2.354  -0.833  1.00  0.00     0.242 C 
BRANCH  34  35
HETATM   35  O4  UNL     1      -1.690   2.904  -1.562  1.00  0.00    -0.375 OA
ATOM     36  H4  UNL     1      -1.449   3.649  -2.100  1.00  0.00     0.212 HD
ENDBRANCH  34  35
ENDBRANCH   1  28
TORSDOF 9
