REMARK  9 active torsions:
REMARK  status: ('A' for Active; 'I' for Inactive)
REMARK    1  A    between atoms: C3_3  and  C4_4 
REMARK    2  A    between atoms: C5_7  and  O1_8 
REMARK    3  A    between atoms: C6_10  and  C7_11 
REMARK    4  A    between atoms: C7_11  and  C8_12 
REMARK    5  A    between atoms: C13_22  and  O3_23 
REMARK    6  A    between atoms: C14_25  and  C15_26 
REMARK    7  A    between atoms: C15_26  and  C16_27 
REMARK    8  A    between atoms: C16_27  and  C17_28 
REMARK    9  A    between atoms: C19_32  and  O4_33 
ROOT
HETATM    1  C1  UNL     1      -5.165   3.898   0.265  1.00  0.00     0.012 C 
HETATM    2  C2  UNL     1      -3.965   3.826   0.360  1.00  0.00    -0.115 C 
HETATM    3  C3  UNL     1      -2.487   3.741   0.451  1.00  0.00     0.128 C 
ENDROOT
BRANCH   3   4
HETATM    4  C4  UNL     1      -2.206   2.270   0.836  1.00  0.00     0.194 C 
HETATM    5  N1  UNL     1      -2.710   1.395  -0.152  1.00  0.00    -0.358 N 
HETATM    6  C5  UNL     1      -2.396   0.119  -0.599  1.00  0.00     0.135 C 
ATOM      7  H1  UNL     1      -3.496   1.799  -0.661  1.00  0.00     0.162 HD
HETATM    8  C6  UNL     1      -2.049  -1.083   0.175  1.00  0.00     0.159 C 
HETATM    9  N2  UNL     1      -1.672  -2.193  -0.703  1.00  0.00    -0.347 N 
HETATM   10  C10 UNL     1      -0.412  -2.713  -0.971  1.00  0.00     0.240 C 
ATOM     11  H2  UNL     1      -2.445  -2.650  -1.187  1.00  0.00     0.163 HD
HETATM   12  O2  UNL     1      -0.092  -2.760  -2.220  1.00  0.00    -0.271 OA
HETATM   13  C11 UNL     1       0.609  -3.219  -0.053  1.00  0.00     0.171 C 
HETATM   14  C12 UNL     1       0.002  -4.145   1.015  1.00  0.00     0.042 C 
HETATM   15  N3  UNL     1       1.543  -2.315   0.505  1.00  0.00    -0.360 N 
HETATM   16  C13 UNL     1       1.930  -0.993   0.219  1.00  0.00     0.135 C 
ATOM     17  H3  UNL     1       2.052  -2.712   1.295  1.00  0.00     0.162 HD
HETATM   18  C14 UNL     1       2.275  -0.346  -1.046  1.00  0.00     0.158 C 
HETATM   19  N4  UNL     1       1.237   0.588  -1.518  1.00  0.00    -0.360 N 
HETATM   20  C19 UNL     1       1.069   1.942  -1.452  1.00  0.00     0.142 C 
ATOM     21  H4  UNL     1       0.473   0.118  -2.003  1.00  0.00     0.162 HD
HETATM   22  C20 UNL     1       0.884   2.944  -0.384  1.00  0.00     0.202 C 
HETATM   23  C21 UNL     1       2.185   3.632   0.006  1.00  0.00     0.049 C 
HETATM   24  O5  UNL     1       0.250   2.581   0.757  1.00  0.00    -0.306 OA
HETATM   25  C22 UNL     1      -0.840   2.094   1.335  1.00  0.00     0.283 C 
HETATM   26  O6  UNL     1      -0.798   1.401   2.426  1.00  0.00    -0.263 OA
BRANCH   6  27
HETATM   27  O1  UNL     1      -2.399  -0.066  -1.886  1.00  0.00    -0.348 OA
ATOM     28  H1  UNL     1      -2.184  -0.939  -2.192  1.00  0.00     0.219 HD
ENDBRANCH   6  27
BRANCH   8  29
HETATM   29  C7  UNL     1      -3.165  -1.508   1.055  1.00  0.00     0.033 C 
BRANCH  29  30
HETATM   30  C8  UNL     1      -4.459  -1.900   0.451  1.00  0.00    -0.002 C 
HETATM   31  C9  UNL     1      -5.243  -0.900  -0.308  1.00  0.00     0.005 C 
ENDBRANCH  29  30
ENDBRANCH   8  29
BRANCH  16  32
HETATM   32  O3  UNL     1       1.997  -0.183   1.238  1.00  0.00    -0.348 OA
ATOM     33  H3  UNL     1       2.258   0.710   1.045  1.00  0.00     0.219 HD
ENDBRANCH  16  32
BRANCH  18  34
HETATM   34  C15 UNL     1       3.644   0.221  -1.233  1.00  0.00     0.033 C 
BRANCH  34  35
HETATM   35  C16 UNL     1       4.822  -0.668  -1.170  1.00  0.00     0.002 C 
BRANCH  35  36
HETATM   36  C17 UNL     1       5.163  -1.305   0.129  1.00  0.00    -0.004 C 
HETATM   37  C18 UNL     1       5.509  -0.230   1.161  1.00  0.00     0.005 C 
ENDBRANCH  35  36
ENDBRANCH  34  35
ENDBRANCH  18  34
BRANCH  20  38
HETATM   38  O4  UNL     1       1.054   2.604  -2.575  1.00  0.00    -0.348 OA
ATOM     39  H4  UNL     1       0.937   3.546  -2.529  1.00  0.00     0.219 HD
ENDBRANCH  20  38
ENDBRANCH   3   4
TORSDOF 9
