REMARK  10 active torsions:
REMARK  status: ('A' for Active; 'I' for Inactive)
REMARK    1  A    between atoms: C2_2  and  C3_3 
REMARK    2  A    between atoms: C3_3  and  C4_4 
REMARK    3  A    between atoms: C5_5  and  O1_6 
REMARK    4  A    between atoms: C6_10  and  C7_11 
REMARK    5  A    between atoms: C7_11  and  C8_12 
REMARK    6  A    between atoms: C11_15  and  O2_16 
REMARK    7  A    between atoms: C12_20  and  C13_21 
REMARK    8  A    between atoms: C13_21  and  C14_23 
REMARK    9  A    between atoms: C18_31  and  C19_32 
REMARK   10  A    between atoms: C22_37  and  O6_38 
ROOT
HETATM    1  C4  UNL     1       0.449  -2.143  -1.564  1.00  0.00     0.137 C 
HETATM    2  C5  UNL     1       1.034  -0.924  -2.122  1.00  0.00     0.124 C 
HETATM    3  N1  UNL     1       1.477   0.298  -1.754  1.00  0.00    -0.362 N 
ATOM      4  H1  UNL     1       0.931   1.021  -2.223  1.00  0.00     0.162 HD
HETATM    5  C6  UNL     1       2.474   0.907  -0.911  1.00  0.00     0.158 C 
HETATM    6  C11 UNL     1       1.867   1.886   0.025  1.00  0.00     0.136 C 
HETATM    7  N2  UNL     1       0.868   1.797   0.966  1.00  0.00    -0.345 N 
ATOM      8  H2  UNL     1       1.242   1.696   1.910  1.00  0.00     0.163 HD
HETATM    9  C12 UNL     1      -0.580   1.810   0.958  1.00  0.00     0.260 C 
HETATM   10  N3  UNL     1      -1.222   1.466  -0.254  1.00  0.00    -0.332 N 
ATOM     11  H3  UNL     1      -1.167   2.152  -1.007  1.00  0.00     0.165 HD
HETATM   12  C17 UNL     1      -1.933   0.273  -0.537  1.00  0.00     0.242 C 
HETATM   13  O5  UNL     1      -2.413   0.163  -1.696  1.00  0.00    -0.271 OA
HETATM   14  C18 UNL     1      -2.154  -0.833   0.398  1.00  0.00     0.179 C 
HETATM   15  N4  UNL     1      -1.166  -1.846   0.477  1.00  0.00    -0.360 N 
ATOM     16  H4  UNL     1      -1.372  -2.510   1.223  1.00  0.00     0.162 HD
HETATM   17  C22 UNL     1       0.000  -2.177  -0.183  1.00  0.00     0.124 C 
ENDROOT
BRANCH   9  18
HETATM   18  C13 UNL     1      -1.060   3.189   1.337  1.00  0.00     0.204 C 
HETATM   19  O3  UNL     1      -0.181   4.075   1.521  1.00  0.00    -0.290 OA
BRANCH  18  20
HETATM   20  C14 UNL     1      -2.419   3.655   1.526  1.00  0.00     0.142 A 
HETATM   21  C15 UNL     1      -3.560   2.699   1.363  1.00  0.00     0.057 C 
HETATM   22  C16 UNL     1      -2.714   5.011   0.867  1.00  0.00     0.215 A 
HETATM   23  O4  UNL     1      -2.652   4.841   2.234  1.00  0.00    -0.367 OA
ENDBRANCH  18  20
ENDBRANCH   9  18
BRANCH   6  24
HETATM   24  O2  UNL     1       2.387   3.108  -0.046  1.00  0.00    -0.348 OA
ATOM     25  H2  UNL     1       1.998   3.735   0.553  1.00  0.00     0.219 HD
ENDBRANCH   6  24
BRANCH   5  26
HETATM   26  C7  UNL     1       3.491  -0.010  -0.365  1.00  0.00     0.037 C 
BRANCH  26  27
HETATM   27  C8  UNL     1       4.586   0.549   0.487  1.00  0.00    -0.020 C 
HETATM   28  C9  UNL     1       5.417   1.596  -0.226  1.00  0.00     0.009 C 
HETATM   29  C10 UNL     1       4.215   1.039   1.837  1.00  0.00     0.009 C 
ENDBRANCH  26  27
ENDBRANCH   5  26
BRANCH  14  30
HETATM   30  C19 UNL     1      -3.571  -1.316   0.202  1.00  0.00     0.009 C 
HETATM   31  C20 UNL     1      -3.915  -1.816  -1.133  1.00  0.00     0.012 C 
HETATM   32  C21 UNL     1      -3.939  -2.326   1.264  1.00  0.00     0.012 C 
ENDBRANCH  14  30
BRANCH   2  33
HETATM   33  O1  UNL     1       1.150  -1.129  -3.428  1.00  0.00    -0.349 OA
ATOM     34  H1  UNL     1       1.530  -0.337  -3.790  1.00  0.00     0.219 HD
ENDBRANCH   2  33
BRANCH  17  35
HETATM   35  O6  UNL     1       0.947  -2.636   0.584  1.00  0.00    -0.349 OA
ATOM     36  H6  UNL     1       0.653  -2.658   1.487  1.00  0.00     0.219 HD
ENDBRANCH  17  35
BRANCH   1  37
HETATM   37  C3  UNL     1       1.439  -3.229  -1.929  1.00  0.00     0.047 C 
BRANCH  37  38
HETATM   38  C2  UNL     1       1.137  -4.594  -1.558  1.00  0.00    -0.036 C 
HETATM   39  C1  UNL     1       0.049  -5.076  -1.033  1.00  0.00     0.007 C 
ENDBRANCH  37  38
ENDBRANCH   1  37
TORSDOF 10
