REMARK  7 active torsions:
REMARK  status: ('A' for Active; 'I' for Inactive)
REMARK    1  A    between atoms: C2_2  and  C3_3 
REMARK    2  A    between atoms: C3_3  and  C4_4 
REMARK    3  A    between atoms: C6_6  and  C7_7 
REMARK       I    between atoms: C7_7  and  N1_9 
REMARK       I    between atoms: N4_20  and  C13_21 
REMARK    4  A    between atoms: C13_21  and  C14_23 
REMARK    5  A    between atoms: C16_25  and  O3_26 
REMARK    6  A    between atoms: C16_25  and  C17_28 
REMARK    7  A    between atoms: N5_35  and  O4_36 
ROOT
HETATM    1  C4  UNL     1       1.259   1.658  -0.304  1.00  0.00     0.091 C 
HETATM    2  C5  UNL     1       2.088   0.384  -0.110  1.00  0.00     0.060 C 
HETATM    3  C6  UNL     1       2.681   0.289   1.276  1.00  0.00     0.172 C 
HETATM    4  N3  UNL     1       2.712   1.499   2.018  1.00  0.00    -0.393 N 
ATOM      5  H3  UNL     1       3.552   1.793   2.516  1.00  0.00     0.155 HD
HETATM    6  C12 UNL     1       1.534   2.281   2.040  1.00  0.00     0.245 C 
HETATM    7  N4  UNL     1       0.630   2.006   0.951  1.00  0.00    -0.330 N 
HETATM    8  C13 UNL     1      -0.745   2.044   1.150  1.00  0.00     0.241 C 
HETATM    9  O2  UNL     1      -1.175   2.423   2.282  1.00  0.00    -0.271 OA
ENDROOT
BRANCH   1  10
HETATM   10  C3  UNL     1       2.213   2.700  -0.799  1.00  0.00     0.025 C 
BRANCH  10  11
HETATM   11  C2  UNL     1       1.596   4.041  -1.057  1.00  0.00    -0.002 C 
HETATM   12  C1  UNL     1       0.542   3.999  -2.120  1.00  0.00     0.005 C 
ENDBRANCH  10  11
ENDBRANCH   1  10
BRANCH   8  13
HETATM   13  C14 UNL     1      -1.792   1.681   0.175  1.00  0.00     0.181 C 
HETATM   14  C15 UNL     1      -1.751   0.156  -0.097  1.00  0.00     0.071 C 
HETATM   15  C16 UNL     1      -3.123  -0.256   0.284  1.00  0.00     0.077 C 
HETATM   16  C23 UNL     1      -3.917   0.992  -0.127  1.00  0.00     0.159 C 
HETATM   17  N5  UNL     1      -3.120   2.002   0.555  1.00  0.00    -0.183 NA
BRANCH  15  18
HETATM   18  O3  UNL     1      -3.181  -0.396   1.695  1.00  0.00    -0.388 OA
ATOM     19  H3  UNL     1      -4.060  -0.660   1.939  1.00  0.00     0.210 HD
ENDBRANCH  15  18
BRANCH  15  20
HETATM   20  C17 UNL     1      -3.662  -1.509  -0.287  1.00  0.00     0.021 C 
HETATM   21  C18 UNL     1      -5.108  -1.734   0.186  1.00  0.00     0.007 C 
HETATM   22  C19 UNL     1      -5.363  -3.203   0.206  1.00  0.00     0.000 C 
HETATM   23  C20 UNL     1      -4.715  -3.804  -1.026  1.00  0.00     0.000 C 
HETATM   24  C21 UNL     1      -4.579  -2.796  -2.143  1.00  0.00     0.000 C 
HETATM   25  C22 UNL     1      -3.652  -1.640  -1.768  1.00  0.00     0.007 C 
ENDBRANCH  15  20
BRANCH  17  26
HETATM   26  O4  UNL     1      -3.423   1.948   1.843  1.00  0.00    -0.312 OA
ATOM     27  H4  UNL     1      -4.313   2.163   2.098  1.00  0.00     0.237 HD
ENDBRANCH  17  26
ENDBRANCH   8  13
BRANCH   3  28
HETATM   28  C7  UNL     1       4.093  -0.227   1.216  1.00  0.00     0.242 C 
HETATM   29  O1  UNL     1       5.009   0.491   1.738  1.00  0.00    -0.271 OA
HETATM   30  N1  UNL     1       4.476  -1.446   0.627  1.00  0.00    -0.347 N 
HETATM   31  C8  UNL     1       5.897  -1.790   0.635  1.00  0.00     0.153 C 
HETATM   32  C11 UNL     1       3.488  -2.313   0.051  1.00  0.00     0.153 C 
HETATM   33  C9  UNL     1       6.151  -3.208   0.245  1.00  0.00     0.252 C 
HETATM   34  N2  UNL     1       5.060  -4.008   0.791  1.00  0.00    -0.072 N 
HETATM   35  C10 UNL     1       3.913  -3.764  -0.030  1.00  0.00     0.252 C 
ATOM     36  H22 UNL     1       5.291  -4.998   0.874  1.00  0.00     0.277 HD
ATOM     37  H21 UNL     1       4.890  -3.832   1.781  1.00  0.00     0.277 HD
ENDBRANCH   3  28
TORSDOF 7
