REMARK  8 active torsions:
REMARK  status: ('A' for Active; 'I' for Inactive)
REMARK    1  A    between atoms: C2_2  and  C3_3 
REMARK    2  A    between atoms: C3_3  and  C4_4 
REMARK       I    between atoms: C4_4  and  N1_6 
REMARK    3  A    between atoms: N1_6  and  C5_7 
REMARK    4  A    between atoms: N1_6  and  S1_18 
REMARK    5  A    between atoms: C5_7  and  C6_8 
REMARK       I    between atoms: N2_12  and  C10_13 
REMARK    6  A    between atoms: S1_18  and  N5_21 
REMARK    7  A    between atoms: C14_24  and  C15_25 
REMARK    8  A    between atoms: C15_25  and  C16_26 
ROOT
HETATM    1  S1  UNL     1      -0.816   1.694  -0.507  1.00  0.00     0.112 S 
HETATM    2  C11 UNL     1      -0.700   1.839  -2.385  1.00  0.00     0.161 C 
HETATM    3  O2  UNL     1      -0.759   3.683  -0.526  1.00  0.00    -0.228 OA
ENDROOT
BRANCH   1   4
HETATM    4  N1  UNL     1      -2.552   1.078  -0.596  1.00  0.00    -0.260 N 
HETATM    5  C4  UNL     1      -3.605   2.001  -0.819  1.00  0.00     0.235 C 
HETATM    6  O1  UNL     1      -4.771   1.527  -0.986  1.00  0.00    -0.272 OA
BRANCH   5   7
HETATM    7  C3  UNL     1      -3.485   3.465  -0.874  1.00  0.00     0.130 C 
BRANCH   7   8
HETATM    8  C2  UNL     1      -4.842   4.093  -1.107  1.00  0.00    -0.028 C 
HETATM    9  C1  UNL     1      -5.084   4.841  -2.167  1.00  0.00     0.007 C 
ENDBRANCH   7   8
ENDBRANCH   5   7
BRANCH   4  10
HETATM   10  C5  UNL     1      -2.922  -0.293  -0.528  1.00  0.00     0.168 C 
BRANCH  10  11
HETATM   11  C6  UNL     1      -3.349  -0.813   0.787  1.00  0.00     0.106 C 
HETATM   12  C7  UNL     1      -2.384  -0.741   1.919  1.00  0.00     0.028 C 
HETATM   13  C8  UNL     1      -3.073  -1.635   2.969  1.00  0.00     0.022 C 
HETATM   14  C9  UNL     1      -4.094  -2.460   2.181  1.00  0.00     0.126 C 
HETATM   15  N2  UNL     1      -3.663  -2.234   0.794  1.00  0.00    -0.350 N 
HETATM   16  C10 UNL     1      -3.601  -3.229  -0.193  1.00  0.00     0.184 C 
HETATM   17  N3  UNL     1      -2.910  -4.299  -0.006  1.00  0.00    -0.374 N 
HETATM   18  N4  UNL     1      -4.295  -3.075  -1.411  1.00  0.00    -0.064 NA
ATOM     19  H32 UNL     1      -2.408  -4.410   0.875  1.00  0.00     0.158 HD
ATOM     20  H31 UNL     1      -2.865  -5.022  -0.724  1.00  0.00     0.158 HD
ENDBRANCH  10  11
ENDBRANCH   4  10
ENDBRANCH   1   4
BRANCH   1  21
HETATM   21  N5  UNL     1       0.685   0.844  -0.355  1.00  0.00    -0.307 N 
HETATM   22  C12 UNL     1       1.813   1.631  -0.835  1.00  0.00     0.139 C 
HETATM   23  C13 UNL     1       2.734   0.690  -1.532  1.00  0.00     0.026 C 
HETATM   24  C14 UNL     1       3.362  -0.202  -0.453  1.00  0.00    -0.003 C 
HETATM   25  C20 UNL     1       2.634  -0.098   0.850  1.00  0.00     0.050 C 
HETATM   26  C21 UNL     1       1.160   0.037   0.698  1.00  0.00     0.075 C 
BRANCH  24  27
HETATM   27  C15 UNL     1       4.804   0.234  -0.345  1.00  0.00     0.064 C 
BRANCH  27  28
HETATM   28  C16 UNL     1       5.567  -0.543   0.659  1.00  0.00     0.037 A 
HETATM   29  N6  UNL     1       5.919  -0.170   1.897  1.00  0.00    -0.301 N 
HETATM   30  N7  UNL     1       6.597  -1.155   2.495  1.00  0.00    -0.266 N 
ATOM     31  H6  UNL     1       5.702   0.732   2.321  1.00  0.00     0.186 HD
HETATM   32  C17 UNL     1       6.712  -2.205   1.667  1.00  0.00     0.267 A 
ATOM     33  H7  UNL     1       6.972  -1.114   3.443  1.00  0.00     0.190 HD
HETATM   34  O3  UNL     1       7.279  -3.296   1.884  1.00  0.00    -0.266 OA
HETATM   35  C18 UNL     1       6.058  -1.822   0.497  1.00  0.00     0.031 A 
HETATM   36  C19 UNL     1       5.932  -2.676  -0.715  1.00  0.00     0.056 C 
ENDBRANCH  27  28
ENDBRANCH  24  27
ENDBRANCH   1  21
TORSDOF 8
