REMARK  10 active torsions:
REMARK  status: ('A' for Active; 'I' for Inactive)
REMARK    1  A    between atoms: C3_3  and  N1_4 
REMARK       I    between atoms: N1_4  and  C4_6 
REMARK    2  A    between atoms: N3_8  and  C5_10 
REMARK    3  A    between atoms: C5_10  and  C6_11 
REMARK    4  A    between atoms: C6_11  and  C7_12 
REMARK    5  A    between atoms: C7_12  and  C8_13 
REMARK    6  A    between atoms: C8_13  and  C9_14 
REMARK    7  A    between atoms: C9_14  and  C10_15 
REMARK    8  A    between atoms: C10_15  and  C11_19 
REMARK       I    between atoms: C11_19  and  N5_21 
REMARK    9  A    between atoms: N5_21  and  C12_23 
REMARK   10  A    between atoms: C12_23  and  C13_24 
REMARK       I    between atoms: C13_24  and  N6_26 
ROOT
HETATM    1  C1  UNL     1       9.136   2.092   0.679  1.00  0.00     0.014 C 
HETATM    2  C2  UNL     1       9.693   1.170   0.144  1.00  0.00    -0.098 C 
HETATM    3  C3  UNL     1      10.362   0.046  -0.532  1.00  0.00     0.215 C 
ENDROOT
BRANCH   3   4
HETATM    4  N1  UNL     1       9.450  -1.061  -0.576  1.00  0.00    -0.354 N 
HETATM    5  C4  UNL     1       9.051  -1.753   0.583  1.00  0.00     0.184 C 
HETATM    6  N2  UNL     1      10.021  -2.199   1.492  1.00  0.00    -0.064 NA
HETATM    7  N3  UNL     1       7.818  -1.972   0.806  1.00  0.00    -0.365 N 
ATOM      8  H3  UNL     1       7.531  -2.472   1.647  1.00  0.00     0.162 HD
ATOM      9  H1  UNL     1       9.078  -1.357  -1.479  1.00  0.00     0.163 HD
BRANCH   7  10
HETATM   10  C5  UNL     1       6.838  -1.515  -0.125  1.00  0.00     0.122 C 
BRANCH  10  11
HETATM   11  C6  UNL     1       5.467  -1.301   0.483  1.00  0.00     0.020 C 
BRANCH  11  12
HETATM   12  C7  UNL     1       4.570  -0.826  -0.613  1.00  0.00     0.002 C 
BRANCH  12  13
HETATM   13  C8  UNL     1       3.148  -0.560  -0.187  1.00  0.00     0.006 C 
BRANCH  13  14
HETATM   14  C9  UNL     1       2.462  -1.762   0.361  1.00  0.00     0.062 C 
BRANCH  14  15
HETATM   15  C10 UNL     1       1.085  -1.404   0.755  1.00  0.00     0.071 C 
HETATM   16  N4  UNL     1       0.786  -1.496   2.026  1.00  0.00    -0.398 N 
ATOM     17  H42 UNL     1       1.512  -1.814   2.668  1.00  0.00     0.156 HD
ATOM     18  H41 UNL     1      -0.165  -1.249   2.298  1.00  0.00     0.156 HD
BRANCH  15  19
HETATM   19  C11 UNL     1       0.049  -0.950  -0.161  1.00  0.00     0.264 C 
HETATM   20  O1  UNL     1       0.355  -0.875  -1.391  1.00  0.00    -0.266 OA
HETATM   21  N5  UNL     1      -1.222  -0.619   0.332  1.00  0.00    -0.338 N 
ATOM     22  H5  UNL     1      -1.376  -0.715   1.336  1.00  0.00     0.164 HD
BRANCH  21  23
HETATM   23  C12 UNL     1      -2.347  -0.146  -0.483  1.00  0.00     0.114 A 
HETATM   24  C21 UNL     1      -1.931   1.003  -1.318  1.00  0.00     0.041 A 
HETATM   25  C22 UNL     1      -2.017   0.657  -2.751  1.00  0.00     0.003 A 
HETATM   26  C23 UNL     1      -2.448  -0.764  -2.842  1.00  0.00     0.003 A 
HETATM   27  C24 UNL     1      -2.665  -1.244  -1.460  1.00  0.00     0.041 A 
BRANCH  23  28
HETATM   28  C13 UNL     1      -3.534   0.082   0.370  1.00  0.00     0.250 C 
HETATM   29  O2  UNL     1      -3.347  -0.196   1.611  1.00  0.00    -0.270 OA
HETATM   30  N6  UNL     1      -4.792   0.545   0.018  1.00  0.00    -0.315 N 
HETATM   31  C14 UNL     1      -5.280   0.933  -1.296  1.00  0.00     0.156 C 
HETATM   32  C18 UNL     1      -5.941   0.750   0.896  1.00  0.00     0.198 C 
HETATM   33  C15 UNL     1      -6.743   1.381  -1.080  1.00  0.00     0.259 C 
HETATM   34  N7  UNL     1      -6.604   1.887   0.296  1.00  0.00    -0.047 N 
HETATM   35  C16 UNL     1      -5.747   3.048   0.230  1.00  0.00     0.275 C 
HETATM   36  C17 UNL     1      -7.843   2.255   0.892  1.00  0.00     0.275 C 
HETATM   37  C19 UNL     1      -6.818  -0.465   0.753  1.00  0.00     0.071 C 
HETATM   38  C20 UNL     1      -5.606   0.956   2.327  1.00  0.00     0.071 C 
ENDBRANCH  23  28
ENDBRANCH  21  23
ENDBRANCH  15  19
ENDBRANCH  14  15
ENDBRANCH  13  14
ENDBRANCH  12  13
ENDBRANCH  11  12
ENDBRANCH  10  11
ENDBRANCH   7  10
ENDBRANCH   3   4
TORSDOF 10
