REMARK  4 active torsions:
REMARK  status: ('A' for Active; 'I' for Inactive)
REMARK    1  A    between atoms: O1_1  and  C1_3 
REMARK    2  A    between atoms: C2_4  and  O2_5 
REMARK    3  A    between atoms: C3_7  and  O3_8 
REMARK    4  A    between atoms: C9_15  and  O4_16 
ROOT
HETATM    1  C1  UNL     1      -1.903   0.480  -0.078  1.00  0.00     0.178 C 
HETATM    2  C2  UNL     1      -1.523  -0.965  -0.216  1.00  0.00     0.178 C 
HETATM    3  C3  UNL     1      -0.473  -1.260   0.840  1.00  0.00     0.154 C 
HETATM    4  C4  UNL     1       0.733  -0.408   0.706  1.00  0.00     0.024 C 
HETATM    5  C5  UNL     1       1.645  -0.937  -0.398  1.00  0.00     0.007 C 
HETATM    6  C6  UNL     1       2.639   0.193  -0.521  1.00  0.00     0.001 C 
HETATM    7  C7  UNL     1       1.783   1.406  -0.364  1.00  0.00     0.007 C 
HETATM    8  C8  UNL     1       0.516   0.997   0.339  1.00  0.00     0.024 C 
HETATM    9  C9  UNL     1      -0.681   1.294  -0.488  1.00  0.00     0.154 C 
ENDROOT
BRANCH   1  10
HETATM   10  O1  UNL     1      -2.270   0.816   1.225  1.00  0.00    -0.390 OA
ATOM     11  H1  UNL     1      -2.511   1.731   1.312  1.00  0.00     0.210 HD
ENDBRANCH   1  10
BRANCH   2  12
HETATM   12  O2  UNL     1      -2.573  -1.840  -0.088  1.00  0.00    -0.390 OA
ATOM     13  H2  UNL     1      -2.332  -2.755  -0.175  1.00  0.00     0.210 HD
ENDBRANCH   2  12
BRANCH   9  14
HETATM   14  O4  UNL     1      -0.482   1.122  -1.857  1.00  0.00    -0.393 OA
ATOM     15  H4  UNL     1       0.280   1.629  -2.113  1.00  0.00     0.210 HD
ENDBRANCH   9  14
BRANCH   3  16
HETATM   16  O3  UNL     1      -1.016  -1.226   2.120  1.00  0.00    -0.393 OA
ATOM     17  H3  UNL     1      -0.359  -1.411   2.781  1.00  0.00     0.210 HD
ENDBRANCH   3  16
TORSDOF 4
