REMARK  5 active torsions:
REMARK  status: ('A' for Active; 'I' for Inactive)
REMARK    1  A    between atoms: C2_2  and  C4_4 
REMARK    2  A    between atoms: C5_5  and  C6_6 
REMARK    3  A    between atoms: C6_6  and  O1_7 
REMARK    4  A    between atoms: C8_11  and  O3_12 
REMARK    5  A    between atoms: C9_14  and  O4_15 
ROOT
HETATM    1  C6  UNL     1      -1.134  -0.068  -0.785  1.00  0.00     0.259 C 
HETATM    2  O2  UNL     1      -1.612  -1.342  -0.933  1.00  0.00    -0.340 OA
HETATM    3  C7  UNL     1      -2.790  -1.480  -0.254  1.00  0.00     0.207 C 
HETATM    4  C8  UNL     1      -3.235  -0.105   0.202  1.00  0.00     0.177 C 
HETATM    5  C9  UNL     1      -1.856   0.544   0.401  1.00  0.00     0.224 C 
ENDROOT
BRANCH   1   6
HETATM    6  C5  UNL     1       0.298   0.022  -0.592  1.00  0.00    -0.035 C 
HETATM    7  C4  UNL     1       1.489   0.108  -0.449  1.00  0.00    -0.097 C 
BRANCH   7   8
HETATM    8  C2  UNL     1       2.940   0.225  -0.297  1.00  0.00     0.057 C 
HETATM    9  C1  UNL     1       3.205   1.194   0.835  1.00  0.00     0.023 C 
HETATM   10  C3  UNL     1       3.580  -1.119  -0.017  1.00  0.00     0.023 C 
ENDBRANCH   7   8
ENDBRANCH   1   6
BRANCH   1  11
HETATM   11  O1  UNL     1      -1.559   0.668  -1.913  1.00  0.00    -0.353 OA
ATOM     12  H1  UNL     1      -2.499   0.609  -2.040  1.00  0.00     0.214 HD
ENDBRANCH   1  11
BRANCH   5  13
HETATM   13  O4  UNL     1      -1.326   0.002   1.557  1.00  0.00    -0.386 OA
ATOM     14  H4  UNL     1      -1.778   0.385   2.300  1.00  0.00     0.210 HD
ENDBRANCH   5  13
BRANCH   4  15
HETATM   15  O3  UNL     1      -3.895   0.589  -0.819  1.00  0.00    -0.391 OA
ATOM     16  H3  UNL     1      -4.174   1.451  -0.533  1.00  0.00     0.210 HD
ENDBRANCH   4  15
TORSDOF 5
