REMARK  4 active torsions:
REMARK  status: ('A' for Active; 'I' for Inactive)
REMARK    1  A    between atoms: C3_3  and  O1_4 
REMARK    2  A    between atoms: C4_6  and  O2_7 
REMARK    3  A    between atoms: C5_9  and  O3_10 
REMARK    4  A    between atoms: C9_15  and  O4_16 
ROOT
HETATM    1  C1  UNL     1       2.212  -1.685  -0.051  1.00  0.00     0.015 C 
HETATM    2  C2  UNL     1       1.203  -0.634   0.421  1.00  0.00     0.042 C 
HETATM    3  C3  UNL     1       1.643   0.690  -0.075  1.00  0.00     0.155 C 
HETATM    4  C4  UNL     1       0.573   1.639  -0.448  1.00  0.00     0.176 C 
HETATM    5  C5  UNL     1      -0.783   1.362   0.053  1.00  0.00     0.159 C 
HETATM    6  C6  UNL     1      -1.221  -0.050   0.104  1.00  0.00     0.007 C 
HETATM    7  C7  UNL     1      -2.262  -0.352  -0.984  1.00  0.00     0.020 C 
HETATM    8  C8  UNL     1      -1.968  -0.265   1.429  1.00  0.00     0.020 C 
HETATM    9  C9  UNL     1      -0.146  -1.068  -0.025  1.00  0.00     0.134 C 
ENDROOT
BRANCH   3  10
HETATM   10  O1  UNL     1       2.518   1.230   0.897  1.00  0.00    -0.392 OA
ATOM     11  H1  UNL     1       2.800   2.079   0.579  1.00  0.00     0.210 HD
ENDBRANCH   3  10
BRANCH   4  12
HETATM   12  O2  UNL     1       0.501   1.810  -1.850  1.00  0.00    -0.390 OA
ATOM     13  H2  UNL     1      -0.187   2.420  -2.090  1.00  0.00     0.210 HD
ENDBRANCH   4  12
BRANCH   9  14
HETATM   14  O4  UNL     1      -0.445  -2.242   0.706  1.00  0.00    -0.394 OA
ATOM     15  H4  UNL     1      -1.308  -2.520   0.421  1.00  0.00     0.210 HD
ENDBRANCH   9  14
BRANCH   5  16
HETATM   16  O3  UNL     1      -1.692   2.059  -0.781  1.00  0.00    -0.392 OA
ATOM     17  H3  UNL     1      -2.567   1.880  -0.458  1.00  0.00     0.210 HD
ENDBRANCH   5  16
TORSDOF 4
