REMARK  4 active torsions:
REMARK  status: ('A' for Active; 'I' for Inactive)
REMARK    1  A    between atoms: O1_1  and  C1_3 
REMARK    2  A    between atoms: C6_8  and  O2_9 
REMARK    3  A    between atoms: C8_12  and  O3_13 
REMARK    4  A    between atoms: C10_16  and  O4_17 
ROOT
HETATM    1  C1  UNL     1      -0.275   1.894  -0.468  1.00  0.00     0.128 C 
HETATM    2  C2  UNL     1      -1.734   1.424  -0.295  1.00  0.00     0.040 C 
HETATM    3  C3  UNL     1      -1.636   0.008   0.295  1.00  0.00     0.026 C 
HETATM    4  C4  UNL     1      -1.695  -1.050  -0.770  1.00  0.00     0.011 C 
HETATM    5  C5  UNL     1      -0.488  -1.939  -0.611  1.00  0.00     0.041 C 
HETATM    6  C6  UNL     1       0.333  -1.409   0.532  1.00  0.00     0.092 C 
HETATM    7  C7  UNL     1       1.773  -1.098   0.113  1.00  0.00     0.073 C 
HETATM    8  C8  UNL     1       1.801   0.413  -0.200  1.00  0.00     0.130 C 
HETATM    9  C9  UNL     1       0.409   0.625  -0.519  1.00  0.00     0.081 C 
HETATM   10  C10 UNL     1      -0.229  -0.043   0.727  1.00  0.00     0.101 C 
ENDROOT
BRANCH   1  11
HETATM   11  O1  UNL     1       0.005   2.694   0.610  1.00  0.00    -0.395 OA
ATOM     12  H1  UNL     1       0.904   2.983   0.503  1.00  0.00     0.210 HD
ENDBRANCH   1  11
BRANCH   8  13
HETATM   13  O3  UNL     1       2.710   0.630  -1.220  1.00  0.00    -0.395 OA
ATOM     14  H3  UNL     1       2.727   1.560  -1.413  1.00  0.00     0.210 HD
ENDBRANCH   8  13
BRANCH  10  15
HETATM   15  O4  UNL     1       0.098   0.585   1.877  1.00  0.00    -0.386 OA
ATOM     16  H4  UNL     1       1.006   0.552   2.156  1.00  0.00     0.210 HD
ENDBRANCH  10  15
BRANCH   6  17
HETATM   17  O2  UNL     1       0.270  -2.172   1.671  1.00  0.00    -0.387 OA
ATOM     18  H2  UNL     1       0.789  -1.837   2.393  1.00  0.00     0.210 HD
ENDBRANCH   6  17
TORSDOF 4
