REMARK  9 active torsions:
REMARK  status: ('A' for Active; 'I' for Inactive)
REMARK    1  A    between atoms: O1_2  and  C2_3 
REMARK    2  A    between atoms: C2_3  and  C3_5 
REMARK    3  A    between atoms: C3_5  and  C4_6 
REMARK    4  A    between atoms: C4_6  and  C5_7 
REMARK    5  A    between atoms: C5_7  and  N1_8 
REMARK    6  A    between atoms: C5_7  and  C6_12 
REMARK    7  A    between atoms: C7_14  and  C8_15 
REMARK    8  A    between atoms: C12_19  and  N2_20 
REMARK    9  A    between atoms: C15_28  and  N3_29 
ROOT
HETATM    1  C6  UNL     1       0.137   0.537  -0.796  1.00  0.00     0.177 C 
HETATM    2  O3  UNL     1      -0.330  -0.282   0.219  1.00  0.00    -0.363 OA
HETATM    3  C7  UNL     1      -1.637  -0.055   0.575  1.00  0.00     0.212 C 
HETATM    4  S1  UNL     1      -2.243   1.470  -0.241  1.00  0.00    -0.128 SA
HETATM    5  C13 UNL     1      -0.887   2.674  -0.373  1.00  0.00     0.071 C 
HETATM    6  C14 UNL     1      -1.070   3.743   0.645  1.00  0.00     0.024 C 
HETATM    7  C15 UNL     1       0.434   1.901  -0.215  1.00  0.00     0.128 C 
ENDROOT
BRANCH   1   8
HETATM    8  C5  UNL     1       1.298  -0.107  -1.487  1.00  0.00     0.215 C 
BRANCH   8   9
HETATM    9  C4  UNL     1       2.346  -0.497  -0.502  1.00  0.00     0.045 C 
BRANCH   9  10
HETATM   10  C3  UNL     1       3.375  -1.330  -1.243  1.00  0.00     0.113 C 
BRANCH  10  11
HETATM   11  C2  UNL     1       4.467  -1.769  -0.340  1.00  0.00     0.258 C 
HETATM   12  O2  UNL     1       4.465  -1.447   0.871  1.00  0.00    -0.265 OA
BRANCH  11  13
HETATM   13  O1  UNL     1       5.504  -2.540  -0.823  1.00  0.00    -0.326 OA
HETATM   14  C1  UNL     1       6.575  -2.986   0.001  1.00  0.00     0.213 C 
ENDBRANCH  11  13
ENDBRANCH  10  11
ENDBRANCH   9  10
ENDBRANCH   8   9
BRANCH   8  15
HETATM   15  N1  UNL     1       1.863   0.661  -2.554  1.00  0.00    -0.072 N 
ATOM     16  H13 UNL     1       2.374   1.472  -2.206  1.00  0.00     0.274 HD
ATOM     17  H12 UNL     1       2.638   0.172  -3.002  1.00  0.00     0.274 HD
ATOM     18  H11 UNL     1       1.146   0.928  -3.228  1.00  0.00     0.274 HD
ENDBRANCH   8  15
ENDBRANCH   1   8
BRANCH   7  19
HETATM   19  N3  UNL     1       0.798   1.814   1.182  1.00  0.00    -0.359 N 
HETATM   20  C16 UNL     1       1.601   2.595   1.800  1.00  0.00     0.197 C 
HETATM   21  N4  UNL     1       1.843   2.361   3.178  1.00  0.00    -0.067 NA
HETATM   22  N5  UNL     1       2.270   3.684   1.190  1.00  0.00    -0.067 NA
ATOM     23  H3  UNL     1       0.376   1.061   1.724  1.00  0.00     0.162 HD
ENDBRANCH   7  19
BRANCH   3  24
HETATM   24  C8  UNL     1      -2.560  -1.211   0.377  1.00  0.00     0.163 C 
HETATM   25  C9  UNL     1      -2.570  -1.776  -1.001  1.00  0.00     0.035 C 
HETATM   26  C10 UNL     1      -3.839  -1.352  -1.753  1.00  0.00     0.007 C 
HETATM   27  C11 UNL     1      -5.023  -1.963  -1.023  1.00  0.00     0.061 C 
HETATM   28  C12 UNL     1      -4.788  -1.826   0.446  1.00  0.00     0.318 C 
HETATM   29  O4  UNL     1      -3.844  -0.850   0.770  1.00  0.00    -0.350 OA
BRANCH  28  30
HETATM   30  N2  UNL     1      -6.047  -1.430   1.061  1.00  0.00    -0.053 N 
ATOM     31  H23 UNL     1      -6.445  -0.589   0.643  1.00  0.00     0.277 HD
ATOM     32  H22 UNL     1      -6.813  -2.066   0.840  1.00  0.00     0.277 HD
ATOM     33  H21 UNL     1      -5.887  -1.336   2.064  1.00  0.00     0.277 HD
ENDBRANCH  28  30
ENDBRANCH   3  24
TORSDOF 9
