REMARK  5 active torsions:
REMARK  status: ('A' for Active; 'I' for Inactive)
REMARK    1  A    between atoms: C1_2  and  N1_3 
REMARK    2  A    between atoms: C1_2  and  N3_13 
REMARK    3  A    between atoms: N1_3  and  C2_5 
REMARK    4  A    between atoms: C2_5  and  C3_6 
REMARK    5  A    between atoms: C3_6  and  N2_7 
ROOT
HETATM    1  N1  UNL     1      -0.271  -0.219   0.738  1.00  0.00    -0.365 N 
ATOM      2  H1  UNL     1      -0.740  -0.834   1.403  1.00  0.00     0.161 HD
ENDROOT
BRANCH   1   3
HETATM    3  C1  UNL     1      -1.092   0.571  -0.125  1.00  0.00     0.169 C 
HETATM    4  S1  UNL     1      -0.377   1.603  -1.197  1.00  0.00    -0.041 SA
BRANCH   3   5
HETATM    5  N3  UNL     1      -2.491   0.458  -0.029  1.00  0.00    -0.358 N 
HETATM    6  C8  UNL     1      -3.072  -0.450   0.915  1.00  0.00     0.125 C 
HETATM    7  C9  UNL     1      -4.549  -0.648   0.714  1.00  0.00     0.020 C 
HETATM    8  C10 UNL     1      -5.309   0.543   0.262  1.00  0.00     0.003 C 
HETATM    9  C11 UNL     1      -4.493   1.754  -0.099  1.00  0.00     0.020 C 
HETATM   10  C12 UNL     1      -3.292   1.302  -0.905  1.00  0.00     0.125 C 
ENDBRANCH   3   5
ENDBRANCH   1   3
BRANCH   1  11
HETATM   11  C2  UNL     1       1.169  -0.211   0.739  1.00  0.00     0.152 C 
BRANCH  11  12
HETATM   12  C3  UNL     1       1.687  -0.896  -0.474  1.00  0.00     0.292 C 
BRANCH  12  13
HETATM   13  N2  UNL     1       3.131  -0.909  -0.556  1.00  0.00     0.091 N 
HETATM   14  C4  UNL     1       3.684   0.393  -0.828  1.00  0.00     0.282 C 
HETATM   15  C5  UNL     1       5.195   0.213  -1.064  1.00  0.00     0.104 C 
HETATM   16  S2  UNL     1       5.859   0.041   0.650  1.00  0.00    -0.166 SA
HETATM   17  C6  UNL     1       4.385  -0.589   1.561  1.00  0.00     0.104 C 
HETATM   18  C7  UNL     1       3.742  -1.557   0.583  1.00  0.00     0.282 C 
ENDBRANCH  12  13
ENDBRANCH  11  12
ENDBRANCH   1  11
TORSDOF 5
