REMARK  5 active torsions:
REMARK  status: ('A' for Active; 'I' for Inactive)
REMARK    1  A    between atoms: O1_2  and  C2_3 
REMARK    2  A    between atoms: C2_3  and  C3_4 
REMARK    3  A    between atoms: C4_5  and  C5_6 
REMARK    4  A    between atoms: C9_10  and  O2_11 
REMARK    5  A    between atoms: C11_13  and  O3_14 
ROOT
HETATM    1  C5  UNL     1       1.411   0.054   0.303  1.00  0.00     0.089 A 
HETATM    2  C6  UNL     1       0.394   0.981   0.197  1.00  0.00     0.051 A 
HETATM    3  C7  UNL     1      -0.935   0.610   0.168  1.00  0.00    -0.019 A 
HETATM    4  C8  UNL     1      -1.963   1.540   0.061  1.00  0.00     0.052 A 
HETATM    5  C9  UNL     1      -3.289   1.162   0.033  1.00  0.00     0.102 A 
HETATM    6  C11 UNL     1      -3.571  -0.185   0.115  1.00  0.00     0.102 A 
HETATM    7  C13 UNL     1      -2.546  -1.109   0.221  1.00  0.00     0.053 A 
HETATM    8  C14 UNL     1      -1.218  -0.738   0.250  1.00  0.00    -0.007 A 
HETATM    9  C15 UNL     1      -0.203  -1.669   0.356  1.00  0.00     0.103 A 
HETATM   10  N1  UNL     1       1.076  -1.238   0.379  1.00  0.00    -0.353 N 
HETATM   11  C16 UNL     1       2.126  -2.224   0.491  1.00  0.00     0.156 C 
ENDROOT
BRANCH   1  12
HETATM   12  C4  UNL     1       2.778   0.502   0.328  1.00  0.00    -0.046 C 
HETATM   13  C3  UNL     1       3.930   0.873   0.369  1.00  0.00    -0.073 C 
BRANCH  13  14
HETATM   14  C2  UNL     1       5.332   1.309   0.423  1.00  0.00     0.261 C 
BRANCH  14  15
HETATM   15  O1  UNL     1       6.091   0.687  -0.571  1.00  0.00    -0.384 OA
HETATM   16  C1  UNL     1       6.055  -0.695  -0.404  1.00  0.00     0.202 C 
ENDBRANCH  14  15
ENDBRANCH  13  14
ENDBRANCH   1  12
BRANCH   5  17
HETATM   17  O2  UNL     1      -4.331   2.060  -0.072  1.00  0.00    -0.353 OA
HETATM   18  C10 UNL     1      -4.188   3.443  -0.162  1.00  0.00     0.210 C 
ENDBRANCH   5  17
BRANCH   6  19
HETATM   19  O3  UNL     1      -4.908  -0.580   0.087  1.00  0.00    -0.353 OA
HETATM   20  C12 UNL     1      -5.274  -1.943   0.167  1.00  0.00     0.210 C 
ENDBRANCH   6  19
TORSDOF 5
