REMARK  3 active torsions:
REMARK  status: ('A' for Active; 'I' for Inactive)
REMARK    1  A    between atoms: C2_2  and  N1_3 
REMARK    2  A    between atoms: N1_3  and  C5_6 
REMARK    3  A    between atoms: C5_6  and  C6_7 
REMARK       I    between atoms: N3_12  and  C8_13 
ROOT
HETATM    1  C6  UNL     1       0.004   0.352   0.609  1.00  0.00     0.109 C 
HETATM    2  N2  UNL     1      -0.543   0.219   1.788  1.00  0.00    -0.321 N 
ATOM      3  H2  UNL     1       0.010   0.409   2.624  1.00  0.00     0.169 HD
HETATM    4  C7  UNL     1      -1.908  -0.189   1.923  1.00  0.00     0.183 C 
HETATM    5  S1  UNL     1      -2.597  -0.358   3.402  1.00  0.00    -0.040 SA
HETATM    6  N3  UNL     1      -2.654  -0.449   0.728  1.00  0.00    -0.273 N 
HETATM    7  C8  UNL     1      -4.050  -0.249   0.698  1.00  0.00     0.223 C 
HETATM    8  C9  UNL     1      -4.869   0.257   1.818  1.00  0.00     0.117 C 
HETATM    9  O1  UNL     1      -4.702  -0.516  -0.372  1.00  0.00    -0.273 OA
HETATM   10  C10 UNL     1      -1.863  -0.898  -0.385  1.00  0.00     0.193 C 
HETATM   11  C11 UNL     1      -2.586  -1.081  -1.682  1.00  0.00     0.056 C 
HETATM   12  N4  UNL     1      -0.791   0.090  -0.533  1.00  0.00    -0.352 N 
HETATM   13  C12 UNL     1      -0.567   0.780  -1.807  1.00  0.00     0.153 C 
ENDROOT
BRANCH   1  14
HETATM   14  C5  UNL     1       1.403   0.768   0.428  1.00  0.00     0.312 C 
BRANCH  14  15
HETATM   15  N1  UNL     1       2.287  -0.234  -0.096  1.00  0.00    -0.069 N 
HETATM   16  C3  UNL     1       2.814   0.234  -1.360  1.00  0.00     0.272 C 
HETATM   17  C4  UNL     1       1.703  -1.522  -0.290  1.00  0.00     0.272 C 
BRANCH  15  18
HETATM   18  C2  UNL     1       3.448  -0.429   0.773  1.00  0.00     0.232 C 
HETATM   19  C1  UNL     1       4.333   0.772   0.833  1.00  0.00     0.035 C 
ENDBRANCH  15  18
ENDBRANCH  14  15
ENDBRANCH   1  14
TORSDOF 3
