REMARK  9 active torsions:
REMARK  status: ('A' for Active; 'I' for Inactive)
REMARK    1  A    between atoms: C5_7  and  C6_8 
REMARK    2  A    between atoms: C6_8  and  C7_9 
REMARK    3  A    between atoms: C7_9  and  C8_10 
REMARK       I    between atoms: C8_10  and  N2_12 
REMARK    4  A    between atoms: N2_12  and  C9_14 
REMARK    5  A    between atoms: N4_24  and  C15_25 
REMARK    6  A    between atoms: C15_25  and  C16_26 
REMARK    7  A    between atoms: C16_26  and  C17_27 
REMARK    8  A    between atoms: C17_27  and  C18_28 
REMARK    9  A    between atoms: C18_28  and  C19_29 
ROOT
HETATM    1  C9  UNL     1       0.542  -0.456   0.610  1.00  0.00     0.200 C 
HETATM    2  C10 UNL     1      -0.530   0.534   1.013  1.00  0.00     0.248 C 
HETATM    3  O2  UNL     1      -0.496   1.708   1.405  1.00  0.00    -0.271 OA
HETATM    4  N3  UNL     1      -1.432  -0.525   0.716  1.00  0.00    -0.298 N 
HETATM    5  C11 UNL     1      -0.556  -0.881  -0.339  1.00  0.00     0.132 C 
HETATM    6  C12 UNL     1      -0.591  -2.346  -0.580  1.00  0.00     0.106 C 
HETATM    7  S1  UNL     1      -2.377  -2.670  -0.293  1.00  0.00    -0.103 SA
HETATM    8  C13 UNL     1      -2.590  -1.299   0.907  1.00  0.00     0.248 A 
HETATM    9  C14 UNL     1      -3.189  -1.623   2.145  1.00  0.00     0.284 A 
HETATM   10  O3  UNL     1      -3.215  -2.160   3.280  1.00  0.00    -0.267 OA
HETATM   11  N4  UNL     1      -3.878  -0.806   1.106  1.00  0.00    -0.304 N 
ENDROOT
BRANCH   1  12
HETATM   12  N2  UNL     1       1.691   0.146   0.015  1.00  0.00    -0.346 N 
HETATM   13  C8  UNL     1       2.975  -0.269   0.432  1.00  0.00     0.218 C 
HETATM   14  O1  UNL     1       3.069  -1.153   1.314  1.00  0.00    -0.274 OA
ATOM     15  H2  UNL     1       1.586   0.865  -0.701  1.00  0.00     0.163 HD
BRANCH  13  16
HETATM   16  C7  UNL     1       4.224   0.300  -0.131  1.00  0.00     0.109 C 
BRANCH  16  17
HETATM   17  C6  UNL     1       5.450  -0.318   0.508  1.00  0.00     0.068 C 
BRANCH  17  18
HETATM   18  C5  UNL     1       6.696   0.241  -0.046  1.00  0.00     0.033 A 
HETATM   19  C3  UNL     1       7.246  -0.056  -1.256  1.00  0.00     0.029 A 
HETATM   20  N1  UNL     1       8.371   0.674  -1.355  1.00  0.00    -0.348 N 
HETATM   21  C4  UNL     1       6.769  -0.987  -2.317  1.00  0.00     0.070 C 
HETATM   22  C2  UNL     1       8.537   1.410  -0.250  1.00  0.00     0.077 A 
ATOM     23  H1  UNL     1       9.004   0.668  -2.155  1.00  0.00     0.167 HD
HETATM   24  C1  UNL     1       9.666   2.343   0.009  1.00  0.00     0.089 C 
HETATM   25  N7  UNL     1       7.498   1.137   0.554  1.00  0.00    -0.348 N 
ATOM     26  H7  UNL     1       7.342   1.545   1.476  1.00  0.00     0.167 HD
ENDBRANCH  17  18
ENDBRANCH  16  17
ENDBRANCH  13  16
ENDBRANCH   1  12
BRANCH  11  27
HETATM   27  C15 UNL     1      -5.111  -0.123   0.862  1.00  0.00     0.130 C 
BRANCH  27  28
HETATM   28  C16 UNL     1      -6.113  -1.043   0.198  1.00  0.00     0.020 C 
BRANCH  28  29
HETATM   29  C17 UNL     1      -7.426  -0.395  -0.080  1.00  0.00     0.009 C 
BRANCH  29  30
HETATM   30  C18 UNL     1      -7.216   0.783  -0.998  1.00  0.00     0.072 C 
BRANCH  30  31
HETATM   31  C19 UNL     1      -8.541   1.387  -1.245  1.00  0.00     0.086 C 
HETATM   32  N5  UNL     1      -8.991   1.470  -2.438  1.00  0.00    -0.391 N 
ATOM     33  H52 UNL     1      -8.454   1.125  -3.233  1.00  0.00     0.157 HD
ATOM     34  H51 UNL     1      -9.906   1.887  -2.609  1.00  0.00     0.157 HD
HETATM   35  N6  UNL     1      -9.286   1.866  -0.142  1.00  0.00    -0.088 NA
ENDBRANCH  30  31
ENDBRANCH  29  30
ENDBRANCH  28  29
ENDBRANCH  27  28
ENDBRANCH  11  27
TORSDOF 9
