REMARK  14 active torsions:
REMARK  status: ('A' for Active; 'I' for Inactive)
REMARK    1  A    between atoms: C2_2  and  C3_3 
REMARK    2  A    between atoms: C3_3  and  N1_4 
REMARK    3  A    between atoms: N1_4  and  C4_6 
REMARK    4  A    between atoms: C5_9  and  N3_10 
REMARK    5  A    between atoms: N3_10  and  C6_12 
REMARK    6  A    between atoms: C6_12  and  C7_13 
REMARK    7  A    between atoms: C7_13  and  C8_14 
REMARK    8  A    between atoms: C8_14  and  O1_15 
REMARK    9  A    between atoms: C10_19  and  N5_20 
REMARK   10  A    between atoms: N5_20  and  C11_22 
REMARK   11  A    between atoms: N6_25  and  C14_26 
REMARK   12  A    between atoms: N7_27  and  C15_29 
REMARK   13  A    between atoms: C15_29  and  N8_31 
REMARK   14  A    between atoms: N8_31  and  C16_33 
ROOT
HETATM    1  C4  UNL     1      -2.056   1.067  -0.064  1.00  0.00     0.707 A 
HETATM    2  N2  UNL     1      -3.233   0.547  -0.443  1.00  0.00    -0.022 N 
ATOM      3  H2  UNL     1      -4.096   0.970  -0.101  1.00  0.00     0.203 HD
HETATM    4  C5  UNL     1      -3.305  -0.515  -1.260  1.00  0.00     0.707 A 
HETATM    5  N4  UNL     1      -2.169  -1.074  -1.711  1.00  0.00    -0.022 N 
ATOM      6  H4  UNL     1      -2.223  -1.882  -2.331  1.00  0.00     0.203 HD
HETATM    7  C10 UNL     1      -0.937  -0.581  -1.355  1.00  0.00     0.707 A 
HETATM    8  N9  UNL     1      -0.920   0.476  -0.541  1.00  0.00    -0.021 N 
ATOM      9  H9  UNL     1      -0.017   0.861  -0.262  1.00  0.00     0.203 HD
ENDROOT
BRANCH   7  10
HETATM   10  N5  UNL     1       0.114  -1.112  -1.783  1.00  0.00    -0.220 N 
ATOM     11  H5  UNL     1      -0.065  -1.909  -2.394  1.00  0.00     0.178 HD
BRANCH  10  12
HETATM   12  C11 UNL     1       1.492  -0.852  -1.608  1.00  0.00     0.102 C 
HETATM   13  C12 UNL     1       1.930   0.399  -2.327  1.00  0.00     0.045 C 
HETATM   14  C13 UNL     1       3.410   0.621  -2.243  1.00  0.00     0.125 C 
HETATM   15  N6  UNL     1       3.779   0.625  -0.841  1.00  0.00    -0.377 N 
HETATM   16  C18 UNL     1       2.963   0.091   0.204  1.00  0.00     0.125 C 
HETATM   17  C19 UNL     1       2.017  -0.985  -0.213  1.00  0.00     0.045 C 
BRANCH  15  18
HETATM   18  C14 UNL     1       5.046   1.209  -0.530  1.00  0.00     0.180 C 
HETATM   19  N7  UNL     1       5.966   0.427  -0.089  1.00  0.00    -0.330 N 
ATOM     20  H7  UNL     1       5.734  -0.561   0.011  1.00  0.00     0.169 HD
BRANCH  19  21
HETATM   21  C15 UNL     1       7.267   0.827   0.266  1.00  0.00     0.172 C 
HETATM   22  S1  UNL     1       7.535   2.421   0.510  1.00  0.00    -0.041 SA
BRANCH  21  23
HETATM   23  N8  UNL     1       8.288  -0.128   0.401  1.00  0.00    -0.367 N 
ATOM     24  H8  UNL     1       9.227   0.177   0.659  1.00  0.00     0.161 HD
BRANCH  23  25
HETATM   25  C16 UNL     1       8.037  -1.523   0.183  1.00  0.00     0.117 C 
HETATM   26  C17 UNL     1       9.266  -2.366   0.380  1.00  0.00     0.026 C 
ENDBRANCH  23  25
ENDBRANCH  21  23
ENDBRANCH  19  21
ENDBRANCH  15  18
ENDBRANCH  10  12
ENDBRANCH   7  10
BRANCH   4  27
HETATM   27  N3  UNL     1      -4.421  -1.017  -1.626  1.00  0.00    -0.225 N 
ATOM     28  H3  UNL     1      -4.429  -1.825  -2.248  1.00  0.00     0.177 HD
BRANCH  27  29
HETATM   29  C6  UNL     1      -5.666  -0.458  -1.172  1.00  0.00     0.140 C 
BRANCH  29  30
HETATM   30  C7  UNL     1      -5.991  -1.085   0.177  1.00  0.00     0.046 C 
BRANCH  30  31
HETATM   31  C8  UNL     1      -7.270  -0.569   0.739  1.00  0.00     0.168 C 
BRANCH  31  32
HETATM   32  O1  UNL     1      -7.527  -1.142   1.964  1.00  0.00    -0.396 OA
HETATM   33  C9  UNL     1      -7.656  -2.511   1.973  1.00  0.00     0.201 C 
ENDBRANCH  31  32
ENDBRANCH  30  31
ENDBRANCH  29  30
ENDBRANCH  27  29
ENDBRANCH   4  27
BRANCH   1  34
HETATM   34  N1  UNL     1      -1.958   2.087   0.719  1.00  0.00    -0.222 N 
ATOM     35  H1  UNL     1      -1.049   2.462   0.990  1.00  0.00     0.178 HD
BRANCH  34  36
HETATM   36  C3  UNL     1      -3.198   2.682   1.201  1.00  0.00     0.164 C 
BRANCH  36  37
HETATM   37  C2  UNL     1      -2.939   3.805   2.124  1.00  0.00    -0.017 C 
HETATM   38  C1  UNL     1      -3.386   3.763   3.357  1.00  0.00     0.008 C 
ENDBRANCH  36  37
ENDBRANCH  34  36
ENDBRANCH   1  34
TORSDOF 14
