REMARK  16 active torsions:
REMARK  status: ('A' for Active; 'I' for Inactive)
REMARK    1  A    between atoms: N1_2  and  C3_4 
REMARK    2  A    between atoms: C3_4  and  C4_5 
REMARK    3  A    between atoms: C3_4  and  C22_36 
REMARK    4  A    between atoms: C4_5  and  C5_6 
REMARK    5  A    between atoms: C5_6  and  C6_7 
REMARK    6  A    between atoms: C5_6  and  C10_15 
REMARK    7  A    between atoms: C6_7  and  C7_8 
REMARK    8  A    between atoms: C7_8  and  C8_9 
REMARK    9  A    between atoms: C8_9  and  N2_10 
REMARK   10  A    between atoms: C10_15  and  O1_16 
REMARK   11  A    between atoms: C10_15  and  N5_18 
REMARK   12  A    between atoms: N5_18  and  C11_19 
REMARK   13  A    between atoms: N5_18  and  C18_32 
REMARK   14  A    between atoms: C11_19  and  C12_20 
REMARK       I    between atoms: C22_36  and  N9_38 
REMARK   15  A    between atoms: N9_38  and  N10_40 
REMARK   16  A    between atoms: N10_40  and  C23_42 
ROOT
HETATM    1  C5  UNL     1      -0.872  -0.139  -0.071  1.00  0.00     0.063 C 
ENDROOT
BRANCH   1   2
HETATM    2  C4  UNL     1      -1.070   0.972   0.918  1.00  0.00     0.058 C 
BRANCH   2   3
HETATM    3  C3  UNL     1      -1.279   2.331   0.414  1.00  0.00     0.315 C 
BRANCH   3   4
HETATM    4  N1  UNL     1      -1.438   3.213   1.586  1.00  0.00     0.093 N 
HETATM    5  C1  UNL     1      -0.220   3.253   2.381  1.00  0.00     0.310 C 
HETATM    6  C2  UNL     1      -2.452   2.618   2.474  1.00  0.00     0.310 C 
ENDBRANCH   3   4
BRANCH   3   7
HETATM    7  C22 UNL     1      -2.435   2.572  -0.454  1.00  0.00     0.269 C 
HETATM    8  O2  UNL     1      -2.727   1.825  -1.441  1.00  0.00    -0.269 OA
HETATM    9  N9  UNL     1      -3.279   3.682  -0.204  1.00  0.00    -0.266 N 
ATOM     10  H9  UNL     1      -3.057   4.294   0.581  1.00  0.00     0.190 HD
BRANCH   9  11
HETATM   11  N10 UNL     1      -4.398   3.977  -0.981  1.00  0.00    -0.275 N 
ATOM     12  H10 UNL     1      -5.276   3.509  -0.754  1.00  0.00     0.189 HD
BRANCH  11  13
HETATM   13  C23 UNL     1      -4.390   4.882  -2.060  1.00  0.00     0.368 C 
HETATM   14  O3  UNL     1      -3.328   5.481  -2.372  1.00  0.00    -0.282 OA
ENDBRANCH  11  13
ENDBRANCH   9  11
ENDBRANCH   3   7
ENDBRANCH   2   3
ENDBRANCH   1   2
BRANCH   1  15
HETATM   15  C6  UNL     1      -0.677  -1.389   0.743  1.00  0.00     0.014 C 
BRANCH  15  16
HETATM   16  C7  UNL     1      -0.509  -2.653  -0.018  1.00  0.00     0.020 C 
BRANCH  16  17
HETATM   17  C8  UNL     1      -1.687  -3.063  -0.855  1.00  0.00     0.122 C 
BRANCH  17  18
HETATM   18  N2  UNL     1      -2.863  -3.254   0.009  1.00  0.00    -0.367 N 
HETATM   19  C9  UNL     1      -3.649  -4.256  -0.138  1.00  0.00     0.196 C 
HETATM   20  N3  UNL     1      -3.406  -5.234  -1.158  1.00  0.00    -0.067 NA
HETATM   21  N4  UNL     1      -4.788  -4.467   0.676  1.00  0.00    -0.067 NA
ATOM     22  H2  UNL     1      -3.057  -2.573   0.743  1.00  0.00     0.161 HD
ENDBRANCH  17  18
ENDBRANCH  16  17
ENDBRANCH  15  16
ENDBRANCH   1  15
BRANCH   1  23
HETATM   23  C10 UNL     1       0.164   0.005  -1.058  1.00  0.00     0.122 C 
BRANCH  23  24
HETATM   24  O1  UNL     1      -0.252  -0.276  -2.277  1.00  0.00    -0.349 OA
ATOM     25  H1  UNL     1       0.432  -0.181  -2.929  1.00  0.00     0.219 HD
ENDBRANCH  23  24
BRANCH  23  26
HETATM   26  N5  UNL     1       1.506   0.372  -1.036  1.00  0.00    -0.332 N 
BRANCH  26  27
HETATM   27  C11 UNL     1       2.267   0.707   0.099  1.00  0.00     0.105 C 
BRANCH  27  28
HETATM   28  C12 UNL     1       3.006  -0.292   0.832  1.00  0.00    -0.018 A 
HETATM   29  C13 UNL     1       3.163  -1.603   0.513  1.00  0.00     0.015 A 
HETATM   30  C14 UNL     1       3.900  -2.494   1.289  1.00  0.00     0.034 A 
HETATM   31  C15 UNL     1       4.501  -2.052   2.427  1.00  0.00     0.077 A 
HETATM   32  N6  UNL     1       5.252  -2.651   3.351  1.00  0.00    -0.284 N 
HETATM   33  C16 UNL     1       4.362  -0.736   2.776  1.00  0.00     0.078 A 
HETATM   34  N7  UNL     1       5.564  -1.723   4.245  1.00  0.00    -0.242 N 
ATOM     35  H6  UNL     1       5.532  -3.632   3.367  1.00  0.00     0.188 HD
HETATM   36  N8  UNL     1       5.036  -0.572   3.911  1.00  0.00    -0.284 N 
ATOM     37  H7  UNL     1       6.134  -1.883   5.075  1.00  0.00     0.208 HD
ATOM     38  H8  UNL     1       5.126   0.300   4.432  1.00  0.00     0.188 HD
HETATM   39  C17 UNL     1       3.639   0.127   2.011  1.00  0.00     0.046 A 
ENDBRANCH  27  28
ENDBRANCH  26  27
BRANCH  26  40
HETATM   40  C18 UNL     1       2.163   0.466  -2.363  1.00  0.00     0.027 C 
HETATM   41  C19 UNL     1       3.580   0.916  -2.277  1.00  0.00     0.038 C 
HETATM   42  C20 UNL     1       1.393   1.552  -3.134  1.00  0.00     0.038 C 
HETATM   43  C21 UNL     1       2.089  -0.783  -3.157  1.00  0.00     0.038 C 
ENDBRANCH  26  40
ENDBRANCH  23  26
ENDBRANCH   1  23
TORSDOF 16
