REMARK  15 active torsions:
REMARK  status: ('A' for Active; 'I' for Inactive)
REMARK    1  A    between atoms: S1_2  and  C3_4 
REMARK    2  A    between atoms: C3_4  and  C4_5 
REMARK    3  A    between atoms: C4_5  and  O1_6 
REMARK    4  A    between atoms: C4_5  and  C5_8 
REMARK    5  A    between atoms: C5_8  and  N1_11 
REMARK    6  A    between atoms: N1_11  and  C8_13 
REMARK    7  A    between atoms: C8_13  and  C9_17 
REMARK    8  A    between atoms: C9_17  and  C10_18 
REMARK    9  A    between atoms: C9_17  and  N3_27 
REMARK   10  A    between atoms: C10_18  and  C11_19 
REMARK   11  A    between atoms: C11_19  and  C12_20 
REMARK   12  A    between atoms: C12_20  and  C13_21 
REMARK   13  A    between atoms: C13_21  and  C14_22 
REMARK   14  A    between atoms: C14_22  and  S2_23 
REMARK   15  A    between atoms: C18_32  and  N5_33 
ROOT
HETATM    1  C9  UNL     1       0.727   0.488   1.010  1.00  0.00     0.058 C 
ENDROOT
BRANCH   1   2
HETATM    2  C8  UNL     1       0.024  -0.262  -0.036  1.00  0.00     0.118 C 
HETATM    3  N2  UNL     1       0.420  -1.433  -0.398  1.00  0.00    -0.384 N 
ATOM      4  H22 UNL     1      -0.069  -1.955  -1.125  1.00  0.00     0.157 HD
ATOM      5  H21 UNL     1       1.243  -1.766   0.104  1.00  0.00     0.157 HD
BRANCH   2   6
HETATM    6  N1  UNL     1      -1.118   0.200  -0.732  1.00  0.00    -0.364 N 
ATOM      7  H1  UNL     1      -0.931   0.856  -1.491  1.00  0.00     0.162 HD
BRANCH   6   8
HETATM    8  C5  UNL     1      -2.486  -0.117  -0.527  1.00  0.00     0.051 C 
HETATM    9  C6  UNL     1      -3.294   0.582  -1.643  1.00  0.00     0.041 C 
HETATM   10  C7  UNL     1      -3.014   0.390   0.796  1.00  0.00     0.041 C 
BRANCH   8  11
HETATM   11  C4  UNL     1      -2.847  -1.571  -0.652  1.00  0.00     0.154 C 
BRANCH  11  12
HETATM   12  C3  UNL     1      -4.308  -1.813  -0.762  1.00  0.00     0.096 C 
BRANCH  12  13
HETATM   13  S1  UNL     1      -5.221  -1.654   0.741  1.00  0.00    -0.225 SA
HETATM   14  C1  UNL     1      -6.937  -1.972   0.384  1.00  0.00     0.078 C 
HETATM   15  C2  UNL     1      -4.697  -2.959   1.855  1.00  0.00     0.078 C 
ENDBRANCH  12  13
ENDBRANCH  11  12
BRANCH  11  16
HETATM   16  O1  UNL     1      -2.259  -2.426   0.242  1.00  0.00    -0.392 OA
ATOM     17  H1  UNL     1      -1.324  -2.271   0.312  1.00  0.00     0.210 HD
ENDBRANCH  11  16
ENDBRANCH   8  11
ENDBRANCH   6   8
ENDBRANCH   2   6
ENDBRANCH   1   2
BRANCH   1  18
HETATM   18  C10 UNL     1       1.960  -0.167   1.503  1.00  0.00     0.061 C 
BRANCH  18  19
HETATM   19  C11 UNL     1       3.071  -0.443   0.566  1.00  0.00     0.006 C 
BRANCH  19  20
HETATM   20  C12 UNL     1       4.252  -1.116   1.312  1.00  0.00     0.001 C 
BRANCH  20  21
HETATM   21  C13 UNL     1       5.355  -1.371   0.325  1.00  0.00     0.015 C 
BRANCH  21  22
HETATM   22  C14 UNL     1       5.018  -2.260  -0.816  1.00  0.00     0.140 C 
BRANCH  22  23
HETATM   23  S2  UNL     1       4.528  -3.885  -0.388  1.00  0.00     0.140 S 
HETATM   24  C15 UNL     1       4.189  -4.763  -1.913  1.00  0.00     0.161 C 
HETATM   25  O2  UNL     1       5.685  -4.597   0.268  1.00  0.00    -0.228 OA
HETATM   26  O3  UNL     1       3.313  -3.959   0.455  1.00  0.00    -0.228 OA
ENDBRANCH  22  23
ENDBRANCH  21  22
ENDBRANCH  20  21
ENDBRANCH  19  20
ENDBRANCH  18  19
ENDBRANCH   1  18
BRANCH   1  27
HETATM   27  N3  UNL     1       0.790   1.904   0.801  1.00  0.00    -0.308 N 
HETATM   28  C16 UNL     1       1.496   2.565  -0.258  1.00  0.00     0.191 A 
HETATM   29  C17 UNL     1       1.147   4.011  -0.177  1.00  0.00     0.066 A 
HETATM   30  N4  UNL     1       1.497   5.012  -0.975  1.00  0.00    -0.193 N 
HETATM   31  C20 UNL     1       0.380   4.227   0.941  1.00  0.00     0.125 A 
HETATM   32  C18 UNL     1       1.118   6.278  -0.724  1.00  0.00     0.679 A 
ATOM     33  H4  UNL     1       2.067   4.817  -1.798  1.00  0.00     0.184 HD
HETATM   34  N6  UNL     1       0.361   6.545   0.369  1.00  0.00    -0.155 N 
HETATM   35  C19 UNL     1      -0.004   5.522   1.194  1.00  0.00     0.277 A 
ATOM     36  H6  UNL     1       0.068   7.501   0.572  1.00  0.00     0.187 HD
HETATM   37  O4  UNL     1      -0.705   5.818   2.194  1.00  0.00    -0.267 OA
HETATM   38  C21 UNL     1       0.157   2.935   1.553  1.00  0.00     0.266 A 
HETATM   39  O5  UNL     1      -0.524   2.807   2.622  1.00  0.00    -0.267 OA
BRANCH  32  40
HETATM   40  N5  UNL     1       1.445   7.266  -1.483  1.00  0.00    -0.234 N 
ATOM     41  H52 UNL     1       2.014   7.065  -2.305  1.00  0.00     0.174 HD
ATOM     42  H51 UNL     1       1.158   8.226  -1.293  1.00  0.00     0.174 HD
ENDBRANCH  32  40
ENDBRANCH   1  27
TORSDOF 15
