REMARK  13 active torsions:
REMARK  status: ('A' for Active; 'I' for Inactive)
REMARK    1  A    between atoms: C2_2  and  C3_3 
REMARK    2  A    between atoms: C3_3  and  C4_4 
REMARK    3  A    between atoms: C4_4  and  N1_5 
REMARK       I    between atoms: N1_5  and  C5_7 
REMARK    4  A    between atoms: N3_9  and  C6_11 
REMARK    5  A    between atoms: C6_11  and  C7_12 
REMARK    6  A    between atoms: C7_12  and  C8_13 
REMARK    7  A    between atoms: C8_13  and  C9_14 
REMARK    8  A    between atoms: N4_16  and  S1_17 
REMARK    9  A    between atoms: S1_17  and  N5_20 
REMARK   10  A    between atoms: C17_31  and  C18_32 
REMARK   11  A    between atoms: C18_32  and  C19_33 
REMARK   12  A    between atoms: C19_33  and  C20_34 
REMARK   13  A    between atoms: C20_34  and  N7_35 
ROOT
HETATM    1  C9  UNL     1      -0.960   0.424  -0.809  1.00  0.00     0.098 C 
HETATM    2  C10 UNL     1      -0.696   0.079   0.591  1.00  0.00     0.167 C 
HETATM    3  N4  UNL     1      -1.843  -0.341   1.429  1.00  0.00    -0.221 N 
HETATM    4  C15 UNL     1      -2.888   0.466   1.183  1.00  0.00    -0.001 C 
HETATM    5  C16 UNL     1      -3.908   1.315   0.769  1.00  0.00     0.090 C 
HETATM    6  N6  UNL     1      -5.087   1.057   1.170  1.00  0.00    -0.393 N 
ATOM      7  H61 UNL     1      -5.835   1.680   0.866  1.00  0.00     0.156 HD
ATOM      8  H62 UNL     1      -5.101   0.235   1.774  1.00  0.00     0.156 HD
HETATM    9  C17 UNL     1      -3.887   2.556  -0.142  1.00  0.00     0.144 C 
HETATM   10  N8  UNL     1      -2.796   2.380  -1.125  1.00  0.00    -0.350 N 
ATOM     11  H8  UNL     1      -2.966   2.958  -1.948  1.00  0.00     0.163 HD
HETATM   12  C21 UNL     1      -1.570   1.646  -1.279  1.00  0.00     0.224 C 
HETATM   13  O4  UNL     1      -0.877   2.357  -2.090  1.00  0.00    -0.273 OA
ENDROOT
BRANCH   1  14
HETATM   14  C8  UNL     1       0.446   0.358  -1.462  1.00  0.00     0.017 C 
BRANCH  14  15
HETATM   15  C7  UNL     1       1.399   1.315  -0.800  1.00  0.00     0.020 C 
BRANCH  15  16
HETATM   16  C6  UNL     1       2.732   1.173  -1.535  1.00  0.00     0.122 C 
BRANCH  16  17
HETATM   17  N3  UNL     1       3.245  -0.183  -1.440  1.00  0.00    -0.365 N 
HETATM   18  C5  UNL     1       3.948  -0.570  -0.422  1.00  0.00     0.183 C 
HETATM   19  N1  UNL     1       4.423  -1.901  -0.379  1.00  0.00    -0.365 N 
HETATM   20  N2  UNL     1       4.249   0.309   0.648  1.00  0.00    -0.064 NA
ATOM     21  H1  UNL     1       3.794  -2.667  -0.136  1.00  0.00     0.162 HD
ATOM     22  H3  UNL     1       3.048  -0.845  -2.191  1.00  0.00     0.162 HD
BRANCH  19  23
HETATM   23  C4  UNL     1       5.814  -2.162  -0.684  1.00  0.00     0.122 C 
BRANCH  23  24
HETATM   24  C3  UNL     1       6.750  -1.606   0.372  1.00  0.00     0.019 C 
BRANCH  24  25
HETATM   25  C2  UNL     1       8.164  -1.968  -0.095  1.00  0.00    -0.003 C 
HETATM   26  C1  UNL     1       8.384  -1.331  -1.429  1.00  0.00     0.005 C 
ENDBRANCH  24  25
ENDBRANCH  23  24
ENDBRANCH  19  23
ENDBRANCH  16  17
ENDBRANCH  15  16
ENDBRANCH  14  15
ENDBRANCH   1  14
BRANCH   3  27
HETATM   27  S1  UNL     1      -1.954  -1.958   1.790  1.00  0.00     0.333 S 
HETATM   28  O1  UNL     1      -0.827  -2.399   2.740  1.00  0.00    -0.181 OA
HETATM   29  O2  UNL     1      -3.206  -2.111   2.681  1.00  0.00    -0.181 OA
BRANCH  27  30
HETATM   30  N5  UNL     1      -2.138  -3.071   0.546  1.00  0.00    -0.269 N 
HETATM   31  C11 UNL     1      -3.322  -2.889  -0.203  1.00  0.00     0.168 C 
HETATM   32  C12 UNL     1      -3.709  -4.135  -0.988  1.00  0.00     0.189 C 
HETATM   33  O3  UNL     1      -2.643  -4.956  -1.238  1.00  0.00    -0.385 OA
HETATM   34  C13 UNL     1      -1.424  -4.320  -1.417  1.00  0.00     0.213 C 
HETATM   35  C14 UNL     1      -1.027  -3.512  -0.188  1.00  0.00     0.103 C 
ENDBRANCH  27  30
ENDBRANCH   3  27
BRANCH   9  36
HETATM   36  C18 UNL     1      -3.678   3.793   0.660  1.00  0.00     0.034 C 
BRANCH  36  37
HETATM   37  C19 UNL     1      -4.763   4.000   1.676  1.00  0.00     0.029 C 
BRANCH  37  38
HETATM   38  C20 UNL     1      -4.536   5.287   2.471  1.00  0.00     0.230 C 
BRANCH  38  39
HETATM   39  N7  UNL     1      -5.634   5.390   3.413  1.00  0.00    -0.079 N 
ATOM     40  H73 UNL     1      -6.552   5.346   2.970  1.00  0.00     0.274 HD
ATOM     41  H72 UNL     1      -5.738   4.564   4.003  1.00  0.00     0.274 HD
ATOM     42  H71 UNL     1      -5.483   6.248   3.943  1.00  0.00     0.274 HD
ENDBRANCH  38  39
ENDBRANCH  37  38
ENDBRANCH  36  37
ENDBRANCH   9  36
TORSDOF 13
