REMARK  16 active torsions:
REMARK  status: ('A' for Active; 'I' for Inactive)
REMARK    1  A    between atoms: S1_2  and  C2_3 
REMARK    2  A    between atoms: C3_4  and  O1_5 
REMARK    3  A    between atoms: C4_7  and  C5_8 
REMARK    4  A    between atoms: C5_8  and  N1_9 
REMARK    5  A    between atoms: N1_9  and  C8_12 
REMARK    6  A    between atoms: C8_12  and  C9_13 
REMARK    7  A    between atoms: C9_13  and  C10_14 
REMARK    8  A    between atoms: C10_14  and  C11_15 
REMARK    9  A    between atoms: C11_15  and  N2_16 
REMARK   10  A    between atoms: N2_16  and  C12_17 
REMARK   11  A    between atoms: C12_17  and  C13_18 
REMARK   12  A    between atoms: C18_25  and  C19_26 
REMARK   13  A    between atoms: C19_26  and  O4_27 
REMARK   14  A    between atoms: C20_29  and  O5_30 
REMARK   15  A    between atoms: O5_30  and  C21_31 
REMARK   16  A    between atoms: C22_34  and  O7_35 
ROOT
HETATM    1  C2  UNL     1      -4.575   0.734   1.449  1.00  0.00     0.107 C 
HETATM    2  C3  UNL     1      -3.188   0.912   0.962  1.00  0.00     0.140 C 
HETATM    3  C4  UNL     1      -2.289  -0.269   1.417  1.00  0.00     0.050 C 
HETATM    4  C18 UNL     1      -2.894  -1.455   0.743  1.00  0.00     0.050 C 
HETATM    5  C20 UNL     1      -4.186  -1.218   0.040  1.00  0.00     0.169 C 
HETATM    6  C22 UNL     1      -5.222  -0.370   0.672  1.00  0.00     0.164 C 
ENDROOT
BRANCH   3   7
HETATM    7  C5  UNL     1      -0.926   0.131   1.018  1.00  0.00     0.244 C 
BRANCH   7   8
HETATM    8  N1  UNL     1       0.204  -0.649   1.297  1.00  0.00    -0.074 N 
HETATM    9  C6  UNL     1       0.474  -1.704   0.357  1.00  0.00     0.272 C 
HETATM   10  C7  UNL     1       0.220  -1.253   2.617  1.00  0.00     0.272 C 
BRANCH   8  11
HETATM   11  C8  UNL     1       1.444   0.180   1.267  1.00  0.00     0.236 C 
BRANCH  11  12
HETATM   12  C9  UNL     1       1.555   1.019   0.047  1.00  0.00     0.029 C 
BRANCH  12  13
HETATM   13  C10 UNL     1       2.771   1.857   0.085  1.00  0.00     0.029 C 
BRANCH  13  14
HETATM   14  C11 UNL     1       4.106   1.255   0.103  1.00  0.00     0.238 C 
BRANCH  14  15
HETATM   15  N2  UNL     1       4.589   0.508  -0.985  1.00  0.00    -0.058 N 
HETATM   16  C14 UNL     1       6.041   0.795  -1.094  1.00  0.00     0.238 C 
HETATM   17  C15 UNL     1       6.080   2.196  -1.685  1.00  0.00     0.029 C 
HETATM   18  C16 UNL     1       4.841   2.298  -2.524  1.00  0.00     0.029 C 
HETATM   19  C17 UNL     1       4.152   1.011  -2.285  1.00  0.00     0.238 C 
BRANCH  15  20
HETATM   20  C12 UNL     1       4.369  -0.904  -0.963  1.00  0.00     0.349 C 
BRANCH  20  21
HETATM   21  C13 UNL     1       4.949  -1.684   0.112  1.00  0.00     0.199 C 
HETATM   22  O2  UNL     1       4.709  -2.927   0.178  1.00  0.00    -0.647 OA
HETATM   23  O3  UNL     1       5.759  -1.163   1.084  1.00  0.00    -0.647 OA
ENDBRANCH  20  21
ENDBRANCH  15  20
ENDBRANCH  14  15
ENDBRANCH  13  14
ENDBRANCH  12  13
ENDBRANCH  11  12
ENDBRANCH   8  11
ENDBRANCH   7   8
ENDBRANCH   3   7
BRANCH   2  24
HETATM   24  O1  UNL     1      -2.704   2.106   1.480  1.00  0.00    -0.394 OA
ATOM     25  H1  UNL     1      -1.814   2.220   1.168  1.00  0.00     0.210 HD
ENDBRANCH   2  24
BRANCH   4  26
HETATM   26  C19 UNL     1      -3.090  -2.652   1.648  1.00  0.00     0.172 C 
BRANCH  26  27
HETATM   27  O4  UNL     1      -3.906  -2.373   2.734  1.00  0.00    -0.400 OA
ATOM     28  H4  UNL     1      -4.029  -3.124   3.302  1.00  0.00     0.209 HD
ENDBRANCH  26  27
ENDBRANCH   4  26
BRANCH   1  29
HETATM   29  S1  UNL     1      -5.458   2.306   1.288  1.00  0.00    -0.163 SA
HETATM   30  C1  UNL     1      -5.682   2.798  -0.418  1.00  0.00     0.090 C 
ENDBRANCH   1  29
BRANCH   5  31
HETATM   31  O5  UNL     1      -3.973  -0.888  -1.335  1.00  0.00    -0.298 OA
BRANCH  31  32
HETATM   32  C21 UNL     1      -4.321  -1.668  -2.397  1.00  0.00     0.373 C 
HETATM   33  N3  UNL     1      -4.093  -1.305  -3.757  1.00  0.00    -0.032 NA
HETATM   34  O6  UNL     1      -4.879  -2.778  -2.168  1.00  0.00    -0.242 OA
ENDBRANCH  31  32
ENDBRANCH   5  31
BRANCH   6  35
HETATM   35  O7  UNL     1      -6.096  -1.128   1.456  1.00  0.00    -0.392 OA
ATOM     36  H7  UNL     1      -6.507  -1.829   0.963  1.00  0.00     0.210 HD
ENDBRANCH   6  35
TORSDOF 16
