REMARK  6 active torsions:
REMARK  status: ('A' for Active; 'I' for Inactive)
REMARK    1  A    between atoms: N2_3  and  S1_5 
REMARK    2  A    between atoms: S1_5  and  N3_8 
REMARK    3  A    between atoms: N3_8  and  C2_10 
REMARK    4  A    between atoms: C2_10  and  C3_11 
REMARK    5  A    between atoms: C3_11  and  O3_12 
REMARK    6  A    between atoms: O3_12  and  C4_13 
ROOT
HETATM    1  N1  UNL     1      -4.802  -3.666  -1.313  1.00  0.00    -0.171 NA
HETATM    2  C1  UNL     1      -4.219  -2.914  -0.635  1.00  0.00     0.193 C 
HETATM    3  N2  UNL     1      -3.530  -2.027   0.187  1.00  0.00    -0.204 N 
ATOM      4  H2  UNL     1      -2.798  -2.353   0.818  1.00  0.00     0.192 HD
ENDROOT
BRANCH   3   5
HETATM    5  S1  UNL     1      -3.960  -0.343   0.103  1.00  0.00     0.327 S 
HETATM    6  O1  UNL     1      -3.685   0.273   1.444  1.00  0.00    -0.182 OA
HETATM    7  O2  UNL     1      -5.442  -0.277  -0.234  1.00  0.00    -0.182 OA
BRANCH   5   8
HETATM    8  N3  UNL     1      -3.015   0.450  -1.079  1.00  0.00    -0.300 N 
ATOM      9  H3  UNL     1      -3.272   0.544  -2.062  1.00  0.00     0.173 HD
BRANCH   8  10
HETATM   10  C2  UNL     1      -1.791   0.973  -0.487  1.00  0.00     0.160 C 
BRANCH  10  11
HETATM   11  C3  UNL     1      -1.016   1.654  -1.584  1.00  0.00     0.199 C 
BRANCH  11  12
HETATM   12  O3  UNL     1       0.173   2.186  -1.094  1.00  0.00    -0.320 OA
BRANCH  12  13
HETATM   13  C4  UNL     1       1.167   1.429  -0.536  1.00  0.00     0.225 A 
HETATM   14  N4  UNL     1       1.280   0.101  -0.323  1.00  0.00    -0.314 N 
HETATM   15  C5  UNL     1       2.454  -0.177   0.262  1.00  0.00     0.148 A 
ATOM     16  H4  UNL     1       0.574  -0.592  -0.571  1.00  0.00     0.170 HD
HETATM   17  C6  UNL     1       3.082  -1.337   0.697  1.00  0.00     0.277 A 
HETATM   18  C8  UNL     1       3.132   1.008   0.439  1.00  0.00     0.142 A 
HETATM   19  O4  UNL     1       2.441  -2.425   0.526  1.00  0.00    -0.266 OA
HETATM   20  N5  UNL     1       4.299  -1.326   1.268  1.00  0.00    -0.318 N 
HETATM   21  C7  UNL     1       4.935  -0.146   1.425  1.00  0.00     0.185 A 
ATOM     22  H5  UNL     1       4.734  -2.195   1.577  1.00  0.00     0.169 HD
HETATM   23  N6  UNL     1       4.348   0.987   1.013  1.00  0.00    -0.336 N 
ATOM     24  H6  UNL     1       4.844   1.869   1.140  1.00  0.00     0.168 HD
HETATM   25  N7  UNL     1       2.329   1.958  -0.053  1.00  0.00    -0.306 N 
ATOM     26  H7  UNL     1       2.556   2.952  -0.066  1.00  0.00     0.171 HD
ENDBRANCH  12  13
ENDBRANCH  11  12
ENDBRANCH  10  11
ENDBRANCH   8  10
ENDBRANCH   5   8
ENDBRANCH   3   5
TORSDOF 6
