REMARK  7 active torsions:
REMARK  status: ('A' for Active; 'I' for Inactive)
REMARK    1  A    between atoms: C2_2  and  C3_3 
REMARK    2  A    between atoms: C3_3  and  N1_4 
REMARK    3  A    between atoms: C7_14  and  N4_15 
REMARK    4  A    between atoms: N4_15  and  C8_17 
REMARK    5  A    between atoms: N5_19  and  C10_20 
REMARK    6  A    between atoms: C10_20  and  C11_21 
REMARK    7  A    between atoms: C11_21  and  N6_22 
ROOT
HETATM    1  N1  UNL     1      -2.673   1.046  -0.018  1.00  0.00    -0.279 N 
HETATM    2  C4  UNL     1      -3.391   2.065   0.457  1.00  0.00     0.331 A 
HETATM    3  O1  UNL     1      -4.481   2.445  -0.053  1.00  0.00    -0.246 OA
HETATM    4  N2  UNL     1      -2.932   2.723   1.537  1.00  0.00    -0.273 N 
ATOM      5  H2  UNL     1      -3.462   3.506   1.920  1.00  0.00     0.173 HD
HETATM    6  C5  UNL     1      -1.777   2.351   2.111  1.00  0.00     0.280 A 
HETATM    7  O2  UNL     1      -1.352   2.984   3.134  1.00  0.00    -0.265 OA
HETATM    8  C6  UNL     1      -1.028   1.299   1.626  1.00  0.00     0.162 A 
HETATM    9  N3  UNL     1       0.125   0.713   1.973  1.00  0.00    -0.182 N 
ATOM     10  H3  UNL     1       0.709   0.996   2.760  1.00  0.00     0.184 HD
HETATM   11  C7  UNL     1       0.403  -0.300   1.136  1.00  0.00     0.682 A 
HETATM   12  N7  UNL     1      -0.608  -0.328   0.258  1.00  0.00    -0.174 N 
ATOM     13  H7  UNL     1      -0.684  -0.994  -0.511  1.00  0.00     0.186 HD
HETATM   14  C12 UNL     1      -1.508   0.633   0.521  1.00  0.00     0.160 A 
ENDROOT
BRANCH  11  15
HETATM   15  N4  UNL     1       1.551  -1.135   1.214  1.00  0.00    -0.192 N 
ATOM     16  H4  UNL     1       2.227  -0.966   1.959  1.00  0.00     0.180 HD
BRANCH  15  17
HETATM   17  C8  UNL     1       1.800  -2.201   0.295  1.00  0.00     0.365 A 
HETATM   18  C9  UNL     1       1.973  -2.038  -1.132  1.00  0.00     0.332 A 
HETATM   19  N5  UNL     1       3.099  -2.245  -0.286  1.00  0.00     0.119 N 
BRANCH  19  20
HETATM   20  C10 UNL     1       4.134  -1.328  -0.056  1.00  0.00     0.302 C 
BRANCH  20  21
HETATM   21  C11 UNL     1       3.968   0.062  -0.571  1.00  0.00     0.260 C 
BRANCH  21  22
HETATM   22  N6  UNL     1       5.188   0.798  -0.195  1.00  0.00    -0.078 N 
ATOM     23  H63 UNL     1       5.391   0.759   0.804  1.00  0.00     0.274 HD
ATOM     24  H62 UNL     1       6.045   0.349  -0.516  1.00  0.00     0.274 HD
ATOM     25  H61 UNL     1       5.074   1.749  -0.547  1.00  0.00     0.274 HD
ENDBRANCH  21  22
ENDBRANCH  20  21
ENDBRANCH  19  20
ENDBRANCH  15  17
ENDBRANCH  11  15
BRANCH   1  26
HETATM   26  C3  UNL     1      -3.162   0.325  -1.187  1.00  0.00     0.162 C 
BRANCH  26  27
HETATM   27  C2  UNL     1      -4.029  -0.813  -0.802  1.00  0.00    -0.017 C 
HETATM   28  C1  UNL     1      -5.294  -0.921  -1.183  1.00  0.00     0.008 C 
ENDBRANCH  26  27
ENDBRANCH   1  26
TORSDOF 7
