REMARK  3 active torsions:
REMARK  status: ('A' for Active; 'I' for Inactive)
REMARK    1  A    between atoms: N1_1  and  C1_5 
REMARK    2  A    between atoms: C1_5  and  C2_6 
REMARK    3  A    between atoms: C2_6  and  N2_7 
ROOT
HETATM    1  N2  UNL     1      -0.311   1.325   0.377  1.00  0.00    -0.361 N 
ATOM      2  H2  UNL     1      -0.349   2.141   0.987  1.00  0.00     0.162 HD
HETATM    3  C3  UNL     1       0.772   0.667   0.245  1.00  0.00     0.171 C 
HETATM    4  N3  UNL     1       2.042   0.940   0.887  1.00  0.00    -0.361 N 
ATOM      5  H3  UNL     1       2.419   1.842   1.179  1.00  0.00     0.162 HD
HETATM    6  C4  UNL     1       2.652  -0.369   1.018  1.00  0.00     0.142 C 
HETATM    7  C5  UNL     1       2.320  -0.956  -0.350  1.00  0.00     0.142 C 
HETATM    8  N4  UNL     1       0.945  -0.483  -0.573  1.00  0.00    -0.361 N 
ATOM      9  H4  UNL     1       0.251  -0.899  -1.194  1.00  0.00     0.162 HD
ENDROOT
BRANCH   1  10
HETATM   10  C2  UNL     1      -1.482   0.900  -0.348  1.00  0.00     0.150 C 
BRANCH  10  11
HETATM   11  C1  UNL     1      -2.239  -0.055   0.578  1.00  0.00     0.249 C 
BRANCH  11  12
HETATM   12  N1  UNL     1      -3.416  -0.531  -0.089  1.00  0.00    -0.078 N 
ATOM     13  H13 UNL     1      -4.006   0.231  -0.423  1.00  0.00     0.274 HD
ATOM     14  H12 UNL     1      -3.203  -0.956  -0.992  1.00  0.00     0.274 HD
ATOM     15  H11 UNL     1      -3.920  -1.167   0.528  1.00  0.00     0.274 HD
ENDBRANCH  11  12
ENDBRANCH  10  11
ENDBRANCH   1  10
TORSDOF 3
