REMARK  0 active torsions:
REMARK  status: ('A' for Active; 'I' for Inactive)
ROOT
HETATM    1  C1  UNL     1      -1.246   1.728  -0.074  1.00  0.00     0.297 C 
HETATM    2  N1  UNL     1      -0.405   0.604  -0.132  1.00  0.00     0.007 N 
HETATM    3  C2  UNL     1      -1.024  -0.618  -0.578  1.00  0.00     0.260 C 
HETATM    4  C3  UNL     1      -0.159  -1.766  -0.037  1.00  0.00     0.037 C 
HETATM    5  C4  UNL     1       0.948  -0.978   0.629  1.00  0.00     0.031 C 
HETATM    6  C5  UNL     1       1.696  -0.257  -0.461  1.00  0.00     0.149 C 
HETATM    7  N2  UNL     1       0.764   0.781  -0.869  1.00  0.00    -0.047 NA
HETATM    8  C6  UNL     1       0.117   0.190   1.184  1.00  0.00     0.265 C 
ENDROOT
TORSDOF 0
