REMARK  1 active torsions:
REMARK  status: ('A' for Active; 'I' for Inactive)
REMARK    1  A    between atoms: C2_2  and  N1_3 
ROOT
HETATM    1  N1  UNL     1      -0.117   0.313  -0.043  1.00  0.00    -0.040 N 
HETATM    2  C3  UNL     1      -1.197   0.686  -0.885  1.00  0.00     0.468 C 
HETATM    3  N2  UNL     1      -2.166  -0.390  -0.578  1.00  0.00    -0.043 N 
ATOM      4  H21 UNL     1      -2.431  -0.991  -1.359  1.00  0.00     0.279 HD
ATOM      5  H22 UNL     1      -3.121  -0.091  -0.383  1.00  0.00     0.279 HD
HETATM    6  C4  UNL     1      -1.475  -1.027   0.498  1.00  0.00     0.239 C 
HETATM    7  C5  UNL     1      -0.077  -1.149  -0.050  1.00  0.00     0.274 C 
HETATM    8  C6  UNL     1      -0.835   0.152   1.239  1.00  0.00     0.274 C 
ENDROOT
BRANCH   1   9
HETATM    9  C2  UNL     1       1.082   1.013  -0.025  1.00  0.00     0.235 C 
HETATM   10  C1  UNL     1       2.316   0.143  -0.090  1.00  0.00     0.035 C 
ENDBRANCH   1   9
TORSDOF 1
