REMARK  4 active torsions:
REMARK  status: ('A' for Active; 'I' for Inactive)
REMARK    1  A    between atoms: O1_1  and  C1_3 
REMARK    2  A    between atoms: C2_7  and  O2_8 
REMARK    3  A    between atoms: C3_10  and  O3_11 
REMARK    4  A    between atoms: C5_15  and  O4_16 
ROOT
HETATM    1  C1  UNL     1      -1.410   0.019  -0.135  1.00  0.00     0.352 C 
HETATM    2  N1  UNL     1      -0.705   1.221  -0.533  1.00  0.00    -0.018 N 
ATOM      3  H11 UNL     1      -1.271   2.066  -0.453  1.00  0.00     0.283 HD
ATOM      4  H12 UNL     1      -0.536   1.276  -1.537  1.00  0.00     0.283 HD
HETATM    5  C2  UNL     1       0.515   1.267   0.260  1.00  0.00     0.352 C 
HETATM    6  C3  UNL     1       1.424   0.109  -0.051  1.00  0.00     0.191 C 
HETATM    7  C4  UNL     1       0.685  -1.181   0.163  1.00  0.00     0.124 C 
HETATM    8 BR1  UNL     1       0.313  -1.341   2.069  1.00  0.00    -0.086 Br
HETATM    9  C5  UNL     1      -0.659  -1.208  -0.542  1.00  0.00     0.191 C 
ENDROOT
BRANCH   1  10
HETATM   10  O1  UNL     1      -2.720   0.049  -0.566  1.00  0.00    -0.368 OA
ATOM     11  H1  UNL     1      -3.182  -0.739  -0.305  1.00  0.00     0.212 HD
ENDBRANCH   1  10
BRANCH   9  12
HETATM   12  O4  UNL     1      -1.347  -2.323  -0.011  1.00  0.00    -0.390 OA
ATOM     13  H4  UNL     1      -0.870  -3.103  -0.270  1.00  0.00     0.210 HD
ENDBRANCH   9  12
BRANCH   5  14
HETATM   14  O2  UNL     1       1.143   2.490   0.215  1.00  0.00    -0.368 OA
ATOM     15  H2  UNL     1       1.939   2.520   0.732  1.00  0.00     0.212 HD
ENDBRANCH   5  14
BRANCH   6  16
HETATM   16  O3  UNL     1       2.055   0.202  -1.265  1.00  0.00    -0.390 OA
ATOM     17  H3  UNL     1       2.629  -0.529  -1.461  1.00  0.00     0.210 HD
ENDBRANCH   6  16
TORSDOF 4
