REMARK  4 active torsions:
REMARK  status: ('A' for Active; 'I' for Inactive)
REMARK    1  A    between atoms: O1_1  and  C1_3 
REMARK    2  A    between atoms: C3_7  and  O3_8 
REMARK    3  A    between atoms: C4_10  and  O4_11 
REMARK    4  A    between atoms: C5_13  and  O5_14 
ROOT
HETATM    1  C1  UNL     1       1.585  -0.307   0.016  1.00  0.00     0.289 C 
HETATM    2  O2  UNL     1       1.301   1.026   0.155  1.00  0.00    -0.340 OA
HETATM    3  C2  UNL     1       0.102   1.284   0.809  1.00  0.00     0.227 C 
HETATM    4 BR1  UNL     1      -0.009   3.197   1.093  1.00  0.00    -0.058 Br
HETATM    5  C3  UNL     1      -0.993   0.913  -0.199  1.00  0.00     0.189 C 
HETATM    6  C4  UNL     1      -0.805  -0.460  -0.743  1.00  0.00     0.183 C 
HETATM    7  C5  UNL     1       0.400  -1.178  -0.252  1.00  0.00     0.204 C 
ENDROOT
BRANCH   1   8
HETATM    8  O1  UNL     1       2.575  -0.432  -0.976  1.00  0.00    -0.368 OA
ATOM      9  H1  UNL     1       2.772  -1.356  -1.072  1.00  0.00     0.212 HD
ENDBRANCH   1   8
BRANCH   7  10
HETATM   10  O5  UNL     1       0.124  -2.013   0.855  1.00  0.00    -0.388 OA
ATOM     11  H5  UNL     1      -0.629  -2.567   0.685  1.00  0.00     0.210 HD
ENDBRANCH   7  10
BRANCH   6  12
HETATM   12  O4  UNL     1      -1.962  -1.215  -0.508  1.00  0.00    -0.390 OA
ATOM     13  H4  UNL     1      -1.842  -2.091  -0.855  1.00  0.00     0.210 HD
ENDBRANCH   6  12
BRANCH   5  14
HETATM   14  O3  UNL     1      -2.245   1.088   0.381  1.00  0.00    -0.389 OA
ATOM     15  H3  UNL     1      -2.923   0.858  -0.243  1.00  0.00     0.210 HD
ENDBRANCH   5  14
TORSDOF 4
