REMARK  5 active torsions:
REMARK  status: ('A' for Active; 'I' for Inactive)
REMARK    1  A    between atoms: O1_1  and  C1_3 
REMARK    2  A    between atoms: C1_3  and  C2_4 
REMARK    3  A    between atoms: C4_9  and  O2_10 
REMARK    4  A    between atoms: C5_12  and  O3_13 
REMARK    5  A    between atoms: C6_15  and  O4_16 
ROOT
HETATM    1  C2  UNL     1       0.974   0.338  -0.388  1.00  0.00     0.132 C 
HETATM    2  N1  UNL     1       0.046   1.415  -0.441  1.00  0.00    -0.397 N 
ATOM      3  H1  UNL     1       0.351   2.385  -0.363  1.00  0.00     0.155 HD
HETATM    4  C3  UNL     1      -1.326   1.079  -0.607  1.00  0.00     0.181 C 
HETATM    5 BR1  UNL     1      -2.380   2.595  -0.011  1.00  0.00    -0.066 Br
HETATM    6  C4  UNL     1      -1.785  -0.107   0.198  1.00  0.00     0.182 C 
HETATM    7  C5  UNL     1      -0.862  -1.268  -0.168  1.00  0.00     0.180 C 
HETATM    8  C6  UNL     1       0.490  -0.879   0.335  1.00  0.00     0.173 C 
ENDROOT
BRANCH   1   9
HETATM    9  C1  UNL     1       2.233   0.830   0.299  1.00  0.00     0.191 C 
BRANCH   9  10
HETATM   10  O1  UNL     1       1.988   1.270   1.588  1.00  0.00    -0.399 OA
ATOM     11  H1  UNL     1       2.777   1.578   2.018  1.00  0.00     0.209 HD
ENDBRANCH   9  10
ENDBRANCH   1   9
BRANCH   8  12
HETATM   12  O4  UNL     1       1.445  -1.894   0.114  1.00  0.00    -0.391 OA
ATOM     13  H4  UNL     1       1.138  -2.667   0.573  1.00  0.00     0.210 HD
ENDBRANCH   8  12
BRANCH   7  14
HETATM   14  O3  UNL     1      -0.923  -1.398  -1.549  1.00  0.00    -0.390 OA
ATOM     15  H3  UNL     1      -0.349  -2.120  -1.777  1.00  0.00     0.210 HD
ENDBRANCH   7  14
BRANCH   6  16
HETATM   16  O2  UNL     1      -1.725   0.199   1.539  1.00  0.00    -0.390 OA
ATOM     17  H2  UNL     1      -2.015  -0.550   2.047  1.00  0.00     0.210 HD
ENDBRANCH   6  16
TORSDOF 5
