REMARK  12 active torsions:
REMARK  status: ('A' for Active; 'I' for Inactive)
REMARK    1  A    between atoms: C2_2  and  C3_3 
REMARK    2  A    between atoms: C2_2  and  N3_13 
REMARK    3  A    between atoms: C3_3  and  N1_4 
REMARK    4  A    between atoms: N1_4  and  C4_7 
REMARK    5  A    between atoms: C4_7  and  C5_8 
REMARK    6  A    between atoms: C5_8  and  N2_9 
REMARK    7  A    between atoms: N3_13  and  C6_16 
REMARK    8  A    between atoms: C6_16  and  C7_17 
REMARK    9  A    between atoms: C8_19  and  N4_20 
REMARK   10  A    between atoms: C10_24  and  N6_25 
REMARK   11  A    between atoms: C11_30  and  N8_31 
REMARK   12  A    between atoms: C12_34  and  N9_35 
ROOT
HETATM    1  C7  UNL     1      -1.209  -0.650  -0.893  1.00  0.00     0.184 C 
HETATM    2  O1  UNL     1      -2.083   0.464  -0.829  1.00  0.00    -0.354 OA
HETATM    3  C8  UNL     1      -2.961  -0.500  -0.268  1.00  0.00     0.280 C 
HETATM    4  C12 UNL     1      -1.776  -0.901   0.524  1.00  0.00     0.263 C 
ENDROOT
BRANCH   1   5
HETATM    5  C6  UNL     1       0.208  -0.398  -1.056  1.00  0.00     0.266 C 
BRANCH   5   6
HETATM    6  N3  UNL     1       0.949   0.293  -0.077  1.00  0.00    -0.067 N 
ATOM      7  H32 UNL     1       0.993  -0.249   0.786  1.00  0.00     0.277 HD
ATOM      8  H31 UNL     1       0.430   1.106   0.255  1.00  0.00     0.277 HD
BRANCH   6   9
HETATM    9  C2  UNL     1       2.287   0.681  -0.503  1.00  0.00     0.207 C 
HETATM   10  C1  UNL     1       2.220   1.677  -1.647  1.00  0.00     0.041 C 
BRANCH   9  11
HETATM   11  C3  UNL     1       3.099  -0.519  -0.881  1.00  0.00     0.264 C 
BRANCH  11  12
HETATM   12  N1  UNL     1       4.444  -0.202  -1.237  1.00  0.00    -0.072 N 
ATOM     13  H12 UNL     1       4.876  -0.985  -1.727  1.00  0.00     0.277 HD
ATOM     14  H11 UNL     1       4.460   0.498  -1.978  1.00  0.00     0.277 HD
BRANCH  12  15
HETATM   15  C4  UNL     1       5.264   0.214  -0.137  1.00  0.00     0.259 C 
BRANCH  15  16
HETATM   16  C5  UNL     1       5.552  -0.928   0.828  1.00  0.00     0.257 C 
BRANCH  16  17
HETATM   17  N2  UNL     1       6.382  -0.382   1.894  1.00  0.00    -0.078 N 
ATOM     18  H23 UNL     1       7.226   0.076   1.551  1.00  0.00     0.274 HD
ATOM     19  H22 UNL     1       5.968   0.432   2.348  1.00  0.00     0.274 HD
ATOM     20  H21 UNL     1       6.575  -1.147   2.540  1.00  0.00     0.274 HD
ENDBRANCH  16  17
ENDBRANCH  15  16
ENDBRANCH  12  15
ENDBRANCH  11  12
ENDBRANCH   9  11
ENDBRANCH   6   9
ENDBRANCH   5   6
ENDBRANCH   1   5
BRANCH   4  21
HETATM   21  N9  UNL     1      -1.165   0.048   1.397  1.00  0.00    -0.068 N 
ATOM     22  H93 UNL     1      -0.146   0.023   1.364  1.00  0.00     0.275 HD
ATOM     23  H92 UNL     1      -1.283   1.012   1.085  1.00  0.00     0.275 HD
ATOM     24  H91 UNL     1      -1.539  -0.118   2.331  1.00  0.00     0.275 HD
ENDBRANCH   4  21
BRANCH   3  25
HETATM   25  N4  UNL     1      -4.173  -0.071   0.239  1.00  0.00    -0.149 N 
HETATM   26  C9  UNL     1      -4.354   0.512   1.441  1.00  0.00     0.221 A 
HETATM   27  N5  UNL     1      -5.537   0.923   1.913  1.00  0.00    -0.187 N 
HETATM   28  C10 UNL     1      -6.647   0.763   1.172  1.00  0.00     0.691 A 
ATOM     29  H5  UNL     1      -5.596   1.357   2.834  1.00  0.00     0.185 HD
HETATM   30  N7  UNL     1      -6.529   0.192  -0.023  1.00  0.00    -0.023 N 
HETATM   31  C11 UNL     1      -5.329  -0.219  -0.491  1.00  0.00     0.695 A 
ATOM     32  H7  UNL     1      -7.361   0.061  -0.598  1.00  0.00     0.203 HD
BRANCH  28  33
HETATM   33  N6  UNL     1      -7.794   1.162   1.631  1.00  0.00    -0.234 N 
ATOM     34  H62 UNL     1      -7.885   1.600   2.548  1.00  0.00     0.174 HD
ATOM     35  H61 UNL     1      -8.636   1.041   1.069  1.00  0.00     0.174 HD
ENDBRANCH  28  33
BRANCH  31  36
HETATM   36  N8  UNL     1      -5.350  -0.744  -1.657  1.00  0.00    -0.234 N 
ATOM     37  H82 UNL     1      -4.445  -1.054  -2.010  1.00  0.00     0.174 HD
ATOM     38  H81 UNL     1      -6.207  -0.854  -2.198  1.00  0.00     0.174 HD
ENDBRANCH  31  36
ENDBRANCH   3  25
TORSDOF 12
