REMARK  13 active torsions:
REMARK  status: ('A' for Active; 'I' for Inactive)
REMARK    1  A    between atoms: N1_1  and  C1_5 
REMARK    2  A    between atoms: C1_5  and  C2_6 
REMARK    3  A    between atoms: C2_6  and  C3_7 
REMARK    4  A    between atoms: C3_7  and  C4_8 
REMARK    5  A    between atoms: C4_8  and  C5_9 
REMARK    6  A    between atoms: C5_9  and  N2_10 
REMARK    7  A    between atoms: N2_10  and  C6_12 
REMARK    8  A    between atoms: C7_15  and  N4_16 
REMARK    9  A    between atoms: N4_16  and  C8_18 
REMARK   10  A    between atoms: C8_18  and  C9_19 
REMARK   11  A    between atoms: C9_19  and  C10_20 
REMARK   12  A    between atoms: C10_20  and  O1_21 
REMARK   13  A    between atoms: C11_25  and  N6_26 
REMARK       I    between atoms: N6_26  and  C12_28 
REMARK       I    between atoms: C12_28  and  N7_29 
REMARK       I    between atoms: C12_28  and  N8_33 
ROOT
HETATM    1  C6  UNL     1      -0.245   0.437  -0.216  1.00  0.00     0.707 A 
HETATM    2  N3  UNL     1      -1.042  -0.643  -0.120  1.00  0.00    -0.022 N 
ATOM      3  H3  UNL     1      -0.663  -1.588  -0.185  1.00  0.00     0.203 HD
HETATM    4  C7  UNL     1      -2.353  -0.430   0.064  1.00  0.00     0.707 A 
HETATM    5  N5  UNL     1      -2.873   0.805   0.151  1.00  0.00    -0.021 N 
ATOM      6  H5  UNL     1      -3.877   0.915   0.291  1.00  0.00     0.203 HD
HETATM    7  C11 UNL     1      -2.097   1.900   0.058  1.00  0.00     0.710 A 
HETATM    8  N9  UNL     1      -0.782   1.687  -0.126  1.00  0.00    -0.021 N 
ATOM      9  H9  UNL     1      -0.161   2.493  -0.201  1.00  0.00     0.203 HD
ENDROOT
BRANCH   1  10
HETATM   10  N2  UNL     1       1.028   0.302  -0.394  1.00  0.00    -0.225 N 
ATOM     11  H2  UNL     1       1.630   1.122  -0.467  1.00  0.00     0.177 HD
BRANCH  10  12
HETATM   12  C5  UNL     1       1.587  -1.028  -0.488  1.00  0.00     0.138 C 
BRANCH  12  13
HETATM   13  C4  UNL     1       3.102  -0.991  -0.566  1.00  0.00     0.020 C 
BRANCH  13  14
HETATM   14  C3  UNL     1       3.710  -0.341   0.642  1.00  0.00     0.003 C 
BRANCH  14  15
HETATM   15  C2  UNL     1       5.206  -0.344   0.520  1.00  0.00     0.027 C 
BRANCH  15  16
HETATM   16  C1  UNL     1       5.679   0.412  -0.695  1.00  0.00     0.229 C 
BRANCH  16  17
HETATM   17  N1  UNL     1       7.148   0.370  -0.726  1.00  0.00    -0.079 N 
ATOM     18  H13 UNL     1       7.568   0.714   0.138  1.00  0.00     0.274 HD
ATOM     19  H12 UNL     1       7.514  -0.582  -0.690  1.00  0.00     0.274 HD
ATOM     20  H11 UNL     1       7.468   0.882  -1.548  1.00  0.00     0.274 HD
ENDBRANCH  16  17
ENDBRANCH  15  16
ENDBRANCH  14  15
ENDBRANCH  13  14
ENDBRANCH  12  13
ENDBRANCH  10  12
ENDBRANCH   1  10
BRANCH   4  21
HETATM   21  N4  UNL     1      -3.136  -1.448   0.159  1.00  0.00    -0.225 N 
ATOM     22  H4  UNL     1      -4.131  -1.271   0.299  1.00  0.00     0.177 HD
BRANCH  21  23
HETATM   23  C8  UNL     1      -2.706  -2.809   0.082  1.00  0.00     0.140 C 
BRANCH  23  24
HETATM   24  C9  UNL     1      -3.933  -3.668  -0.240  1.00  0.00     0.046 C 
BRANCH  24  25
HETATM   25  C10 UNL     1      -4.913  -3.461   0.875  1.00  0.00     0.165 C 
BRANCH  25  26
HETATM   26  O1  UNL     1      -6.081  -4.199   0.692  1.00  0.00    -0.401 OA
ATOM     27  H1  UNL     1      -6.702  -4.068   1.399  1.00  0.00     0.209 HD
ENDBRANCH  25  26
ENDBRANCH  24  25
ENDBRANCH  23  24
ENDBRANCH  21  23
ENDBRANCH   4  21
BRANCH   7  28
HETATM   28  N6  UNL     1      -2.598   3.095   0.143  1.00  0.00    -0.172 N 
HETATM   29  C12 UNL     1      -1.832   4.291   0.052  1.00  0.00     0.494 C 
HETATM   30  N7  UNL     1      -2.705   5.419  -0.205  1.00  0.00    -0.032 N 
HETATM   31  N8  UNL     1      -1.066   4.502   1.262  1.00  0.00    -0.032 N 
ATOM     32  H73 UNL     1      -3.286   5.273  -1.031  1.00  0.00     0.278 HD
ATOM     33  H72 UNL     1      -3.449   5.493   0.489  1.00  0.00     0.278 HD
ATOM     34  H71 UNL     1      -2.156   6.276  -0.270  1.00  0.00     0.278 HD
ATOM     35  H83 UNL     1      -1.660   4.496   2.091  1.00  0.00     0.278 HD
ATOM     36  H82 UNL     1      -0.483   3.696   1.485  1.00  0.00     0.278 HD
ATOM     37  H81 UNL     1      -0.517   5.359   1.197  1.00  0.00     0.278 HD
ATOM     38  H6  UNL     1      -3.604   3.182   0.284  1.00  0.00     0.181 HD
ENDBRANCH   7  28
TORSDOF 13
