REMARK  15 active torsions:
REMARK  status: ('A' for Active; 'I' for Inactive)
REMARK    1  A    between atoms: N1_1  and  C1_5 
REMARK    2  A    between atoms: C1_5  and  C2_6 
REMARK    3  A    between atoms: C2_6  and  N2_7 
REMARK    4  A    between atoms: N2_7  and  C3_9 
REMARK    5  A    between atoms: C4_12  and  N4_13 
REMARK    6  A    between atoms: N4_13  and  O1_15 
REMARK    7  A    between atoms: C5_19  and  N6_20 
REMARK    8  A    between atoms: N6_20  and  C6_22 
REMARK    9  A    between atoms: C6_22  and  C7_23 
REMARK   10  A    between atoms: C7_23  and  C8_24 
REMARK   11  A    between atoms: C8_24  and  C9_25 
REMARK   12  A    between atoms: C9_25  and  C10_26 
REMARK   13  A    between atoms: C10_26  and  N7_27 
REMARK   14  A    between atoms: N7_27  and  N8_28 
REMARK   15  A    between atoms: N7_27  and  O2_31 
ROOT
HETATM    1  C3  UNL     1      -2.724   1.011  -0.218  1.00  0.00     0.707 A 
HETATM    2  N3  UNL     1      -3.128  -0.230  -0.505  1.00  0.00    -0.020 N 
ATOM      3  H3  UNL     1      -4.081  -0.398  -0.828  1.00  0.00     0.203 HD
HETATM    4  C4  UNL     1      -2.272  -1.253  -0.366  1.00  0.00     0.731 A 
HETATM    5  N5  UNL     1      -1.021  -1.029   0.058  1.00  0.00    -0.020 N 
ATOM      6  H5  UNL     1      -0.381  -1.817   0.159  1.00  0.00     0.203 HD
HETATM    7  C5  UNL     1      -0.589   0.206   0.353  1.00  0.00     0.707 A 
HETATM    8  N9  UNL     1      -1.446   1.230   0.214  1.00  0.00    -0.022 N 
ATOM      9  H9  UNL     1      -1.141   2.179   0.432  1.00  0.00     0.203 HD
ENDROOT
BRANCH   7  10
HETATM   10  N6  UNL     1       0.632   0.403   0.765  1.00  0.00    -0.225 N 
ATOM     11  H6  UNL     1       0.959   1.343   0.990  1.00  0.00     0.177 HD
BRANCH  10  12
HETATM   12  C6  UNL     1       1.515  -0.736   0.897  1.00  0.00     0.138 C 
BRANCH  12  13
HETATM   13  C7  UNL     1       2.847  -0.240   1.475  1.00  0.00     0.020 C 
BRANCH  13  14
HETATM   14  C8  UNL     1       3.469   0.781   0.565  1.00  0.00     0.007 C 
BRANCH  14  15
HETATM   15  C9  UNL     1       3.770   0.278  -0.799  1.00  0.00     0.049 C 
BRANCH  15  16
HETATM   16  C10 UNL     1       4.711  -0.856  -0.921  1.00  0.00     0.115 C 
BRANCH  16  17
HETATM   17  N7  UNL     1       6.010  -0.583  -0.461  1.00  0.00    -0.186 N 
BRANCH  17  18
HETATM   18  N8  UNL     1       6.244  -0.274   0.834  1.00  0.00    -0.320 N 
ATOM     19  H82 UNL     1       5.502   0.239   1.310  1.00  0.00     0.179 HD
ATOM     20  H81 UNL     1       7.187  -0.076   1.168  1.00  0.00     0.179 HD
ENDBRANCH  17  18
BRANCH  17  21
HETATM   21  O2  UNL     1       6.991  -1.261  -1.090  1.00  0.00    -0.269 OA
ATOM     22  H2  UNL     1       7.869  -1.076  -0.779  1.00  0.00     0.247 HD
ENDBRANCH  17  21
ENDBRANCH  16  17
ENDBRANCH  15  16
ENDBRANCH  14  15
ENDBRANCH  13  14
ENDBRANCH  12  13
ENDBRANCH  10  12
ENDBRANCH   7  10
BRANCH   4  23
HETATM   23  N4  UNL     1      -2.697  -2.445  -0.654  1.00  0.00    -0.098 N 
ATOM     24  H4  UNL     1      -3.652  -2.600  -0.977  1.00  0.00     0.213 HD
BRANCH  23  25
HETATM   25  O1  UNL     1      -1.819  -3.489  -0.510  1.00  0.00    -0.276 OA
ATOM     26  H1  UNL     1      -2.130  -4.362  -0.721  1.00  0.00     0.245 HD
ENDBRANCH  23  25
ENDBRANCH   4  23
BRANCH   1  27
HETATM   27  N2  UNL     1      -3.535   1.999  -0.348  1.00  0.00    -0.223 N 
ATOM     28  H2  UNL     1      -3.180   2.927  -0.117  1.00  0.00     0.177 HD
BRANCH  27  29
HETATM   29  C2  UNL     1      -4.885   1.911  -0.786  1.00  0.00     0.165 C 
BRANCH  29  30
HETATM   30  C1  UNL     1      -5.845   1.531   0.330  1.00  0.00     0.249 C 
BRANCH  30  31
HETATM   31  N1  UNL     1      -7.196   1.459  -0.188  1.00  0.00    -0.078 N 
ATOM     32  H13 UNL     1      -7.474   2.322  -0.656  1.00  0.00     0.274 HD
ATOM     33  H12 UNL     1      -7.267   0.828  -0.987  1.00  0.00     0.274 HD
ATOM     34  H11 UNL     1      -7.840   1.204   0.561  1.00  0.00     0.274 HD
ENDBRANCH  30  31
ENDBRANCH  29  30
ENDBRANCH  27  29
ENDBRANCH   1  27
TORSDOF 15
