REMARK  14 active torsions:
REMARK  status: ('A' for Active; 'I' for Inactive)
REMARK    1  A    between atoms: N1_1  and  C1_5 
REMARK    2  A    between atoms: C1_5  and  C2_6 
REMARK    3  A    between atoms: C2_6  and  C3_7 
REMARK    4  A    between atoms: C3_7  and  N2_8 
REMARK    5  A    between atoms: N2_8  and  C4_11 
REMARK    6  A    between atoms: C4_11  and  C5_12 
REMARK    7  A    between atoms: C5_12  and  C6_13 
REMARK    8  A    between atoms: C6_13  and  N3_14 
REMARK    9  A    between atoms: N3_14  and  N4_16 
REMARK   10  A    between atoms: C7_18  and  C8_19 
REMARK   11  A    between atoms: C9_20  and  O1_21 
REMARK   12  A    between atoms: C10_23  and  O2_24 
REMARK   13  A    between atoms: C11_27  and  C12_28 
REMARK   14  A    between atoms: C12_28  and  N6_29 
ROOT
HETATM    1  N4  UNL     1      -1.211  -0.412   0.232  1.00  0.00    -0.320 N 
ATOM      2  H4  UNL     1      -1.609  -0.547   1.162  1.00  0.00     0.185 HD
HETATM    3  C7  UNL     1      -1.961   0.028  -0.717  1.00  0.00     0.089 C 
ENDROOT
BRANCH   1   4
HETATM    4  N3  UNL     1       0.150  -0.712   0.013  1.00  0.00    -0.337 N 
ATOM      5  H3  UNL     1       0.444  -1.689   0.028  1.00  0.00     0.180 HD
BRANCH   4   6
HETATM    6  C6  UNL     1       1.136   0.299  -0.229  1.00  0.00     0.141 C 
BRANCH   6   7
HETATM    7  C5  UNL     1       2.497  -0.328  -0.427  1.00  0.00     0.048 C 
BRANCH   7   8
HETATM    8  C4  UNL     1       3.533   0.733  -0.686  1.00  0.00     0.234 C 
BRANCH   8   9
HETATM    9  N2  UNL     1       4.813   0.114  -0.875  1.00  0.00    -0.075 N 
ATOM     10  H22 UNL     1       5.485   0.770  -1.273  1.00  0.00     0.277 HD
ATOM     11  H21 UNL     1       4.784  -0.568  -1.633  1.00  0.00     0.277 HD
BRANCH   9  12
HETATM   12  C3  UNL     1       5.313  -0.471   0.328  1.00  0.00     0.233 C 
BRANCH  12  13
HETATM   13  C2  UNL     1       6.689  -1.088   0.108  1.00  0.00     0.055 C 
BRANCH  13  14
HETATM   14  C1  UNL     1       7.598   0.058  -0.351  1.00  0.00     0.231 C 
BRANCH  14  15
HETATM   15  N1  UNL     1       7.599   1.040   0.713  1.00  0.00    -0.079 N 
ATOM     16  H13 UNL     1       6.663   1.349   0.976  1.00  0.00     0.274 HD
ATOM     17  H12 UNL     1       7.866   0.653   1.618  1.00  0.00     0.274 HD
ATOM     18  H11 UNL     1       8.204   1.802   0.408  1.00  0.00     0.274 HD
ENDBRANCH  14  15
ENDBRANCH  13  14
ENDBRANCH  12  13
ENDBRANCH   9  12
ENDBRANCH   8   9
ENDBRANCH   7   8
ENDBRANCH   6   7
ENDBRANCH   4   6
ENDBRANCH   1   4
BRANCH   3  19
HETATM   19  C8  UNL     1      -3.364   0.363  -0.586  1.00  0.00     0.094 C 
HETATM   20  C9  UNL     1      -3.599   1.589   0.294  1.00  0.00     0.188 C 
HETATM   21  C10 UNL     1      -5.093   1.483   0.507  1.00  0.00     0.387 C 
HETATM   22  N5  UNL     1      -5.254   0.088   0.812  1.00  0.00     0.136 N 
HETATM   23  C11 UNL     1      -5.650  -0.760  -0.302  1.00  0.00     0.286 A 
HETATM   24  C13 UNL     1      -4.249  -0.647   0.065  1.00  0.00     0.273 A 
BRANCH  20  25
HETATM   25  O1  UNL     1      -3.004   1.439   1.542  1.00  0.00    -0.390 OA
ATOM     26  H1  UNL     1      -3.150   2.202   2.089  1.00  0.00     0.210 HD
ENDBRANCH  20  25
BRANCH  21  27
HETATM   27  O2  UNL     1      -5.417   2.307   1.576  1.00  0.00    -0.366 OA
ATOM     28  H2  UNL     1      -6.355   2.240   1.710  1.00  0.00     0.212 HD
ENDBRANCH  21  27
BRANCH  23  29
HETATM   29  C12 UNL     1      -6.424  -1.982   0.145  1.00  0.00     0.267 C 
BRANCH  29  30
HETATM   30  N6  UNL     1      -7.639  -1.600   0.846  1.00  0.00    -0.077 N 
ATOM     31  H63 UNL     1      -7.442  -0.973   1.626  1.00  0.00     0.274 HD
ATOM     32  H62 UNL     1      -8.216  -0.973   0.285  1.00  0.00     0.274 HD
ATOM     33  H61 UNL     1      -8.160  -2.423   1.147  1.00  0.00     0.274 HD
ENDBRANCH  29  30
ENDBRANCH  23  29
ENDBRANCH   3  19
TORSDOF 14
