REMARK  6 active torsions:
REMARK  status: ('A' for Active; 'I' for Inactive)
REMARK    1  A    between atoms: N1_2  and  N2_3 
REMARK       I    between atoms: N1_2  and  C7_14 
REMARK       I    between atoms: N2_3  and  C2_5 
REMARK    2  A    between atoms: C2_5  and  O2_7 
REMARK    3  A    between atoms: O2_7  and  C3_8 
REMARK    4  A    between atoms: C3_8  and  C6_11 
REMARK    5  A    between atoms: C7_14  and  C8_16 
REMARK    6  A    between atoms: C9_23  and  C10_24 
ROOT
HETATM    1  C1  UNL     1       1.071  -3.098  -0.473  1.00  0.00     0.181 C 
HETATM    2  N1  UNL     1       1.252  -1.664  -0.521  1.00  0.00    -0.256 N 
HETATM    3  C7  UNL     1       2.474  -1.092   0.012  1.00  0.00     0.292 C 
HETATM    4  O5  UNL     1       3.321  -1.853   0.488  1.00  0.00    -0.264 OA
ENDROOT
BRANCH   2   5
HETATM    5  N2  UNL     1       0.251  -0.875  -1.078  1.00  0.00    -0.240 N 
HETATM    6  C2  UNL     1      -0.969  -0.598  -0.375  1.00  0.00     0.381 C 
HETATM    7  O1  UNL     1      -1.196  -1.047   0.766  1.00  0.00    -0.237 OA
ATOM      8  H2  UNL     1       0.388  -0.483  -2.010  1.00  0.00     0.192 HD
BRANCH   6   9
HETATM    9  O2  UNL     1      -1.966   0.186  -0.928  1.00  0.00    -0.281 OA
BRANCH   9  10
HETATM   10  C3  UNL     1      -3.170   0.474  -0.265  1.00  0.00     0.153 C 
HETATM   11  C4  UNL     1      -3.966   1.363  -1.236  1.00  0.00     0.058 C 
HETATM   12  C5  UNL     1      -3.000   1.271   0.988  1.00  0.00     0.058 C 
BRANCH  10  13
HETATM   13  C6  UNL     1      -4.013  -0.718  -0.036  1.00  0.00     0.209 C 
HETATM   14  O3  UNL     1      -3.705  -1.882  -0.396  1.00  0.00    -0.646 OA
HETATM   15  O4  UNL     1      -5.220  -0.529   0.618  1.00  0.00    -0.646 OA
ENDBRANCH  10  13
ENDBRANCH   9  10
ENDBRANCH   6   9
ENDBRANCH   2   5
BRANCH   3  16
HETATM   16  C8  UNL     1       2.633   0.343  -0.046  1.00  0.00     0.152 A 
HETATM   17  N3  UNL     1       1.692   1.209  -0.577  1.00  0.00    -0.279 N 
HETATM   18  N4  UNL     1       2.108   2.438  -0.494  1.00  0.00    -0.241 N 
ATOM     19  H3  UNL     1       0.798   0.923  -0.977  1.00  0.00     0.189 HD
HETATM   20  N5  UNL     1       3.278   2.399   0.068  1.00  0.00    -0.279 N 
ATOM     21  H4  UNL     1       1.612   3.271  -0.809  1.00  0.00     0.208 HD
HETATM   22  C9  UNL     1       3.650   1.100   0.369  1.00  0.00     0.148 A 
ATOM     23  H5  UNL     1       3.850   3.221   0.263  1.00  0.00     0.189 HD
BRANCH  22  24
HETATM   24  C10 UNL     1       4.912   0.824   1.002  1.00  0.00     0.285 C 
HETATM   25  N6  UNL     1       5.432  -0.407   1.402  1.00  0.00    -0.056 NA
HETATM   26  O6  UNL     1       5.704   1.815   1.256  1.00  0.00    -0.269 OA
ENDBRANCH  22  24
ENDBRANCH   3  16
TORSDOF 6
