REMARK  6 active torsions:
REMARK  status: ('A' for Active; 'I' for Inactive)
REMARK    1  A    between atoms: C3_5  and  N2_6 
REMARK    2  A    between atoms: N2_6  and  N3_8 
REMARK    3  A    between atoms: C4_13  and  C5_14 
REMARK    4  A    between atoms: C5_14  and  C6_15 
REMARK       I    between atoms: C6_15  and  N5_17 
REMARK    5  A    between atoms: N5_17  and  C7_19 
REMARK    6  A    between atoms: C7_19  and  N6_20 
ROOT
HETATM    1  N1  UNL     1       3.362  -3.905   1.262  1.00  0.00    -0.191 NA
HETATM    2  C1  UNL     1       3.643  -2.837   0.921  1.00  0.00     0.109 C 
HETATM    3  C2  UNL     1       4.015  -1.486   0.509  1.00  0.00     0.111 A 
HETATM    4  S1  UNL     1       5.278  -0.481   1.056  1.00  0.00    -0.040 SA
HETATM    5  C3  UNL     1       4.977   0.867   0.062  1.00  0.00     0.164 A 
HETATM    6  N4  UNL     1       3.915   0.493  -0.653  1.00  0.00    -0.337 N 
ATOM      7  H4  UNL     1       3.503   1.116  -1.347  1.00  0.00     0.168 HD
HETATM    8  C4  UNL     1       3.416  -0.702  -0.436  1.00  0.00     0.048 A 
ENDROOT
BRANCH   8   9
HETATM    9  C5  UNL     1       2.206  -1.206  -1.208  1.00  0.00     0.162 C 
BRANCH   9  10
HETATM   10  C6  UNL     1       0.997  -1.158  -0.388  1.00  0.00     0.224 C 
HETATM   11  O1  UNL     1       1.101  -0.722   0.801  1.00  0.00    -0.273 OA
HETATM   12  N5  UNL     1      -0.239  -1.590  -0.925  1.00  0.00    -0.335 N 
ATOM     13  H5  UNL     1      -0.266  -1.932  -1.885  1.00  0.00     0.164 HD
BRANCH  12  14
HETATM   14  C7  UNL     1      -1.454  -1.563  -0.165  1.00  0.00     0.399 C 
BRANCH  14  15
HETATM   15  N6  UNL     1      -1.786  -0.196   0.266  1.00  0.00     0.122 N 
HETATM   16  C8  UNL     1      -3.022  -0.195   1.028  1.00  0.00     0.277 C 
HETATM   17  C9  UNL     1      -3.548   1.196   1.115  1.00  0.00     0.032 C 
HETATM   18  C10 UNL     1      -4.365   1.653  -0.038  1.00  0.00     0.021 C 
HETATM   19  C11 UNL     1      -4.450   0.727  -1.194  1.00  0.00     0.115 C 
HETATM   20  N7  UNL     1      -3.262   0.018  -1.517  1.00  0.00    -0.398 N 
HETATM   21  C12 UNL     1      -2.057   0.549  -0.952  1.00  0.00     0.392 C 
ATOM     22  H7  UNL     1      -3.267  -0.812  -2.110  1.00  0.00     0.154 HD
ENDBRANCH  14  15
ENDBRANCH  12  14
ENDBRANCH   9  10
ENDBRANCH   8   9
BRANCH   5  23
HETATM   23  N2  UNL     1       5.618   2.008  -0.005  1.00  0.00    -0.286 N 
ATOM     24  H2  UNL     1       5.306   2.721  -0.664  1.00  0.00     0.188 HD
BRANCH  23  25
HETATM   25  N3  UNL     1       6.718   2.261   0.809  1.00  0.00    -0.343 N 
ATOM     26  H32 UNL     1       7.017   1.537   1.462  1.00  0.00     0.176 HD
ATOM     27  H31 UNL     1       7.217   3.149   0.757  1.00  0.00     0.176 HD
ENDBRANCH  23  25
ENDBRANCH   5  23
TORSDOF 6
