REMARK  7 active torsions:
REMARK  status: ('A' for Active; 'I' for Inactive)
REMARK    1  A    between atoms: C3_3  and  N1_4 
REMARK    2  A    between atoms: N1_4  and  N2_5 
REMARK       I    between atoms: N1_4  and  C9_18 
REMARK    3  A    between atoms: C4_7  and  C5_8 
REMARK    4  A    between atoms: C6_10  and  N3_11 
REMARK    5  A    between atoms: C9_18  and  C10_20 
REMARK    6  A    between atoms: C10_20  and  N5_21 
REMARK    7  A    between atoms: C10_20  and  C12_27 
ROOT
HETATM    1  C1  UNL     1      -0.945   4.078  -2.903  1.00  0.00     0.014 C 
HETATM    2  C2  UNL     1      -0.460   3.459  -1.991  1.00  0.00    -0.096 C 
HETATM    3  C3  UNL     1       0.124   2.685  -0.867  1.00  0.00     0.245 C 
ENDROOT
BRANCH   3   4
HETATM    4  N1  UNL     1      -0.524   1.348  -0.904  1.00  0.00    -0.247 N 
HETATM    5  C9  UNL     1      -1.698   1.192  -0.176  1.00  0.00     0.299 C 
HETATM    6  O1  UNL     1      -2.152   2.164   0.517  1.00  0.00    -0.267 OA
BRANCH   4   7
HETATM    7  N2  UNL     1       0.063   0.361  -1.628  1.00  0.00    -0.305 N 
HETATM    8  C4  UNL     1       0.978  -0.461  -1.349  1.00  0.00     0.128 C 
ATOM      9  H2  UNL     1      -0.305   0.267  -2.575  1.00  0.00     0.186 HD
BRANCH   8  10
HETATM   10  C5  UNL     1       1.624  -0.469  -0.024  1.00  0.00     0.047 A 
HETATM   11  S1  UNL     1       1.313   0.503   1.351  1.00  0.00    -0.051 SA
HETATM   12  C6  UNL     1       2.468  -0.173   2.404  1.00  0.00     0.143 A 
HETATM   13  N4  UNL     1       3.042  -1.115   1.655  1.00  0.00    -0.340 N 
HETATM   14  C7  UNL     1       2.631  -1.279   0.431  1.00  0.00     0.026 A 
ATOM     15  H4  UNL     1       3.789  -1.696   2.034  1.00  0.00     0.168 HD
HETATM   16  C8  UNL     1       3.223  -2.327  -0.503  1.00  0.00     0.070 C 
BRANCH  12  17
HETATM   17  N3  UNL     1       2.742   0.141   3.650  1.00  0.00    -0.380 N 
ATOM     18  H32 UNL     1       2.303   0.862   4.223  1.00  0.00     0.158 HD
ATOM     19  H31 UNL     1       3.434  -0.264   4.281  1.00  0.00     0.158 HD
ENDBRANCH  12  17
ENDBRANCH   8  10
ENDBRANCH   4   7
BRANCH   5  20
HETATM   20  C10 UNL     1      -2.476  -0.056  -0.150  1.00  0.00     0.367 C 
HETATM   21  C11 UNL     1      -3.891   0.329  -0.434  1.00  0.00     0.119 C 
HETATM   22  N6  UNL     1      -4.980   0.624  -0.672  1.00  0.00    -0.194 NA
BRANCH  20  23
HETATM   23  N5  UNL     1      -2.053  -1.072  -1.053  1.00  0.00    -0.040 N 
ATOM     24  H53 UNL     1      -2.024  -0.701  -2.003  1.00  0.00     0.277 HD
ATOM     25  H52 UNL     1      -1.065  -1.277  -0.906  1.00  0.00     0.277 HD
ATOM     26  H51 UNL     1      -2.593  -1.937  -1.035  1.00  0.00     0.277 HD
ENDBRANCH  20  23
BRANCH  20  27
HETATM   27  C12 UNL     1      -2.520  -0.618   1.249  1.00  0.00     0.292 C 
HETATM   28  N7  UNL     1      -2.161  -1.976   1.439  1.00  0.00    -0.058 NA
HETATM   29  O2  UNL     1      -2.861   0.078   2.230  1.00  0.00    -0.272 OA
ENDBRANCH  20  27
ENDBRANCH   5  20
ENDBRANCH   3   4
TORSDOF 7
