REMARK  6 active torsions:
REMARK  status: ('A' for Active; 'I' for Inactive)
REMARK    1  A    between atoms: C4_5  and  C5_6 
REMARK    2  A    between atoms: C5_6  and  O1_7 
REMARK    3  A    between atoms: C5_6  and  C6_9 
REMARK       I    between atoms: C6_9  and  N2_11 
REMARK    4  A    between atoms: N2_11  and  C7_13 
REMARK    5  A    between atoms: C7_13  and  C8_14 
REMARK       I    between atoms: C8_14  and  N3_16 
REMARK    6  A    between atoms: N3_16  and  N4_18 
ROOT
HETATM    1  C1  UNL     1      -3.419  -1.716   3.454  1.00  0.00     0.037 C 
HETATM    2  C2  UNL     1      -2.957  -1.316   2.413  1.00  0.00     0.008 C 
HETATM    3  N1  UNL     1      -2.421  -0.839   1.210  1.00  0.00    -0.265 N 
HETATM    4  C3  UNL     1      -1.162  -0.322   1.099  1.00  0.00     0.120 A 
HETATM    5  C4  UNL     1      -0.948   0.053  -0.209  1.00  0.00     0.012 A 
HETATM    6  C9  UNL     1      -2.113  -0.254  -0.879  1.00  0.00     0.045 A 
HETATM    7  C10 UNL     1      -2.751  -0.234  -2.092  1.00  0.00     0.037 A 
HETATM    8  C11 UNL     1      -2.215   0.267  -3.405  1.00  0.00     0.070 C 
HETATM    9  N5  UNL     1      -3.960  -0.749  -1.904  1.00  0.00    -0.301 N 
ATOM     10  H5  UNL     1      -4.653  -0.855  -2.645  1.00  0.00     0.187 HD
HETATM   11  N6  UNL     1      -4.166  -1.109  -0.649  1.00  0.00    -0.279 N 
HETATM   12  C12 UNL     1      -5.383  -1.710  -0.084  1.00  0.00     0.179 C 
HETATM   13  C13 UNL     1      -3.030  -0.809   0.005  1.00  0.00     0.148 A 
ENDROOT
BRANCH   5  14
HETATM   14  C5  UNL     1       0.265   0.661  -0.813  1.00  0.00     0.245 C 
BRANCH  14  15
HETATM   15  O1  UNL     1       0.327   2.001  -0.453  1.00  0.00    -0.381 OA
ATOM     16  H1  UNL     1       1.103   2.390  -0.839  1.00  0.00     0.211 HD
ENDBRANCH  14  15
BRANCH  14  17
HETATM   17  C6  UNL     1       1.502  -0.008  -0.376  1.00  0.00     0.251 C 
HETATM   18  O2  UNL     1       1.712  -1.247  -0.579  1.00  0.00    -0.270 OA
HETATM   19  N2  UNL     1       2.494   0.755   0.293  1.00  0.00    -0.350 N 
ATOM     20  H2  UNL     1       2.341   1.749   0.463  1.00  0.00     0.163 HD
BRANCH  19  21
HETATM   21  C7  UNL     1       3.717   0.132   0.734  1.00  0.00     0.227 C 
BRANCH  21  22
HETATM   22  C8  UNL     1       4.548   1.166   1.393  1.00  0.00     0.253 C 
HETATM   23  O3  UNL     1       4.160   2.335   1.491  1.00  0.00    -0.270 OA
HETATM   24  N3  UNL     1       5.819   0.718   1.900  1.00  0.00    -0.275 N 
ATOM     25  H3  UNL     1       6.125  -0.251   1.810  1.00  0.00     0.189 HD
BRANCH  24  26
HETATM   26  N4  UNL     1       6.610   1.688   2.523  1.00  0.00    -0.343 N 
ATOM     27  H42 UNL     1       6.291   2.653   2.606  1.00  0.00     0.176 HD
ATOM     28  H41 UNL     1       7.510   1.371   2.882  1.00  0.00     0.176 HD
ENDBRANCH  24  26
ENDBRANCH  21  22
ENDBRANCH  19  21
ENDBRANCH  14  17
ENDBRANCH   5  14
TORSDOF 6
