REMARK  6 active torsions:
REMARK  status: ('A' for Active; 'I' for Inactive)
REMARK    1  A    between atoms: C1_2  and  C2_4 
REMARK    2  A    between atoms: C2_4  and  N2_5 
REMARK    3  A    between atoms: N2_5  and  C3_7 
REMARK    4  A    between atoms: C6_14  and  C7_15 
REMARK    5  A    between atoms: C7_15  and  N5_16 
REMARK    6  A    between atoms: N5_16  and  C8_18 
ROOT
HETATM    1  C3  UNL     1       2.047   0.305   0.009  1.00  0.00     0.115 A 
HETATM    2  N3  UNL     1       1.670   1.633   0.180  1.00  0.00    -0.338 N 
ATOM      3  H3  UNL     1       2.391   2.353   0.129  1.00  0.00     0.168 HD
HETATM    4  C4  UNL     1       0.422   2.006   0.406  1.00  0.00     0.182 A 
HETATM    5  N4  UNL     1      -0.592   1.124   0.487  1.00  0.00    -0.351 N 
ATOM      6  H4  UNL     1      -1.549   1.429   0.665  1.00  0.00     0.166 HD
HETATM    7  C5  UNL     1      -0.287  -0.193   0.321  1.00  0.00     0.055 A 
HETATM    8  C6  UNL     1      -1.378  -1.072   0.307  1.00  0.00    -0.012 A 
HETATM    9  C9  UNL     1      -1.103  -2.371   0.042  1.00  0.00     0.011 A 
HETATM   10  C10 UNL     1       0.178  -2.817  -0.200  1.00  0.00     0.002 A 
HETATM   11  C11 UNL     1       1.241  -1.939  -0.179  1.00  0.00     0.017 A 
HETATM   12  C12 UNL     1       0.999  -0.604   0.086  1.00  0.00     0.035 A 
ENDROOT
BRANCH   8  13
HETATM   13  C7  UNL     1      -2.664  -0.475   0.731  1.00  0.00     0.179 C 
BRANCH  13  14
HETATM   14  N5  UNL     1      -3.413  -0.227  -0.459  1.00  0.00    -0.219 N 
ATOM     15  H5  UNL     1      -3.024  -0.610  -1.320  1.00  0.00     0.178 HD
BRANCH  14  16
HETATM   16  C8  UNL     1      -4.508   0.414  -0.578  1.00  0.00     0.709 A 
HETATM   17  N6  UNL     1      -5.092   0.568  -1.811  1.00  0.00    -0.115 N 
HETATM   18  N7  UNL     1      -6.218   1.259  -1.655  1.00  0.00    -0.213 N 
ATOM     19  H6  UNL     1      -4.726   0.214  -2.694  1.00  0.00     0.207 HD
HETATM   20  N8  UNL     1      -6.365   1.541  -0.376  1.00  0.00    -0.213 N 
ATOM     21  H7  UNL     1      -6.860   1.526  -2.401  1.00  0.00     0.210 HD
HETATM   22  N9  UNL     1      -5.327   1.028   0.286  1.00  0.00    -0.115 N 
ATOM     23  H8  UNL     1      -7.139   2.062   0.036  1.00  0.00     0.210 HD
ATOM     24  H9  UNL     1      -5.180   1.093   1.293  1.00  0.00     0.207 HD
ENDBRANCH  14  16
ENDBRANCH  13  14
ENDBRANCH   8  13
BRANCH   1  25
HETATM   25  N2  UNL     1       3.213   0.083  -0.195  1.00  0.00    -0.367 N 
ATOM     26  H2  UNL     1       3.625   1.016  -0.176  1.00  0.00     0.161 HD
BRANCH  25  27
HETATM   27  C2  UNL     1       4.287  -0.712  -0.436  1.00  0.00     0.220 C 
BRANCH  27  28
HETATM   28  C1  UNL     1       5.591   0.043  -0.149  1.00  0.00     0.248 C 
HETATM   29  N1  UNL     1       5.537   1.366   0.287  1.00  0.00    -0.061 NA
HETATM   30  O1  UNL     1       6.721  -0.510  -0.302  1.00  0.00    -0.275 OA
ENDBRANCH  27  28
ENDBRANCH  25  27
ENDBRANCH   1  25
TORSDOF 6
