REMARK  9 active torsions:
REMARK  status: ('A' for Active; 'I' for Inactive)
REMARK       I    between atoms: C2_2  and  N1_4 
REMARK    1  A    between atoms: N1_4  and  C3_6 
REMARK    2  A    between atoms: C4_7  and  O2_8 
REMARK    3  A    between atoms: C5_10  and  N2_11 
REMARK    4  A    between atoms: N2_11  and  N3_13 
REMARK    5  A    between atoms: C6_18  and  N5_19 
REMARK       I    between atoms: N5_19  and  C7_21 
REMARK    6  A    between atoms: C9_24  and  O4_25 
REMARK    7  A    between atoms: C10_27  and  N6_28 
REMARK    8  A    between atoms: N6_28  and  N7_30 
REMARK    9  A    between atoms: N7_30  and  N8_31 
ROOT
HETATM    1  C3  UNL     1       1.513   0.580   0.879  1.00  0.00     0.048 C 
HETATM    2  C4  UNL     1       0.809   1.411  -0.140  1.00  0.00     0.192 C 
HETATM    3  C5  UNL     1      -0.670   1.568   0.157  1.00  0.00     0.160 C 
HETATM    4  C6  UNL     1      -1.283   0.193   0.355  1.00  0.00     0.142 C 
HETATM    5  C9  UNL     1      -0.687  -0.283   1.665  1.00  0.00     0.173 C 
HETATM    6  C10 UNL     1       0.760  -0.641   1.311  1.00  0.00     0.193 C 
ENDROOT
BRANCH   3   7
HETATM    7  N2  UNL     1      -1.315   2.339  -0.864  1.00  0.00    -0.313 N 
ATOM      8  H2  UNL     1      -1.752   3.237  -0.656  1.00  0.00     0.182 HD
BRANCH   7   9
HETATM    9  N3  UNL     1      -1.320   1.868  -2.013  1.00  0.00    -0.253 N 
HETATM   10  N4  UNL     1      -1.713   1.649  -3.145  1.00  0.00    -0.331 N 
ATOM     11  H42 UNL     1      -2.568   2.205  -3.106  1.00  0.00     0.178 HD
ATOM     12  H41 UNL     1      -1.717   1.262  -4.089  1.00  0.00     0.178 HD
ATOM     13  H3  UNL     1      -0.456   1.327  -2.002  1.00  0.00     0.207 HD
ENDBRANCH   7   9
ENDBRANCH   3   7
BRANCH   2  14
HETATM   14  O2  UNL     1       0.863   0.796  -1.377  1.00  0.00    -0.388 OA
ATOM     15  H2  UNL     1       0.415   1.325  -2.026  1.00  0.00     0.210 HD
ENDBRANCH   2  14
BRANCH   4  16
HETATM   16  N5  UNL     1      -2.707   0.244   0.423  1.00  0.00    -0.352 N 
HETATM   17  C7  UNL     1      -3.531  -0.495  -0.451  1.00  0.00     0.214 C 
HETATM   18  C8  UNL     1      -4.997  -0.393  -0.322  1.00  0.00     0.117 C 
HETATM   19  O3  UNL     1      -3.028  -1.238  -1.336  1.00  0.00    -0.274 OA
ATOM     20  H5  UNL     1      -3.145   0.836   1.129  1.00  0.00     0.163 HD
ENDBRANCH   4  16
BRANCH   1  21
HETATM   21  N1  UNL     1       2.907   0.402   0.772  1.00  0.00    -0.330 N 
HETATM   22  C2  UNL     1       3.656  -0.299  -0.198  1.00  0.00     0.217 C 
HETATM   23  C1  UNL     1       5.165  -0.368  -0.130  1.00  0.00     0.117 C 
HETATM   24  O1  UNL     1       3.058  -0.877  -1.139  1.00  0.00    -0.274 OA
ATOM     25  H1  UNL     1       3.458   0.847   1.506  1.00  0.00     0.168 HD
ENDBRANCH   1  21
BRANCH   5  26
HETATM   26  O4  UNL     1      -1.326  -1.379   2.189  1.00  0.00    -0.391 OA
ATOM     27  H4  UNL     1      -0.952  -1.677   3.010  1.00  0.00     0.210 HD
ENDBRANCH   5  26
BRANCH   6  28
HETATM   28  N6  UNL     1       0.633  -1.652   0.292  1.00  0.00    -0.240 N 
ATOM     29  H6  UNL     1       0.598  -1.361  -0.685  1.00  0.00     0.198 HD
BRANCH  28  30
HETATM   30  N7  UNL     1       0.566  -2.846   0.552  1.00  0.00    -0.248 NA
BRANCH  30  31
HETATM   31  N8  UNL     1       0.802  -4.028   0.719  1.00  0.00    -0.261 N 
ATOM     32  H82 UNL     1       1.770  -3.936   0.411  1.00  0.00     0.193 HD
ATOM     33  H81 UNL     1       0.746  -5.023   0.936  1.00  0.00     0.193 HD
ENDBRANCH  30  31
ENDBRANCH  28  30
ENDBRANCH   6  28
TORSDOF 9
