REMARK  10 active torsions:
REMARK  status: ('A' for Active; 'I' for Inactive)
REMARK    1  A    between atoms: O1_2  and  C2_3 
REMARK    2  A    between atoms: C3_6  and  N2_7 
REMARK    3  A    between atoms: N2_7  and  C4_9 
REMARK    4  A    between atoms: C4_9  and  C5_10 
REMARK    5  A    between atoms: C5_10  and  N3_11 
REMARK    6  A    between atoms: C7_20  and  N6_21 
REMARK    7  A    between atoms: C8_26  and  N8_27 
REMARK    8  A    between atoms: N8_27  and  C9_29 
REMARK    9  A    between atoms: C9_29  and  C10_30 
REMARK   10  A    between atoms: C10_30  and  O2_31 
ROOT
HETATM    1  C2  UNL     1       0.300  -0.821   0.294  1.00  0.00     0.175 A 
HETATM    2  N1  UNL     1      -0.994  -1.162   0.430  1.00  0.00    -0.170 N 
ATOM      3  H1  UNL     1      -1.220  -2.090   0.789  1.00  0.00     0.186 HD
HETATM    4  C3  UNL     1      -2.002  -0.330   0.112  1.00  0.00     0.681 A 
HETATM    5  N4  UNL     1      -1.684   0.884  -0.358  1.00  0.00    -0.175 N 
ATOM      6  H4  UNL     1      -2.434   1.530  -0.605  1.00  0.00     0.186 HD
HETATM    7  C6  UNL     1      -0.397   1.281  -0.516  1.00  0.00     0.154 A 
HETATM    8  N5  UNL     1      -0.096   2.509  -0.992  1.00  0.00    -0.175 N 
ATOM      9  H5  UNL     1      -0.858   3.142  -1.235  1.00  0.00     0.186 HD
HETATM   10  C7  UNL     1       1.177   2.931  -1.159  1.00  0.00     0.679 A 
HETATM   11  N7  UNL     1       2.173   2.077  -0.833  1.00  0.00    -0.176 N 
ATOM     12  H7  UNL     1       3.139   2.382  -0.955  1.00  0.00     0.186 HD
HETATM   13  C8  UNL     1       1.943   0.841  -0.354  1.00  0.00     0.135 A 
HETATM   14  C11 UNL     1       0.628   0.419  -0.186  1.00  0.00     0.105 A 
ENDROOT
BRANCH   4  15
HETATM   15  N2  UNL     1      -3.203  -0.736   0.273  1.00  0.00    -0.224 N 
ATOM     16  H2  UNL     1      -3.313  -1.682   0.639  1.00  0.00     0.177 HD
BRANCH  15  17
HETATM   17  C4  UNL     1      -4.401  -0.025   0.002  1.00  0.00     0.165 C 
BRANCH  17  18
HETATM   18  C5  UNL     1      -5.582  -0.488   0.820  1.00  0.00     0.249 C 
BRANCH  18  19
HETATM   19  N3  UNL     1      -5.832  -1.891   0.538  1.00  0.00    -0.078 N 
ATOM     20  H33 UNL     1      -5.955  -2.071  -0.458  1.00  0.00     0.274 HD
ATOM     21  H32 UNL     1      -5.006  -2.470   0.687  1.00  0.00     0.274 HD
ATOM     22  H31 UNL     1      -6.630  -2.204   1.091  1.00  0.00     0.274 HD
ENDBRANCH  18  19
ENDBRANCH  17  18
ENDBRANCH  15  17
ENDBRANCH   4  15
BRANCH   1  23
HETATM   23  O1  UNL     1       1.346  -1.680   0.622  1.00  0.00    -0.340 OA
HETATM   24  C1  UNL     1       1.177  -2.973   1.123  1.00  0.00     0.211 C 
ENDBRANCH   1  23
BRANCH  13  25
HETATM   25  N8  UNL     1       2.892   0.020  -0.040  1.00  0.00    -0.373 N 
ATOM     26  H8  UNL     1       2.672  -0.909   0.320  1.00  0.00     0.161 HD
BRANCH  25  27
HETATM   27  C9  UNL     1       4.257   0.430  -0.203  1.00  0.00     0.147 C 
BRANCH  27  28
HETATM   28  C10 UNL     1       5.183  -0.575   0.458  1.00  0.00     0.183 C 
BRANCH  28  29
HETATM   29  O2  UNL     1       5.035  -1.842  -0.104  1.00  0.00    -0.399 OA
ATOM     30  H2  UNL     1       5.615  -2.471   0.310  1.00  0.00     0.209 HD
ENDBRANCH  28  29
ENDBRANCH  27  28
ENDBRANCH  25  27
ENDBRANCH  13  25
BRANCH  10  31
HETATM   31  N6  UNL     1       1.402   4.121  -1.620  1.00  0.00    -0.234 N 
ATOM     32  H62 UNL     1       0.651   4.765  -1.866  1.00  0.00     0.174 HD
ATOM     33  H61 UNL     1       2.363   4.439  -1.746  1.00  0.00     0.174 HD
ENDBRANCH  10  31
TORSDOF 10
