REMARK  9 active torsions:
REMARK  status: ('A' for Active; 'I' for Inactive)
REMARK    1  A    between atoms: N1_1  and  C1_4 
REMARK    2  A    between atoms: C2_7  and  N3_8 
REMARK    3  A    between atoms: N3_8  and  C3_10 
REMARK    4  A    between atoms: C3_10  and  C4_11 
REMARK    5  A    between atoms: C4_11  and  O1_12 
REMARK    6  A    between atoms: N5_21  and  C8_22 
REMARK    7  A    between atoms: C8_22  and  C9_23 
REMARK    8  A    between atoms: C9_23  and  C10_24 
REMARK    9  A    between atoms: C10_24  and  N6_25 
ROOT
HETATM    1  C1  UNL     1      -0.913   0.593   1.814  1.00  0.00     0.679 A 
HETATM    2  N2  UNL     1      -2.037   0.657   1.078  1.00  0.00    -0.176 N 
ATOM      3  H2  UNL     1      -2.903   1.024   1.473  1.00  0.00     0.186 HD
HETATM    4  C2  UNL     1      -1.986   0.223  -0.194  1.00  0.00     0.136 A 
HETATM    5  C5  UNL     1      -0.798  -0.282  -0.740  1.00  0.00     0.121 A 
HETATM    6  C6  UNL     1      -0.744  -0.723  -2.048  1.00  0.00     0.267 A 
HETATM    7  O2  UNL     1      -1.785  -0.669  -2.747  1.00  0.00    -0.267 OA
HETATM    8  N4  UNL     1       0.427  -1.204  -2.553  1.00  0.00    -0.274 N 
ATOM      9  H4  UNL     1       0.465  -1.529  -3.519  1.00  0.00     0.173 HD
HETATM   10  C7  UNL     1       1.529  -1.254  -1.791  1.00  0.00     0.331 A 
HETATM   11  O3  UNL     1       2.594  -1.703  -2.285  1.00  0.00    -0.246 OA
HETATM   12  N5  UNL     1       1.489  -0.822  -0.497  1.00  0.00    -0.284 N 
HETATM   13  C11 UNL     1       0.342  -0.340   0.028  1.00  0.00     0.146 A 
HETATM   14  N7  UNL     1       0.244   0.103   1.285  1.00  0.00    -0.175 N 
ATOM     15  H7  UNL     1       1.074   0.073   1.877  1.00  0.00     0.186 HD
ENDROOT
BRANCH  12  16
HETATM   16  C8  UNL     1       2.680  -0.888   0.280  1.00  0.00     0.137 C 
BRANCH  16  17
HETATM   17  C9  UNL     1       3.517   0.356   0.245  1.00  0.00     0.048 C 
BRANCH  17  18
HETATM   18  C10 UNL     1       4.745   0.125   1.120  1.00  0.00     0.231 C 
BRANCH  18  19
HETATM   19  N6  UNL     1       5.617   1.258   1.157  1.00  0.00    -0.079 N 
ATOM     20  H63 UNL     1       5.887   1.543   0.216  1.00  0.00     0.274 HD
ATOM     21  H62 UNL     1       5.114   2.097   1.446  1.00  0.00     0.274 HD
ATOM     22  H61 UNL     1       6.438   1.104   1.742  1.00  0.00     0.274 HD
ENDBRANCH  18  19
ENDBRANCH  17  18
ENDBRANCH  16  17
ENDBRANCH  12  16
BRANCH   4  23
HETATM   23  N3  UNL     1      -3.008   0.244  -0.974  1.00  0.00    -0.373 N 
ATOM     24  H3  UNL     1      -2.890  -0.103  -1.926  1.00  0.00     0.161 HD
BRANCH  23  25
HETATM   25  C3  UNL     1      -4.309   0.727  -0.589  1.00  0.00     0.147 C 
BRANCH  25  26
HETATM   26  C4  UNL     1      -5.093  -0.374   0.124  1.00  0.00     0.183 C 
BRANCH  26  27
HETATM   27  O1  UNL     1      -6.345   0.120   0.486  1.00  0.00    -0.399 OA
ATOM     28  H1  UNL     1      -6.832  -0.564   0.929  1.00  0.00     0.209 HD
ENDBRANCH  26  27
ENDBRANCH  25  26
ENDBRANCH  23  25
ENDBRANCH   4  23
BRANCH   1  29
HETATM   29  N1  UNL     1      -0.948   1.005   3.031  1.00  0.00    -0.234 N 
ATOM     30  H12 UNL     1      -1.814   1.372   3.427  1.00  0.00     0.174 HD
ATOM     31  H11 UNL     1      -0.096   0.956   3.589  1.00  0.00     0.174 HD
ENDBRANCH   1  29
TORSDOF 9
