REMARK  8 active torsions:
REMARK  status: ('A' for Active; 'I' for Inactive)
REMARK    1  A    between atoms: O1_2  and  C2_3 
REMARK    2  A    between atoms: C2_3  and  C3_4 
REMARK    3  A    between atoms: C3_4  and  N1_5 
REMARK    4  A    between atoms: C3_4  and  C4_9 
REMARK    5  A    between atoms: C4_9  and  C5_10 
REMARK    6  A    between atoms: C8_17  and  N4_18 
REMARK    7  A    between atoms: C11_26  and  C12_27 
REMARK    8  A    between atoms: N6_28  and  O3_30 
ROOT
HETATM    1  C5  UNL     1       0.067   0.175  -0.838  1.00  0.00    -0.028 A 
HETATM    2  C6  UNL     1       0.429   1.469  -1.160  1.00  0.00     0.097 A 
HETATM    3  N2  UNL     1       1.575   2.016  -0.833  1.00  0.00    -0.350 N 
ATOM      4  H2  UNL     1       1.780   2.978  -1.103  1.00  0.00     0.166 HD
HETATM    5  C7  UNL     1       2.464   1.313  -0.151  1.00  0.00     0.137 A 
HETATM    6  N3  UNL     1       3.627   1.910   0.165  1.00  0.00    -0.176 N 
ATOM      7  H3  UNL     1       3.794   2.875  -0.121  1.00  0.00     0.186 HD
HETATM    8  C8  UNL     1       4.568   1.250   0.852  1.00  0.00     0.680 A 
HETATM    9  N5  UNL     1       4.320  -0.013   1.215  1.00  0.00    -0.155 N 
ATOM     10  H5  UNL     1       5.032  -0.521   1.739  1.00  0.00     0.187 HD
HETATM   11  C9  UNL     1       3.149  -0.650   0.911  1.00  0.00     0.274 A 
HETATM   12  O2  UNL     1       3.037  -1.815   1.300  1.00  0.00    -0.267 OA
HETATM   13  C10 UNL     1       2.172  -0.003   0.211  1.00  0.00     0.089 A 
HETATM   14  C11 UNL     1       0.979  -0.636  -0.107  1.00  0.00     0.008 A 
ENDROOT
BRANCH   1  15
HETATM   15  C4  UNL     1      -1.283  -0.282  -1.247  1.00  0.00     0.076 C 
BRANCH  15  16
HETATM   16  C3  UNL     1      -2.303  -0.242  -0.113  1.00  0.00     0.211 C 
BRANCH  16  17
HETATM   17  C2  UNL     1      -2.421   1.176   0.380  1.00  0.00     0.200 C 
BRANCH  17  18
HETATM   18  O1  UNL     1      -3.287   1.419   1.390  1.00  0.00    -0.394 OA
HETATM   19  C1  UNL     1      -4.606   1.181   1.280  1.00  0.00     0.201 C 
ENDBRANCH  17  18
ENDBRANCH  16  17
BRANCH  16  20
HETATM   20  N1  UNL     1      -3.585  -0.664  -0.640  1.00  0.00    -0.073 N 
ATOM     21  H13 UNL     1      -4.340  -0.549   0.036  1.00  0.00     0.274 HD
ATOM     22  H12 UNL     1      -3.938  -0.031  -1.357  1.00  0.00     0.274 HD
ATOM     23  H11 UNL     1      -3.505  -1.624  -0.974  1.00  0.00     0.274 HD
ENDBRANCH  16  20
ENDBRANCH  15  16
ENDBRANCH   1  15
BRANCH  14  24
HETATM   24  C12 UNL     1       0.608  -1.984   0.173  1.00  0.00     0.127 C 
HETATM   25  N6  UNL     1       0.894  -3.057   0.696  1.00  0.00    -0.280 N 
ATOM     26  H6  UNL     1       1.768  -3.206   1.200  1.00  0.00     0.193 HD
BRANCH  25  27
HETATM   27  O3  UNL     1      -0.111  -4.103   0.542  1.00  0.00    -0.290 OA
ATOM     28  H3  UNL     1       0.110  -4.933   0.947  1.00  0.00     0.244 HD
ENDBRANCH  25  27
ENDBRANCH  14  24
BRANCH   8  29
HETATM   29  N4  UNL     1       5.700   1.809   1.169  1.00  0.00    -0.234 N 
ATOM     30  H42 UNL     1       5.889   2.772   0.892  1.00  0.00     0.174 HD
ATOM     31  H41 UNL     1       6.417   1.306   1.692  1.00  0.00     0.174 HD
ENDBRANCH   8  29
TORSDOF 8
