REMARK  9 active torsions:
REMARK  status: ('A' for Active; 'I' for Inactive)
REMARK    1  A    between atoms: N1_1  and  N2_4 
REMARK    2  A    between atoms: N2_4  and  N3_5 
REMARK    3  A    between atoms: N3_5  and  N4_7 
REMARK    4  A    between atoms: N4_7  and  C1_9 
REMARK    5  A    between atoms: C2_10  and  C3_11 
REMARK    6  A    between atoms: C3_11  and  C4_12 
REMARK    7  A    between atoms: C4_12  and  N5_13 
REMARK    8  A    between atoms: C8_22  and  S1_23 
REMARK    9  A    between atoms: S1_23  and  N9_24 
ROOT
HETATM    1  C1  UNL     1      -1.179  -0.206  -0.477  1.00  0.00     0.082 A 
HETATM    2  C2  UNL     1      -0.330   0.748  -0.978  1.00  0.00    -0.011 A 
HETATM    3  C6  UNL     1      -0.260   0.923  -2.347  1.00  0.00     0.097 A 
HETATM    4  N8  UNL     1      -0.972   0.211  -3.228  1.00  0.00    -0.373 N 
ATOM      5  H8  UNL     1      -0.890   0.375  -4.231  1.00  0.00     0.164 HD
HETATM    6  C7  UNL     1      -1.803  -0.733  -2.736  1.00  0.00     0.115 A 
HETATM    7  C8  UNL     1      -1.940  -0.974  -1.408  1.00  0.00     0.123 A 
ENDROOT
BRANCH   1   8
HETATM    8  N4  UNL     1      -1.407  -0.432   0.675  1.00  0.00    -0.273 N 
ATOM      9  H4  UNL     1      -2.074  -1.203   0.661  1.00  0.00     0.189 HD
BRANCH   8  10
HETATM   10  N3  UNL     1      -1.220  -0.175   1.945  1.00  0.00    -0.156 N 
ATOM     11  H3  UNL     1      -0.513  -0.777   2.368  1.00  0.00     0.225 HD
BRANCH  10  12
HETATM   12  N2  UNL     1      -1.683   0.596   2.716  1.00  0.00    -0.228 NA
BRANCH  12  13
HETATM   13  N1  UNL     1      -2.174   1.424   3.565  1.00  0.00    -0.259 N 
ATOM     14  H12 UNL     1      -1.513   0.654   3.466  1.00  0.00     0.193 HD
ATOM     15  H11 UNL     1      -2.573   2.088   4.229  1.00  0.00     0.193 HD
ENDBRANCH  12  13
ENDBRANCH  10  12
ENDBRANCH   8  10
ENDBRANCH   1   8
BRANCH   2  16
HETATM   16  C3  UNL     1       0.630   1.510  -0.092  1.00  0.00     0.062 C 
BRANCH  16  17
HETATM   17  C4  UNL     1       1.766   0.522   0.095  1.00  0.00     0.126 C 
BRANCH  17  18
HETATM   18  N5  UNL     1       2.838   1.008   0.916  1.00  0.00    -0.367 N 
HETATM   19  C5  UNL     1       3.962   0.340   0.828  1.00  0.00     0.196 C 
HETATM   20  N6  UNL     1       4.013  -0.764  -0.044  1.00  0.00    -0.067 NA
HETATM   21  N7  UNL     1       5.060   0.728   1.602  1.00  0.00    -0.067 NA
ATOM     22  H5  UNL     1       2.732   1.818   1.527  1.00  0.00     0.161 HD
ENDBRANCH  17  18
ENDBRANCH  16  17
ENDBRANCH   2  16
BRANCH   7  23
HETATM   23  S1  UNL     1      -2.992  -2.180  -0.810  1.00  0.00     0.260 S 
HETATM   24  O1  UNL     1      -2.140  -3.177  -0.029  1.00  0.00    -0.201 OA
HETATM   25  O2  UNL     1      -3.655  -2.907  -1.960  1.00  0.00    -0.201 OA
BRANCH  23  26
HETATM   26  N9  UNL     1      -4.204  -1.636   0.236  1.00  0.00    -0.324 N 
ATOM     27  H92 UNL     1      -4.288  -0.650   0.484  1.00  0.00     0.169 HD
ATOM     28  H91 UNL     1      -4.832  -2.356   0.593  1.00  0.00     0.169 HD
ENDBRANCH  23  26
ENDBRANCH   7  23
TORSDOF 9
