REMARK  4 active torsions:
REMARK  status: ('A' for Active; 'I' for Inactive)
REMARK       I    between atoms: C1_4  and  N3_6 
REMARK    1  A    between atoms: N3_6  and  C2_8 
REMARK    2  A    between atoms: C2_8  and  C3_9 
REMARK    3  A    between atoms: C3_9  and  N4_10 
REMARK       I    between atoms: N4_10  and  C4_12 
REMARK    4  A    between atoms: C4_12  and  C5_14 
ROOT
HETATM    1  C5  UNL     1      -0.986   0.321  -0.061  1.00  0.00     0.174 C 
HETATM    2  N5  UNL     1      -1.332   1.356  -0.746  1.00  0.00    -0.306 N 
ATOM      3  H5  UNL     1      -0.865   2.262  -0.707  1.00  0.00     0.170 HD
HETATM    4  C6  UNL     1      -2.455   1.059  -1.564  1.00  0.00     0.267 C 
HETATM    5  O2  UNL     1      -2.835   1.787  -2.507  1.00  0.00    -0.269 OA
HETATM    6  C7  UNL     1      -2.993  -0.190  -1.064  1.00  0.00     0.235 C 
HETATM    7  N6  UNL     1      -1.855  -0.753  -0.375  1.00  0.00    -0.342 N 
ATOM      8  H6  UNL     1      -1.705  -1.738  -0.156  1.00  0.00     0.163 HD
HETATM    9  C8  UNL     1      -4.203  -0.111  -0.270  1.00  0.00     0.045 C 
HETATM   10  N7  UNL     1      -4.645   0.899   0.357  1.00  0.00    -0.401 N 
ATOM     11  H71 UNL     1      -5.497   0.955   0.916  1.00  0.00     0.155 HD
ATOM     12  H72 UNL     1      -4.201   1.817   0.391  1.00  0.00     0.155 HD
HETATM   13  C9  UNL     1      -4.848  -1.445  -0.320  1.00  0.00     0.178 C 
HETATM   14  N8  UNL     1      -4.263  -2.076  -1.508  1.00  0.00    -0.353 N 
ATOM     15  H8  UNL     1      -4.466  -3.019  -1.838  1.00  0.00     0.162 HD
HETATM   16  C10 UNL     1      -3.366  -1.160  -2.126  1.00  0.00     0.262 C 
HETATM   17  O3  UNL     1      -2.977  -1.165  -3.301  1.00  0.00    -0.270 OA
ENDROOT
BRANCH   1  18
HETATM   18  C4  UNL     1       0.153   0.289   0.896  1.00  0.00     0.285 C 
HETATM   19  N4  UNL     1       0.943   1.434   1.114  1.00  0.00    -0.353 N 
ATOM     20  H4  UNL     1       0.720   2.291   0.607  1.00  0.00     0.162 HD
HETATM   21  O1  UNL     1       0.423  -0.762   1.524  1.00  0.00    -0.264 OA
BRANCH  19  22
HETATM   22  C3  UNL     1       2.056   1.436   2.029  1.00  0.00     0.142 C 
BRANCH  22  23
HETATM   23  C2  UNL     1       3.123   0.474   1.646  1.00  0.00     0.142 C 
BRANCH  23  24
HETATM   24  N3  UNL     1       3.650   0.785   0.316  1.00  0.00    -0.363 N 
HETATM   25  C1  UNL     1       4.667   0.041  -0.299  1.00  0.00     0.181 C 
HETATM   26  N1  UNL     1       4.834   0.076  -1.570  1.00  0.00    -0.374 N 
HETATM   27  N2  UNL     1       5.529  -0.765   0.487  1.00  0.00    -0.064 NA
ATOM     28  H12 UNL     1       5.574  -0.465  -2.017  1.00  0.00     0.158 HD
ATOM     29  H11 UNL     1       4.214   0.656  -2.135  1.00  0.00     0.158 HD
ATOM     30  H3  UNL     1       3.259   1.581  -0.187  1.00  0.00     0.162 HD
ENDBRANCH  23  24
ENDBRANCH  22  23
ENDBRANCH  19  22
ENDBRANCH   1  18
TORSDOF 4
