REMARK  6 active torsions:
REMARK  status: ('A' for Active; 'I' for Inactive)
REMARK    1  A    between atoms: N3_4  and  C2_6 
REMARK    2  A    between atoms: C2_6  and  C3_7 
REMARK    3  A    between atoms: C3_7  and  C4_8 
REMARK    4  A    between atoms: C6_13  and  C7_14 
REMARK    5  A    between atoms: C7_14  and  S1_15 
REMARK    6  A    between atoms: S1_15  and  N5_16 
ROOT
HETATM    1  C4  UNL     1       0.524  -0.327  -1.767  1.00  0.00     0.171 C 
HETATM    2  C5  UNL     1      -0.511  -1.204  -2.339  1.00  0.00     0.232 C 
HETATM    3  O1  UNL     1      -0.191  -2.327  -2.781  1.00  0.00    -0.273 OA
HETATM    4  N4  UNL     1      -1.840  -0.747  -2.371  1.00  0.00    -0.338 N 
ATOM      5  H4  UNL     1      -2.471  -1.035  -3.119  1.00  0.00     0.164 HD
HETATM    6  C6  UNL     1      -2.294   0.137  -1.325  1.00  0.00     0.202 C 
HETATM    7  N6  UNL     1      -1.308   1.126  -0.999  1.00  0.00    -0.338 N 
ATOM      8  H6  UNL     1      -1.586   1.932  -0.439  1.00  0.00     0.164 HD
HETATM    9  C8  UNL     1       0.054   1.022  -1.432  1.00  0.00     0.232 C 
HETATM   10  O4  UNL     1       0.806   2.021  -1.522  1.00  0.00    -0.273 OA
ENDROOT
BRANCH   1  11
HETATM   11  C3  UNL     1       1.268  -0.971  -0.627  1.00  0.00     0.043 C 
BRANCH  11  12
HETATM   12  C2  UNL     1       2.320  -0.042  -0.065  1.00  0.00     0.123 C 
BRANCH  12  13
HETATM   13  N3  UNL     1       3.010  -0.707   1.024  1.00  0.00    -0.367 N 
HETATM   14  C1  UNL     1       3.712  -0.029   1.869  1.00  0.00     0.196 C 
HETATM   15  N1  UNL     1       3.863   1.364   1.809  1.00  0.00    -0.067 NA
HETATM   16  N2  UNL     1       4.358  -0.751   2.907  1.00  0.00    -0.067 NA
ATOM     17  H3  UNL     1       2.940  -1.720   1.123  1.00  0.00     0.161 HD
ENDBRANCH  12  13
ENDBRANCH  11  12
ENDBRANCH   1  11
BRANCH   6  18
HETATM   18  C7  UNL     1      -2.693  -0.735  -0.161  1.00  0.00     0.209 C 
BRANCH  18  19
HETATM   19  S1  UNL     1      -3.280   0.191   1.224  1.00  0.00     0.228 S 
HETATM   20  O2  UNL     1      -3.694  -0.818   2.280  1.00  0.00    -0.206 OA
HETATM   21  O3  UNL     1      -2.243   1.057   1.829  1.00  0.00    -0.206 OA
BRANCH  19  22
HETATM   22  N5  UNL     1      -4.654   1.134   0.856  1.00  0.00    -0.328 N 
ATOM     23  H52 UNL     1      -5.080   1.150  -0.071  1.00  0.00     0.168 HD
ATOM     24  H51 UNL     1      -4.993   1.669   1.656  1.00  0.00     0.168 HD
ENDBRANCH  19  22
ENDBRANCH  18  19
ENDBRANCH   6  18
TORSDOF 6
