REMARK  6 active torsions:
REMARK  status: ('A' for Active; 'I' for Inactive)
REMARK    1  A    between atoms: N1_1  and  C1_5 
REMARK    2  A    between atoms: C1_5  and  C2_6 
REMARK    3  A    between atoms: C4_11  and  C5_12 
REMARK    4  A    between atoms: C5_12  and  C6_13 
REMARK    5  A    between atoms: C6_13  and  C7_14 
REMARK    6  A    between atoms: C7_14  and  N3_15 
ROOT
HETATM    1  C2  UNL     1      -3.367   0.565   0.269  1.00  0.00     0.202 C 
HETATM    2  N2  UNL     1      -2.206   1.362   0.336  1.00  0.00    -0.344 N 
ATOM      3  H2  UNL     1      -2.332   2.272   0.780  1.00  0.00     0.163 HD
HETATM    4  C3  UNL     1      -0.893   1.094  -0.118  1.00  0.00     0.241 C 
HETATM    5  O1  UNL     1      -0.265   1.951  -0.806  1.00  0.00    -0.271 OA
HETATM    6  C4  UNL     1      -0.109  -0.157   0.133  1.00  0.00     0.176 C 
HETATM    7  N6  UNL     1      -0.172  -1.073  -0.984  1.00  0.00    -0.346 N 
ATOM      8  H6  UNL     1       0.260  -0.837  -1.877  1.00  0.00     0.163 HD
HETATM    9  C9  UNL     1      -0.846  -2.303  -0.811  1.00  0.00     0.236 C 
HETATM   10  O2  UNL     1      -0.408  -3.365  -1.372  1.00  0.00    -0.272 OA
HETATM   11  C10 UNL     1      -2.064  -2.318   0.035  1.00  0.00     0.225 C 
HETATM   12  N7  UNL     1      -3.115  -1.745  -0.813  1.00  0.00    -0.350 N 
ATOM     13  H7  UNL     1      -3.609  -2.374  -1.446  1.00  0.00     0.163 HD
HETATM   14  C11 UNL     1      -3.486  -0.405  -0.815  1.00  0.00     0.242 C 
HETATM   15  O3  UNL     1      -3.994   0.056  -1.878  1.00  0.00    -0.271 OA
ENDROOT
BRANCH   6  16
HETATM   16  C5  UNL     1       1.392   0.178   0.268  1.00  0.00     0.036 C 
BRANCH  16  17
HETATM   17  C6  UNL     1       2.072  -1.164   0.519  1.00  0.00     0.022 C 
BRANCH  17  18
HETATM   18  C7  UNL     1       3.572  -0.979   0.673  1.00  0.00     0.122 C 
BRANCH  18  19
HETATM   19  N3  UNL     1       4.169  -0.400  -0.504  1.00  0.00    -0.367 N 
HETATM   20  C8  UNL     1       4.986   0.595  -0.333  1.00  0.00     0.196 C 
HETATM   21  N4  UNL     1       5.610   1.213  -1.444  1.00  0.00    -0.067 NA
HETATM   22  N5  UNL     1       5.299   1.115   0.958  1.00  0.00    -0.067 NA
ATOM     23  H3  UNL     1       3.958  -0.758  -1.436  1.00  0.00     0.161 HD
ENDBRANCH  18  19
ENDBRANCH  17  18
ENDBRANCH  16  17
ENDBRANCH   6  16
BRANCH   1  24
HETATM   24  C1  UNL     1      -4.645   1.397   0.292  1.00  0.00     0.264 C 
BRANCH  24  25
HETATM   25  N1  UNL     1      -4.745   2.183   1.498  1.00  0.00    -0.077 N 
ATOM     26  H13 UNL     1      -4.665   1.600   2.331  1.00  0.00     0.274 HD
ATOM     27  H12 UNL     1      -3.919   2.766   1.633  1.00  0.00     0.274 HD
ATOM     28  H11 UNL     1      -5.600   2.739   1.513  1.00  0.00     0.274 HD
ENDBRANCH  24  25
ENDBRANCH   1  24
TORSDOF 6
