REMARK  16 active torsions:
REMARK  status: ('A' for Active; 'I' for Inactive)
REMARK    1  A    between atoms: N1_1  and  C1_4 
REMARK    2  A    between atoms: C2_7  and  O1_8 
REMARK    3  A    between atoms: C3_10  and  C4_11 
REMARK    4  A    between atoms: N7_23  and  C7_24 
REMARK    5  A    between atoms: C7_24  and  C8_25 
REMARK    6  A    between atoms: C7_24  and  C14_47 
REMARK    7  A    between atoms: C9_28  and  N9_29 
REMARK    8  A    between atoms: N9_29  and  C10_31 
REMARK    9  A    between atoms: C10_31  and  C11_32 
REMARK   10  A    between atoms: C10_31  and  C12_35 
REMARK   11  A    between atoms: C12_35  and  N10_36 
REMARK   12  A    between atoms: C12_35  and  O5_40 
REMARK   13  A    between atoms: C13_44  and  O6_45 
REMARK   14  A    between atoms: C14_47  and  O7_48 
REMARK   15  A    between atoms: C14_47  and  O8_50 
REMARK   16  A    between atoms: N12_52  and  N13_53 
ROOT
HETATM    1  C7  UNL     1      -0.135   1.360  -1.912  1.00  0.00     0.220 C 
ENDROOT
BRANCH   1   2
HETATM    2  N7  UNL     1       1.154   0.901  -1.486  1.00  0.00    -0.243 N 
HETATM    3  C5  UNL     1       1.709   0.863  -0.262  1.00  0.00     0.177 A 
HETATM    4  N4  UNL     1       1.206   1.263   1.004  1.00  0.00    -0.222 N 
HETATM    5  C6  UNL     1       3.011   0.319  -0.354  1.00  0.00     0.128 A 
HETATM    6  O2  UNL     1       2.040   1.088   2.076  1.00  0.00    -0.155 OA
ATOM      7  H4  UNL     1       0.272   1.660   1.110  1.00  0.00     0.198 HD
HETATM    8  N3  UNL     1       3.287   0.561   1.950  1.00  0.00    -0.237 N 
HETATM    9  C4  UNL     1       3.814   0.175   0.834  1.00  0.00     0.122 A 
ATOM     10  H3  UNL     1       3.847   0.463   2.797  1.00  0.00     0.197 HD
HETATM   11  N5  UNL     1       3.145   0.064  -1.654  1.00  0.00    -0.280 N 
HETATM   12  N6  UNL     1       2.088   0.394  -2.308  1.00  0.00    -0.237 N 
ATOM     13  H5  UNL     1       3.980  -0.341  -2.077  1.00  0.00     0.188 HD
ATOM     14  H6  UNL     1       1.974   0.285  -3.316  1.00  0.00     0.208 HD
BRANCH   9  15
HETATM   15  C3  UNL     1       5.158  -0.372   0.837  1.00  0.00     0.156 A 
HETATM   16  C2  UNL     1       5.940  -0.845  -0.176  1.00  0.00     0.187 A 
HETATM   17  N2  UNL     1       7.138  -1.256   0.334  1.00  0.00    -0.167 N 
HETATM   18  C1  UNL     1       7.082  -1.033   1.644  1.00  0.00     0.699 A 
ATOM     19  H2  UNL     1       7.920  -1.655  -0.186  1.00  0.00     0.186 HD
HETATM   20  N12 UNL     1       5.911  -0.503   1.992  1.00  0.00    -0.087 N 
BRANCH  16  21
HETATM   21  O1  UNL     1       5.666  -0.940  -1.527  1.00  0.00    -0.344 OA
ATOM     22  H1  UNL     1       4.832  -0.654  -1.882  1.00  0.00     0.219 HD
ENDBRANCH  16  21
BRANCH  18  23
HETATM   23  N1  UNL     1       8.023  -1.281   2.530  1.00  0.00    -0.233 N 
ATOM     24  H12 UNL     1       8.920  -1.687   2.263  1.00  0.00     0.174 HD
ATOM     25  H11 UNL     1       7.980  -1.110   3.535  1.00  0.00     0.174 HD
ENDBRANCH  18  23
BRANCH  20  26
HETATM   26  N13 UNL     1       5.467  -0.128   3.260  1.00  0.00    -0.324 N 
ATOM     27 2H13 UNL     1       6.022  -0.224   4.111  1.00  0.00     0.178 HD
ATOM     28 1H13 UNL     1       4.570   0.278   3.527  1.00  0.00     0.178 HD
ENDBRANCH  20  26
ENDBRANCH   9  15
ENDBRANCH   1   2
BRANCH   1  29
HETATM   29  C8  UNL     1      -1.270   0.532  -1.419  1.00  0.00     0.107 A 
HETATM   30  N8  UNL     1      -2.178   0.985  -0.549  1.00  0.00    -0.189 N 
HETATM   31  C9  UNL     1      -3.059  -0.002  -0.326  1.00  0.00     0.681 A 
ATOM     32  H8  UNL     1      -2.198   1.915  -0.130  1.00  0.00     0.184 HD
HETATM   33  N11 UNL     1      -2.709  -1.074  -1.051  1.00  0.00    -0.169 N 
HETATM   34  C13 UNL     1      -1.604  -0.754  -1.731  1.00  0.00     0.181 A 
ATOM     35  H11 UNL     1      -3.197  -1.969  -1.079  1.00  0.00     0.186 HD
BRANCH  31  36
HETATM   36  N9  UNL     1      -4.186   0.098   0.564  1.00  0.00    -0.207 N 
ATOM     37  H9  UNL     1      -4.333   0.973   1.068  1.00  0.00     0.178 HD
BRANCH  36  38
HETATM   38  C10 UNL     1      -5.114  -0.980   0.774  1.00  0.00     0.256 C 
BRANCH  38  39
HETATM   39  C11 UNL     1      -5.868  -1.322  -0.435  1.00  0.00     0.201 C 
HETATM   40  O3  UNL     1      -5.719  -0.713  -1.511  1.00  0.00    -0.646 OA
HETATM   41  O4  UNL     1      -6.786  -2.371  -0.365  1.00  0.00    -0.646 OA
ENDBRANCH  38  39
BRANCH  38  42
HETATM   42  C12 UNL     1      -6.110  -0.600   1.848  1.00  0.00     0.350 C 
BRANCH  42  43
HETATM   43  N10 UNL     1      -5.389  -0.334   3.072  1.00  0.00    -0.051 N 
ATOM     44 3H10 UNL     1      -4.792  -1.112   3.351  1.00  0.00     0.277 HD
ATOM     45 2H10 UNL     1      -4.658   0.367   2.951  1.00  0.00     0.277 HD
ATOM     46 1H10 UNL     1      -6.060  -0.078   3.796  1.00  0.00     0.277 HD
ENDBRANCH  42  43
BRANCH  42  47
HETATM   47  O5  UNL     1      -7.014  -1.634   2.062  1.00  0.00    -0.368 OA
ATOM     48  H5  UNL     1      -7.639  -1.395   2.736  1.00  0.00     0.212 HD
ENDBRANCH  42  47
ENDBRANCH  38  42
ENDBRANCH  36  38
ENDBRANCH  31  36
BRANCH  34  49
HETATM   49  O6  UNL     1      -0.875  -1.558  -2.620  1.00  0.00    -0.344 OA
ATOM     50  H6  UNL     1      -1.107  -2.453  -2.837  1.00  0.00     0.219 HD
ENDBRANCH  34  49
ENDBRANCH   1  29
BRANCH   1  51
HETATM   51  C14 UNL     1      -0.375   2.834  -1.672  1.00  0.00     0.284 C 
BRANCH  51  52
HETATM   52  O7  UNL     1       0.608   3.521  -2.392  1.00  0.00    -0.369 OA
ATOM     53  H7  UNL     1       0.457   4.447  -2.241  1.00  0.00     0.212 HD
ENDBRANCH  51  52
BRANCH  51  54
HETATM   54  O8  UNL     1      -1.633   3.123  -2.254  1.00  0.00    -0.369 OA
ATOM     55  H8  UNL     1      -1.784   4.049  -2.103  1.00  0.00     0.212 HD
ENDBRANCH  51  54
ENDBRANCH   1  51
TORSDOF 16
