REMARK  17 active torsions:
REMARK  status: ('A' for Active; 'I' for Inactive)
REMARK    1  A    between atoms: N1_1  and  C1_4 
REMARK    2  A    between atoms: C2_7  and  C3_8 
REMARK    3  A    between atoms: C3_8  and  O1_9 
REMARK    4  A    between atoms: C3_8  and  C4_11 
REMARK    5  A    between atoms: N5_16  and  C5_17 
REMARK    6  A    between atoms: N6_19  and  O3_20 
REMARK    7  A    between atoms: C6_22  and  N7_23 
REMARK    8  A    between atoms: N7_23  and  C7_25 
REMARK    9  A    between atoms: C7_25  and  O4_26 
REMARK   10  A    between atoms: C7_25  and  C8_28 
REMARK   11  A    between atoms: C8_28  and  C9_29 
REMARK   12  A    between atoms: C10_32  and  O7_33 
REMARK   13  A    between atoms: C11_35  and  O8_36 
REMARK   14  A    between atoms: C12_38  and  O9_39 
REMARK   15  A    between atoms: C13_43  and  C14_44 
REMARK   16  A    between atoms: C14_44  and  O10_45 
REMARK   17  A    between atoms: C14_44  and  O11_47 
ROOT
HETATM    1  C4  UNL     1      -1.681  -1.238   1.393  1.00  0.00     0.115 A 
HETATM    2  N3  UNL     1      -0.782  -2.252   1.204  1.00  0.00    -0.283 N 
ATOM      3  H3  UNL     1      -0.931  -3.226   1.468  1.00  0.00     0.188 HD
HETATM    4  N4  UNL     1       0.291  -1.785   0.637  1.00  0.00    -0.236 N 
ATOM      5  H4  UNL     1       1.109  -2.341   0.388  1.00  0.00     0.208 HD
HETATM    6  N5  UNL     1       0.168  -0.477   0.429  1.00  0.00    -0.220 N 
HETATM    7  C12 UNL     1      -1.037  -0.133   0.885  1.00  0.00     0.188 A 
ENDROOT
BRANCH   6   8
HETATM    8  C5  UNL     1       1.242   0.293  -0.182  1.00  0.00     0.304 C 
HETATM    9  O2  UNL     1       2.113   0.669   0.837  1.00  0.00    -0.246 OA
HETATM   10  N6  UNL     1       3.140   1.342   0.304  1.00  0.00    -0.043 NA
HETATM   11  C6  UNL     1       4.022   0.408  -0.316  1.00  0.00     0.242 C 
HETATM   12  C10 UNL     1       3.363  -0.519  -1.310  1.00  0.00     0.192 C 
HETATM   13  C11 UNL     1       1.884  -0.581  -1.223  1.00  0.00     0.202 C 
BRANCH  10  14
HETATM   14  O3  UNL     1       2.826   2.407  -0.419  1.00  0.00    -0.287 OA
ATOM     15  H3  UNL     1       3.555   2.885  -0.797  1.00  0.00     0.239 HD
ENDBRANCH  10  14
BRANCH  11  16
HETATM   16  N7  UNL     1       5.108   1.047  -0.974  1.00  0.00    -0.374 N 
ATOM     17  H7  UNL     1       4.975   1.509  -1.874  1.00  0.00     0.157 HD
BRANCH  16  18
HETATM   18  C7  UNL     1       6.376   1.027  -0.351  1.00  0.00     0.224 C 
BRANCH  18  19
HETATM   19  O4  UNL     1       6.396   1.872   0.761  1.00  0.00    -0.377 OA
ATOM     20  H4  UNL     1       7.249   1.859   1.180  1.00  0.00     0.212 HD
ENDBRANCH  18  19
BRANCH  18  21
HETATM   21  C8  UNL     1       6.995  -0.303  -0.084  1.00  0.00     0.166 C 
BRANCH  21  22
HETATM   22  C9  UNL     1       8.344  -0.092   0.573  1.00  0.00     0.176 C 
HETATM   23  O5  UNL     1       8.992  -1.094   1.019  1.00  0.00    -0.648 OA
HETATM   24  O6  UNL     1       8.926   1.145   0.724  1.00  0.00    -0.648 OA
ENDBRANCH  21  22
ENDBRANCH  18  21
ENDBRANCH  16  18
ENDBRANCH  11  16
BRANCH  12  25
HETATM   25  O7  UNL     1       3.987  -1.758  -1.237  1.00  0.00    -0.389 OA
ATOM     26  H7  UNL     1       3.573  -2.341  -1.862  1.00  0.00     0.210 HD
ENDBRANCH  12  25
BRANCH  13  27
HETATM   27  O8  UNL     1       1.264  -0.225  -2.445  1.00  0.00    -0.388 OA
ATOM     28  H8  UNL     1       1.670  -0.777  -3.103  1.00  0.00     0.210 HD
ENDBRANCH  13  27
ENDBRANCH   6   8
BRANCH   7  29
HETATM   29  O9  UNL     1      -1.529   1.178   0.833  1.00  0.00    -0.343 OA
ATOM     30  H9  UNL     1      -1.084   1.941   0.482  1.00  0.00     0.219 HD
ENDBRANCH   7  29
BRANCH   1  31
HETATM   31  C3  UNL     1      -2.980  -1.385   2.026  1.00  0.00     0.241 C 
BRANCH  31  32
HETATM   32  C2  UNL     1      -4.193  -1.210   1.200  1.00  0.00     0.118 A 
HETATM   33  N2  UNL     1      -4.720  -2.209   0.454  1.00  0.00    -0.328 N 
HETATM   34  C1  UNL     1      -5.845  -2.098  -0.246  1.00  0.00     0.127 A 
ATOM     35  H2  UNL     1      -4.225  -3.100   0.427  1.00  0.00     0.169 HD
HETATM   36  C15 UNL     1      -6.569  -0.901  -0.247  1.00  0.00     0.117 A 
HETATM   37  C13 UNL     1      -6.025   0.126   0.523  1.00  0.00     0.094 A 
HETATM   38  N9  UNL     1      -7.781  -0.748  -0.979  1.00  0.00    -0.096 NA
HETATM   39  N8  UNL     1      -4.887  -0.053   1.201  1.00  0.00    -0.341 N 
ATOM     40  H8  UNL     1      -4.524   0.727   1.749  1.00  0.00     0.167 HD
BRANCH  34  41
HETATM   41  N1  UNL     1      -6.335  -3.056  -0.953  1.00  0.00    -0.384 N 
ATOM     42  H12 UNL     1      -5.807  -3.929  -0.952  1.00  0.00     0.157 HD
ATOM     43  H11 UNL     1      -7.198  -2.971  -1.490  1.00  0.00     0.157 HD
ENDBRANCH  34  41
BRANCH  37  44
HETATM   44  C14 UNL     1      -6.733   1.415   0.577  1.00  0.00     0.307 C 
BRANCH  44  45
HETATM   45  O10 UNL     1      -8.111   1.213   0.738  1.00  0.00    -0.366 OA
ATOM     46  H10 UNL     1      -8.568   2.045   0.773  1.00  0.00     0.213 HD
ENDBRANCH  44  45
BRANCH  44  47
HETATM   47  O11 UNL     1      -6.302   2.128   1.713  1.00  0.00    -0.366 OA
ATOM     48  H11 UNL     1      -6.759   2.960   1.748  1.00  0.00     0.213 HD
ENDBRANCH  44  47
ENDBRANCH  37  44
ENDBRANCH  31  32
BRANCH  31  49
HETATM   49  O1  UNL     1      -3.094  -0.594   3.205  1.00  0.00    -0.382 OA
ATOM     50  H1  UNL     1      -2.314  -0.706   3.736  1.00  0.00     0.211 HD
ENDBRANCH  31  49
ENDBRANCH   1  31
TORSDOF 17
