REMARK  15 active torsions:
REMARK  status: ('A' for Active; 'I' for Inactive)
REMARK    1  A    between atoms: O1_2  and  N1_3 
REMARK    2  A    between atoms: N1_3  and  C2_5 
REMARK    3  A    between atoms: C2_5  and  N2_6 
REMARK    4  A    between atoms: C2_5  and  O5_37 
REMARK    5  A    between atoms: N2_6  and  C3_8 
REMARK    6  A    between atoms: C3_8  and  C4_9 
REMARK    7  A    between atoms: C5_11  and  N3_12 
REMARK    8  A    between atoms: C7_18  and  N6_19 
REMARK    9  A    between atoms: C8_24  and  N8_25 
REMARK   10  A    between atoms: C10_31  and  O3_32 
REMARK   11  A    between atoms: C11_34  and  O4_35 
REMARK   12  A    between atoms: O5_37  and  C12_38 
REMARK   13  A    between atoms: N10_39  and  C13_41 
REMARK   14  A    between atoms: C13_41  and  O6_42 
REMARK   15  A    between atoms: N13_51  and  O7_52 
ROOT
HETATM    1  C4  UNL     1       1.344   1.439   0.432  1.00  0.00     0.173 C 
HETATM    2  O2  UNL     1       2.329   0.466   0.136  1.00  0.00    -0.353 OA
HETATM    3  C5  UNL     1       3.046   1.117  -0.842  1.00  0.00     0.279 C 
HETATM    4  C10 UNL     1       3.356   2.446  -0.250  1.00  0.00     0.200 C 
HETATM    5  C11 UNL     1       2.194   2.699   0.680  1.00  0.00     0.181 C 
ENDROOT
BRANCH   1   6
HETATM    6  C3  UNL     1       0.548   1.087   1.632  1.00  0.00     0.153 C 
BRANCH   6   7
HETATM    7  N2  UNL     1      -0.188  -0.117   1.598  1.00  0.00    -0.377 N 
ATOM      8  H2  UNL     1       0.084  -0.915   2.172  1.00  0.00     0.157 HD
BRANCH   7   9
HETATM    9  C2  UNL     1      -1.325  -0.185   0.735  1.00  0.00     0.352 C 
BRANCH   9  10
HETATM   10  N1  UNL     1      -1.110  -0.078  -0.649  1.00  0.00    -0.256 N 
ATOM     11  H1  UNL     1      -1.531   0.692  -1.169  1.00  0.00     0.192 HD
BRANCH  10  12
HETATM   12  O1  UNL     1      -0.374  -0.959  -1.274  1.00  0.00    -0.286 OA
HETATM   13  C1  UNL     1      -0.701  -1.022  -2.632  1.00  0.00     0.237 C 
ENDBRANCH  10  12
ENDBRANCH   9  10
BRANCH   9  14
HETATM   14  O5  UNL     1      -2.299   0.812   1.101  1.00  0.00    -0.302 OA
BRANCH  14  15
HETATM   15  C12 UNL     1      -3.558   0.803   0.545  1.00  0.00     0.232 C 
HETATM   16  N10 UNL     1      -3.942  -0.276  -0.063  1.00  0.00    -0.325 N 
ATOM     17  H10 UNL     1      -3.284  -1.055  -0.092  1.00  0.00     0.169 HD
BRANCH  16  18
HETATM   18  C13 UNL     1      -5.182  -0.462  -0.683  1.00  0.00     0.188 C 
HETATM   19  C14 UNL     1      -6.315  -0.687  -0.019  1.00  0.00     0.189 A 
HETATM   20  N11 UNL     1      -6.485  -0.778   1.390  1.00  0.00    -0.168 N 
HETATM   21  N14 UNL     1      -7.601  -0.886  -0.603  1.00  0.00    -0.240 N 
HETATM   22  C15 UNL     1      -7.839  -1.027   1.662  1.00  0.00     0.719 A 
ATOM     23  H11 UNL     1      -5.746  -0.679   2.086  1.00  0.00     0.186 HD
HETATM   24  N12 UNL     1      -8.385  -1.174   2.843  1.00  0.00    -0.231 N 
HETATM   25  N13 UNL     1      -8.522  -1.091   0.410  1.00  0.00     0.017 N 
ATOM     26 2H12 UNL     1      -7.897  -1.128   3.738  1.00  0.00     0.174 HD
ATOM     27 1H12 UNL     1      -9.369  -1.355   3.041  1.00  0.00     0.174 HD
ATOM     28  H14 UNL     1      -7.808  -0.879  -1.602  1.00  0.00     0.192 HD
BRANCH  18  29
HETATM   29  O6  UNL     1      -5.241  -0.412  -2.065  1.00  0.00    -0.343 OA
ATOM     30  H6  UNL     1      -6.083  -0.538  -2.486  1.00  0.00     0.219 HD
ENDBRANCH  18  29
BRANCH  25  31
HETATM   31  O7  UNL     1      -9.845  -1.318   0.299  1.00  0.00    -0.254 OA
ATOM     32  H7  UNL     1     -10.299  -1.361  -0.534  1.00  0.00     0.247 HD
ENDBRANCH  25  31
ENDBRANCH  16  18
ENDBRANCH  14  15
ENDBRANCH   9  14
ENDBRANCH   7   9
ENDBRANCH   6   7
ENDBRANCH   1   6
BRANCH   5  33
HETATM   33  O4  UNL     1       1.442   3.802   0.342  1.00  0.00    -0.390 OA
ATOM     34  H4  UNL     1       1.966   4.579   0.495  1.00  0.00     0.210 HD
ENDBRANCH   5  33
BRANCH   3  35
HETATM   35  N3  UNL     1       4.214   0.390  -1.273  1.00  0.00    -0.227 N 
HETATM   36  N4  UNL     1       4.660   0.350  -2.518  1.00  0.00    -0.236 N 
HETATM   37  N5  UNL     1       5.742  -0.392  -2.589  1.00  0.00    -0.279 N 
ATOM     38  H4  UNL     1       4.226   0.827  -3.309  1.00  0.00     0.208 HD
HETATM   39  C6  UNL     1       6.029  -0.862  -1.364  1.00  0.00     0.140 A 
ATOM     40  H5  UNL     1       6.277  -0.580  -3.437  1.00  0.00     0.189 HD
HETATM   41  C7  UNL     1       7.038  -1.671  -0.894  1.00  0.00     0.147 A 
HETATM   42  C9  UNL     1       5.046  -0.356  -0.533  1.00  0.00     0.173 A 
HETATM   43  N7  UNL     1       7.044  -1.962   0.418  1.00  0.00    -0.175 N 
HETATM   44  C8  UNL     1       6.068  -1.454   1.218  1.00  0.00     0.679 A 
ATOM     45  H7  UNL     1       7.773  -2.558   0.810  1.00  0.00     0.186 HD
HETATM   46  N9  UNL     1       5.094  -0.672   0.756  1.00  0.00    -0.173 N 
ATOM     47  H9  UNL     1       4.383  -0.315   1.394  1.00  0.00     0.186 HD
BRANCH  41  48
HETATM   48  N6  UNL     1       7.974  -2.166  -1.624  1.00  0.00    -0.383 N 
ATOM     49  H62 UNL     1       7.969  -1.945  -2.620  1.00  0.00     0.157 HD
ATOM     50  H61 UNL     1       8.722  -2.766  -1.276  1.00  0.00     0.157 HD
ENDBRANCH  41  48
BRANCH  44  51
HETATM   51  N8  UNL     1       6.073  -1.736   2.496  1.00  0.00    -0.234 N 
ATOM     52  H82 UNL     1       6.819  -2.335   2.850  1.00  0.00     0.174 HD
ATOM     53  H81 UNL     1       5.341  -1.355   3.096  1.00  0.00     0.174 HD
ENDBRANCH  44  51
ENDBRANCH   3  35
BRANCH   4  54
HETATM   54  O3  UNL     1       4.543   2.469   0.477  1.00  0.00    -0.388 OA
ATOM     55  H3  UNL     1       4.741   3.318   0.855  1.00  0.00     0.210 HD
ENDBRANCH   4  54
TORSDOF 15
