REMARK  5 active torsions:
REMARK  status: ('A' for Active; 'I' for Inactive)
REMARK    1  A    between atoms: C2_2  and  C3_3 
REMARK    2  A    between atoms: C3_3  and  C4_4 
REMARK    3  A    between atoms: C4_4  and  C5_5 
REMARK    4  A    between atoms: C5_5  and  C6_6 
REMARK    5  A    between atoms: C6_6  and  C7_7 
ROOT
HETATM    1  C7  UNL     1       0.864   0.922  -0.666  1.00  0.00    -0.057 A 
HETATM    2  C8  UNL     1       0.042   1.965  -0.320  1.00  0.00     0.008 A 
HETATM    3  C9  UNL     1      -1.310   1.717  -0.057  1.00  0.00     0.013 A 
HETATM    4  C10 UNL     1      -1.862   0.468  -0.130  1.00  0.00    -0.015 A 
HETATM    5  C11 UNL     1      -1.021  -0.587  -0.483  1.00  0.00    -0.025 A 
HETATM    6  C12 UNL     1      -1.515  -1.871  -0.574  1.00  0.00     0.013 A 
HETATM    7  C13 UNL     1      -2.834  -2.083  -0.313  1.00  0.00     0.015 A 
HETATM    8  C14 UNL     1      -3.671  -1.039   0.037  1.00  0.00     0.004 A 
HETATM    9  C15 UNL     1      -3.200   0.261   0.136  1.00  0.00    -0.013 A 
HETATM   10  C16 UNL     1      -4.038   1.299   0.485  1.00  0.00     0.014 A 
HETATM   11  C17 UNL     1      -5.361   1.009   0.735  1.00  0.00     0.016 A 
HETATM   12  C18 UNL     1      -5.848  -0.296   0.639  1.00  0.00     0.010 A 
HETATM   13  C19 UNL     1      -7.088  -0.863   0.826  1.00  0.00     0.120 A 
HETATM   14  N1  UNL     1      -6.990  -2.183   0.597  1.00  0.00    -0.311 N 
ATOM     15  H1  UNL     1      -7.748  -2.862   0.659  1.00  0.00     0.186 HD
HETATM   16  N2  UNL     1      -5.735  -2.443   0.277  1.00  0.00    -0.299 N 
ATOM     17  H2  UNL     1      -5.374  -3.370   0.051  1.00  0.00     0.187 HD
HETATM   18  C20 UNL     1      -4.998  -1.315   0.290  1.00  0.00     0.070 A 
HETATM   19  C21 UNL     1       0.326  -0.341  -0.744  1.00  0.00     0.019 A 
ENDROOT
BRANCH   1  20
HETATM   20  C6  UNL     1       2.297   1.173  -0.946  1.00  0.00     0.038 C 
BRANCH  20  21
HETATM   21  C5  UNL     1       3.089   1.046   0.315  1.00  0.00     0.005 C 
BRANCH  21  22
HETATM   22  C4  UNL     1       4.558   1.286   0.115  1.00  0.00     0.000 C 
BRANCH  22  23
HETATM   23  C3  UNL     1       5.165   0.304  -0.868  1.00  0.00    -0.000 C 
BRANCH  23  24
HETATM   24  C2  UNL     1       5.010  -1.120  -0.398  1.00  0.00    -0.005 C 
HETATM   25  C1  UNL     1       5.695  -1.340   0.945  1.00  0.00     0.005 C 
ENDBRANCH  23  24
ENDBRANCH  22  23
ENDBRANCH  21  22
ENDBRANCH  20  21
ENDBRANCH   1  20
TORSDOF 5
