REMARK  5 active torsions:
REMARK  status: ('A' for Active; 'I' for Inactive)
REMARK    1  A    between atoms: C1_2  and  C2_3 
REMARK    2  A    between atoms: C2_3  and  C3_4 
REMARK    3  A    between atoms: C2_3  and  C10_11 
REMARK    4  A    between atoms: C3_4  and  C4_5 
REMARK    5  A    between atoms: C13_14  and  C14_15 
ROOT
HETATM    1  C10 UNL     1      -0.032  -0.426   0.286  1.00  0.00    -0.053 A 
HETATM    2  C11 UNL     1       0.593   0.766   0.527  1.00  0.00     0.008 A 
HETATM    3  C12 UNL     1       1.967   0.859   0.315  1.00  0.00     0.013 A 
HETATM    4  C13 UNL     1       2.709  -0.212  -0.129  1.00  0.00    -0.026 A 
HETATM    5  C20 UNL     1       2.057  -1.401  -0.365  1.00  0.00     0.013 A 
HETATM    6  C21 UNL     1       0.697  -1.511  -0.160  1.00  0.00     0.008 A 
ENDROOT
BRANCH   1   7
HETATM    7  C2  UNL     1      -1.501  -0.590   0.493  1.00  0.00     0.033 C 
BRANCH   7   8
HETATM    8  C1  UNL     1      -1.881  -0.338   1.932  1.00  0.00     0.096 C 
HETATM    9  S1  UNL     1      -1.068  -1.564   3.029  1.00  0.00    -0.097 SA
ENDBRANCH   7   8
BRANCH   7  10
HETATM   10  C3  UNL     1      -2.173   0.434  -0.377  1.00  0.00     0.048 C 
BRANCH  10  11
HETATM   11  C4  UNL     1      -3.631   0.448  -0.332  1.00  0.00    -0.058 A 
HETATM   12  C5  UNL     1      -4.364  -0.358  -1.172  1.00  0.00     0.007 A 
HETATM   13  C6  UNL     1      -5.729  -0.316  -1.120  1.00  0.00     0.001 A 
HETATM   14  C7  UNL     1      -6.426   0.504  -0.259  1.00  0.00     0.000 A 
HETATM   15  C8  UNL     1      -5.658   1.313   0.584  1.00  0.00     0.001 A 
HETATM   16  C9  UNL     1      -4.281   1.285   0.546  1.00  0.00     0.007 A 
ENDBRANCH  10  11
ENDBRANCH   7  10
ENDBRANCH   1   7
BRANCH   4  17
HETATM   17  C14 UNL     1       4.138  -0.043  -0.330  1.00  0.00    -0.026 A 
HETATM   18  C15 UNL     1       4.648   1.175  -0.727  1.00  0.00     0.012 A 
HETATM   19  C16 UNL     1       5.993   1.380  -0.930  1.00  0.00     0.001 A 
HETATM   20  C17 UNL     1       6.899   0.365  -0.743  1.00  0.00     0.000 A 
HETATM   21  C18 UNL     1       6.410  -0.871  -0.343  1.00  0.00     0.001 A 
HETATM   22  C19 UNL     1       5.049  -1.060  -0.143  1.00  0.00     0.012 A 
ENDBRANCH   4  17
TORSDOF 5
