REMARK  5 active torsions:
REMARK  status: ('A' for Active; 'I' for Inactive)
REMARK    1  A    between atoms: C2_2  and  C3_3 
REMARK    2  A    between atoms: C2_2  and  C14_15 
REMARK    3  A    between atoms: C3_3  and  C4_4 
REMARK    4  A    between atoms: C4_4  and  C5_5 
REMARK    5  A    between atoms: C5_5  and  C6_6 
ROOT
HETATM    1  C1  UNL     1      -1.164  -0.623   1.543  1.00  0.00     0.020 C 
HETATM    2  C2  UNL     1      -1.257  -1.184   0.363  1.00  0.00    -0.055 C 
ENDROOT
BRANCH   2   3
HETATM    3  C3  UNL     1      -0.109  -2.073  -0.015  1.00  0.00     0.039 C 
BRANCH   3   4
HETATM    4  C4  UNL     1       0.573  -1.584  -1.263  1.00  0.00     0.011 C 
BRANCH   4   5
HETATM    5  C5  UNL     1       1.137  -0.204  -1.152  1.00  0.00     0.065 C 
BRANCH   5   6
HETATM    6  C6  UNL     1       2.163  -0.057  -0.094  1.00  0.00     0.054 A 
HETATM    7  C7  UNL     1       2.777   1.178   0.135  1.00  0.00     0.047 A 
HETATM    8  C8  UNL     1       3.671   0.990   1.166  1.00  0.00     0.000 A 
HETATM    9  C9  UNL     1       4.535   1.843   1.800  1.00  0.00     0.014 A 
HETATM   10  C13 UNL     1       3.567  -0.336   1.520  1.00  0.00     0.086 A 
HETATM   11  C10 UNL     1       5.318   1.336   2.824  1.00  0.00     0.001 A 
HETATM   12  C11 UNL     1       5.218   0.011   3.182  1.00  0.00     0.003 A 
HETATM   13  C12 UNL     1       4.348  -0.850   2.545  1.00  0.00     0.038 A 
HETATM   14  O1  UNL     1       2.670  -0.894   0.747  1.00  0.00    -0.314 OA
ENDBRANCH   5   6
ENDBRANCH   4   5
ENDBRANCH   3   4
ENDBRANCH   2   3
BRANCH   2  15
HETATM   15  C14 UNL     1      -2.362  -0.963  -0.550  1.00  0.00    -0.003 A 
HETATM   16  C15 UNL     1      -2.906  -1.879  -1.445  1.00  0.00     0.101 A 
HETATM   17  N1  UNL     1      -3.896  -1.341  -2.156  1.00  0.00    -0.364 N 
HETATM   18  C16 UNL     1      -4.025  -0.062  -1.747  1.00  0.00     0.043 A 
ATOM     19  H1  UNL     1      -4.451  -1.808  -2.873  1.00  0.00     0.165 HD
HETATM   20  C17 UNL     1      -4.893   0.916  -2.173  1.00  0.00     0.030 A 
HETATM   21  C21 UNL     1      -3.078   0.191  -0.748  1.00  0.00     0.003 A 
HETATM   22  C18 UNL     1      -4.876   2.183  -1.647  1.00  0.00     0.002 A 
HETATM   23  C19 UNL     1      -3.950   2.445  -0.667  1.00  0.00     0.001 A 
HETATM   24  C20 UNL     1      -3.072   1.454  -0.236  1.00  0.00     0.014 A 
ENDBRANCH   2  15
TORSDOF 5
