REMARK  6 active torsions:
REMARK  status: ('A' for Active; 'I' for Inactive)
REMARK    1  A    between atoms: C10_10  and  C11_11 
REMARK    2  A    between atoms: C11_11  and  C12_12 
REMARK    3  A    between atoms: C16_16  and  O1_17 
REMARK    4  A    between atoms: C24_26  and  N1_27 
REMARK    5  A    between atoms: N1_27  and  N2_29 
REMARK    6  A    between atoms: N2_29  and  N3_30 
ROOT
HETATM    1  C1  UNL     1       4.339  -1.018   0.781  1.00  0.00     0.018 C 
HETATM    2  C2  UNL     1       3.601   0.121   0.123  1.00  0.00    -0.017 C 
HETATM    3  C3  UNL     1       3.109  -0.188  -1.239  1.00  0.00     0.012 C 
HETATM    4  C4  UNL     1       1.574  -0.174  -1.337  1.00  0.00     0.006 C 
HETATM    5  C5  UNL     1       1.034  -0.855  -0.121  1.00  0.00    -0.002 C 
HETATM    6  C6  UNL     1       1.251   0.098   1.036  1.00  0.00    -0.005 C 
HETATM    7  C7  UNL     1       0.150   1.147   0.999  1.00  0.00     0.006 C 
HETATM    8  C8  UNL     1      -1.115   0.339   1.344  1.00  0.00     0.006 C 
HETATM    9  C9  UNL     1      -1.432  -0.426   0.091  1.00  0.00     0.001 C 
HETATM   10  C10 UNL     1      -2.754  -1.081   0.070  1.00  0.00     0.019 C 
HETATM   11  C16 UNL     1      -2.889  -2.253   1.005  1.00  0.00     0.122 C 
HETATM   12  C17 UNL     1      -1.610  -2.840   1.471  1.00  0.00     0.033 C 
HETATM   13  C18 UNL     1      -0.423  -2.667   0.615  1.00  0.00     0.012 C 
HETATM   14  C19 UNL     1      -0.329  -1.413  -0.201  1.00  0.00    -0.036 C 
HETATM   15  C20 UNL     1      -0.544  -1.852  -1.662  1.00  0.00     0.016 C 
HETATM   16  C21 UNL     1       2.575   0.740   1.039  1.00  0.00     0.000 C 
HETATM   17  C22 UNL     1       2.587   2.207   0.733  1.00  0.00     0.008 C 
HETATM   18  C23 UNL     1       3.735   2.466  -0.213  1.00  0.00     0.029 C 
HETATM   19  C24 UNL     1       4.617   1.269   0.026  1.00  0.00     0.123 C 
ENDROOT
BRANCH  19  20
HETATM   20  N1  UNL     1       5.584   1.047  -1.000  1.00  0.00    -0.247 N 
ATOM     21  H1  UNL     1       5.298   0.828  -1.955  1.00  0.00     0.197 HD
BRANCH  20  22
HETATM   22  N2  UNL     1       6.790   1.129  -0.691  1.00  0.00    -0.248 NA
BRANCH  22  23
HETATM   23  N3  UNL     1       7.931   1.537  -0.492  1.00  0.00    -0.261 N 
ATOM     24  H32 UNL     1       7.728   2.483  -0.815  1.00  0.00     0.193 HD
ATOM     25  H31 UNL     1       8.917   1.604  -0.239  1.00  0.00     0.193 HD
ENDBRANCH  22  23
ENDBRANCH  20  22
ENDBRANCH  19  20
BRANCH  10  26
HETATM   26  C11 UNL     1      -3.961  -0.231   0.154  1.00  0.00     0.012 C 
BRANCH  26  27
HETATM   27  C12 UNL     1      -4.126   0.771  -0.963  1.00  0.00    -0.014 C 
HETATM   28  C13 UNL     1      -5.429   1.552  -0.714  1.00  0.00     0.005 C 
HETATM   29  C14 UNL     1      -4.722   2.789  -1.230  1.00  0.00     0.001 C 
HETATM   30  C15 UNL     1      -3.414   2.070  -0.854  1.00  0.00     0.005 C 
ENDBRANCH  26  27
ENDBRANCH  10  26
BRANCH  11  31
HETATM   31  O1  UNL     1      -3.675  -3.273   0.417  1.00  0.00    -0.395 OA
ATOM     32  H1  UNL     1      -3.760  -4.013   1.007  1.00  0.00     0.210 HD
ENDBRANCH  11  31
TORSDOF 6
