REMARK  5 active torsions:
REMARK  status: ('A' for Active; 'I' for Inactive)
REMARK    1  A    between atoms: C2_2  and  C5_5 
REMARK    2  A    between atoms: C5_5  and  C6_6 
REMARK    3  A    between atoms: C9_9  and  N1_10 
REMARK    4  A    between atoms: C17_19  and  C18_20 
REMARK    5  A    between atoms: C18_20  and  O1_23 
ROOT
HETATM    1  N1  UNL     1      -0.526  -0.100   0.794  1.00  0.00    -0.392 N 
ATOM      2  H1  UNL     1      -0.424  -0.833   1.496  1.00  0.00     0.159 HD
HETATM    3  C10 UNL     1       0.484   0.607   0.540  1.00  0.00    -0.017 C 
HETATM    4  C11 UNL     1       0.663   1.742  -0.416  1.00  0.00     0.057 C 
HETATM    5  C12 UNL     1       2.020   1.433  -1.012  1.00  0.00    -0.000 C 
HETATM    6  C13 UNL     1       1.812   0.324  -2.025  1.00  0.00     0.006 C 
HETATM    7  C14 UNL     1       2.452  -0.910  -1.441  1.00  0.00     0.006 C 
HETATM    8  C15 UNL     1       3.465  -0.424  -0.430  1.00  0.00    -0.005 C 
HETATM    9  C16 UNL     1       4.759  -0.007  -1.111  1.00  0.00     0.013 C 
HETATM   10  C17 UNL     1       5.733   0.490  -0.098  1.00  0.00     0.019 C 
HETATM   11  C21 UNL     1       5.025   0.931   1.148  1.00  0.00     0.008 C 
HETATM   12  C22 UNL     1       3.816   1.761   0.716  1.00  0.00     0.011 C 
HETATM   13  C23 UNL     1       2.801   0.820   0.112  1.00  0.00    -0.028 C 
HETATM   14  C24 UNL     1       1.811   0.443   1.194  1.00  0.00     0.062 C 
ENDROOT
BRANCH   1  15
HETATM   15  C9  UNL     1      -1.810   0.049   0.170  1.00  0.00     0.081 C 
HETATM   16  C8  UNL     1      -2.798   0.388   1.236  1.00  0.00     0.025 C 
HETATM   17  C7  UNL     1      -4.216   0.533   0.669  1.00  0.00     0.007 C 
HETATM   18  C6  UNL     1      -4.475  -0.414  -0.434  1.00  0.00    -0.014 C 
HETATM   19  C26 UNL     1      -3.549  -1.623  -0.201  1.00  0.00     0.007 C 
HETATM   20  C25 UNL     1      -2.119  -1.261  -0.520  1.00  0.00     0.025 C 
BRANCH  18  21
HETATM   21  C5  UNL     1      -5.828  -0.956  -0.621  1.00  0.00     0.013 C 
BRANCH  21  22
HETATM   22  C2  UNL     1      -6.955  -0.043  -0.889  1.00  0.00    -0.051 C 
HETATM   23  C1  UNL     1      -8.212  -0.933  -1.052  1.00  0.00     0.014 C 
HETATM   24  C3  UNL     1      -6.840   0.766  -2.133  1.00  0.00     0.014 C 
HETATM   25  C4  UNL     1      -7.272   0.802   0.333  1.00  0.00     0.014 C 
ENDBRANCH  21  22
ENDBRANCH  18  21
ENDBRANCH   1  15
BRANCH  10  26
HETATM   26  C18 UNL     1       6.840  -0.480   0.219  1.00  0.00     0.054 C 
HETATM   27  C19 UNL     1       7.644  -0.803  -1.021  1.00  0.00     0.045 C 
HETATM   28  C20 UNL     1       6.353  -1.723   0.916  1.00  0.00     0.045 C 
BRANCH  26  29
HETATM   29  O1  UNL     1       7.719   0.172   1.100  1.00  0.00    -0.390 OA
ATOM     30  H1  UNL     1       8.417  -0.440   1.300  1.00  0.00     0.210 HD
ENDBRANCH  26  29
ENDBRANCH  10  26
TORSDOF 5
