REMARK  4 active torsions:
REMARK  status: ('A' for Active; 'I' for Inactive)
REMARK    1  A    between atoms: O1_2  and  C2_3 
REMARK    2  A    between atoms: C2_3  and  C3_4 
REMARK    3  A    between atoms: N1_20  and  C18_21 
REMARK    4  A    between atoms: C18_21  and  C19_22 
ROOT
HETATM    1  C3  UNL     1      -2.503   0.861  -0.674  1.00  0.00     0.154 C 
HETATM    2  O2  UNL     1      -3.571   0.030  -0.681  1.00  0.00    -0.373 OA
HETATM    3  C4  UNL     1      -3.400  -1.190  -0.082  1.00  0.00     0.156 C 
HETATM    4  C5  UNL     1      -4.027  -1.053   1.317  1.00  0.00     0.037 C 
HETATM    5  C6  UNL     1      -3.837   0.357   1.783  1.00  0.00     0.004 C 
HETATM    6  C7  UNL     1      -2.423   0.812   1.851  1.00  0.00     0.012 C 
HETATM    7  C8  UNL     1      -1.642   0.732   0.587  1.00  0.00     0.051 C 
HETATM    8  C9  UNL     1      -1.082  -0.653   0.482  1.00  0.00    -0.034 A 
HETATM    9  C10 UNL     1       0.224  -0.947   0.705  1.00  0.00    -0.016 A 
HETATM   10  C11 UNL     1       0.640  -2.251   0.568  1.00  0.00    -0.047 A 
HETATM   11  C12 UNL     1      -0.286  -3.203   0.210  1.00  0.00     0.015 A 
HETATM   12  C13 UNL     1      -1.618  -2.929  -0.021  1.00  0.00    -0.052 A 
HETATM   13  C14 UNL     1      -2.572  -4.000  -0.405  1.00  0.00     0.049 C 
HETATM   14  C15 UNL     1      -2.007  -1.613   0.124  1.00  0.00    -0.016 A 
HETATM   15  C16 UNL     1       2.064  -2.556   0.814  1.00  0.00     0.069 C 
HETATM   16  C17 UNL     1       2.987  -1.447   0.424  1.00  0.00     0.277 C 
HETATM   17  N1  UNL     1       2.380  -0.190   0.227  1.00  0.00     0.093 N 
HETATM   18  C23 UNL     1       1.218   0.043   1.092  1.00  0.00     0.312 C 
ENDROOT
BRANCH  17  19
HETATM   19  C18 UNL     1       3.182   0.972   0.255  1.00  0.00     0.277 C 
BRANCH  19  20
HETATM   20  C19 UNL     1       4.143   1.193  -0.850  1.00  0.00     0.014 C 
HETATM   21  C20 UNL     1       5.229   0.175  -1.080  1.00  0.00     0.006 C 
HETATM   22  C21 UNL     1       6.214   1.325  -1.269  1.00  0.00     0.001 C 
HETATM   23  C22 UNL     1       5.264   2.144  -0.395  1.00  0.00     0.006 C 
ENDBRANCH  19  20
ENDBRANCH  17  19
BRANCH   1  24
HETATM   24  C2  UNL     1      -2.821   2.302  -0.880  1.00  0.00     0.199 C 
BRANCH  24  25
HETATM   25  O1  UNL     1      -3.455   2.523  -2.115  1.00  0.00    -0.393 OA
HETATM   26  C1  UNL     1      -3.708   3.888  -2.211  1.00  0.00     0.201 C 
ENDBRANCH  24  25
ENDBRANCH   1  24
TORSDOF 4
