REMARK  4 active torsions:
REMARK  status: ('A' for Active; 'I' for Inactive)
REMARK    1  A    between atoms: C2_2  and  N1_3 
REMARK    2  A    between atoms: C3_4  and  C4_5 
REMARK    3  A    between atoms: C4_5  and  C5_6 
REMARK    4  A    between atoms: C13_15  and  N2_16 
ROOT
HETATM    1  N1  UNL     1       2.655   0.809   0.001  1.00  0.00     0.098 N 
HETATM    2  C3  UNL     1       3.179  -0.487  -0.158  1.00  0.00     0.230 C 
HETATM    3  C7  UNL     1       2.296  -1.519  -0.764  1.00  0.00     0.036 C 
HETATM    4  C8  UNL     1       0.812  -1.342  -0.536  1.00  0.00     0.009 C 
HETATM    5  C9  UNL     1       0.508   0.101  -0.922  1.00  0.00     0.023 C 
HETATM    6  C10 UNL     1      -0.847   0.444  -1.266  1.00  0.00    -0.002 C 
HETATM    7  C11 UNL     1      -1.572  -0.705  -1.985  1.00  0.00     0.007 C 
HETATM    8  C12 UNL     1      -2.910  -0.034  -2.193  1.00  0.00     0.026 C 
HETATM    9  C13 UNL     1      -3.221   0.454  -0.801  1.00  0.00     0.083 C 
HETATM   10  C18 UNL     1      -1.862   0.896  -0.300  1.00  0.00     0.012 C 
HETATM   11  C19 UNL     1      -1.663   0.615   1.133  1.00  0.00     0.007 C 
HETATM   12  C20 UNL     1      -0.903   1.670   1.896  1.00  0.00     0.001 C 
HETATM   13  C21 UNL     1      -0.231   2.724   1.103  1.00  0.00     0.002 C 
HETATM   14  C22 UNL     1       0.737   2.306   0.063  1.00  0.00     0.036 C 
HETATM   15  C23 UNL     1       1.194   0.899   0.139  1.00  0.00     0.228 C 
ENDROOT
BRANCH   9  16
HETATM   16  N2  UNL     1      -4.029  -0.313  -0.017  1.00  0.00    -0.408 N 
HETATM   17  C14 UNL     1      -3.902  -1.584   0.447  1.00  0.00     0.117 C 
HETATM   18  C15 UNL     1      -5.276  -2.094   0.904  1.00  0.00     0.021 C 
HETATM   19  C16 UNL     1      -6.200  -0.966   0.606  1.00  0.00     0.021 C 
HETATM   20  C17 UNL     1      -5.289   0.225   0.459  1.00  0.00     0.117 C 
ENDBRANCH   9  16
BRANCH   1  21
HETATM   21  C2  UNL     1       3.112   1.338   1.298  1.00  0.00     0.269 C 
HETATM   22  C1  UNL     1       4.561   1.634   1.369  1.00  0.00     0.037 C 
ENDBRANCH   1  21
BRANCH   2  23
HETATM   23  C4  UNL     1       4.402  -0.449  -1.071  1.00  0.00     0.113 C 
BRANCH  23  24
HETATM   24  C5  UNL     1       5.000  -1.807  -1.247  1.00  0.00     0.125 C 
HETATM   25  C6  UNL     1       6.246  -2.154  -0.475  1.00  0.00     0.091 C 
HETATM   26  O1  UNL     1       4.561  -2.677  -1.974  1.00  0.00    -0.298 OA
ENDBRANCH  23  24
ENDBRANCH   2  23
TORSDOF 4
