REMARK  4 active torsions:
REMARK  status: ('A' for Active; 'I' for Inactive)
REMARK    1  A    between atoms: C11_13  and  O1_14 
REMARK    2  A    between atoms: C12_16  and  C13_17 
REMARK    3  A    between atoms: N2_24  and  C19_25 
REMARK    4  A    between atoms: C19_25  and  C20_26 
ROOT
HETATM    1  C1  UNL     1      -2.577  -2.355   1.701  1.00  0.00     0.045 C 
HETATM    2  C2  UNL     1      -1.418  -2.324   0.772  1.00  0.00     0.151 C 
HETATM    3  C3  UNL     1      -0.183  -2.052   1.453  1.00  0.00    -0.158 C 
HETATM    4  C4  UNL     1       1.050  -1.621   1.875  1.00  0.00     0.087 C 
HETATM    5  C5  UNL     1       1.566  -0.543   0.871  1.00  0.00     0.053 C 
HETATM    6  C6  UNL     1       0.953  -0.465  -0.448  1.00  0.00    -0.017 A 
HETATM    7  C7  UNL     1      -0.233  -0.874  -1.006  1.00  0.00     0.042 A 
HETATM    8  C8  UNL     1      -0.472  -0.791  -2.360  1.00  0.00     0.032 A 
HETATM    9  C9  UNL     1       0.465  -0.293  -3.217  1.00  0.00     0.033 A 
HETATM   10  C10 UNL     1       1.646   0.126  -2.698  1.00  0.00     0.046 A 
HETATM   11  N1  UNL     1       2.683   0.639  -3.395  1.00  0.00    -0.336 N 
ATOM     12  H1  UNL     1       2.718   0.778  -4.405  1.00  0.00     0.168 HD
HETATM   13  C11 UNL     1       3.636   0.927  -2.543  1.00  0.00     0.154 A 
HETATM   14  C12 UNL     1       3.193   0.581  -1.207  1.00  0.00     0.061 A 
HETATM   15  C18 UNL     1       1.929   0.063  -1.327  1.00  0.00     0.017 A 
HETATM   16  N2  UNL     1      -1.472  -1.395  -0.367  1.00  0.00    -0.345 N 
ENDROOT
BRANCH  16  17
HETATM   17  C19 UNL     1      -2.644  -0.860  -0.901  1.00  0.00     0.070 C 
BRANCH  17  18
HETATM   18  C20 UNL     1      -3.264   0.402  -0.469  1.00  0.00     0.024 C 
HETATM   19  C21 UNL     1      -3.745   0.629   0.910  1.00  0.00     0.010 C 
HETATM   20  C22 UNL     1      -4.563   1.952   0.974  1.00  0.00     0.001 C 
HETATM   21  C23 UNL     1      -5.908   1.646   0.377  1.00  0.00     0.000 C 
HETATM   22  C24 UNL     1      -5.774   0.543  -0.649  1.00  0.00     0.001 C 
HETATM   23  C25 UNL     1      -4.482   0.717  -1.375  1.00  0.00     0.010 C 
ENDBRANCH  17  18
ENDBRANCH  16  17
BRANCH  14  24
HETATM   24  C13 UNL     1       4.099   0.825  -0.129  1.00  0.00     0.080 C 
HETATM   25  C14 UNL     1       3.979   1.487   0.976  1.00  0.00     0.011 C 
HETATM   26  C15 UNL     1       5.019   1.656   2.024  1.00  0.00     0.032 C 
HETATM   27  C16 UNL     1       6.353   1.104   1.651  1.00  0.00     0.030 C 
HETATM   28  C17 UNL     1       6.101  -0.178   0.855  1.00  0.00     0.176 C 
HETATM   29  O2  UNL     1       5.388   0.223  -0.297  1.00  0.00    -0.350 OA
ENDBRANCH  14  24
BRANCH  13  30
HETATM   30  O1  UNL     1       4.887   1.468  -2.767  1.00  0.00    -0.345 OA
ATOM     31  H1  UNL     1       5.578   1.677  -2.149  1.00  0.00     0.219 HD
ENDBRANCH  13  30
TORSDOF 4
