REMARK  5 active torsions:
REMARK  status: ('A' for Active; 'I' for Inactive)
REMARK    1  A    between atoms: C2_2  and  C7_8 
REMARK    2  A    between atoms: C10_11  and  C11_12 
REMARK    3  A    between atoms: C11_12  and  O1_14 
REMARK    4  A    between atoms: C11_12  and  C13_16 
REMARK    5  A    between atoms: C14_17  and  O2_18 
ROOT
HETATM    1  C11 UNL     1      -0.130   0.530  -0.049  1.00  0.00     0.065 C 
HETATM    2  C12 UNL     1       0.205   1.271  -1.259  1.00  0.00     0.047 C 
ENDROOT
BRANCH   1   3
HETATM    3  C10 UNL     1       0.994  -0.450   0.200  1.00  0.00     0.021 C 
HETATM    4  C9  UNL     1       1.194  -1.440  -0.887  1.00  0.00     0.008 C 
HETATM    5  C8  UNL     1       2.665  -1.847  -0.622  1.00  0.00     0.009 C 
HETATM    6  C7  UNL     1       3.270  -0.451  -0.611  1.00  0.00     0.016 C 
HETATM    7  C25 UNL     1       2.359   0.259   0.319  1.00  0.00     0.016 C 
BRANCH   6   8
HETATM    8  C2  UNL     1       4.702  -0.471  -0.344  1.00  0.00    -0.067 C 
HETATM    9  C1  UNL     1       5.500  -1.333  -1.333  1.00  0.00     0.045 C 
HETATM   10  C3  UNL     1       5.410   0.077   0.575  1.00  0.00    -0.019 C 
HETATM   11  C4  UNL     1       6.903  -0.047   0.766  1.00  0.00     0.047 C 
HETATM   12  S1  UNL     1       4.950   1.174   1.885  1.00  0.00    -0.134 SA
HETATM   13  C5  UNL     1       7.428   1.324   1.081  1.00  0.00     0.015 C 
HETATM   14  C6  UNL     1       6.610   1.895   2.212  1.00  0.00     0.079 C 
ENDBRANCH   6   8
ENDBRANCH   1   3
BRANCH   1  15
HETATM   15  O1  UNL     1      -0.097   1.355   1.108  1.00  0.00    -0.389 OA
ATOM     16  H1  UNL     1      -0.803   1.971   0.952  1.00  0.00     0.210 HD
ENDBRANCH   1  15
BRANCH   1  17
HETATM   17  C13 UNL     1      -1.414  -0.211  -0.008  1.00  0.00     0.057 C 
HETATM   18  C14 UNL     1      -1.719  -0.899   1.252  1.00  0.00     0.126 C 
HETATM   19  C15 UNL     1      -3.190  -1.319   1.029  1.00  0.00     0.038 C 
HETATM   20  C16 UNL     1      -3.703   0.053   0.649  1.00  0.00     0.004 C 
HETATM   21  C17 UNL     1      -5.089  -0.054   0.197  1.00  0.00    -0.043 C 
HETATM   22  C23 UNL     1      -2.662   0.594  -0.310  1.00  0.00    -0.031 C 
HETATM   23  C18 UNL     1      -5.909   1.201   0.217  1.00  0.00     0.015 C 
HETATM   24  C19 UNL     1      -5.795  -1.008   1.184  1.00  0.00     0.015 C 
HETATM   25  C20 UNL     1      -5.141  -0.777  -1.130  1.00  0.00     0.009 C 
HETATM   26  C21 UNL     1      -4.409   0.071  -2.098  1.00  0.00     0.002 C 
HETATM   27  C22 UNL     1      -3.050   0.500  -1.739  1.00  0.00     0.010 C 
HETATM   28  C24 UNL     1      -2.535   2.060   0.113  1.00  0.00     0.016 C 
BRANCH  18  29
HETATM   29  O2  UNL     1      -1.138  -2.125   1.507  1.00  0.00    -0.395 OA
ATOM     30  H2  UNL     1      -1.335  -2.570   2.323  1.00  0.00     0.210 HD
ENDBRANCH  18  29
ENDBRANCH   1  17
TORSDOF 5
