REMARK  14 active torsions:
REMARK  status: ('A' for Active; 'I' for Inactive)
REMARK    1  A    between atoms: C4_4  and  C5_5 
REMARK    2  A    between atoms: C5_5  and  C6_6 
REMARK    3  A    between atoms: C6_6  and  C7_7 
REMARK    4  A    between atoms: C7_7  and  C8_8 
REMARK    5  A    between atoms: C8_8  and  C9_9 
REMARK    6  A    between atoms: C9_9  and  N1_10 
REMARK    7  A    between atoms: N1_10  and  C10_13 
REMARK    8  A    between atoms: C10_13  and  C11_14 
REMARK    9  A    between atoms: C11_14  and  C12_15 
REMARK   10  A    between atoms: C12_15  and  C13_16 
REMARK   11  A    between atoms: C13_16  and  C14_17 
REMARK   12  A    between atoms: C14_17  and  C15_18 
REMARK   13  A    between atoms: C15_18  and  C16_19 
REMARK   14  A    between atoms: C16_19  and  C17_20 
ROOT
HETATM    1  N1  UNL     1       1.437   0.247  -0.445  1.00  0.00    -0.075 N 
ATOM      2  H11 UNL     1       0.848  -0.298  -1.075  1.00  0.00     0.277 HD
ATOM      3  H12 UNL     1       1.910   0.806  -1.155  1.00  0.00     0.277 HD
ENDROOT
BRANCH   1   4
HETATM    4  C9  UNL     1       2.349  -0.574   0.330  1.00  0.00     0.232 C 
BRANCH   4   5
HETATM    5  C8  UNL     1       3.147  -1.410  -0.629  1.00  0.00     0.027 C 
BRANCH   5   6
HETATM    6  C7  UNL     1       4.135  -2.310   0.061  1.00  0.00     0.002 C 
BRANCH   6   7
HETATM    7  C6  UNL     1       5.119  -1.478   0.869  1.00  0.00     0.000 C 
BRANCH   7   8
HETATM    8  C5  UNL     1       5.886  -0.526   0.005  1.00  0.00     0.005 C 
BRANCH   8   9
HETATM    9  C4  UNL     1       6.834   0.273   0.837  1.00  0.00    -0.008 C 
HETATM   10  C3  UNL     1       7.578   1.236  -0.072  1.00  0.00     0.031 C 
HETATM   11  C2  UNL     1       8.729   0.451  -0.536  1.00  0.00    -0.030 C 
HETATM   12  C1  UNL     1       8.924  -0.573   0.269  1.00  0.00    -0.030 C 
HETATM   13  C23 UNL     1       7.921  -0.598   1.375  1.00  0.00     0.031 C 
ENDBRANCH   8   9
ENDBRANCH   7   8
ENDBRANCH   6   7
ENDBRANCH   5   6
ENDBRANCH   4   5
ENDBRANCH   1   4
BRANCH   1  14
HETATM   14  C10 UNL     1       0.665   1.058   0.500  1.00  0.00     0.232 C 
BRANCH  14  15
HETATM   15  C11 UNL     1      -0.274   1.902  -0.297  1.00  0.00     0.027 C 
BRANCH  15  16
HETATM   16  C12 UNL     1      -1.182   1.028  -1.113  1.00  0.00     0.002 C 
BRANCH  16  17
HETATM   17  C13 UNL     1      -1.989   0.132  -0.244  1.00  0.00     0.000 C 
BRANCH  17  18
HETATM   18  C14 UNL     1      -2.818   0.916   0.709  1.00  0.00     0.000 C 
BRANCH  18  19
HETATM   19  C15 UNL     1      -3.771   1.839  -0.001  1.00  0.00     0.000 C 
BRANCH  19  20
HETATM   20  C16 UNL     1      -4.697   1.056  -0.886  1.00  0.00     0.004 C 
BRANCH  20  21
HETATM   21  C17 UNL     1      -5.540   0.044  -0.166  1.00  0.00    -0.014 C 
HETATM   22  C18 UNL     1      -6.416   0.708   0.872  1.00  0.00     0.004 C 
HETATM   23  C19 UNL     1      -7.308  -0.355   1.486  1.00  0.00     0.000 C 
HETATM   24  C20 UNL     1      -8.279  -0.780   0.388  1.00  0.00     0.000 C 
HETATM   25  C21 UNL     1      -7.462  -1.499  -0.653  1.00  0.00     0.000 C 
HETATM   26  C22 UNL     1      -6.349  -0.685  -1.209  1.00  0.00     0.004 C 
ENDBRANCH  20  21
ENDBRANCH  19  20
ENDBRANCH  18  19
ENDBRANCH  17  18
ENDBRANCH  16  17
ENDBRANCH  15  16
ENDBRANCH  14  15
ENDBRANCH   1  14
TORSDOF 14
