REMARK  13 active torsions:
REMARK  status: ('A' for Active; 'I' for Inactive)
REMARK    1  A    between atoms: C4_4  and  C5_5 
REMARK    2  A    between atoms: C5_5  and  C6_6 
REMARK    3  A    between atoms: C6_6  and  C7_7 
REMARK    4  A    between atoms: C7_7  and  C8_8 
REMARK    5  A    between atoms: C8_8  and  C9_9 
REMARK    6  A    between atoms: C9_9  and  C10_10 
REMARK    7  A    between atoms: C10_10  and  C11_11 
REMARK    8  A    between atoms: C11_11  and  C12_12 
REMARK    9  A    between atoms: C12_12  and  C13_13 
REMARK   10  A    between atoms: C13_13  and  C14_14 
REMARK   11  A    between atoms: C14_14  and  N1_15 
REMARK   12  A    between atoms: N1_15  and  C15_18 
REMARK   13  A    between atoms: C15_18  and  C16_19 
ROOT
HETATM    1  C11 UNL     1      -0.685   0.546  -0.293  1.00  0.00     0.000 C 
ENDROOT
BRANCH   1   2
HETATM    2  C10 UNL     1       0.739   0.324   0.133  1.00  0.00     0.000 C 
BRANCH   2   3
HETATM    3  C9  UNL     1       1.261  -1.033  -0.234  1.00  0.00     0.000 C 
BRANCH   3   4
HETATM    4  C8  UNL     1       2.690  -1.205   0.206  1.00  0.00     0.000 C 
BRANCH   4   5
HETATM    5  C7  UNL     1       3.552  -0.198  -0.471  1.00  0.00     0.000 C 
BRANCH   5   6
HETATM    6  C6  UNL     1       5.030  -0.361  -0.053  1.00  0.00     0.005 C 
BRANCH   6   7
HETATM    7  C5  UNL     1       5.771   0.720  -0.824  1.00  0.00     0.038 C 
BRANCH   7   8
HETATM    8  C4  UNL     1       7.223   0.698  -0.530  1.00  0.00    -0.058 A 
HETATM    9  C3  UNL     1       8.121  -0.043  -1.236  1.00  0.00     0.007 A 
HETATM   10  C2  UNL     1       9.455  -0.040  -0.942  1.00  0.00     0.001 A 
HETATM   11  C1  UNL     1       9.887   0.753   0.116  1.00  0.00     0.000 A 
HETATM   12  C23 UNL     1       9.004   1.499   0.832  1.00  0.00     0.001 A 
HETATM   13  C22 UNL     1       7.663   1.481   0.518  1.00  0.00     0.007 A 
ENDBRANCH   7   8
ENDBRANCH   6   7
ENDBRANCH   5   6
ENDBRANCH   4   5
ENDBRANCH   3   4
ENDBRANCH   2   3
ENDBRANCH   1   2
BRANCH   1  14
HETATM   14  C12 UNL     1      -1.604  -0.441   0.338  1.00  0.00     0.002 C 
BRANCH  14  15
HETATM   15  C13 UNL     1      -3.062  -0.193  -0.087  1.00  0.00     0.027 C 
BRANCH  15  16
HETATM   16  C14 UNL     1      -3.899  -1.244   0.598  1.00  0.00     0.232 C 
BRANCH  16  17
HETATM   17  N1  UNL     1      -5.294  -1.140   0.295  1.00  0.00    -0.071 N 
ATOM     18  H12 UNL     1      -5.453  -1.191  -0.711  1.00  0.00     0.277 HD
ATOM     19  H11 UNL     1      -5.794  -1.981   0.585  1.00  0.00     0.277 HD
BRANCH  17  20
HETATM   20  C15 UNL     1      -5.906   0.046   0.857  1.00  0.00     0.270 C 
BRANCH  20  21
HETATM   21  C16 UNL     1      -7.352   0.124   0.523  1.00  0.00    -0.033 A 
HETATM   22  C17 UNL     1      -8.129   1.155   1.013  1.00  0.00     0.009 A 
HETATM   23  C18 UNL     1      -9.477   1.261   0.723  1.00  0.00     0.001 A 
HETATM   24  C19 UNL     1     -10.104   0.329  -0.075  1.00  0.00     0.000 A 
HETATM   25  C20 UNL     1      -9.341  -0.706  -0.572  1.00  0.00     0.001 A 
HETATM   26  C21 UNL     1      -7.995  -0.803  -0.276  1.00  0.00     0.009 A 
ENDBRANCH  20  21
ENDBRANCH  17  20
ENDBRANCH  16  17
ENDBRANCH  15  16
ENDBRANCH  14  15
ENDBRANCH   1  14
TORSDOF 13
