REMARK  6 active torsions:
REMARK  status: ('A' for Active; 'I' for Inactive)
REMARK    1  A    between atoms: N1_1  and  C1_4 
REMARK    2  A    between atoms: C2_7  and  N3_8 
REMARK    3  A    between atoms: N3_8  and  N4_10 
REMARK    4  A    between atoms: N6_18  and  S1_20 
REMARK    5  A    between atoms: S1_20  and  C5_23 
REMARK    6  A    between atoms: C5_23  and  N7_24 
ROOT
HETATM    1  C1  UNL     1      -1.608  -1.706   0.426  1.00  0.00     0.692 C 
HETATM    2  N2  UNL     1      -2.618  -0.808   0.287  1.00  0.00    -0.021 N 
ATOM      3  H2  UNL     1      -3.560  -1.178   0.414  1.00  0.00     0.203 HD
HETATM    4  C2  UNL     1      -2.539   0.507   0.003  1.00  0.00     0.713 C 
HETATM    5  N5  UNL     1      -1.439   1.197  -0.399  1.00  0.00    -0.151 N 
ATOM      6  H5  UNL     1      -1.600   2.163  -0.684  1.00  0.00     0.188 HD
HETATM    7  C3  UNL     1      -0.144   0.763  -0.470  1.00  0.00     0.305 C 
HETATM    8  O1  UNL     1       0.636   1.384  -1.229  1.00  0.00    -0.263 OA
HETATM    9  C4  UNL     1       0.401  -0.296   0.209  1.00  0.00     0.199 C 
HETATM   10  N6  UNL     1       1.552  -0.212   0.681  1.00  0.00    -0.263 N 
ATOM     11  H6  UNL     1       1.825  -1.072   1.156  1.00  0.00     0.180 HD
HETATM   12  N8  UNL     1      -0.276  -1.486   0.419  1.00  0.00    -0.170 N 
ATOM     13  H8  UNL     1       0.309  -2.304   0.591  1.00  0.00     0.186 HD
ENDROOT
BRANCH  10  14
HETATM   14  S1  UNL     1       2.763   0.931   0.743  1.00  0.00     0.256 S 
HETATM   15  O2  UNL     1       2.264   2.366   0.828  1.00  0.00    -0.204 OA
HETATM   16  O3  UNL     1       3.623   0.780   2.017  1.00  0.00    -0.204 OA
BRANCH  14  17
HETATM   17  C5  UNL     1       3.928   0.797  -0.591  1.00  0.00     0.392 C 
BRANCH  17  18
HETATM   18  N7  UNL     1       4.593  -0.462  -0.623  1.00  0.00    -0.065 N 
ATOM     19  H73 UNL     1       5.040  -0.661   0.272  1.00  0.00     0.275 HD
ATOM     20  H72 UNL     1       3.921  -1.229  -0.648  1.00  0.00     0.275 HD
ATOM     21  H71 UNL     1       5.262  -0.539  -1.389  1.00  0.00     0.275 HD
ENDBRANCH  17  18
ENDBRANCH  14  17
ENDBRANCH  10  14
BRANCH   1  22
HETATM   22  N1  UNL     1      -1.926  -2.937   0.588  1.00  0.00    -0.234 N 
ATOM     23  H12 UNL     1      -2.932  -3.103   0.593  1.00  0.00     0.174 HD
ATOM     24  H11 UNL     1      -1.168  -3.611   0.692  1.00  0.00     0.174 HD
ENDBRANCH   1  22
BRANCH   4  25
HETATM   25  N3  UNL     1      -3.602   1.208   0.116  1.00  0.00    -0.138 N 
ATOM     26  H3  UNL     1      -3.541   2.203  -0.100  1.00  0.00     0.205 HD
BRANCH  25  27
HETATM   27  N4  UNL     1      -4.832   0.706   0.512  1.00  0.00    -0.331 N 
ATOM     28  H42 UNL     1      -4.874  -0.291   0.724  1.00  0.00     0.177 HD
ATOM     29  H41 UNL     1      -5.680   1.265   0.602  1.00  0.00     0.177 HD
ENDBRANCH  25  27
ENDBRANCH   4  25
TORSDOF 6
