REMARK  2 active torsions:
REMARK  status: ('A' for Active; 'I' for Inactive)
REMARK    1  A    between atoms: C1_4  and  N2_5 
REMARK    2  A    between atoms: N2_5  and  C2_7 
REMARK       I    between atoms: N4_12  and  C4_13 
ROOT
HETATM    1  C2  UNL     1       1.361   0.475   0.103  1.00  0.00     0.141 A 
HETATM    2  N3  UNL     1       0.621   1.558   0.328  1.00  0.00    -0.292 N 
ATOM      3  H3  UNL     1       1.053   2.482   0.313  1.00  0.00     0.172 HD
HETATM    4  C3  UNL     1      -0.670   1.438   0.571  1.00  0.00     0.337 A 
HETATM    5  O1  UNL     1      -1.326   2.478   0.776  1.00  0.00    -0.246 OA
HETATM    6  N4  UNL     1      -1.355   0.251   0.617  1.00  0.00    -0.200 N 
HETATM    7  C4  UNL     1      -2.713   0.307   0.887  1.00  0.00     0.344 C 
HETATM    8  N5  UNL     1      -3.379   1.579   1.111  1.00  0.00    -0.039 NA
HETATM    9  O2  UNL     1      -3.506  -0.647   0.971  1.00  0.00    -0.250 OA
HETATM   10  C5  UNL     1      -0.629  -0.849   0.394  1.00  0.00     0.154 A 
HETATM   11  N6  UNL     1      -1.223  -2.053   0.421  1.00  0.00    -0.302 N 
ATOM     12  H6  UNL     1      -2.221  -2.142   0.610  1.00  0.00     0.171 HD
HETATM   13  C6  UNL     1      -0.459  -3.141   0.191  1.00  0.00     0.315 A 
HETATM   14  O3  UNL     1      -0.973  -4.294   0.206  1.00  0.00    -0.262 OA
HETATM   15  C7  UNL     1       0.875  -3.048  -0.063  1.00  0.00     0.314 A 
HETATM   16  O4  UNL     1       1.585  -4.065  -0.277  1.00  0.00    -0.262 OA
HETATM   17  N7  UNL     1       1.475  -1.853  -0.091  1.00  0.00    -0.313 N 
ATOM     18  H7  UNL     1       2.475  -1.782  -0.280  1.00  0.00     0.169 HD
HETATM   19  C8  UNL     1       0.748  -0.749   0.132  1.00  0.00     0.125 A 
ENDROOT
BRANCH   1  20
HETATM   20  N2  UNL     1       2.634   0.611  -0.136  1.00  0.00    -0.337 N 
ATOM     21  H2  UNL     1       3.208  -0.214  -0.310  1.00  0.00     0.168 HD
BRANCH  20  22
HETATM   22  C1  UNL     1       3.228   1.901  -0.156  1.00  0.00     0.175 C 
HETATM   23  N1  UNL     1       3.168   2.669  -1.195  1.00  0.00    -0.395 N 
ATOM     24  H12 UNL     1       2.675   2.322  -2.018  1.00  0.00     0.156 HD
ATOM     25  H11 UNL     1       3.595   3.595  -1.209  1.00  0.00     0.156 HD
ENDBRANCH  20  22
ENDBRANCH   1  20
TORSDOF 2
