REMARK  3 active torsions:
REMARK  status: ('A' for Active; 'I' for Inactive)
REMARK       I    between atoms: C2_2  and  N1_4 
REMARK    1  A    between atoms: N1_4  and  C3_6 
REMARK    2  A    between atoms: C4_11  and  C5_12 
REMARK       I    between atoms: C5_12  and  N4_14 
REMARK    3  A    between atoms: N4_14  and  N5_16 
ROOT
HETATM    1  C3  UNL     1       2.458   0.663  -1.073  1.00  0.00     0.702 A 
HETATM    2  N2  UNL     1       1.540   1.083  -1.953  1.00  0.00    -0.131 N 
ATOM      3  H2  UNL     1       1.824   1.356  -2.894  1.00  0.00     0.205 HD
HETATM    4  N3  UNL     1       0.268   1.145  -1.605  1.00  0.00    -0.277 N 
ATOM      5  H3  UNL     1      -0.407   1.469  -2.297  1.00  0.00     0.188 HD
HETATM    6  C4  UNL     1      -0.191   0.798  -0.365  1.00  0.00     0.187 A 
HETATM    7  C7  UNL     1       0.753   0.374   0.516  1.00  0.00     0.293 A 
HETATM    8  O3  UNL     1       0.449   0.035   1.664  1.00  0.00    -0.265 OA
HETATM    9  N8  UNL     1       2.081   0.309   0.154  1.00  0.00    -0.152 N 
ATOM     10  H8  UNL     1       2.777  -0.011   0.828  1.00  0.00     0.187 HD
ENDROOT
BRANCH   6  11
HETATM   11  C5  UNL     1      -1.607   0.917  -0.128  1.00  0.00     0.293 C 
HETATM   12  O2  UNL     1      -2.361   1.339  -1.085  1.00  0.00    -0.264 OA
HETATM   13  N4  UNL     1      -2.265   0.612   1.070  1.00  0.00    -0.262 N 
ATOM     14  H4  UNL     1      -1.731   0.272   1.870  1.00  0.00     0.190 HD
BRANCH  13  15
HETATM   15  N5  UNL     1      -3.670   0.773   1.178  1.00  0.00    -0.273 N 
HETATM   16  C6  UNL     1      -4.409  -0.208   0.815  1.00  0.00     0.215 C 
HETATM   17  N6  UNL     1      -3.831  -1.397   0.327  1.00  0.00    -0.065 NA
HETATM   18  N7  UNL     1      -5.831  -0.070   0.915  1.00  0.00    -0.065 NA
ATOM     19  H5  UNL     1      -4.077   1.639   1.532  1.00  0.00     0.189 HD
ENDBRANCH  13  15
ENDBRANCH   6  11
BRANCH   1  20
HETATM   20  N1  UNL     1       3.686   0.607  -1.422  1.00  0.00    -0.159 N 
HETATM   21  C2  UNL     1       4.712   0.170  -0.538  1.00  0.00     0.232 C 
HETATM   22  C1  UNL     1       4.924  -1.258  -0.193  1.00  0.00     0.118 C 
HETATM   23  O1  UNL     1       5.499   1.008   0.000  1.00  0.00    -0.273 OA
ATOM     24  H1  UNL     1       3.940   0.886  -2.370  1.00  0.00     0.187 HD
ENDBRANCH   1  20
TORSDOF 3
