REMARK  4 active torsions:
REMARK  status: ('A' for Active; 'I' for Inactive)
REMARK    1  A    between atoms: C2_3  and  C3_4 
REMARK    2  A    between atoms: C3_4  and  N2_5 
REMARK    3  A    between atoms: C3_4  and  C4_9 
REMARK       I    between atoms: C4_9  and  N3_11 
REMARK    4  A    between atoms: N3_11  and  C5_13 
ROOT
HETATM    1  N1  UNL     1      -4.628   0.180  -2.412  1.00  0.00    -0.197 NA
HETATM    2  C1  UNL     1      -3.896   0.461  -1.580  1.00  0.00     0.061 C 
HETATM    3  C2  UNL     1      -2.954   0.804  -0.539  1.00  0.00     0.166 C 
ENDROOT
BRANCH   3   4
HETATM    4  C3  UNL     1      -2.130  -0.413  -0.088  1.00  0.00     0.287 C 
BRANCH   4   5
HETATM    5  N2  UNL     1      -3.050  -1.384   0.404  1.00  0.00    -0.066 N 
ATOM      6  H23 UNL     1      -3.661  -1.021   1.136  1.00  0.00     0.275 HD
ATOM      7  H22 UNL     1      -3.779  -1.622  -0.269  1.00  0.00     0.275 HD
ATOM      8  H21 UNL     1      -2.503  -2.191   0.703  1.00  0.00     0.275 HD
ENDBRANCH   4   5
BRANCH   4   9
HETATM    9  C4  UNL     1      -1.273   0.067   1.019  1.00  0.00     0.255 C 
HETATM   10  O1  UNL     1      -1.466  -0.419   2.161  1.00  0.00    -0.271 OA
HETATM   11  N3  UNL     1      -0.255   1.057   0.788  1.00  0.00    -0.307 N 
ATOM     12  H3  UNL     1      -0.454   2.056   0.843  1.00  0.00     0.170 HD
BRANCH  11  13
HETATM   13  C5  UNL     1       0.915   0.616   0.510  1.00  0.00     0.181 C 
HETATM   14  N4  UNL     1       1.134  -0.708   0.448  1.00  0.00    -0.300 N 
HETATM   15  C6  UNL     1       2.273  -1.386   0.154  1.00  0.00     0.316 C 
ATOM     16  H4  UNL     1       0.323  -1.292   0.653  1.00  0.00     0.171 HD
HETATM   17  O2  UNL     1       2.175  -2.630   0.143  1.00  0.00    -0.262 OA
HETATM   18  C7  UNL     1       3.525  -0.902  -0.134  1.00  0.00     0.328 C 
HETATM   19  O3  UNL     1       4.443  -1.696  -0.402  1.00  0.00    -0.261 OA
HETATM   20  N5  UNL     1       3.924   0.404  -0.170  1.00  0.00    -0.259 N 
HETATM   21  N6  UNL     1       3.160   1.488  -0.110  1.00  0.00    -0.260 N 
ATOM     22  H5  UNL     1       4.928   0.565  -0.253  1.00  0.00     0.190 HD
HETATM   23  C8  UNL     1       1.870   1.585   0.294  1.00  0.00     0.304 C 
ATOM     24  H6  UNL     1       3.600   2.359  -0.406  1.00  0.00     0.190 HD
HETATM   25  O4  UNL     1       1.503   2.756   0.500  1.00  0.00    -0.263 OA
ENDBRANCH  11  13
ENDBRANCH   4   9
ENDBRANCH   3   4
TORSDOF 4
