REMARK  7 active torsions:
REMARK  status: ('A' for Active; 'I' for Inactive)
REMARK    1  A    between atoms: C3_7  and  N3_8 
REMARK    2  A    between atoms: N3_8  and  C4_10 
REMARK    3  A    between atoms: C5_13  and  O2_14 
REMARK    4  A    between atoms: N5_18  and  C7_19 
REMARK    5  A    between atoms: C7_19  and  N6_20 
REMARK    6  A    between atoms: N6_20  and  N7_21 
REMARK    7  A    between atoms: N8_25  and  N9_27 
ROOT
HETATM    1  C1  UNL     1       3.218  -2.435   0.307  1.00  0.00     0.180 C 
HETATM    2  N1  UNL     1       2.018  -1.707  -0.050  1.00  0.00    -0.134 N 
HETATM    3  C2  UNL     1       0.857  -2.424  -0.081  1.00  0.00     0.354 A 
HETATM    4  O1  UNL     1       0.845  -3.658   0.191  1.00  0.00    -0.245 OA
HETATM    5  N2  UNL     1      -0.317  -1.868  -0.396  1.00  0.00    -0.140 N 
ATOM      6  H2  UNL     1      -1.176  -2.417  -0.415  1.00  0.00     0.189 HD
HETATM    7  C3  UNL     1      -0.320  -0.557  -0.687  1.00  0.00     0.706 A 
HETATM    8  N5  UNL     1       0.808   0.168  -0.664  1.00  0.00     0.004 N 
HETATM    9  C8  UNL     1       2.016  -0.398  -0.341  1.00  0.00     0.720 A 
HETATM   10  N8  UNL     1       3.072   0.311  -0.326  1.00  0.00    -0.138 N 
ATOM     11  H8  UNL     1       2.930   1.292  -0.567  1.00  0.00     0.205 HD
ENDROOT
BRANCH   7  12
HETATM   12  N3  UNL     1      -1.525   0.113  -1.032  1.00  0.00    -0.169 N 
ATOM     13  H3  UNL     1      -1.569   0.673  -1.883  1.00  0.00     0.186 HD
BRANCH  12  14
HETATM   14  C4  UNL     1      -2.584   0.013  -0.257  1.00  0.00     0.165 A 
HETATM   15  N4  UNL     1      -3.783   0.569  -0.427  1.00  0.00    -0.317 N 
HETATM   16  C5  UNL     1      -4.703   0.341   0.470  1.00  0.00     0.148 A 
ATOM     17  H4  UNL     1      -3.977   1.158  -1.237  1.00  0.00     0.170 HD
HETATM   18  C6  UNL     1      -4.386  -0.454   1.533  1.00  0.00     0.109 A 
HETATM   19  S1  UNL     1      -2.759  -0.850   1.202  1.00  0.00    -0.061 SA
BRANCH  16  20
HETATM   20  O2  UNL     1      -6.008   0.894   0.366  1.00  0.00    -0.346 OA
ATOM     21  H2  UNL     1      -6.678   0.728   1.019  1.00  0.00     0.219 HD
ENDBRANCH  16  20
ENDBRANCH  12  14
ENDBRANCH   7  12
BRANCH   8  22
HETATM   22  C7  UNL     1       0.834   1.578  -0.972  1.00  0.00     0.301 C 
BRANCH  22  23
HETATM   23  N6  UNL     1       0.630   2.396   0.219  1.00  0.00    -0.127 NA
BRANCH  23  24
HETATM   24  N7  UNL     1       0.676   3.741  -0.208  1.00  0.00    -0.347 N 
ATOM     25  H72 UNL     1       0.824   4.062  -1.165  1.00  0.00     0.172 HD
ATOM     26  H71 UNL     1       0.533   4.313   0.625  1.00  0.00     0.172 HD
ENDBRANCH  23  24
ENDBRANCH  22  23
ENDBRANCH   8  22
BRANCH  10  27
HETATM   27  N9  UNL     1       4.363  -0.025  -0.040  1.00  0.00    -0.331 N 
ATOM     28  H92 UNL     1       4.483  -1.009   0.199  1.00  0.00     0.177 HD
ATOM     29  H91 UNL     1       5.210   0.544  -0.028  1.00  0.00     0.177 HD
ENDBRANCH  10  27
TORSDOF 7
