REMARK  8 active torsions:
REMARK  status: ('A' for Active; 'I' for Inactive)
REMARK    1  A    between atoms: N1_1  and  N2_4 
REMARK    2  A    between atoms: N2_4  and  C1_6 
REMARK    3  A    between atoms: C3_13  and  N5_14 
REMARK    4  A    between atoms: C3_13  and  O2_18 
REMARK    5  A    between atoms: C4_21  and  C5_22 
REMARK    6  A    between atoms: C5_22  and  N6_23 
REMARK    7  A    between atoms: C5_22  and  C6_28 
REMARK    8  A    between atoms: N6_23  and  N7_25 
ROOT
HETATM    1  C1  UNL     1      -1.181   0.998   0.648  1.00  0.00     0.146 C 
HETATM    2  N3  UNL     1      -2.382   1.458   0.331  1.00  0.00    -0.283 N 
ATOM      3  H3  UNL     1      -2.683   2.270   0.871  1.00  0.00     0.188 HD
HETATM    4  N4  UNL     1      -3.309   1.014  -0.624  1.00  0.00    -0.262 N 
ATOM      5  H4  UNL     1      -4.054   1.662  -0.880  1.00  0.00     0.190 HD
HETATM    6  C2  UNL     1      -3.309  -0.265  -1.275  1.00  0.00     0.329 C 
HETATM    7  O1  UNL     1      -4.307  -0.464  -1.981  1.00  0.00    -0.263 OA
HETATM    8  C3  UNL     1      -2.253  -1.307  -1.167  1.00  0.00     0.420 C 
HETATM    9  O3  UNL     1      -1.544  -1.188  -0.000  1.00  0.00    -0.306 OA
HETATM   10  C4  UNL     1      -0.603  -0.135  -0.008  1.00  0.00     0.249 C 
ENDROOT
BRANCH  10  11
HETATM   11  C5  UNL     1       0.727  -0.670   0.321  1.00  0.00     0.072 C 
BRANCH  11  12
HETATM   12  N6  UNL     1       0.981  -1.309   1.534  1.00  0.00    -0.307 N 
ATOM     13  H6  UNL     1       1.247  -2.293   1.507  1.00  0.00     0.186 HD
BRANCH  12  14
HETATM   14  N7  UNL     1       0.899  -0.716   2.731  1.00  0.00    -0.345 N 
ATOM     15  H72 UNL     1       0.632   0.268   2.739  1.00  0.00     0.176 HD
ATOM     16  H71 UNL     1       1.085  -1.183   3.618  1.00  0.00     0.176 HD
ENDBRANCH  12  14
ENDBRANCH  11  12
BRANCH  11  17
HETATM   17  C6  UNL     1       1.867   0.068  -0.291  1.00  0.00    -0.009 A 
HETATM   18  C7  UNL     1       2.020   0.067  -1.666  1.00  0.00     0.013 A 
HETATM   19  C8  UNL     1       3.068   0.720  -2.316  1.00  0.00     0.001 A 
HETATM   20  C9  UNL     1       4.002   1.400  -1.578  1.00  0.00     0.000 A 
HETATM   21  C10 UNL     1       3.872   1.416  -0.202  1.00  0.00     0.001 A 
HETATM   22  C11 UNL     1       2.825   0.761   0.409  1.00  0.00     0.013 A 
ENDBRANCH  11  17
ENDBRANCH  10  11
BRANCH   1  23
HETATM   23  N2  UNL     1      -0.630   1.772   1.669  1.00  0.00    -0.292 N 
ATOM     24  H2  UNL     1       0.343   2.072   1.612  1.00  0.00     0.187 HD
BRANCH  23  25
HETATM   25  N1  UNL     1      -1.411   2.137   2.772  1.00  0.00    -0.344 N 
ATOM     26  H12 UNL     1      -2.382   1.828   2.814  1.00  0.00     0.176 HD
ATOM     27  H11 UNL     1      -1.008   2.703   3.519  1.00  0.00     0.176 HD
ENDBRANCH  23  25
ENDBRANCH   1  23
BRANCH   8  28
HETATM   28  N5  UNL     1      -2.958  -2.590  -1.098  1.00  0.00    -0.012 N 
ATOM     29  H53 UNL     1      -3.651  -2.634  -0.351  1.00  0.00     0.281 HD
ATOM     30  H52 UNL     1      -3.603  -2.743  -1.874  1.00  0.00     0.281 HD
ATOM     31  H51 UNL     1      -2.234  -3.305  -1.024  1.00  0.00     0.281 HD
ENDBRANCH   8  28
BRANCH   8  32
HETATM   32  O2  UNL     1      -1.457  -1.353  -2.310  1.00  0.00    -0.336 OA
ATOM     33  H2  UNL     1      -0.783  -2.018  -2.241  1.00  0.00     0.215 HD
ENDBRANCH   8  32
TORSDOF 8
