REMARK  5 active torsions:
REMARK  status: ('A' for Active; 'I' for Inactive)
REMARK    1  A    between atoms: O1_2  and  C2_3 
REMARK    2  A    between atoms: C4_6  and  C5_7 
REMARK    3  A    between atoms: C7_16  and  O4_17 
REMARK    4  A    between atoms: C7_16  and  C8_19 
REMARK    5  A    between atoms: C9_20  and  N5_21 
ROOT
HETATM    1  C2  UNL     1       2.340   0.148   0.553  1.00  0.00     0.173 A 
HETATM    2  C3  UNL     1       1.371   0.046  -0.379  1.00  0.00     0.140 A 
HETATM    3  N1  UNL     1       0.351   0.910  -0.395  1.00  0.00    -0.226 N 
HETATM    4  C4  UNL     1       0.276   1.890   0.516  1.00  0.00     0.197 A 
HETATM    5  N3  UNL     1       1.239   2.010   1.460  1.00  0.00    -0.301 N 
ATOM      6  H3  UNL     1       1.174   2.759   2.149  1.00  0.00     0.171 HD
HETATM    7  C6  UNL     1       2.271   1.166   1.505  1.00  0.00     0.283 A 
HETATM    8  O3  UNL     1       3.181   1.248   2.365  1.00  0.00    -0.265 OA
HETATM    9  N4  UNL     1      -0.649   0.831  -1.374  1.00  0.00    -0.276 N 
ATOM     10  H4  UNL     1      -1.014   1.702  -1.759  1.00  0.00     0.185 HD
HETATM   11  C7  UNL     1      -1.187  -0.399  -1.865  1.00  0.00     0.265 C 
HETATM   12  C10 UNL     1      -0.193  -1.415  -2.252  1.00  0.00     0.117 C 
HETATM   13  N6  UNL     1      -0.536  -2.356  -3.031  1.00  0.00    -0.392 N 
ATOM     14  H61 UNL     1       0.152  -3.059  -3.299  1.00  0.00     0.156 HD
ATOM     15  H62 UNL     1      -1.477  -2.452  -3.413  1.00  0.00     0.156 HD
HETATM   16  S1  UNL     1       1.457  -1.246  -1.583  1.00  0.00    -0.048 SA
ENDROOT
BRANCH  11  17
HETATM   17  O4  UNL     1      -2.038  -0.124  -2.934  1.00  0.00    -0.354 OA
ATOM     18  H4  UNL     1      -2.396  -0.941  -3.260  1.00  0.00     0.214 HD
ENDBRANCH  11  17
BRANCH  11  19
HETATM   19  C8  UNL     1      -2.044  -1.047  -0.835  1.00  0.00    -0.014 C 
HETATM   20  C9  UNL     1      -2.743  -1.576  -0.005  1.00  0.00     0.009 C 
BRANCH  20  21
HETATM   21  N5  UNL     1      -3.569  -2.189   0.946  1.00  0.00    -0.359 N 
ATOM     22  H52 UNL     1      -3.528  -1.796   0.006  1.00  0.00     0.166 HD
ATOM     23  H51 UNL     1      -4.160  -2.636   1.647  1.00  0.00     0.166 HD
ENDBRANCH  20  21
ENDBRANCH  11  19
BRANCH   4  24
HETATM   24  C5  UNL     1      -0.820   2.842   0.597  1.00  0.00     0.300 C 
HETATM   25  N2  UNL     1      -0.739   3.870   1.612  1.00  0.00    -0.054 NA
HETATM   26  O2  UNL     1      -1.833   2.875  -0.116  1.00  0.00    -0.268 OA
ENDBRANCH   4  24
BRANCH   1  27
HETATM   27  O1  UNL     1       3.392  -0.743   0.570  1.00  0.00    -0.349 OA
HETATM   28  C1  UNL     1       3.370  -1.955   1.296  1.00  0.00     0.210 C 
ENDBRANCH   1  27
TORSDOF 5
