REMARK  4 active torsions:
REMARK  status: ('A' for Active; 'I' for Inactive)
REMARK    1  A    between atoms: N1_1  and  C1_4 
REMARK    2  A    between atoms: C4_14  and  S1_15 
REMARK    3  A    between atoms: S1_15  and  N5_18 
REMARK    4  A    between atoms: C6_21  and  N6_22 
ROOT
HETATM    1  C1  UNL     1       2.774   1.210  -0.556  1.00  0.00     0.694 A 
HETATM    2  N2  UNL     1       3.858   0.806   0.168  1.00  0.00    -0.152 N 
ATOM      3  H2  UNL     1       4.741   1.312   0.102  1.00  0.00     0.188 HD
HETATM    4  C2  UNL     1       3.747  -0.266   0.968  1.00  0.00     0.307 A 
HETATM    5  O1  UNL     1       4.725  -0.657   1.642  1.00  0.00    -0.263 OA
HETATM    6  C3  UNL     1       2.525  -0.902   1.012  1.00  0.00     0.214 A 
HETATM    7  N3  UNL     1       2.111  -1.989   1.704  1.00  0.00    -0.277 N 
ATOM      8  H3  UNL     1       2.678  -2.541   2.348  1.00  0.00     0.189 HD
HETATM    9  N4  UNL     1       0.843  -2.210   1.399  1.00  0.00    -0.272 N 
ATOM     10  H4  UNL     1       0.277  -2.969   1.778  1.00  0.00     0.189 HD
HETATM   11  C4  UNL     1       0.408  -1.300   0.526  1.00  0.00     0.257 A 
HETATM   12  N7  UNL     1       1.445  -0.488   0.283  1.00  0.00    -0.190 N 
HETATM   13  N8  UNL     1       1.598   0.572  -0.494  1.00  0.00    -0.121 N 
ATOM     14  H8  UNL     1       0.812   0.907  -1.052  1.00  0.00     0.206 HD
ENDROOT
BRANCH  11  15
HETATM   15  S1  UNL     1      -1.176  -1.199  -0.182  1.00  0.00     0.282 S 
HETATM   16  O2  UNL     1      -1.686  -2.622  -0.456  1.00  0.00    -0.203 OA
HETATM   17  O3  UNL     1      -1.153  -0.558  -1.541  1.00  0.00    -0.203 OA
BRANCH  15  18
HETATM   18  N5  UNL     1      -2.266  -0.354   0.807  1.00  0.00    -0.156 NA
HETATM   19  C5  UNL     1      -1.868   1.012   1.039  1.00  0.00     0.188 C 
HETATM   20  S2  UNL     1      -2.426   1.466  -0.625  1.00  0.00    -0.105 SA
HETATM   21  C6  UNL     1      -3.443   0.173   0.138  1.00  0.00     0.336 C 
BRANCH  21  22
HETATM   22  N6  UNL     1      -4.046  -0.760  -0.782  1.00  0.00    -0.053 N 
ATOM     23  H63 UNL     1      -3.361  -1.091  -1.462  1.00  0.00     0.277 HD
ATOM     24  H62 UNL     1      -4.260  -1.641  -0.315  1.00  0.00     0.277 HD
ATOM     25  H61 UNL     1      -4.872  -0.390  -1.252  1.00  0.00     0.277 HD
ENDBRANCH  21  22
ENDBRANCH  15  18
ENDBRANCH  11  15
BRANCH   1  26
HETATM   26  N1  UNL     1       2.866   2.248  -1.337  1.00  0.00    -0.233 N 
ATOM     27  H12 UNL     1       3.762   2.734  -1.384  1.00  0.00     0.174 HD
ATOM     28  H11 UNL     1       2.056   2.550  -1.878  1.00  0.00     0.174 HD
ENDBRANCH   1  26
TORSDOF 4
