REMARK  5 active torsions:
REMARK  status: ('A' for Active; 'I' for Inactive)
REMARK    1  A    between atoms: N1_1  and  N2_4 
REMARK    2  A    between atoms: N2_4  and  C1_6 
REMARK    3  A    between atoms: C1_6  and  C2_8 
REMARK    4  A    between atoms: C5_16  and  C6_17 
REMARK       I    between atoms: C6_17  and  N6_19 
REMARK    5  A    between atoms: N6_19  and  C7_21 
ROOT
HETATM    1  C2  UNL     1       2.468  -0.791   0.170  1.00  0.00     0.089 A 
HETATM    2  C3  UNL     1       2.347  -1.979  -0.521  1.00  0.00     0.132 A 
HETATM    3  N3  UNL     1       1.028  -2.194  -0.716  1.00  0.00    -0.299 N 
HETATM    4  C4  UNL     1       0.345  -3.201  -1.333  1.00  0.00     0.206 A 
HETATM    5  N4  UNL     1      -0.998  -3.167  -1.386  1.00  0.00    -0.295 N 
ATOM      6  H4  UNL     1      -1.483  -3.932  -1.854  1.00  0.00     0.187 HD
HETATM    7  N5  UNL     1      -1.721  -2.193  -0.863  1.00  0.00    -0.292 N 
ATOM      8  H5  UNL     1      -2.739  -2.199  -0.921  1.00  0.00     0.187 HD
HETATM    9  C5  UNL     1      -1.060  -1.188  -0.248  1.00  0.00     0.162 A 
HETATM   10  C8  UNL     1       0.317  -1.201  -0.182  1.00  0.00     0.147 A 
HETATM   11  N11 UNL     1       1.199  -0.354   0.354  1.00  0.00    -0.336 N 
ATOM     12  H11 UNL     1       0.950   0.509   0.838  1.00  0.00     0.168 HD
ENDROOT
BRANCH   9  13
HETATM   13  C6  UNL     1      -1.758  -0.066   0.362  1.00  0.00     0.291 C 
HETATM   14  O1  UNL     1      -1.140   0.852   0.924  1.00  0.00    -0.265 OA
HETATM   15  N6  UNL     1      -3.200  -0.069   0.283  1.00  0.00    -0.152 N 
ATOM     16  H6  UNL     1      -3.737  -0.931   0.188  1.00  0.00     0.188 HD
BRANCH  15  17
HETATM   17  C7  UNL     1      -3.766   1.093   0.340  1.00  0.00     0.713 A 
HETATM   18  N7  UNL     1      -3.222   2.313   0.462  1.00  0.00    -0.113 N 
HETATM   19  N8  UNL     1      -4.199   3.202   0.476  1.00  0.00     0.009 NA
ATOM     20  H7  UNL     1      -2.225   2.519   0.532  1.00  0.00     0.203 HD
HETATM   21  N9  UNL     1      -5.370   2.597   0.366  1.00  0.00    -0.212 N 
HETATM   22  N10 UNL     1      -5.107   1.308   0.282  1.00  0.00    -0.118 N 
ATOM     23  H9  UNL     1      -6.290   3.038   0.350  1.00  0.00     0.206 HD
ATOM     24  H10 UNL     1      -5.810   0.575   0.187  1.00  0.00     0.207 HD
ENDBRANCH  15  17
ENDBRANCH   9  13
BRANCH   1  25
HETATM   25  C1  UNL     1       3.709  -0.159   0.602  1.00  0.00     0.143 C 
HETATM   26  S1  UNL     1       4.709  -1.019   1.570  1.00  0.00    -0.057 SA
BRANCH  25  27
HETATM   27  N2  UNL     1       4.017   1.146   0.188  1.00  0.00    -0.295 N 
ATOM     28  H2  UNL     1       3.349   1.625  -0.416  1.00  0.00     0.187 HD
BRANCH  27  29
HETATM   29  N1  UNL     1       5.178   1.830   0.550  1.00  0.00    -0.344 N 
ATOM     30  H12 UNL     1       5.834   1.336   1.155  1.00  0.00     0.176 HD
ATOM     31  H11 UNL     1       5.402   2.779   0.249  1.00  0.00     0.176 HD
ENDBRANCH  27  29
ENDBRANCH  25  27
ENDBRANCH   1  25
TORSDOF 5
