REMARK  12 active torsions:
REMARK  status: ('A' for Active; 'I' for Inactive)
REMARK       I    between atoms: N1_1  and  C1_4 
REMARK       I    between atoms: C1_4  and  N3_6 
REMARK    1  A    between atoms: N3_6  and  C2_8 
REMARK       I    between atoms: N6_15  and  C4_16 
REMARK       I    between atoms: C4_16  and  N7_18 
REMARK    2  A    between atoms: N7_18  and  N8_20 
REMARK    3  A    between atoms: N8_20  and  C5_22 
REMARK    4  A    between atoms: C8_25  and  S1_26 
REMARK    5  A    between atoms: S1_26  and  N9_29 
REMARK    6  A    between atoms: N9_29  and  N10_31 
REMARK       I    between atoms: N10_31  and  C9_33 
REMARK    7  A    between atoms: C9_33  and  C10_35 
REMARK    8  A    between atoms: C10_35  and  N11_36 
REMARK    9  A    between atoms: C10_35  and  C11_40 
REMARK   10  A    between atoms: C11_40  and  C12_41 
REMARK   11  A    between atoms: C12_41  and  C13_42 
REMARK   12  A    between atoms: C13_42  and  N12_43 
ROOT
HETATM    1  C5  UNL     1       3.270   0.513  -1.130  1.00  0.00     0.059 A 
HETATM    2  C6  UNL     1       3.227   0.145   0.181  1.00  0.00     0.033 A 
HETATM    3  C7  UNL     1       2.034   0.006   0.858  1.00  0.00     0.028 A 
HETATM    4  C8  UNL     1       0.799   0.232   0.245  1.00  0.00     0.092 A 
HETATM    5  C15 UNL     1       0.886   0.603  -1.079  1.00  0.00    -0.000 A 
HETATM    6  C16 UNL     1      -0.273   0.861  -1.772  1.00  0.00     0.014 A 
HETATM    7  C17 UNL     1      -0.319   1.245  -3.092  1.00  0.00     0.001 A 
HETATM    8  C18 UNL     1       0.873   1.380  -3.760  1.00  0.00     0.001 A 
HETATM    9  C19 UNL     1       2.073   1.126  -3.085  1.00  0.00     0.014 A 
HETATM   10  C20 UNL     1       2.075   0.746  -1.767  1.00  0.00     0.004 A 
ENDROOT
BRANCH   4  11
HETATM   11  S1  UNL     1      -0.666   0.035   1.137  1.00  0.00     0.277 S 
HETATM   12  O3  UNL     1      -1.357   1.378   1.372  1.00  0.00    -0.199 OA
HETATM   13  O4  UNL     1      -0.294  -0.404   2.558  1.00  0.00    -0.199 OA
BRANCH  11  14
HETATM   14  N9  UNL     1      -1.740  -1.136   0.562  1.00  0.00    -0.220 N 
ATOM     15  H9  UNL     1      -1.501  -1.841  -0.135  1.00  0.00     0.200 HD
BRANCH  14  16
HETATM   16  N10 UNL     1      -2.976  -1.018   1.152  1.00  0.00    -0.259 N 
HETATM   17  C9  UNL     1      -3.965  -0.107   0.733  1.00  0.00     0.267 C 
HETATM   18  O5  UNL     1      -3.757   0.655  -0.223  1.00  0.00    -0.269 OA
ATOM     19  H10 UNL     1      -3.190  -1.627   1.941  1.00  0.00     0.190 HD
BRANCH  17  20
HETATM   20  C10 UNL     1      -5.271  -0.043   1.434  1.00  0.00     0.276 C 
BRANCH  20  21
HETATM   21  N11 UNL     1      -5.989   1.082   0.867  1.00  0.00    -0.066 N 
ATOM     22 3H11 UNL     1      -5.466   1.957   0.908  1.00  0.00     0.275 HD
ATOM     23 2H11 UNL     1      -6.078   1.034  -0.148  1.00  0.00     0.275 HD
ATOM     24 1H11 UNL     1      -6.887   1.126   1.349  1.00  0.00     0.275 HD
ENDBRANCH  20  21
BRANCH  20  25
HETATM   25  C11 UNL     1      -5.962  -1.362   1.247  1.00  0.00     0.044 C 
BRANCH  25  26
HETATM   26  C12 UNL     1      -7.291  -1.504   1.881  1.00  0.00     0.022 C 
BRANCH  26  27
HETATM   27  C13 UNL     1      -8.383  -0.604   1.429  1.00  0.00     0.122 C 
BRANCH  27  28
HETATM   28  N12 UNL     1      -8.743  -0.716   0.066  1.00  0.00    -0.367 N 
HETATM   29  C14 UNL     1      -9.199   0.099  -0.770  1.00  0.00     0.196 C 
HETATM   30  N13 UNL     1      -9.451   1.452  -0.380  1.00  0.00    -0.067 NA
HETATM   31  N14 UNL     1      -9.501  -0.229  -2.123  1.00  0.00    -0.067 NA
ATOM     32  H12 UNL     1      -8.603  -1.652  -0.315  1.00  0.00     0.161 HD
ENDBRANCH  27  28
ENDBRANCH  26  27
ENDBRANCH  25  26
ENDBRANCH  20  25
ENDBRANCH  17  20
ENDBRANCH  14  16
ENDBRANCH  11  14
ENDBRANCH   4  11
BRANCH   1  33
HETATM   33  N8  UNL     1       4.509   0.633  -1.798  1.00  0.00    -0.296 N 
ATOM     34  H8  UNL     1       4.559   0.914  -2.777  1.00  0.00     0.187 HD
BRANCH  33  35
HETATM   35  N7  UNL     1       5.691   0.344  -1.044  1.00  0.00    -0.250 N 
HETATM   36  C4  UNL     1       5.990  -0.996  -0.779  1.00  0.00     0.364 C 
HETATM   37  N6  UNL     1       7.127  -1.421  -0.037  1.00  0.00    -0.039 N 
HETATM   38  O2  UNL     1       5.191  -1.873  -1.231  1.00  0.00    -0.244 OA
HETATM   39  C2  UNL     1       8.120  -0.722   0.507  1.00  0.00     0.714 A 
HETATM   40  C3  UNL     1       7.344  -2.736   0.261  1.00  0.00     0.364 A 
HETATM   41  N4  UNL     1       8.945  -1.565   1.134  1.00  0.00    -0.127 N 
HETATM   42  N5  UNL     1       8.471  -2.773   0.982  1.00  0.00    -0.236 N 
ATOM     43  H4  UNL     1       9.793  -1.311   1.641  1.00  0.00     0.205 HD
ATOM     44  H5  UNL     1       8.897  -3.620   1.358  1.00  0.00     0.192 HD
HETATM   45  O1  UNL     1       6.633  -3.725  -0.070  1.00  0.00    -0.244 OA
ATOM     46  H7  UNL     1       6.297   1.093  -0.710  1.00  0.00     0.192 HD
BRANCH  39  47
HETATM   47  N3  UNL     1       8.277   0.550   0.431  1.00  0.00    -0.162 N 
HETATM   48  C1  UNL     1       9.400   1.201   1.040  1.00  0.00     0.200 C 
HETATM   49  N1  UNL     1       9.378   1.709   2.212  1.00  0.00    -0.373 N 
HETATM   50  N2  UNL     1      10.583   1.266   0.276  1.00  0.00    -0.063 NA
ATOM     51  H12 UNL     1      10.177   2.172   2.645  1.00  0.00     0.158 HD
ATOM     52  H11 UNL     1       8.522   1.662   2.765  1.00  0.00     0.158 HD
ATOM     53  H3  UNL     1       7.589   1.109  -0.073  1.00  0.00     0.187 HD
ENDBRANCH  39  47
ENDBRANCH  33  35
ENDBRANCH   1  33
TORSDOF 12
