REMARK  15 active torsions:
REMARK  status: ('A' for Active; 'I' for Inactive)
REMARK    1  A    between atoms: C2_2  and  N2_4 
REMARK    2  A    between atoms: N2_4  and  N3_5 
REMARK    3  A    between atoms: N3_5  and  C3_7 
REMARK    4  A    between atoms: C4_10  and  C5_11 
REMARK       I    between atoms: C5_11  and  N5_13 
REMARK       I    between atoms: C6_15  and  N7_17 
REMARK    5  A    between atoms: N7_17  and  N8_19 
REMARK    6  A    between atoms: C7_21  and  C8_22 
REMARK    7  A    between atoms: C7_21  and  C11_27 
REMARK    8  A    between atoms: C8_22  and  C9_23 
REMARK    9  A    between atoms: C9_23  and  C10_24 
REMARK       I    between atoms: C11_27  and  N9_29 
REMARK   10  A    between atoms: N9_29  and  N10_31 
REMARK   11  A    between atoms: N10_31  and  C12_33 
REMARK   12  A    between atoms: C12_33  and  N11_35 
REMARK   13  A    between atoms: N11_35  and  C13_37 
REMARK   14  A    between atoms: C13_37  and  C14_38 
REMARK   15  A    between atoms: C18_46  and  N13_47 
ROOT
HETATM    1  N8  UNL     1      -0.046  -0.001  -0.426  1.00  0.00    -0.297 N 
ATOM      2  H8  UNL     1      -0.017  -0.693  -1.175  1.00  0.00     0.187 HD
HETATM    3  C7  UNL     1      -1.193   0.411  -0.421  1.00  0.00     0.095 C 
ENDROOT
BRANCH   1   4
HETATM    4  N7  UNL     1       1.187   0.017   0.075  1.00  0.00    -0.273 N 
HETATM    5  C6  UNL     1       1.873   1.034   0.694  1.00  0.00     0.210 C 
HETATM    6  N5  UNL     1       2.862   1.722   0.212  1.00  0.00    -0.294 N 
HETATM    7  N6  UNL     1       1.435   1.364   2.036  1.00  0.00    -0.062 NA
HETATM    8  C5  UNL     1       3.103   1.138  -1.237  1.00  0.00     0.275 C 
ATOM      9  H5  UNL     1       3.373   2.477   0.669  1.00  0.00     0.172 HD
HETATM   10  O1  UNL     1       2.262   1.434  -1.951  1.00  0.00    -0.266 OA
ATOM     11  H7  UNL     1       1.702  -0.859  -0.014  1.00  0.00     0.189 HD
BRANCH   8  12
HETATM   12  C4  UNL     1       4.376   0.442  -1.153  1.00  0.00     0.120 A 
HETATM   13  N4  UNL     1       5.071   0.331  -0.014  1.00  0.00    -0.184 N 
HETATM   14  C3  UNL     1       6.321  -0.147   0.075  1.00  0.00     0.709 A 
ATOM     15  H4  UNL     1       4.617   0.632   0.848  1.00  0.00     0.184 HD
HETATM   16  N14 UNL     1       6.981  -0.588  -1.044  1.00  0.00    -0.175 N 
HETATM   17  C18 UNL     1       6.305  -0.504  -2.184  1.00  0.00     0.117 A 
ATOM     18  H14 UNL     1       7.931  -0.957  -1.003  1.00  0.00     0.186 HD
HETATM   19  C17 UNL     1       5.033  -0.002  -2.274  1.00  0.00     0.084 A 
BRANCH  14  20
HETATM   20  N3  UNL     1       6.883  -0.108   1.273  1.00  0.00    -0.064 N 
ATOM     21  H3  UNL     1       6.362   0.250   2.074  1.00  0.00     0.221 HD
BRANCH  20  22
HETATM   22  N2  UNL     1       8.053  -0.512   1.414  1.00  0.00    -0.301 NA
BRANCH  22  23
HETATM   23  C2  UNL     1       9.190  -0.953   1.562  1.00  0.00     0.186 C 
HETATM   24  C1  UNL     1       9.399  -2.410   1.886  1.00  0.00     0.104 C 
HETATM   25  N1  UNL     1      10.312  -0.039   1.322  1.00  0.00    -0.070 NA
ENDBRANCH  22  23
ENDBRANCH  20  22
ENDBRANCH  14  20
BRANCH  17  26
HETATM   26  N13 UNL     1       6.846  -0.867  -3.349  1.00  0.00    -0.385 N 
ATOM     27 2H13 UNL     1       6.327  -0.802  -4.225  1.00  0.00     0.157 HD
ATOM     28 1H13 UNL     1       7.793  -1.241  -3.282  1.00  0.00     0.157 HD
ENDBRANCH  17  26
ENDBRANCH   8  12
ENDBRANCH   1   4
BRANCH   3  29
HETATM   29  C8  UNL     1      -1.632   1.524   0.609  1.00  0.00     0.075 C 
BRANCH  29  30
HETATM   30  C9  UNL     1      -2.249   0.708   1.759  1.00  0.00     0.119 C 
BRANCH  30  31
HETATM   31  C10 UNL     1      -2.800   1.486   2.835  1.00  0.00     0.172 C 
HETATM   32  O2  UNL     1      -3.199   2.716   2.311  1.00  0.00    -0.648 OA
HETATM   33  O3  UNL     1      -3.011   1.361   4.136  1.00  0.00    -0.648 OA
ENDBRANCH  30  31
ENDBRANCH  29  30
ENDBRANCH   3  29
BRANCH   3  34
HETATM   34  C11 UNL     1      -2.382  -0.279  -0.953  1.00  0.00     0.283 C 
HETATM   35  O4  UNL     1      -2.248  -1.528  -1.245  1.00  0.00    -0.265 OA
HETATM   36  N9  UNL     1      -3.623   0.354  -1.113  1.00  0.00    -0.263 N 
ATOM     37  H9  UNL     1      -3.558   1.370  -1.045  1.00  0.00     0.190 HD
BRANCH  36  38
HETATM   38  N10 UNL     1      -4.880  -0.071  -1.336  1.00  0.00    -0.274 N 
ATOM     39  H10 UNL     1      -5.501   0.649  -1.704  1.00  0.00     0.189 HD
BRANCH  38  40
HETATM   40  C12 UNL     1      -5.495  -1.315  -1.158  1.00  0.00     0.186 C 
HETATM   41  S1  UNL     1      -4.809  -2.708  -0.699  1.00  0.00    -0.040 SA
BRANCH  40  42
HETATM   42  N11 UNL     1      -6.940  -1.338  -1.405  1.00  0.00    -0.360 N 
ATOM     43  H11 UNL     1      -7.450  -2.218  -1.334  1.00  0.00     0.162 HD
BRANCH  42  44
HETATM   44  C13 UNL     1      -7.629  -0.159  -1.739  1.00  0.00     0.179 C 
BRANCH  44  45
HETATM   45  C14 UNL     1      -9.048  -0.162  -1.077  1.00  0.00     0.037 A 
HETATM   46  C15 UNL     1      -9.376  -1.023  -0.079  1.00  0.00     0.081 A 
HETATM   47  S2  UNL     1     -10.972  -0.573   0.320  1.00  0.00    -0.039 SA
HETATM   48  C16 UNL     1     -11.139   0.701  -0.832  1.00  0.00     0.288 A 
HETATM   49  O5  UNL     1     -12.158   1.437  -1.026  1.00  0.00    -0.260 OA
HETATM   50  N12 UNL     1      -9.953   0.712  -1.458  1.00  0.00    -0.319 N 
ATOM     51  H12 UNL     1      -9.759   1.378  -2.206  1.00  0.00     0.169 HD
ENDBRANCH  44  45
ENDBRANCH  42  44
ENDBRANCH  40  42
ENDBRANCH  38  40
ENDBRANCH  36  38
ENDBRANCH   3  34
TORSDOF 15
