REMARK  14 active torsions:
REMARK  status: ('A' for Active; 'I' for Inactive)
REMARK    1  A    between atoms: C2_2  and  N1_3 
REMARK    2  A    between atoms: C2_2  and  N2_7 
REMARK    3  A    between atoms: N2_7  and  C3_9 
REMARK    4  A    between atoms: C5_11  and  C6_12 
REMARK       I    between atoms: C6_12  and  N3_14 
REMARK    5  A    between atoms: N3_14  and  C7_16 
REMARK    6  A    between atoms: C7_16  and  C8_17 
REMARK    7  A    between atoms: C7_16  and  C12_25 
REMARK    8  A    between atoms: C8_17  and  C9_18 
REMARK    9  A    between atoms: C15_30  and  C16_31 
REMARK       I    between atoms: C16_31  and  N7_33 
REMARK   10  A    between atoms: N7_33  and  C17_35 
REMARK   11  A    between atoms: C17_35  and  C18_36 
REMARK       I    between atoms: C18_36  and  N8_38 
REMARK   12  A    between atoms: N8_38  and  C19_40 
REMARK   13  A    between atoms: C22_47  and  N11_48 
REMARK   14  A    between atoms: C23_53  and  N13_54 
ROOT
HETATM    1  C3  UNL     1       0.051  -1.113  -2.267  1.00  0.00     0.046 A 
HETATM    2  C4  UNL     1       1.385  -1.010  -1.871  1.00  0.00     0.047 A 
HETATM    3  C5  UNL     1       2.019   0.177  -1.633  1.00  0.00     0.034 A 
HETATM    4  C13 UNL     1       1.290   1.325  -1.796  1.00  0.00     0.018 A 
HETATM    5  C14 UNL     1      -0.032   1.280  -2.186  1.00  0.00     0.020 A 
HETATM    6  C15 UNL     1      -0.681   0.055  -2.432  1.00  0.00     0.058 A 
ENDROOT
BRANCH   6   7
HETATM    7  C16 UNL     1      -2.057   0.042  -2.883  1.00  0.00     0.254 C 
HETATM    8  O3  UNL     1      -2.637  -1.016  -3.181  1.00  0.00    -0.268 OA
HETATM    9  N7  UNL     1      -2.787   1.255  -2.997  1.00  0.00    -0.348 N 
ATOM     10  H7  UNL     1      -2.332   2.139  -2.771  1.00  0.00     0.163 HD
BRANCH   9  11
HETATM   11  C17 UNL     1      -4.188   1.254  -3.436  1.00  0.00     0.226 C 
BRANCH  11  12
HETATM   12  C18 UNL     1      -4.983   0.535  -2.386  1.00  0.00     0.240 C 
HETATM   13  O4  UNL     1      -6.231   0.433  -2.698  1.00  0.00    -0.271 OA
HETATM   14  N8  UNL     1      -4.435   0.069  -1.267  1.00  0.00    -0.310 N 
ATOM     15  H8  UNL     1      -4.073  -0.848  -1.528  1.00  0.00     0.170 HD
BRANCH  14  16
HETATM   16  C19 UNL     1      -4.145   0.182  -0.084  1.00  0.00     0.139 A 
HETATM   17  N9  UNL     1      -3.469  -0.855   0.539  1.00  0.00    -0.337 N 
HETATM   18  C20 UNL     1      -3.118  -0.808   1.823  1.00  0.00     0.182 A 
ATOM     19  H9  UNL     1      -3.232  -1.684  -0.005  1.00  0.00     0.168 HD
HETATM   20  N10 UNL     1      -3.391   0.243   2.614  1.00  0.00    -0.347 N 
HETATM   21  C21 UNL     1      -4.046   1.293   2.086  1.00  0.00     0.109 A 
ATOM     22  H10 UNL     1      -3.108   0.245   3.594  1.00  0.00     0.167 HD
HETATM   23  C22 UNL     1      -4.318   2.360   2.908  1.00  0.00     0.144 A 
HETATM   24  C24 UNL     1      -4.424   1.260   0.730  1.00  0.00     0.123 A 
HETATM   25  N12 UNL     1      -4.977   3.393   2.343  1.00  0.00    -0.175 N 
HETATM   26  C23 UNL     1      -5.344   3.385   1.063  1.00  0.00     0.678 A 
ATOM     27  H12 UNL     1      -5.201   4.207   2.915  1.00  0.00     0.186 HD
HETATM   28  N14 UNL     1      -5.071   2.328   0.260  1.00  0.00    -0.186 N 
ATOM     29  H14 UNL     1      -5.364   2.349  -0.717  1.00  0.00     0.184 HD
BRANCH  23  30
HETATM   30  N11 UNL     1      -4.007   2.458   4.136  1.00  0.00    -0.383 N 
ATOM     31 2H11 UNL     1      -3.509   1.677   4.563  1.00  0.00     0.157 HD
ATOM     32 1H11 UNL     1      -4.209   3.250   4.746  1.00  0.00     0.157 HD
ENDBRANCH  23  30
BRANCH  26  33
HETATM   33  N13 UNL     1      -5.982   4.377   0.510  1.00  0.00    -0.234 N 
ATOM     34 2H13 UNL     1      -6.187   5.173   1.114  1.00  0.00     0.174 HD
ATOM     35 1H13 UNL     1      -6.263   4.371  -0.470  1.00  0.00     0.174 HD
ENDBRANCH  26  33
ENDBRANCH  14  16
ENDBRANCH  11  12
ENDBRANCH   9  11
ENDBRANCH   6   7
BRANCH   1  36
HETATM   36  N2  UNL     1      -0.505  -2.399  -2.433  1.00  0.00    -0.362 N 
ATOM     37  H2  UNL     1      -1.513  -2.502  -2.551  1.00  0.00     0.161 HD
BRANCH  36  38
HETATM   38  C2  UNL     1       0.359  -3.601  -2.438  1.00  0.00     0.277 C 
HETATM   39  C1  UNL     1       1.293  -3.615  -3.609  1.00  0.00     0.063 C 
BRANCH  38  40
HETATM   40  N1  UNL     1      -0.437  -4.817  -2.493  1.00  0.00    -0.059 N 
ATOM     41  H13 UNL     1      -0.920  -4.935  -3.384  1.00  0.00     0.276 HD
ATOM     42  H12 UNL     1       0.133  -5.662  -2.536  1.00  0.00     0.276 HD
ATOM     43  H11 UNL     1      -1.073  -4.807  -1.696  1.00  0.00     0.276 HD
ENDBRANCH  38  40
ENDBRANCH  36  38
ENDBRANCH   1  36
BRANCH   3  44
HETATM   44  C6  UNL     1       3.432   0.202  -1.211  1.00  0.00     0.252 C 
HETATM   45  O1  UNL     1       4.274   0.513  -2.091  1.00  0.00    -0.268 OA
HETATM   46  N3  UNL     1       3.801  -0.114   0.125  1.00  0.00    -0.344 N 
ATOM     47  H3  UNL     1       3.069  -0.356   0.793  1.00  0.00     0.163 HD
BRANCH  46  48
HETATM   48  C7  UNL     1       5.165  -0.105   0.567  1.00  0.00     0.179 C 
BRANCH  48  49
HETATM   49  C8  UNL     1       5.419   0.981   1.606  1.00  0.00     0.093 C 
BRANCH  49  50
HETATM   50  C9  UNL     1       4.581   0.808   2.812  1.00  0.00     0.028 A 
HETATM   51  C10 UNL     1       4.853   0.103   3.959  1.00  0.00     0.114 A 
HETATM   52  N4  UNL     1       3.815   0.219   4.785  1.00  0.00    -0.360 N 
HETATM   53  C11 UNL     1       2.902   0.985   4.172  1.00  0.00     0.180 A 
ATOM     54  H4  UNL     1       3.730  -0.198   5.712  1.00  0.00     0.166 HD
HETATM   55  N5  UNL     1       3.364   1.344   2.974  1.00  0.00    -0.354 N 
ATOM     56  H5  UNL     1       2.874   1.928   2.296  1.00  0.00     0.166 HD
ENDBRANCH  49  50
ENDBRANCH  48  49
BRANCH  48  57
HETATM   57  C12 UNL     1       5.602  -1.425   1.086  1.00  0.00     0.254 C 
HETATM   58  N6  UNL     1       6.909  -1.660   1.573  1.00  0.00    -0.060 NA
HETATM   59  O2  UNL     1       4.797  -2.406   1.108  1.00  0.00    -0.275 OA
ENDBRANCH  48  57
ENDBRANCH  46  48
ENDBRANCH   3  44
TORSDOF 14
