REMARK  16 active torsions:
REMARK  status: ('A' for Active; 'I' for Inactive)
REMARK    1  A    between atoms: N1_1  and  C1_4 
REMARK    2  A    between atoms: C2_7  and  N3_8 
REMARK    3  A    between atoms: N4_11  and  C5_12 
REMARK    4  A    between atoms: C5_12  and  C6_13 
REMARK    5  A    between atoms: C6_13  and  O1_14 
REMARK    6  A    between atoms: C9_19  and  C10_20 
REMARK    7  A    between atoms: C10_20  and  O3_21 
REMARK    8  A    between atoms: C10_20  and  N5_23 
REMARK    9  A    between atoms: N5_23  and  C11_25 
REMARK   10  A    between atoms: C14_28  and  C15_29 
REMARK       I    between atoms: N8_35  and  C17_37 
REMARK   11  A    between atoms: C17_37  and  C18_39 
REMARK   12  A    between atoms: C18_39  and  N9_40 
REMARK   13  A    between atoms: C18_39  and  C19_44 
REMARK   14  A    between atoms: C19_44  and  C20_45 
REMARK   15  A    between atoms: C20_45  and  C21_46 
REMARK   16  A    between atoms: C22_52  and  N12_53 
ROOT
HETATM    1  N5  UNL     1      -1.825   2.514   1.291  1.00  0.00    -0.322 N 
ATOM      2  H5  UNL     1      -1.686   3.480   0.994  1.00  0.00     0.169 HD
ENDROOT
BRANCH   1   3
HETATM    3  C10 UNL     1      -3.055   2.252   1.898  1.00  0.00     0.159 C 
BRANCH   3   4
HETATM    4  C9  UNL     1      -3.546   1.046   2.492  1.00  0.00     0.103 A 
HETATM    5  C2  UNL     1      -4.415   0.229   1.772  1.00  0.00     0.138 A 
HETATM    6  N2  UNL     1      -4.893  -0.866   2.411  1.00  0.00    -0.176 N 
HETATM    7  C1  UNL     1      -4.553  -1.162   3.678  1.00  0.00     0.679 A 
ATOM      8  H2  UNL     1      -5.532  -1.487   1.914  1.00  0.00     0.186 HD
HETATM    9  N13 UNL     1      -3.708  -0.373   4.389  1.00  0.00    -0.176 N 
HETATM   10  C22 UNL     1      -3.198   0.730   3.815  1.00  0.00     0.133 A 
ATOM     11  H13 UNL     1      -3.463  -0.615   5.349  1.00  0.00     0.186 HD
BRANCH   5  12
HETATM   12  N3  UNL     1      -4.784   0.543   0.437  1.00  0.00    -0.356 N 
HETATM   13  C3  UNL     1      -5.843   1.454   0.080  1.00  0.00     0.145 C 
HETATM   14  C4  UNL     1      -6.821   0.862  -0.898  1.00  0.00     0.145 C 
HETATM   15  N4  UNL     1      -6.474  -0.507  -1.255  1.00  0.00    -0.347 N 
HETATM   16  C7  UNL     1      -5.116  -0.899  -1.397  1.00  0.00     0.237 C 
HETATM   17  O2  UNL     1      -4.828  -1.884  -2.104  1.00  0.00    -0.272 OA
HETATM   18  C8  UNL     1      -4.069  -0.089  -0.674  1.00  0.00     0.227 C 
BRANCH  15  19
HETATM   19  C5  UNL     1      -7.576  -1.421  -1.452  1.00  0.00     0.151 C 
BRANCH  19  20
HETATM   20  C6  UNL     1      -8.090  -1.453  -2.869  1.00  0.00     0.183 C 
BRANCH  20  21
HETATM   21  O1  UNL     1      -7.151  -1.833  -3.799  1.00  0.00    -0.399 OA
ATOM     22  H1  UNL     1      -7.475  -1.853  -4.692  1.00  0.00     0.209 HD
ENDBRANCH  20  21
ENDBRANCH  19  20
ENDBRANCH  15  19
ENDBRANCH   5  12
BRANCH   7  23
HETATM   23  N1  UNL     1      -5.023  -2.207   4.250  1.00  0.00    -0.234 N 
ATOM     24  H12 UNL     1      -5.658  -2.800   3.716  1.00  0.00     0.174 HD
ATOM     25  H11 UNL     1      -4.765  -2.432   5.211  1.00  0.00     0.174 HD
ENDBRANCH   7  23
BRANCH  10  26
HETATM   26  N12 UNL     1      -2.392   1.535   4.420  1.00  0.00    -0.384 N 
ATOM     27 2H12 UNL     1      -2.005   2.372   3.984  1.00  0.00     0.157 HD
ATOM     28 1H12 UNL     1      -2.139   1.305   5.381  1.00  0.00     0.157 HD
ENDBRANCH  10  26
ENDBRANCH   3   4
BRANCH   3  29
HETATM   29  O3  UNL     1      -3.856   3.295   1.907  1.00  0.00    -0.345 OA
ATOM     30  H3  UNL     1      -3.530   4.096   1.513  1.00  0.00     0.219 HD
ENDBRANCH   3  29
ENDBRANCH   1   3
BRANCH   1  31
HETATM   31  C11 UNL     1      -0.737   1.639   1.024  1.00  0.00     0.107 A 
HETATM   32  C12 UNL     1      -0.645   0.301   1.304  1.00  0.00     0.051 A 
HETATM   33  C13 UNL     1       0.617  -0.120   0.882  1.00  0.00     0.036 A 
HETATM   34  C14 UNL     1       1.230   0.971   0.367  1.00  0.00     0.069 A 
HETATM   35  N11 UNL     1       0.422   2.009   0.455  1.00  0.00    -0.340 N 
ATOM     36  H11 UNL     1       0.644   2.953   0.138  1.00  0.00     0.167 HD
BRANCH  34  37
HETATM   37  C15 UNL     1       2.587   1.018  -0.200  1.00  0.00     0.119 A 
HETATM   38  N6  UNL     1       3.255   2.035  -0.714  1.00  0.00    -0.290 N 
HETATM   39  N7  UNL     1       4.432   1.886  -1.154  1.00  0.00    -0.279 N 
ATOM     40  H6  UNL     1       2.815   2.954  -0.757  1.00  0.00     0.188 HD
HETATM   41  C16 UNL     1       4.998   0.677  -1.094  1.00  0.00     0.168 A 
ATOM     42  H7  UNL     1       4.941   2.677  -1.549  1.00  0.00     0.189 HD
HETATM   43  N8  UNL     1       6.189   0.327  -1.491  1.00  0.00    -0.304 N 
HETATM   44  S1  UNL     1       3.739  -0.246  -0.364  1.00  0.00    -0.031 SA
HETATM   45  C17 UNL     1       6.571  -1.025  -1.322  1.00  0.00     0.254 C 
ATOM     46  H8  UNL     1       6.825   1.006  -1.910  1.00  0.00     0.171 HD
HETATM   47  O4  UNL     1       5.983  -1.710  -0.449  1.00  0.00    -0.271 OA
BRANCH  45  48
HETATM   48  C18 UNL     1       7.629  -1.679  -2.117  1.00  0.00     0.275 C 
BRANCH  48  49
HETATM   49  N9  UNL     1       7.854  -3.048  -1.706  1.00  0.00    -0.066 N 
ATOM     50  H93 UNL     1       8.054  -3.105  -0.707  1.00  0.00     0.275 HD
ATOM     51  H92 UNL     1       6.988  -3.587  -1.729  1.00  0.00     0.275 HD
ATOM     52  H91 UNL     1       8.585  -3.500  -2.255  1.00  0.00     0.275 HD
ENDBRANCH  48  49
BRANCH  48  53
HETATM   53  C19 UNL     1       8.935  -0.945  -2.062  1.00  0.00     0.051 C 
BRANCH  53  54
HETATM   54  C20 UNL     1       9.421  -0.861  -0.630  1.00  0.00     0.102 C 
BRANCH  54  55
HETATM   55  C21 UNL     1      10.705  -0.133  -0.616  1.00  0.00     0.231 C 
HETATM   56  N10 UNL     1      11.323   0.101   0.639  1.00  0.00    -0.062 NA
HETATM   57  O5  UNL     1      11.230   0.265  -1.682  1.00  0.00    -0.277 OA
ENDBRANCH  54  55
ENDBRANCH  53  54
ENDBRANCH  48  53
ENDBRANCH  45  48
ENDBRANCH  34  37
ENDBRANCH   1  31
TORSDOF 16
