REMARK  9 active torsions:
REMARK  status: ('A' for Active; 'I' for Inactive)
REMARK    1  A    between atoms: C3_3  and  C4_4 
REMARK       I    between atoms: C4_4  and  N1_6 
REMARK    2  A    between atoms: N1_6  and  C5_8 
REMARK    3  A    between atoms: C6_9  and  C7_10 
REMARK    4  A    between atoms: C7_10  and  N2_11 
REMARK       I    between atoms: N2_11  and  C8_13 
REMARK    5  A    between atoms: N4_15  and  C9_17 
REMARK    6  A    between atoms: C12_23  and  N6_24 
REMARK    7  A    between atoms: N10_33  and  C13_34 
REMARK       I    between atoms: N12_38  and  C15_40 
REMARK    8  A    between atoms: C15_40  and  C16_42 
REMARK    9  A    between atoms: C16_42  and  N13_44 
ROOT
HETATM    1  C1  UNL     1       1.980  -0.997  -0.599  1.00  0.00     0.073 C 
HETATM    2  C2  UNL     1       1.616   0.437  -0.570  1.00  0.00     0.067 A 
HETATM    3  C3  UNL     1       0.470   1.001  -1.036  1.00  0.00     0.142 A 
HETATM    4  N8  UNL     1       0.646   2.350  -0.811  1.00  0.00    -0.279 N 
ATOM      5  H8  UNL     1      -0.027   3.080  -1.044  1.00  0.00     0.189 HD
HETATM    6  N9  UNL     1       1.821   2.546  -0.248  1.00  0.00    -0.234 N 
ATOM      7  H9  UNL     1       2.193   3.457   0.022  1.00  0.00     0.209 HD
HETATM    8  N10 UNL     1       2.448   1.397  -0.083  1.00  0.00    -0.224 N 
ENDROOT
BRANCH   3   9
HETATM    9  C4  UNL     1      -0.752   0.494  -1.600  1.00  0.00     0.275 C 
HETATM   10  O1  UNL     1      -1.442   1.317  -2.262  1.00  0.00    -0.266 OA
HETATM   11  N1  UNL     1      -1.162  -0.832  -1.427  1.00  0.00    -0.332 N 
ATOM     12  H1  UNL     1      -0.562  -1.436  -0.865  1.00  0.00     0.168 HD
BRANCH  11  13
HETATM   13  C5  UNL     1      -2.336  -1.405  -1.964  1.00  0.00     0.089 C 
HETATM   14  C6  UNL     1      -3.211  -0.838  -2.738  1.00  0.00     0.010 C 
BRANCH  14  15
HETATM   15  C7  UNL     1      -4.409  -1.645  -3.200  1.00  0.00     0.151 C 
BRANCH  15  16
HETATM   16  N2  UNL     1      -5.577  -0.942  -2.741  1.00  0.00    -0.361 N 
HETATM   17  C8  UNL     1      -5.891  -0.854  -1.366  1.00  0.00     0.190 C 
HETATM   18  N3  UNL     1      -5.120  -1.473  -0.345  1.00  0.00    -0.063 NA
HETATM   19  N4  UNL     1      -6.931  -0.173  -1.055  1.00  0.00    -0.316 N 
ATOM     20  H4  UNL     1      -7.434   0.243  -1.839  1.00  0.00     0.170 HD
ATOM     21  H2  UNL     1      -6.192  -0.497  -3.423  1.00  0.00     0.162 HD
BRANCH  19  22
HETATM   22  C9  UNL     1      -7.470   0.078   0.202  1.00  0.00     0.128 A 
HETATM   23  C10 UNL     1      -7.665  -0.926   1.118  1.00  0.00     0.123 A 
HETATM   24  C11 UNL     1      -8.237  -0.648   2.369  1.00  0.00     0.263 A 
HETATM   25  O2  UNL     1      -8.438  -1.522   3.242  1.00  0.00    -0.268 OA
HETATM   26  N5  UNL     1      -8.578   0.630   2.624  1.00  0.00    -0.156 N 
HETATM   27  C12 UNL     1      -8.391   1.603   1.744  1.00  0.00     0.680 A 
ATOM     28  H5  UNL     1      -8.995   0.857   3.527  1.00  0.00     0.187 HD
HETATM   29  N7  UNL     1      -7.840   1.320   0.544  1.00  0.00    -0.177 N 
ATOM     30  H7  UNL     1      -7.701   2.077  -0.125  1.00  0.00     0.185 HD
BRANCH  27  31
HETATM   31  N6  UNL     1      -8.768   2.825   2.025  1.00  0.00    -0.234 N 
ATOM     32  H62 UNL     1      -9.184   3.039   2.931  1.00  0.00     0.174 HD
ATOM     33  H61 UNL     1      -8.624   3.574   1.348  1.00  0.00     0.174 HD
ENDBRANCH  27  31
ENDBRANCH  19  22
ENDBRANCH  15  16
ENDBRANCH  14  15
ENDBRANCH  11  13
ENDBRANCH   3   9
BRANCH   8  34
HETATM   34  C13 UNL     1       3.727   1.140   0.476  1.00  0.00     0.185 A 
HETATM   35  N11 UNL     1       4.073   0.254   1.426  1.00  0.00    -0.171 N 
HETATM   36  C14 UNL     1       5.392   0.319   1.677  1.00  0.00     0.688 A 
ATOM     37  H11 UNL     1       3.424  -0.380   1.892  1.00  0.00     0.186 HD
HETATM   38  N12 UNL     1       6.065  -0.381   2.521  1.00  0.00    -0.158 N 
HETATM   39  N14 UNL     1       5.936   1.259   0.887  1.00  0.00    -0.175 N 
HETATM   40  C15 UNL     1       7.458  -0.274   2.748  1.00  0.00     0.266 C 
ATOM     41  H12 UNL     1       5.553  -1.070   3.072  1.00  0.00     0.187 HD
HETATM   42  O3  UNL     1       7.825   0.424   3.725  1.00  0.00    -0.270 OA
HETATM   43  C18 UNL     1       4.927   1.761   0.154  1.00  0.00     0.178 A 
ATOM     44  H14 UNL     1       6.917   1.536   0.850  1.00  0.00     0.185 HD
HETATM   45  N15 UNL     1       5.046   2.799  -0.834  1.00  0.00    -0.078 NA
BRANCH  40  46
HETATM   46  C16 UNL     1       8.475  -0.940   1.894  1.00  0.00     0.271 C 
HETATM   47  C17 UNL     1       9.599  -0.027   1.488  1.00  0.00     0.050 C 
BRANCH  46  48
HETATM   48  N13 UNL     1       7.902  -1.633   0.778  1.00  0.00    -0.067 N 
ATOM     49 3H13 UNL     1       7.194  -2.299   1.087  1.00  0.00     0.275 HD
ATOM     50 2H13 UNL     1       7.314  -1.009   0.225  1.00  0.00     0.275 HD
ATOM     51 1H13 UNL     1       8.600  -2.090   0.192  1.00  0.00     0.275 HD
ENDBRANCH  46  48
ENDBRANCH  40  46
ENDBRANCH   8  34
TORSDOF 9
