REMARK  11 active torsions:
REMARK  status: ('A' for Active; 'I' for Inactive)
REMARK    1  A    between atoms: N1_1  and  C1_4 
REMARK    2  A    between atoms: C2_7  and  C3_8 
REMARK    3  A    between atoms: C3_8  and  C4_9 
REMARK    4  A    between atoms: C4_9  and  C5_10 
REMARK    5  A    between atoms: C5_10  and  O1_11 
REMARK    6  A    between atoms: C5_10  and  N3_13 
REMARK    7  A    between atoms: N3_13  and  C6_15 
REMARK    8  A    between atoms: C8_21  and  N6_22 
REMARK       I    between atoms: N7_25  and  C11_26 
REMARK    9  A    between atoms: C11_26  and  C12_28 
REMARK   10  A    between atoms: C12_28  and  N8_29 
REMARK       I    between atoms: N8_29  and  C13_31 
REMARK       I    between atoms: C13_31  and  N9_33 
REMARK   11  A    between atoms: N9_33  and  N10_35 
ROOT
HETATM    1  C6  UNL     1      -3.429  -0.832  -0.565  1.00  0.00     0.682 A 
HETATM    2  N4  UNL     1      -2.650   0.085   0.070  1.00  0.00    -0.174 N 
ATOM      3  H4  UNL     1      -2.978   0.958   0.483  1.00  0.00     0.186 HD
HETATM    4  C7  UNL     1      -1.389  -0.344   0.064  1.00  0.00     0.167 A 
HETATM    5  N5  UNL     1      -0.226   0.125   0.526  1.00  0.00    -0.173 N 
ATOM      6  H5  UNL     1      -0.215   1.022   1.011  1.00  0.00     0.186 HD
HETATM    7  C8  UNL     1       0.934  -0.546   0.373  1.00  0.00     0.684 A 
HETATM    8  N11 UNL     1       0.908  -1.749  -0.281  1.00  0.00    -0.175 N 
ATOM      9  H11 UNL     1       1.772  -2.276  -0.410  1.00  0.00     0.186 HD
HETATM   10  C15 UNL     1      -0.230  -2.230  -0.745  1.00  0.00     0.146 A 
HETATM   11  N12 UNL     1      -0.244  -3.370  -1.358  1.00  0.00    -0.383 N 
ATOM     12 1H12 UNL     1      -1.124  -3.742  -1.717  1.00  0.00     0.157 HD
ATOM     13 2H12 UNL     1       0.635  -3.874  -1.472  1.00  0.00     0.157 HD
HETATM   14  C16 UNL     1      -1.412  -1.552  -0.592  1.00  0.00     0.138 A 
HETATM   15  N13 UNL     1      -2.673  -1.842  -0.974  1.00  0.00    -0.184 N 
ATOM     16  H13 UNL     1      -2.983  -2.673  -1.477  1.00  0.00     0.184 HD
ENDROOT
BRANCH   7  17
HETATM   17  N6  UNL     1       2.179  -0.117   0.855  1.00  0.00    -0.200 N 
HETATM   18  C9  UNL     1       2.858  -0.617   2.029  1.00  0.00     0.163 C 
HETATM   19  C10 UNL     1       4.290  -0.690   1.487  1.00  0.00     0.148 C 
HETATM   20  N7  UNL     1       4.358   0.325   0.466  1.00  0.00    -0.332 N 
HETATM   21  C11 UNL     1       5.517   0.695  -0.251  1.00  0.00     0.238 C 
HETATM   22  C14 UNL     1       3.036   0.885   0.302  1.00  0.00     0.270 C 
HETATM   23  O2  UNL     1       5.466   1.610  -1.097  1.00  0.00    -0.271 OA
BRANCH  21  24
HETATM   24  C12 UNL     1       6.781  -0.010   0.013  1.00  0.00     0.227 C 
BRANCH  24  25
HETATM   25  N8  UNL     1       7.860   0.502  -0.764  1.00  0.00    -0.333 N 
HETATM   26  C13 UNL     1       8.310   1.832  -0.607  1.00  0.00     0.334 C 
HETATM   27  O3  UNL     1       7.743   2.587   0.243  1.00  0.00    -0.246 OA
HETATM   28  N9  UNL     1       9.377   2.374  -1.361  1.00  0.00    -0.258 N 
ATOM     29  H9  UNL     1       9.841   1.791  -2.058  1.00  0.00     0.191 HD
ATOM     30  H8  UNL     1       8.316  -0.103  -1.447  1.00  0.00     0.164 HD
BRANCH  28  31
HETATM   31  N10 UNL     1       9.808   3.679  -1.176  1.00  0.00    -0.341 N 
ATOM     32 2H10 UNL     1       9.333   4.248  -0.475  1.00  0.00     0.177 HD
ATOM     33 1H10 UNL     1      10.577   4.070  -1.720  1.00  0.00     0.177 HD
ENDBRANCH  28  31
ENDBRANCH  24  25
ENDBRANCH  21  24
ENDBRANCH   7  17
BRANCH   1  34
HETATM   34  N3  UNL     1      -4.700  -0.670  -0.706  1.00  0.00    -0.200 N 
ATOM     35  H3  UNL     1      -5.114   0.180  -0.323  1.00  0.00     0.180 HD
BRANCH  34  36
HETATM   36  C5  UNL     1      -5.567  -1.589  -1.356  1.00  0.00     0.235 C 
BRANCH  36  37
HETATM   37  C4  UNL     1      -6.575  -2.124  -0.400  1.00  0.00     0.060 C 
BRANCH  37  38
HETATM   38  C3  UNL     1      -7.689  -1.240  -0.010  1.00  0.00     0.062 C 
BRANCH  38  39
HETATM   39  C2  UNL     1      -7.299   0.055   0.642  1.00  0.00     0.018 A 
HETATM   40  N2  UNL     1      -7.105   1.164  -0.047  1.00  0.00    -0.340 N 
HETATM   41  C1  UNL     1      -6.768   2.268   0.611  1.00  0.00     0.142 A 
ATOM     42  H2  UNL     1      -7.211   1.173  -1.061  1.00  0.00     0.167 HD
HETATM   43  S1  UNL     1      -6.718   1.764   2.233  1.00  0.00    -0.064 SA
HETATM   44  C17 UNL     1      -7.138   0.126   1.998  1.00  0.00     0.078 A 
BRANCH  41  45
HETATM   45  N1  UNL     1      -6.541   3.457   0.085  1.00  0.00    -0.380 N 
ATOM     46  H12 UNL     1      -6.571   3.760  -0.889  1.00  0.00     0.158 HD
ATOM     47  H11 UNL     1      -6.282   4.305   0.590  1.00  0.00     0.158 HD
ENDBRANCH  41  45
ENDBRANCH  38  39
ENDBRANCH  37  38
ENDBRANCH  36  37
BRANCH  36  48
HETATM   48  O1  UNL     1      -6.059  -1.178  -2.574  1.00  0.00    -0.376 OA
ATOM     49  H1  UNL     1      -5.416  -0.837  -3.184  1.00  0.00     0.212 HD
ENDBRANCH  36  48
ENDBRANCH  34  36
ENDBRANCH   1  34
TORSDOF 11
