REMARK  11 active torsions:
REMARK  status: ('A' for Active; 'I' for Inactive)
REMARK    1  A    between atoms: C2_2  and  N1_3 
REMARK    2  A    between atoms: C2_2  and  C12_27 
REMARK       I    between atoms: N1_3  and  C3_5 
REMARK    3  A    between atoms: C3_5  and  C4_7 
REMARK    4  A    between atoms: C4_7  and  C6_9 
REMARK    5  A    between atoms: C4_7  and  N2_12 
REMARK    6  A    between atoms: C6_9  and  O2_10 
REMARK       I    between atoms: N2_12  and  C7_14 
REMARK    7  A    between atoms: C7_14  and  C8_16 
REMARK    8  A    between atoms: C8_16  and  N3_17 
REMARK       I    between atoms: N3_17  and  C9_19 
REMARK    9  A    between atoms: C9_19  and  C10_21 
REMARK   10  A    between atoms: C10_21  and  N4_24 
REMARK   11  A    between atoms: C13_30  and  C14_31 
ROOT
HETATM    1  C4  UNL     1       1.274  -0.992  -0.208  1.00  0.00     0.131 C 
HETATM    2  C5  UNL     1       1.757  -2.426  -0.163  1.00  0.00     0.051 C 
ENDROOT
BRANCH   1   3
HETATM    3  C3  UNL     1      -0.035  -0.960  -0.982  1.00  0.00     0.248 C 
HETATM    4  N1  UNL     1      -1.171  -1.650  -0.494  1.00  0.00    -0.347 N 
ATOM      5  H1  UNL     1      -1.112  -2.171   0.381  1.00  0.00     0.163 HD
HETATM    6  O1  UNL     1      -0.029  -0.300  -2.043  1.00  0.00    -0.271 OA
BRANCH   4   7
HETATM    7  C2  UNL     1      -2.394  -1.619  -1.219  1.00  0.00     0.155 C 
HETATM    8  C1  UNL     1      -2.818  -3.003  -1.660  1.00  0.00     0.041 C 
BRANCH   7   9
HETATM    9  C12 UNL     1      -3.502  -1.026  -0.398  1.00  0.00     0.148 A 
HETATM   10  N5  UNL     1      -4.397  -0.114  -0.820  1.00  0.00    -0.338 N 
HETATM   11  C13 UNL     1      -5.241   0.183   0.192  1.00  0.00     0.060 A 
ATOM     12  H5  UNL     1      -4.432   0.289  -1.756  1.00  0.00     0.167 HD
HETATM   13  C18 UNL     1      -4.816  -0.591   1.252  1.00  0.00     0.147 A 
HETATM   14 BR1  UNL     1      -5.593  -0.636   2.989  1.00  0.00    -0.021 Br
HETATM   15  O7  UNL     1      -3.784  -1.284   0.840  1.00  0.00    -0.286 OA
BRANCH  11  16
HETATM   16  C14 UNL     1      -6.394   1.149   0.174  1.00  0.00    -0.005 C 
HETATM   17  C15 UNL     1      -7.696   0.479   0.478  1.00  0.00     0.021 C 
HETATM   18  C16 UNL     1      -6.487   1.703  -1.251  1.00  0.00     0.021 C 
HETATM   19  C17 UNL     1      -6.141   2.315   1.085  1.00  0.00     0.021 C 
ENDBRANCH  11  16
ENDBRANCH   7   9
ENDBRANCH   4   7
ENDBRANCH   1   3
BRANCH   1  20
HETATM   20  C6  UNL     1       1.001  -0.439   1.175  1.00  0.00     0.204 C 
BRANCH  20  21
HETATM   21  O2  UNL     1       2.039  -0.347   2.027  1.00  0.00    -0.398 OA
ATOM     22  H2  UNL     1       1.868  -0.000   2.895  1.00  0.00     0.209 HD
ENDBRANCH  20  21
ENDBRANCH   1  20
BRANCH   1  23
HETATM   23  N2  UNL     1       2.221  -0.203  -0.957  1.00  0.00    -0.340 N 
HETATM   24  C7  UNL     1       3.598  -0.058  -0.671  1.00  0.00     0.236 C 
HETATM   25  O3  UNL     1       4.117  -0.640   0.291  1.00  0.00    -0.272 OA
ATOM     26  H2  UNL     1       1.863   0.298  -1.770  1.00  0.00     0.163 HD
BRANCH  24  27
HETATM   27  C8  UNL     1       4.420   0.815  -1.555  1.00  0.00     0.225 C 
BRANCH  27  28
HETATM   28  N3  UNL     1       5.811   0.881  -1.102  1.00  0.00    -0.349 N 
HETATM   29  C9  UNL     1       6.112   1.439   0.158  1.00  0.00     0.268 C 
HETATM   30  O4  UNL     1       5.123   1.881   0.864  1.00  0.00    -0.269 OA
ATOM     31  H3  UNL     1       6.560   0.525  -1.696  1.00  0.00     0.163 HD
BRANCH  29  32
HETATM   32  C10 UNL     1       7.417   1.584   0.782  1.00  0.00     0.247 C 
HETATM   33  C11 UNL     1       7.533   0.618   1.977  1.00  0.00     0.074 C 
HETATM   34 CL1  UNL     1       7.560   3.236   1.493  1.00  0.00    -0.079 Cl
BRANCH  32  35
HETATM   35  N4  UNL     1       8.531   1.399  -0.053  1.00  0.00    -0.120 N 
HETATM   36  O5  UNL     1       8.544   1.219  -1.252  1.00  0.00    -0.534 OA
HETATM   37  O6  UNL     1       9.792   1.444   0.565  1.00  0.00    -0.534 OA
ENDBRANCH  32  35
ENDBRANCH  29  32
ENDBRANCH  27  28
ENDBRANCH  24  27
ENDBRANCH   1  23
TORSDOF 11
