REMARK  16 active torsions:
REMARK  status: ('A' for Active; 'I' for Inactive)
REMARK    1  A    between atoms: C2_2  and  C3_3 
REMARK    2  A    between atoms: C3_3  and  N1_4 
REMARK    3  A    between atoms: N1_4  and  C4_5 
REMARK    4  A    between atoms: N1_4  and  C6_8 
REMARK    5  A    between atoms: C4_5  and  C5_6 
REMARK    6  A    between atoms: C6_8  and  O1_9 
REMARK    7  A    between atoms: C6_8  and  C7_11 
REMARK    8  A    between atoms: C8_12  and  C9_13 
REMARK    9  A    between atoms: C11_18  and  N3_19 
REMARK   10  A    between atoms: N3_19  and  C12_21 
REMARK   11  A    between atoms: C12_21  and  O4_22 
REMARK   12  A    between atoms: C12_21  and  C13_24 
REMARK   13  A    between atoms: C13_24  and  N4_25 
REMARK   14  A    between atoms: C13_24  and  C15_29 
REMARK   15  A    between atoms: N4_25  and  O5_27 
REMARK   16  A    between atoms: C17_32  and  N5_33 
ROOT
HETATM    1  C7  UNL     1      -2.202   0.677  -0.029  1.00  0.00     0.035 C 
HETATM    2  C8  UNL     1      -1.484  -0.354   0.188  1.00  0.00     0.120 C 
HETATM    3  N2  UNL     1      -0.105  -0.384   0.636  1.00  0.00    -0.357 N 
HETATM    4  C10 UNL     1       1.026  -1.075   1.180  1.00  0.00     0.152 C 
HETATM    5  C11 UNL     1       1.808  -0.274   0.080  1.00  0.00     0.134 C 
HETATM    6  C18 UNL     1       0.847   0.722   0.562  1.00  0.00     0.171 C 
HETATM    7  S2  UNL     1       0.090   1.937  -0.512  1.00  0.00    -0.137 SA
HETATM    8  C19 UNL     1      -1.532   2.036   0.350  1.00  0.00     0.121 C 
ENDROOT
BRANCH   5   9
HETATM    9  N3  UNL     1       3.219  -0.089   0.455  1.00  0.00    -0.360 N 
ATOM     10  H3  UNL     1       3.432   0.348   1.352  1.00  0.00     0.162 HD
BRANCH   9  11
HETATM   11  C12 UNL     1       4.266  -0.480  -0.353  1.00  0.00     0.168 C 
BRANCH  11  12
HETATM   12  O4  UNL     1       3.889  -1.009  -1.485  1.00  0.00    -0.344 OA
ATOM     13  H4  UNL     1       4.610  -1.278  -2.042  1.00  0.00     0.219 HD
ENDBRANCH  11  12
BRANCH  11  14
HETATM   14  C13 UNL     1       5.656  -0.407  -0.155  1.00  0.00     0.132 C 
BRANCH  14  15
HETATM   15  N4  UNL     1       6.460  -0.799  -1.151  1.00  0.00    -0.261 N 
ATOM     16  H4  UNL     1       7.469  -0.747  -1.009  1.00  0.00     0.194 HD
BRANCH  15  17
HETATM   17  O5  UNL     1       6.001  -1.260  -2.335  1.00  0.00    -0.285 OA
HETATM   18  C14 UNL     1       6.440  -0.612  -3.526  1.00  0.00     0.237 C 
ENDBRANCH  15  17
ENDBRANCH  14  15
BRANCH  14  19
HETATM   19  C15 UNL     1       6.405   0.089   1.038  1.00  0.00     0.074 A 
HETATM   20  C16 UNL     1       5.817   0.173   2.266  1.00  0.00     0.085 A 
HETATM   21  S1  UNL     1       7.059   0.894   3.223  1.00  0.00    -0.064 SA
HETATM   22  C17 UNL     1       8.236   1.038   2.013  1.00  0.00     0.142 A 
HETATM   23  N6  UNL     1       7.641   0.538   0.940  1.00  0.00    -0.335 N 
ATOM     24  H6  UNL     1       8.134   0.501   0.048  1.00  0.00     0.168 HD
BRANCH  22  25
HETATM   25  N5  UNL     1       9.459   1.527   2.088  1.00  0.00    -0.380 N 
ATOM     26  H52 UNL     1       9.917   1.912   2.914  1.00  0.00     0.158 HD
ATOM     27  H51 UNL     1      10.168   1.614   1.359  1.00  0.00     0.158 HD
ENDBRANCH  22  25
ENDBRANCH  14  19
ENDBRANCH  11  14
ENDBRANCH   9  11
ENDBRANCH   5   9
BRANCH   2  28
HETATM   28  C9  UNL     1      -2.020  -1.697  -0.070  1.00  0.00     0.227 C 
HETATM   29  O2  UNL     1      -1.310  -2.722   0.320  1.00  0.00    -0.643 OA
HETATM   30  O3  UNL     1      -3.145  -2.083  -0.680  1.00  0.00    -0.643 OA
ENDBRANCH   2  28
BRANCH   1  31
HETATM   31  C6  UNL     1      -3.520   0.879  -0.462  1.00  0.00     0.147 C 
BRANCH  31  32
HETATM   32  N1  UNL     1      -4.802   0.403  -0.612  1.00  0.00    -0.360 N 
BRANCH  32  33
HETATM   33  C3  UNL     1      -5.617  -0.563   0.072  1.00  0.00     0.124 C 
BRANCH  33  34
HETATM   34  C2  UNL     1      -6.482   0.230   1.104  1.00  0.00     0.015 C 
HETATM   35  C1  UNL     1      -7.344  -0.755   1.834  1.00  0.00     0.006 C 
ENDBRANCH  33  34
ENDBRANCH  32  33
BRANCH  32  36
HETATM   36  C4  UNL     1      -5.552   0.988  -1.786  1.00  0.00     0.140 C 
BRANCH  36  37
HETATM   37  C5  UNL     1      -5.327   0.150  -2.997  1.00  0.00     0.134 C 
HETATM   38 CL1  UNL     1      -6.212   0.850  -4.362  1.00  0.00    -0.129 Cl
ENDBRANCH  36  37
ENDBRANCH  32  36
ENDBRANCH  31  32
BRANCH  31  39
HETATM   39  O1  UNL     1      -3.524   2.200  -0.968  1.00  0.00    -0.346 OA
ATOM     40  H1  UNL     1      -2.639   2.529  -0.864  1.00  0.00     0.219 HD
ENDBRANCH  31  39
ENDBRANCH   1  31
TORSDOF 16
