REMARK  9 active torsions:
REMARK  status: ('A' for Active; 'I' for Inactive)
REMARK    1  A    between atoms: C10_11  and  C11_12 
REMARK    2  A    between atoms: C11_12  and  N2_13 
REMARK    3  A    between atoms: N2_13  and  C12_14 
REMARK    4  A    between atoms: N2_13  and  C16_18 
REMARK    5  A    between atoms: C12_14  and  C13_15 
REMARK    6  A    between atoms: C13_15  and  C14_16 
REMARK    7  A    between atoms: C16_18  and  C17_19 
REMARK    8  A    between atoms: C17_19  and  C18_20 
REMARK    9  A    between atoms: C20_22  and  C21_23 
ROOT
HETATM    1  C1  UNL     1      -1.168  -1.164   2.138  1.00  0.00     0.015 C 
HETATM    2  C2  UNL     1      -0.191  -0.989   1.298  1.00  0.00    -0.078 C 
HETATM    3  C3  UNL     1       0.944  -1.944   1.335  1.00  0.00     0.060 C 
HETATM    4  C4  UNL     1       2.319  -1.343   1.237  1.00  0.00     0.096 C 
HETATM    5  N1  UNL     1       2.845  -1.309   2.575  1.00  0.00    -0.407 N 
HETATM    6  C5  UNL     1       3.897  -2.223   2.851  1.00  0.00     0.144 C 
HETATM    7  C6  UNL     1       2.994  -0.024   3.150  1.00  0.00     0.079 C 
HETATM    8  C7  UNL     1       1.682   0.657   3.302  1.00  0.00     0.025 C 
HETATM    9  C8  UNL     1       1.081   1.303   2.137  1.00  0.00     0.009 C 
HETATM   10  C9  UNL     1       1.237   0.791   0.764  1.00  0.00     0.014 C 
HETATM   11  C10 UNL     1      -0.047   0.064   0.275  1.00  0.00     0.057 C 
HETATM   12  C20 UNL     1       2.418  -0.037   0.493  1.00  0.00     0.012 C 
HETATM   13  C28 UNL     1       3.639   0.805   0.944  1.00  0.00     0.019 C 
HETATM   14  C29 UNL     1       3.900   0.878   2.371  1.00  0.00     0.026 C 
ENDROOT
BRANCH  11  15
HETATM   15  C11 UNL     1      -1.079   1.043   0.041  1.00  0.00     0.072 C 
BRANCH  15  16
HETATM   16  N2  UNL     1      -2.402   0.791  -0.359  1.00  0.00    -0.373 N 
BRANCH  16  17
HETATM   17  C12 UNL     1      -2.712   0.381  -1.651  1.00  0.00     0.063 C 
BRANCH  17  18
HETATM   18  C13 UNL     1      -2.439  -0.993  -2.142  1.00  0.00     0.044 C 
BRANCH  18  19
HETATM   19  C14 UNL     1      -3.285  -1.983  -1.320  1.00  0.00     0.001 C 
HETATM   20  C15 UNL     1      -3.098  -3.407  -1.805  1.00  0.00     0.005 C 
ENDBRANCH  18  19
ENDBRANCH  17  18
ENDBRANCH  16  17
BRANCH  16  21
HETATM   21  C16 UNL     1      -3.280   1.780   0.148  1.00  0.00     0.127 C 
BRANCH  21  22
HETATM   22  C17 UNL     1      -4.730   1.683  -0.088  1.00  0.00     0.020 C 
BRANCH  22  23
HETATM   23  C18 UNL     1      -5.347   2.912   0.644  1.00  0.00    -0.003 C 
HETATM   24  C19 UNL     1      -6.844   2.923   0.482  1.00  0.00     0.005 C 
ENDBRANCH  22  23
ENDBRANCH  21  22
ENDBRANCH  16  21
ENDBRANCH  15  16
ENDBRANCH  11  15
BRANCH  12  25
HETATM   25  C21 UNL     1       2.787  -0.261  -0.924  1.00  0.00    -0.044 A 
HETATM   26  C22 UNL     1       3.882  -1.088  -1.149  1.00  0.00     0.011 A 
HETATM   27  C23 UNL     1       4.327  -1.346  -2.450  1.00  0.00     0.040 A 
HETATM   28  C24 UNL     1       3.712  -0.803  -3.544  1.00  0.00     0.105 A 
HETATM   29  C25 UNL     1       2.626   0.017  -3.323  1.00  0.00     0.105 A 
HETATM   30  O2  UNL     1       3.878  -0.845  -4.928  1.00  0.00    -0.323 OA
HETATM   31  C26 UNL     1       2.199   0.263  -2.040  1.00  0.00     0.047 A 
HETATM   32  O1  UNL     1       2.148   0.462  -4.540  1.00  0.00    -0.323 OA
HETATM   33  C27 UNL     1       3.184   0.254  -5.522  1.00  0.00     0.352 C 
ENDBRANCH  12  25
TORSDOF 9
