REMARK  9 active torsions:
REMARK  status: ('A' for Active; 'I' for Inactive)
REMARK    1  A    between atoms: N1_6  and  C6_7 
REMARK    2  A    between atoms: C6_7  and  C7_8 
REMARK    3  A    between atoms: C7_8  and  C8_9 
REMARK    4  A    between atoms: C8_9  and  C9_10 
REMARK    5  A    between atoms: C9_10  and  O1_11 
REMARK    6  A    between atoms: O1_11  and  C10_12 
REMARK    7  A    between atoms: C13_17  and  C14_18 
REMARK    8  A    between atoms: C19_23  and  C20_24 
REMARK    9  A    between atoms: C20_24  and  N3_25 
ROOT
HETATM    1  C10 UNL     1      -0.244  -1.034   0.170  1.00  0.00     0.149 C 
HETATM    2  N2  UNL     1      -0.402   0.233   0.128  1.00  0.00    -0.367 N 
ATOM      3  H2  UNL     1       0.317   0.755   0.629  1.00  0.00     0.161 HD
HETATM    4  C11 UNL     1      -1.405   1.068  -0.494  1.00  0.00     0.163 C 
HETATM    5  C12 UNL     1      -2.781   0.579  -0.291  1.00  0.00     0.001 A 
HETATM    6  C13 UNL     1      -3.671   1.621  -0.295  1.00  0.00    -0.044 A 
HETATM    7  C17 UNL     1      -5.014   1.273  -0.159  1.00  0.00     0.009 A 
HETATM    8  C18 UNL     1      -5.431  -0.049  -0.025  1.00  0.00     0.016 A 
HETATM    9  C19 UNL     1      -4.540  -1.083  -0.019  1.00  0.00     0.013 A 
HETATM   10  C23 UNL     1      -3.187  -0.739  -0.157  1.00  0.00     0.090 A 
HETATM   11  O2  UNL     1      -2.455  -1.922  -0.128  1.00  0.00    -0.331 OA
HETATM   12  C24 UNL     1      -1.103  -2.073  -0.447  1.00  0.00     0.125 C 
HETATM   13  C25 UNL     1      -0.684  -3.432   0.083  1.00  0.00     0.055 C 
HETATM   14  C26 UNL     1      -0.916  -2.122  -1.951  1.00  0.00     0.055 C 
ENDROOT
BRANCH   1  15
HETATM   15  O1  UNL     1       0.876  -1.381   0.891  1.00  0.00    -0.337 OA
BRANCH  15  16
HETATM   16  C9  UNL     1       2.128  -0.826   0.792  1.00  0.00     0.177 C 
BRANCH  16  17
HETATM   17  C8  UNL     1       2.337   0.606   1.089  1.00  0.00     0.028 C 
BRANCH  17  18
HETATM   18  C7  UNL     1       3.794   1.033   0.946  1.00  0.00     0.022 C 
BRANCH  18  19
HETATM   19  C6  UNL     1       4.321   0.846  -0.432  1.00  0.00     0.128 C 
BRANCH  19  20
HETATM   20  N1  UNL     1       5.703   1.278  -0.479  1.00  0.00    -0.360 N 
HETATM   21  C5  UNL     1       5.992   2.558  -0.748  1.00  0.00     0.091 A 
HETATM   22  C4  UNL     1       7.288   2.980  -0.796  1.00  0.00     0.018 A 
HETATM   23  C3  UNL     1       8.301   2.088  -0.567  1.00  0.00     0.010 A 
HETATM   24  C2  UNL     1       8.028   0.779  -0.291  1.00  0.00    -0.040 A 
HETATM   25  C1  UNL     1       9.113  -0.227  -0.037  1.00  0.00     0.050 C 
HETATM   26  C27 UNL     1       6.699   0.383  -0.250  1.00  0.00     0.013 A 
HETATM   27  C28 UNL     1       6.409  -1.025   0.044  1.00  0.00     0.069 C 
ENDBRANCH  19  20
ENDBRANCH  18  19
ENDBRANCH  17  18
ENDBRANCH  16  17
ENDBRANCH  15  16
ENDBRANCH   1  15
BRANCH   6  28
HETATM   28  C14 UNL     1      -3.342   3.054  -0.392  1.00  0.00     0.011 C 
HETATM   29  C15 UNL     1      -4.614   3.824  -0.792  1.00  0.00     0.015 C 
HETATM   30  C16 UNL     1      -3.061   3.559   1.034  1.00  0.00     0.015 C 
ENDBRANCH   6  28
BRANCH   9  31
HETATM   31  C20 UNL     1      -4.930  -2.501   0.113  1.00  0.00     0.098 C 
BRANCH  31  32
HETATM   32  N3  UNL     1      -6.279  -2.814   0.263  1.00  0.00    -0.398 N 
HETATM   33  C21 UNL     1      -6.990  -2.388   1.403  1.00  0.00     0.148 C 
HETATM   34  C22 UNL     1      -7.036  -3.190  -0.873  1.00  0.00     0.148 C 
ENDBRANCH  31  32
ENDBRANCH   9  31
TORSDOF 9
