REMARK  12 active torsions:
REMARK  status: ('A' for Active; 'I' for Inactive)
REMARK    1  A    between atoms: C2_2  and  C3_3 
REMARK    2  A    between atoms: N1_6  and  C6_8 
REMARK    3  A    between atoms: C6_8  and  N2_10 
REMARK    4  A    between atoms: N2_10  and  C7_11 
REMARK    5  A    between atoms: N2_10  and  C12_17 
REMARK    6  A    between atoms: C7_11  and  C8_12 
REMARK    7  A    between atoms: C8_12  and  C9_13 
REMARK    8  A    between atoms: C9_13  and  N3_14 
REMARK    9  A    between atoms: C12_17  and  C13_18 
REMARK   10  A    between atoms: C13_18  and  C14_19 
REMARK   11  A    between atoms: C14_19  and  C15_20 
REMARK   12  A    between atoms: C23_29  and  O2_30 
ROOT
HETATM    1  C3  UNL     1       2.467  -0.291  -1.470  1.00  0.00     0.014 C 
HETATM    2  C4  UNL     1       2.786  -0.440  -0.216  1.00  0.00     0.006 A 
HETATM    3  C5  UNL     1       2.092   0.314   0.885  1.00  0.00     0.097 A 
HETATM    4  N1  UNL     1       1.183   1.132   0.885  1.00  0.00    -0.329 N 
ATOM      5  H1  UNL     1       1.026   1.385   1.860  1.00  0.00     0.168 HD
HETATM    6  C19 UNL     1       2.765  -0.127   2.126  1.00  0.00     0.210 A 
HETATM    7  O1  UNL     1       2.485   0.268   3.289  1.00  0.00    -0.285 OA
HETATM    8  C20 UNL     1       3.797  -1.085   1.801  1.00  0.00     0.028 A 
HETATM    9  C21 UNL     1       4.670  -1.757   2.641  1.00  0.00     0.019 A 
HETATM   10  C22 UNL     1       5.578  -2.635   2.094  1.00  0.00     0.038 A 
HETATM   11  C23 UNL     1       5.639  -2.861   0.739  1.00  0.00     0.069 A 
HETATM   12  C25 UNL     1       4.739  -2.162  -0.079  1.00  0.00     0.050 A 
HETATM   13  C26 UNL     1       3.808  -1.270   0.413  1.00  0.00    -0.007 A 
ENDROOT
BRANCH   4  14
HETATM   14  C6  UNL     1       0.296   1.847   0.160  1.00  0.00     0.178 C 
HETATM   15  S1  UNL     1       0.712   3.512   0.127  1.00  0.00    -0.040 SA
BRANCH  14  16
HETATM   16  N2  UNL     1      -0.861   1.546  -0.548  1.00  0.00    -0.338 N 
BRANCH  16  17
HETATM   17  C7  UNL     1      -1.536   2.679  -1.254  1.00  0.00     0.132 C 
BRANCH  17  18
HETATM   18  C8  UNL     1      -2.849   3.027  -0.651  1.00  0.00     0.050 C 
BRANCH  18  19
HETATM   19  C9  UNL     1      -3.400   4.198  -1.484  1.00  0.00     0.273 C 
BRANCH  19  20
HETATM   20  N3  UNL     1      -4.673   4.628  -0.995  1.00  0.00     0.080 N 
HETATM   21  C10 UNL     1      -5.173   5.696  -1.806  1.00  0.00     0.309 C 
HETATM   22  C11 UNL     1      -5.572   3.497  -0.962  1.00  0.00     0.309 C 
ENDBRANCH  19  20
ENDBRANCH  18  19
ENDBRANCH  17  18
ENDBRANCH  16  17
BRANCH  16  23
HETATM   23  C12 UNL     1      -1.497   0.309  -0.747  1.00  0.00     0.066 C 
BRANCH  23  24
HETATM   24  C13 UNL     1      -1.279  -0.889   0.065  1.00  0.00     0.045 C 
BRANCH  24  25
HETATM   25  C14 UNL     1      -1.715  -0.765   1.500  1.00  0.00     0.013 C 
BRANCH  25  26
HETATM   26  C15 UNL     1      -1.546  -2.012   2.311  1.00  0.00    -0.051 C 
HETATM   27  C16 UNL     1      -2.034  -1.696   3.721  1.00  0.00     0.014 C 
HETATM   28  C17 UNL     1      -0.165  -2.564   2.386  1.00  0.00     0.014 C 
HETATM   29  C18 UNL     1      -2.483  -3.069   1.711  1.00  0.00     0.014 C 
ENDBRANCH  25  26
ENDBRANCH  24  25
ENDBRANCH  23  24
ENDBRANCH  16  23
ENDBRANCH  14  16
ENDBRANCH   4  14
BRANCH   1  30
HETATM   30  C2  UNL     1       2.958  -0.875  -2.681  1.00  0.00    -0.009 C 
HETATM   31  C1  UNL     1       2.456  -0.550  -3.878  1.00  0.00     0.011 C 
ENDBRANCH   1  30
BRANCH  11  32
HETATM   32  O2  UNL     1       6.536  -3.731   0.194  1.00  0.00    -0.356 OA
HETATM   33  C24 UNL     1       6.688  -4.039  -1.157  1.00  0.00     0.210 C 
ENDBRANCH  11  32
TORSDOF 12
