REMARK  9 active torsions:
REMARK  status: ('A' for Active; 'I' for Inactive)
REMARK    1  A    between atoms: C2_2  and  C3_3 
REMARK    2  A    between atoms: C3_3  and  N1_4 
REMARK    3  A    between atoms: C9_12  and  C10_13 
REMARK    4  A    between atoms: C10_13  and  C11_14 
REMARK    5  A    between atoms: C12_15  and  C14_17 
REMARK    6  A    between atoms: C15_18  and  C16_19 
REMARK    7  A    between atoms: C20_23  and  C21_24 
REMARK    8  A    between atoms: C21_24  and  C22_25 
REMARK    9  A    between atoms: C22_25  and  N2_26 
ROOT
HETATM    1  C14 UNL     1      -1.065  -1.570   0.177  1.00  0.00     0.005 C 
HETATM    2  C15 UNL     1      -0.144  -1.240  -0.673  1.00  0.00     0.011 C 
ENDROOT
BRANCH   1   3
HETATM    3  C12 UNL     1      -2.472  -1.174   0.057  1.00  0.00    -0.066 C 
HETATM    4  C11 UNL     1      -3.278  -1.578   0.974  1.00  0.00    -0.016 C 
HETATM    5  C13 UNL     1      -2.876  -0.353  -1.084  1.00  0.00     0.048 C 
BRANCH   4   6
HETATM    6  C10 UNL     1      -4.701  -1.412   1.214  1.00  0.00     0.057 C 
BRANCH   6   7
HETATM    7  C9  UNL     1      -5.449  -0.633   0.252  1.00  0.00     0.010 C 
HETATM    8  C8  UNL     1      -6.055   0.496   0.535  1.00  0.00     0.080 C 
HETATM    9  N1  UNL     1      -6.801   1.254  -0.446  1.00  0.00    -0.311 N 
HETATM   10  C7  UNL     1      -6.029   1.116   1.859  1.00  0.00     0.176 C 
HETATM   11  C4  UNL     1      -7.411   2.470  -0.049  1.00  0.00     0.225 C 
HETATM   12  O1  UNL     1      -7.537   3.411  -0.868  1.00  0.00    -0.273 OA
HETATM   13  C5  UNL     1      -7.903   2.644   1.321  1.00  0.00     0.111 C 
HETATM   14  C6  UNL     1      -7.267   1.765   2.345  1.00  0.00     0.095 C 
HETATM   15  O2  UNL     1      -5.012   1.114   2.571  1.00  0.00    -0.291 OA
BRANCH   9  16
HETATM   16  C3  UNL     1      -6.917   0.790  -1.783  1.00  0.00     0.158 C 
BRANCH  16  17
HETATM   17  C2  UNL     1      -8.099  -0.104  -1.976  1.00  0.00    -0.017 C 
HETATM   18  C1  UNL     1      -8.937  -0.421  -0.989  1.00  0.00     0.008 C 
ENDBRANCH  16  17
ENDBRANCH   9  16
ENDBRANCH   6   7
ENDBRANCH   4   6
ENDBRANCH   1   3
BRANCH   2  19
HETATM   19  C16 UNL     1       1.284  -1.700  -0.458  1.00  0.00     0.078 C 
HETATM   20  C17 UNL     1       1.416  -3.158  -0.897  1.00  0.00     0.051 C 
HETATM   21  C18 UNL     1       1.621  -1.663   1.013  1.00  0.00     0.069 C 
HETATM   22  C19 UNL     1       2.966  -1.098   1.268  1.00  0.00    -0.019 C 
HETATM   23  C20 UNL     1       3.460  -0.150   0.442  1.00  0.00    -0.058 C 
HETATM   24  C28 UNL     1       2.564   0.234  -0.670  1.00  0.00     0.203 C 
HETATM   25  O3  UNL     1       2.101  -0.945  -1.246  1.00  0.00    -0.372 OA
BRANCH  23  26
HETATM   26  C21 UNL     1       4.794   0.430   0.673  1.00  0.00     0.066 C 
BRANCH  26  27
HETATM   27  C22 UNL     1       5.671   0.174  -0.506  1.00  0.00     0.276 C 
BRANCH  27  28
HETATM   28  N2  UNL     1       6.995   0.699  -0.383  1.00  0.00     0.088 N 
HETATM   29  C23 UNL     1       7.733   0.380  -1.593  1.00  0.00     0.272 C 
HETATM   30  C24 UNL     1       8.756   1.484  -1.784  1.00  0.00     0.030 C 
HETATM   31  C25 UNL     1       9.247   1.865  -0.395  1.00  0.00     0.003 C 
HETATM   32  C26 UNL     1       9.186   0.667   0.545  1.00  0.00     0.030 C 
HETATM   33  C27 UNL     1       7.731   0.225   0.745  1.00  0.00     0.272 C 
ENDBRANCH  27  28
ENDBRANCH  26  27
ENDBRANCH  23  26
ENDBRANCH   2  19
TORSDOF 9
