REMARK  11 active torsions:
REMARK  status: ('A' for Active; 'I' for Inactive)
REMARK    1  A    between atoms: N1_2  and  C3_4 
REMARK    2  A    between atoms: C3_4  and  C4_5 
REMARK    3  A    between atoms: C4_5  and  C5_6 
REMARK    4  A    between atoms: C5_6  and  C6_7 
REMARK    5  A    between atoms: C6_7  and  O1_8 
REMARK    6  A    between atoms: O1_8  and  C7_9 
REMARK    7  A    between atoms: C9_11  and  N2_12 
REMARK    8  A    between atoms: C14_17  and  C15_18 
REMARK    9  A    between atoms: C19_22  and  C20_23 
REMARK   10  A    between atoms: C21_24  and  C22_25 
REMARK   11  A    between atoms: C25_28  and  N3_29 
ROOT
HETATM    1  C7  UNL     1      -2.187  -1.298  -0.550  1.00  0.00     0.082 A 
HETATM    2  C8  UNL     1      -3.021  -2.253   0.039  1.00  0.00     0.066 A 
HETATM    3  C9  UNL     1      -2.527  -3.431   0.575  1.00  0.00     0.032 A 
HETATM    4  C12 UNL     1      -1.157  -3.626   0.502  1.00  0.00     0.030 A 
HETATM    5  C13 UNL     1      -0.334  -2.690  -0.076  1.00  0.00     0.017 A 
HETATM    6  C14 UNL     1      -0.792  -1.514  -0.617  1.00  0.00     0.008 A 
ENDROOT
BRANCH   6   7
HETATM    7  C15 UNL     1       0.093  -0.561  -1.268  1.00  0.00    -0.022 A 
HETATM    8  C16 UNL     1      -0.224   0.139  -2.407  1.00  0.00     0.012 A 
HETATM    9  C17 UNL     1       0.651   0.993  -3.031  1.00  0.00     0.002 A 
HETATM   10  C18 UNL     1       1.901   1.195  -2.547  1.00  0.00     0.020 A 
HETATM   11  C19 UNL     1       2.262   0.487  -1.373  1.00  0.00     0.018 A 
HETATM   12  C30 UNL     1       1.377  -0.360  -0.761  1.00  0.00     0.033 A 
BRANCH  11  13
HETATM   13  C20 UNL     1       3.598   0.655  -0.867  1.00  0.00    -0.061 C 
HETATM   14  C21 UNL     1       4.753   0.804  -0.481  1.00  0.00    -0.061 C 
BRANCH  14  15
HETATM   15  C22 UNL     1       6.114   0.984  -0.075  1.00  0.00     0.018 A 
HETATM   16  C23 UNL     1       6.785   0.201   0.827  1.00  0.00     0.023 A 
HETATM   17  C24 UNL     1       8.105   0.407   1.176  1.00  0.00     0.031 A 
HETATM   18  C25 UNL     1       8.808   1.443   0.604  1.00  0.00     0.029 A 
HETATM   19  C28 UNL     1       8.172   2.249  -0.305  1.00  0.00     0.031 A 
HETATM   20  C29 UNL     1       6.867   2.025  -0.633  1.00  0.00     0.023 A 
BRANCH  18  21
HETATM   21  N3  UNL     1      10.179   1.684   0.935  1.00  0.00    -0.390 N 
HETATM   22  C26 UNL     1      10.464   2.511   2.082  1.00  0.00     0.149 C 
HETATM   23  C27 UNL     1      11.288   1.154   0.178  1.00  0.00     0.149 C 
ENDBRANCH  18  21
ENDBRANCH  14  15
ENDBRANCH  11  13
ENDBRANCH   6   7
BRANCH   1  24
HETATM   24  O1  UNL     1      -2.648  -0.151  -1.066  1.00  0.00    -0.350 OA
BRANCH  24  25
HETATM   25  C6  UNL     1      -3.844   0.419  -1.216  1.00  0.00     0.175 C 
BRANCH  25  26
HETATM   26  C5  UNL     1      -4.628   0.719   0.018  1.00  0.00     0.028 C 
BRANCH  26  27
HETATM   27  C4  UNL     1      -5.969   1.363  -0.356  1.00  0.00     0.032 C 
BRANCH  27  28
HETATM   28  C3  UNL     1      -6.721   1.605   0.930  1.00  0.00     0.271 C 
BRANCH  28  29
HETATM   29  N1  UNL     1      -8.015   2.204   0.646  1.00  0.00     0.080 N 
HETATM   30  C1  UNL     1      -8.899   1.274  -0.036  1.00  0.00     0.309 C 
HETATM   31  C2  UNL     1      -7.880   3.441  -0.076  1.00  0.00     0.309 C 
ENDBRANCH  28  29
ENDBRANCH  27  28
ENDBRANCH  26  27
ENDBRANCH  25  26
ENDBRANCH  24  25
ENDBRANCH   1  24
BRANCH   3  32
HETATM   32  N2  UNL     1      -3.386  -4.391   1.174  1.00  0.00    -0.389 N 
HETATM   33  C10 UNL     1      -3.917  -4.104   2.491  1.00  0.00     0.149 C 
HETATM   34  C11 UNL     1      -3.721  -5.627   0.506  1.00  0.00     0.149 C 
ENDBRANCH   3  32
TORSDOF 11
