REMARK  10 active torsions:
REMARK  status: ('A' for Active; 'I' for Inactive)
REMARK    1  A    between atoms: N1_2  and  C2_3 
REMARK    2  A    between atoms: N1_2  and  C8_9 
REMARK    3  A    between atoms: N2_12  and  C11_13 
REMARK    4  A    between atoms: C11_13  and  C12_14 
REMARK    5  A    between atoms: C12_14  and  C13_15 
REMARK    6  A    between atoms: C13_15  and  C14_16 
REMARK    7  A    between atoms: C14_16  and  N3_17 
REMARK    8  A    between atoms: C17_20  and  O1_21 
REMARK    9  A    between atoms: O1_21  and  C18_22 
REMARK   10  A    between atoms: N4_33  and  O2_34 
ROOT
HETATM    1  C8  UNL     1       3.591  -0.990  -0.970  1.00  0.00     0.067 A 
HETATM    2  C9  UNL     1       2.380  -1.687  -0.818  1.00  0.00     0.049 A 
HETATM    3  C10 UNL     1       1.187  -1.132  -1.200  1.00  0.00     0.093 A 
HETATM    4  N2  UNL     1       1.099   0.105  -1.741  1.00  0.00    -0.355 N 
HETATM    5  C25 UNL     1       2.245   0.785  -1.892  1.00  0.00     0.066 A 
HETATM    6  C26 UNL     1       2.193   2.057  -2.423  1.00  0.00     0.033 A 
HETATM    7  C27 UNL     1       3.329   2.835  -2.597  1.00  0.00     0.022 A 
HETATM    8  C28 UNL     1       4.521   2.268  -2.208  1.00  0.00     0.123 A 
HETATM    9  N4  UNL     1       4.595   1.021  -1.684  1.00  0.00    -0.232 N 
HETATM   10  C29 UNL     1       3.496   0.263  -1.516  1.00  0.00     0.115 A 
ENDROOT
BRANCH   4  11
HETATM   11  C11 UNL     1      -0.193   0.644  -2.145  1.00  0.00     0.129 C 
BRANCH  11  12
HETATM   12  C12 UNL     1      -0.872   1.436  -1.075  1.00  0.00     0.022 C 
BRANCH  12  13
HETATM   13  C13 UNL     1      -2.186   1.921  -1.646  1.00  0.00     0.022 C 
BRANCH  13  14
HETATM   14  C14 UNL     1      -3.000   2.743  -0.707  1.00  0.00     0.128 C 
BRANCH  14  15
HETATM   15  N3  UNL     1      -3.322   1.985   0.461  1.00  0.00    -0.364 N 
HETATM   16  C15 UNL     1      -2.628   1.900   1.597  1.00  0.00     0.093 A 
HETATM   17  C16 UNL     1      -3.297   1.059   2.463  1.00  0.00     0.056 A 
HETATM   18  C17 UNL     1      -4.432   0.633   1.804  1.00  0.00     0.092 A 
HETATM   19  C24 UNL     1      -4.441   1.211   0.564  1.00  0.00     0.127 A 
BRANCH  18  20
HETATM   20  O1  UNL     1      -5.349  -0.235   2.385  1.00  0.00    -0.309 OA
BRANCH  20  21
HETATM   21  C18 UNL     1      -6.493  -0.665   1.722  1.00  0.00     0.076 A 
HETATM   22  C19 UNL     1      -6.465  -1.808   0.955  1.00  0.00     0.037 A 
HETATM   23  C20 UNL     1      -7.590  -2.237   0.299  1.00  0.00     0.003 A 
HETATM   24  C21 UNL     1      -8.774  -1.546   0.384  1.00  0.00     0.000 A 
HETATM   25  C22 UNL     1      -8.819  -0.381   1.160  1.00  0.00     0.003 A 
HETATM   26  C23 UNL     1      -7.674   0.034   1.814  1.00  0.00     0.037 A 
ENDBRANCH  20  21
ENDBRANCH  18  20
ENDBRANCH  14  15
ENDBRANCH  13  14
ENDBRANCH  12  13
ENDBRANCH  11  12
ENDBRANCH   4  11
BRANCH   1  27
HETATM   27  N1  UNL     1       4.811  -1.623  -0.615  1.00  0.00    -0.349 N 
HETATM   28  C1  UNL     1       5.576  -2.271  -1.665  1.00  0.00     0.156 C 
BRANCH  27  29
HETATM   29  C2  UNL     1       5.292  -1.647   0.721  1.00  0.00     0.034 A 
HETATM   30  C3  UNL     1       4.611  -1.039   1.760  1.00  0.00     0.029 A 
HETATM   31  C4  UNL     1       5.072  -1.061   3.057  1.00  0.00     0.002 A 
HETATM   32  C5  UNL     1       6.254  -1.706   3.353  1.00  0.00     0.000 A 
HETATM   33  C6  UNL     1       6.928  -2.308   2.329  1.00  0.00     0.002 A 
HETATM   34  C7  UNL     1       6.462  -2.283   1.030  1.00  0.00     0.029 A 
ENDBRANCH  27  29
ENDBRANCH   1  27
BRANCH   9  35
HETATM   35  O2  UNL     1       5.846   0.595  -1.313  1.00  0.00    -0.283 OA
ATOM     36  H2  UNL     1       5.898  -0.280  -0.946  1.00  0.00     0.245 HD
ENDBRANCH   9  35
TORSDOF 10
