REMARK  5 active torsions:
REMARK  status: ('A' for Active; 'I' for Inactive)
REMARK    1  A    between atoms: C4_4  and  C5_5 
REMARK    2  A    between atoms: C6_6  and  C7_7 
REMARK    3  A    between atoms: C9_9  and  C10_10 
REMARK    4  A    between atoms: C10_10  and  C11_11 
REMARK    5  A    between atoms: C11_11  and  C12_12 
ROOT
HETATM    1  C12 UNL     1      -2.516  -1.693   0.249  1.00  0.00     0.029 A 
HETATM    2  C13 UNL     1      -2.580  -3.063  -0.001  1.00  0.00     0.038 A 
HETATM    3  C14 UNL     1      -3.806  -3.678  -0.113  1.00  0.00     0.091 A 
HETATM    4  N1  UNL     1      -4.937  -2.968   0.017  1.00  0.00    -0.352 N 
ATOM      5  H1  UNL     1      -5.840  -3.434  -0.068  1.00  0.00     0.166 HD
HETATM    6  C15 UNL     1      -4.887  -1.625   0.262  1.00  0.00     0.111 A 
HETATM    7  C16 UNL     1      -3.682  -0.972   0.381  1.00  0.00     0.010 A 
HETATM    8  C17 UNL     1      -3.393   0.434   0.635  1.00  0.00     0.103 C 
HETATM    9  C18 UNL     1      -4.381   1.370   0.109  1.00  0.00     0.047 A 
HETATM   10  N2  UNL     1      -4.025   2.591  -0.350  1.00  0.00    -0.264 N 
ATOM     11  H2  UNL     1      -3.072   2.955  -0.370  1.00  0.00     0.194 HD
HETATM   12  O1  UNL     1      -5.060   3.220  -0.754  1.00  0.00    -0.242 OA
HETATM   13  C19 UNL     1      -6.125   2.493  -0.599  1.00  0.00     0.082 A 
HETATM   14  C20 UNL     1      -7.485   2.952  -0.977  1.00  0.00     0.079 C 
HETATM   15  C21 UNL     1      -5.722   1.280  -0.038  1.00  0.00     0.016 A 
HETATM   16  C22 UNL     1      -6.680   0.231   0.269  1.00  0.00     0.167 C 
HETATM   17  N3  UNL     1      -6.193  -1.097   0.363  1.00  0.00    -0.367 N 
HETATM   18  C23 UNL     1      -7.216  -2.096   0.605  1.00  0.00     0.151 C 
ENDROOT
BRANCH   1  19
HETATM   19  C11 UNL     1      -1.205  -1.109   0.358  1.00  0.00    -0.059 C 
BRANCH  19  20
HETATM   20  C10 UNL     1      -0.104  -0.631   0.467  1.00  0.00    -0.043 C 
BRANCH  20  21
HETATM   21  C9  UNL     1       1.214  -0.051   0.623  1.00  0.00     0.090 A 
HETATM   22  C8  UNL     1       2.411  -0.580   0.186  1.00  0.00     0.061 A 
HETATM   23  C7  UNL     1       3.406   0.303   0.547  1.00  0.00     0.036 A 
HETATM   24  C25 UNL     1       2.752   1.335   1.195  1.00  0.00     0.112 A 
HETATM   25  N4  UNL     1       1.429   1.115   1.237  1.00  0.00    -0.353 N 
HETATM   26  C24 UNL     1       0.425   2.000   1.846  1.00  0.00     0.156 C 
BRANCH  23  27
HETATM   27  C6  UNL     1       4.809   0.143   0.287  1.00  0.00    -0.060 C 
HETATM   28  C5  UNL     1       5.994   0.018   0.049  1.00  0.00    -0.060 C 
BRANCH  28  29
HETATM   29  C4  UNL     1       7.432  -0.117  -0.255  1.00  0.00     0.031 A 
HETATM   30  C3  UNL     1       8.417   0.251   0.578  1.00  0.00     0.035 A 
HETATM   31  C2  UNL     1       9.709   0.063   0.153  1.00  0.00    -0.019 A 
HETATM   32  C1  UNL     1      10.972   0.400   0.917  1.00  0.00     0.056 C 
HETATM   33  S1  UNL     1       9.512  -0.621  -1.392  1.00  0.00    -0.099 SA
HETATM   34  C26 UNL     1       7.810  -0.651  -1.462  1.00  0.00    -0.002 A 
HETATM   35  C27 UNL     1       6.941  -1.148  -2.585  1.00  0.00     0.058 C 
ENDBRANCH  28  29
ENDBRANCH  23  27
ENDBRANCH  20  21
ENDBRANCH  19  20
ENDBRANCH   1  19
TORSDOF 5
