REMARK  4 active torsions:
REMARK  status: ('A' for Active; 'I' for Inactive)
REMARK    1  A    between atoms: C2_2  and  O2_4 
REMARK    2  A    between atoms: O2_4  and  C3_5 
REMARK    3  A    between atoms: C3_5  and  C4_6 
REMARK    4  A    between atoms: C5_7  and  C6_8 
ROOT
HETATM    1  C6  UNL     1       2.666  -0.245  -0.588  1.00  0.00     0.084 A 
HETATM    2  C7  UNL     1       2.929   0.134   0.729  1.00  0.00     0.115 A 
HETATM    3  N1  UNL     1       1.950   0.474   1.572  1.00  0.00    -0.359 N 
HETATM    4  C8  UNL     1       2.168   0.901   2.940  1.00  0.00     0.156 C 
HETATM    5  C9  UNL     1       0.633   0.474   1.206  1.00  0.00     0.041 A 
HETATM    6  C10 UNL     1      -0.367   0.734   2.037  1.00  0.00     0.012 A 
HETATM    7  C11 UNL     1      -1.824   0.605   1.482  1.00  0.00     0.057 A 
HETATM    8  C12 UNL     1      -1.664   0.450   0.893  1.00  0.00     0.063 A 
HETATM    9  N2  UNL     1      -2.723  -1.222   0.959  1.00  0.00    -0.345 N 
ATOM     10  H2  UNL     1      -2.377  -2.090   0.549  1.00  0.00     0.163 HD
HETATM   11  C13 UNL     1      -3.903  -1.161   1.561  1.00  0.00     0.253 C 
HETATM   12  O3  UNL     1      -4.259  -1.673   2.626  1.00  0.00    -0.268 OA
HETATM   13  C14 UNL     1      -4.993  -0.436   0.963  1.00  0.00     0.043 A 
HETATM   14  C15 UNL     1      -6.136  -0.697   1.512  1.00  0.00     0.018 A 
HETATM   15  C16 UNL     1      -7.259  -0.103   0.901  1.00  0.00     0.002 A 
HETATM   16  C17 UNL     1      -7.063   0.711  -0.237  1.00  0.00     0.012 A 
HETATM   17  C18 UNL     1      -5.815   0.964  -0.793  1.00  0.00    -0.024 A 
HETATM   18  C19 UNL     1      -5.596   1.743  -1.916  1.00  0.00     0.012 A 
HETATM   19  C20 UNL     1      -4.282   1.907  -2.383  1.00  0.00     0.001 A 
HETATM   20  C21 UNL     1      -3.199   1.345  -1.797  1.00  0.00     0.009 A 
HETATM   21  C22 UNL     1      -3.439   0.558  -0.660  1.00  0.00    -0.033 A 
HETATM   22  C23 UNL     1      -4.744   0.384  -0.187  1.00  0.00    -0.003 A 
HETATM   23  C24 UNL     1      -2.195   0.259  -0.235  1.00  0.00     0.034 A 
HETATM   24  C25 UNL     1      -1.030   0.102  -0.336  1.00  0.00     0.071 A 
HETATM   25  C26 UNL     1       0.332   0.105  -0.106  1.00  0.00     0.028 A 
HETATM   26  C27 UNL     1       1.339  -0.235  -0.945  1.00  0.00     0.201 A 
HETATM   27  O4  UNL     1       1.057  -0.566  -2.131  1.00  0.00    -0.286 OA
ENDROOT
BRANCH   1  28
HETATM   28  C5  UNL     1       3.742  -0.698  -1.414  1.00  0.00    -0.059 C 
HETATM   29  C4  UNL     1       4.649  -1.120  -2.081  1.00  0.00    -0.074 C 
BRANCH  29  30
HETATM   30  C3  UNL     1       5.779  -1.671  -2.867  1.00  0.00     0.272 C 
BRANCH  30  31
HETATM   31  O2  UNL     1       6.996  -1.167  -2.358  1.00  0.00    -0.310 OA
BRANCH  31  32
HETATM   32  C2  UNL     1       7.375  -1.401  -1.061  1.00  0.00     0.255 C 
HETATM   33  C1  UNL     1       8.621  -0.907  -0.421  1.00  0.00     0.126 C 
HETATM   34  O1  UNL     1       6.601  -2.112  -0.326  1.00  0.00    -0.266 OA
ENDBRANCH  31  32
ENDBRANCH  30  31
ENDBRANCH  29  30
ENDBRANCH   1  28
TORSDOF 4
