REMARK  0 active torsions:
REMARK  status: ('A' for Active; 'I' for Inactive)
ROOT
HETATM    1  C1  UNL     1      -1.773  -3.890   0.546  1.00  0.00     0.152 C 
HETATM    2  N1  UNL     1      -1.003  -2.695   0.262  1.00  0.00    -0.359 N 
HETATM    3  C2  UNL     1       0.304  -2.643   0.870  1.00  0.00     0.041 A 
HETATM    4  C3  UNL     1       0.727  -3.382   1.934  1.00  0.00     0.030 A 
HETATM    5  C4  UNL     1       2.001  -3.184   2.445  1.00  0.00     0.003 A 
HETATM    6  C5  UNL     1       2.860  -2.233   1.884  1.00  0.00     0.014 A 
HETATM    7  C6  UNL     1       2.417  -1.483   0.798  1.00  0.00     0.004 A 
HETATM    8  C7  UNL     1       1.183  -1.740   0.368  1.00  0.00     0.010 A 
HETATM    9  C8  UNL     1       0.862  -0.907  -0.835  1.00  0.00     0.178 C 
HETATM   10  C9  UNL     1       1.951   0.013  -0.899  1.00  0.00     0.065 A 
HETATM   11  N2  UNL     1       2.283   1.110  -1.652  1.00  0.00    -0.354 N 
ATOM     12  H2  UNL     1       1.607   1.448  -2.337  1.00  0.00     0.166 HD
HETATM   13  C10 UNL     1       3.447   1.760  -1.535  1.00  0.00     0.059 A 
HETATM   14  C11 UNL     1       3.778   2.861  -2.293  1.00  0.00     0.032 A 
HETATM   15  C12 UNL     1       4.993   3.500  -2.137  1.00  0.00     0.002 A 
HETATM   16  C13 UNL     1       5.926   3.063  -1.217  1.00  0.00     0.002 A 
HETATM   17  C14 UNL     1       5.598   1.961  -0.456  1.00  0.00     0.032 A 
HETATM   18  C15 UNL     1       4.381   1.330  -0.619  1.00  0.00     0.059 A 
HETATM   19  N3  UNL     1       4.119   0.277   0.139  1.00  0.00    -0.352 N 
ATOM     20  H3  UNL     1       4.806  -0.048   0.819  1.00  0.00     0.166 HD
HETATM   21  C16 UNL     1       2.954  -0.356   0.009  1.00  0.00     0.069 A 
HETATM   22  N4  UNL     1      -0.485  -0.526  -0.592  1.00  0.00    -0.308 N 
HETATM   23  C17 UNL     1      -1.187   0.692  -0.350  1.00  0.00     0.259 A 
HETATM   24  O1  UNL     1      -0.600   1.774  -0.375  1.00  0.00    -0.267 OA
HETATM   25  C18 UNL     1      -2.564   0.373  -0.105  1.00  0.00     0.071 A 
HETATM   26  C19 UNL     1      -2.734  -1.006  -0.192  1.00  0.00     0.002 A 
HETATM   27  C20 UNL     1      -3.929  -1.626   0.008  1.00  0.00     0.014 A 
HETATM   28  C21 UNL     1      -5.048  -0.897   0.311  1.00  0.00     0.032 A 
HETATM   29  C22 UNL     1      -4.905   0.478   0.402  1.00  0.00     0.061 A 
HETATM   30  N5  UNL     1      -5.795   1.461   0.677  1.00  0.00    -0.350 N 
ATOM     31  H5  UNL     1      -6.787   1.327   0.875  1.00  0.00     0.166 HD
HETATM   32  C23 UNL     1      -5.162   2.629   0.646  1.00  0.00     0.183 A 
HETATM   33  N6  UNL     1      -3.843   2.441   0.349  1.00  0.00    -0.345 N 
HETATM   34  C24 UNL     1      -2.914   3.546   0.248  1.00  0.00     0.157 C 
HETATM   35  C25 UNL     1      -3.694   1.121   0.201  1.00  0.00     0.078 A 
HETATM   36  C26 UNL     1      -1.437  -1.620  -0.550  1.00  0.00     0.225 A 
ENDROOT
TORSDOF 0
