REMARK  8 active torsions:
REMARK  status: ('A' for Active; 'I' for Inactive)
REMARK    1  A    between atoms: C2_2  and  C3_3 
REMARK    2  A    between atoms: C2_2  and  C10_14 
REMARK    3  A    between atoms: C3_3  and  C4_4 
REMARK    4  A    between atoms: C4_4  and  C5_5 
REMARK    5  A    between atoms: C5_5  and  C6_6 
REMARK    6  A    between atoms: C6_6  and  N1_7 
REMARK    7  A    between atoms: C10_14  and  N2_15 
REMARK    8  A    between atoms: N2_15  and  C11_18 
ROOT
HETATM    1  C10 UNL     1      -0.639   0.636  -1.016  1.00  0.00     0.237 C 
ENDROOT
BRANCH   1   2
HETATM    2  C2  UNL     1       0.837   0.408  -1.149  1.00  0.00     0.007 C 
HETATM    3  C1  UNL     1       1.087  -1.065  -1.296  1.00  0.00     0.011 C 
BRANCH   2   4
HETATM    4  C3  UNL     1       1.591   1.069  -0.054  1.00  0.00     0.006 C 
BRANCH   4   5
HETATM    5  C4  UNL     1       3.063   1.129  -0.123  1.00  0.00     0.003 C 
BRANCH   5   6
HETATM    6  C5  UNL     1       3.769  -0.171  -0.196  1.00  0.00     0.038 C 
BRANCH   6   7
HETATM    7  C6  UNL     1       5.292   0.025  -0.238  1.00  0.00     0.123 C 
HETATM    8  C7  UNL     1       5.971   0.282   1.043  1.00  0.00     0.038 C 
HETATM    9  C8  UNL     1       6.474  -1.133   1.074  1.00  0.00     0.005 C 
HETATM   10  C9  UNL     1       5.952  -1.358  -0.315  1.00  0.00     0.038 C 
BRANCH   7  11
HETATM   11  N1  UNL     1       5.689   0.824  -1.396  1.00  0.00    -0.070 N 
ATOM     12  H13 UNL     1       5.338   0.424  -2.266  1.00  0.00     0.275 HD
ATOM     13  H12 UNL     1       5.195   1.716  -1.424  1.00  0.00     0.275 HD
ATOM     14  H11 UNL     1       6.700   0.954  -1.424  1.00  0.00     0.275 HD
ENDBRANCH   7  11
ENDBRANCH   6   7
ENDBRANCH   5   6
ENDBRANCH   4   5
ENDBRANCH   2   4
ENDBRANCH   1   2
BRANCH   1  15
HETATM   15  N2  UNL     1      -1.133  -0.043   0.119  1.00  0.00    -0.066 N 
ATOM     16  H22 UNL     1      -0.819  -1.013   0.119  1.00  0.00     0.278 HD
ATOM     17  H21 UNL     1      -0.669   0.290   0.964  1.00  0.00     0.278 HD
BRANCH  15  18
HETATM   18  C11 UNL     1      -2.569   0.023   0.272  1.00  0.00     0.127 C 
HETATM   19  C12 UNL     1      -3.014  -1.345   0.746  1.00  0.00     0.043 C 
HETATM   20  C13 UNL     1      -4.513  -1.401   0.944  1.00  0.00    -0.012 C 
HETATM   21  C14 UNL     1      -5.158  -1.191  -0.409  1.00  0.00     0.009 C 
HETATM   22  C18 UNL     1      -4.904  -0.297   1.884  1.00  0.00     0.009 C 
HETATM   23  C15 UNL     1      -4.718   0.128  -0.983  1.00  0.00    -0.012 C 
HETATM   24  C16 UNL     1      -5.156   1.235  -0.053  1.00  0.00     0.009 C 
HETATM   25  C20 UNL     1      -3.204   0.220  -1.087  1.00  0.00     0.043 C 
HETATM   26  C17 UNL     1      -4.528   1.037   1.297  1.00  0.00    -0.012 C 
HETATM   27  C19 UNL     1      -3.020   1.137   1.171  1.00  0.00     0.043 C 
ENDBRANCH  15  18
ENDBRANCH   1  15
TORSDOF 8
