REMARK  13 active torsions:
REMARK  status: ('A' for Active; 'I' for Inactive)
REMARK    1  A    between atoms: O1_1  and  C1_3 
REMARK    2  A    between atoms: C1_3  and  C2_4 
REMARK    3  A    between atoms: C3_6  and  O3_7 
REMARK    4  A    between atoms: O3_7  and  C4_8 
REMARK    5  A    between atoms: C4_8  and  C5_9 
REMARK    6  A    between atoms: C6_11  and  O5_12 
REMARK    7  A    between atoms: O5_12  and  C7_13 
REMARK    8  A    between atoms: C7_13  and  C8_14 
REMARK    9  A    between atoms: C18_24  and  O6_25 
REMARK   10  A    between atoms: C19_27  and  O7_28 
REMARK   11  A    between atoms: C20_30  and  O8_31 
REMARK   12  A    between atoms: C21_33  and  O9_34 
REMARK   13  A    between atoms: C22_36  and  O10_37 
ROOT
HETATM    1  C5  UNL     1       1.751   2.486  -0.070  1.00  0.00     0.180 C 
HETATM    2  O4  UNL     1       0.620   1.808   0.247  1.00  0.00    -0.348 OA
HETATM    3  C6  UNL     1       0.205   0.743  -0.457  1.00  0.00     0.291 C 
HETATM    4  C18 UNL     1       0.579   0.739  -1.918  1.00  0.00     0.204 C 
HETATM    5  C19 UNL     1       2.110   0.882  -1.965  1.00  0.00     0.183 C 
HETATM    6  C20 UNL     1       2.355   2.267  -1.403  1.00  0.00     0.180 C 
ENDROOT
BRANCH   1   7
HETATM    7  C4  UNL     1       2.704   2.663   1.090  1.00  0.00     0.205 C 
BRANCH   7   8
HETATM    8  O3  UNL     1       3.168   1.629   1.757  1.00  0.00    -0.356 OA
BRANCH   8   9
HETATM    9  C3  UNL     1       3.918   0.621   1.363  1.00  0.00     0.291 C 
HETATM   10  O2  UNL     1       5.124   0.473   2.089  1.00  0.00    -0.348 OA
HETATM   11  C2  UNL     1       5.667  -0.668   1.529  1.00  0.00     0.179 C 
HETATM   12  C22 UNL     1       4.514  -1.598   1.163  1.00  0.00     0.182 C 
HETATM   13  C21 UNL     1       3.335  -0.770   1.699  1.00  0.00     0.204 C 
BRANCH  11  14
HETATM   14  C1  UNL     1       6.501  -0.396   0.289  1.00  0.00     0.198 C 
BRANCH  14  15
HETATM   15  O1  UNL     1       7.024  -1.592  -0.225  1.00  0.00    -0.398 OA
ATOM     16  H1  UNL     1       7.546  -1.422  -1.001  1.00  0.00     0.209 HD
ENDBRANCH  14  15
ENDBRANCH  11  14
BRANCH  12  17
HETATM   17  O10 UNL     1       4.613  -2.817   1.784  1.00  0.00    -0.390 OA
ATOM     18  H10 UNL     1       3.895  -3.396   1.556  1.00  0.00     0.210 HD
ENDBRANCH  12  17
BRANCH  13  19
HETATM   19  O9  UNL     1       3.315  -0.905   3.064  1.00  0.00    -0.388 OA
ATOM     20  H9  UNL     1       2.957  -1.760   3.271  1.00  0.00     0.210 HD
ENDBRANCH  13  19
ENDBRANCH   8   9
ENDBRANCH   7   8
ENDBRANCH   1   7
BRANCH   6  21
HETATM   21  O8  UNL     1       3.653   2.654  -1.516  1.00  0.00    -0.390 OA
ATOM     22  H8  UNL     1       4.041   2.513  -2.372  1.00  0.00     0.210 HD
ENDBRANCH   6  21
BRANCH   3  23
HETATM   23  O5  UNL     1      -1.204   0.721  -0.443  1.00  0.00    -0.358 OA
BRANCH  23  24
HETATM   24  C7  UNL     1      -1.693  -0.447   0.102  1.00  0.00     0.180 C 
BRANCH  24  25
HETATM   25  C8  UNL     1      -3.187  -0.509   0.135  1.00  0.00    -0.018 C 
HETATM   26  C9  UNL     1      -3.623  -1.824   0.748  1.00  0.00     0.016 C 
HETATM   27  C10 UNL     1      -5.124  -1.997   0.641  1.00  0.00    -0.013 C 
HETATM   28  C11 UNL     1      -5.596  -1.889  -0.794  1.00  0.00     0.009 C 
HETATM   29  C15 UNL     1      -5.793  -0.867   1.405  1.00  0.00     0.009 C 
HETATM   30  C12 UNL     1      -5.171  -0.569  -1.363  1.00  0.00    -0.013 C 
HETATM   31  C13 UNL     1      -5.805   0.551  -0.572  1.00  0.00     0.009 C 
HETATM   32  C17 UNL     1      -3.674  -0.468  -1.310  1.00  0.00     0.016 C 
HETATM   33  C14 UNL     1      -5.308   0.457   0.858  1.00  0.00    -0.013 C 
HETATM   34  C16 UNL     1      -3.811   0.594   0.941  1.00  0.00     0.016 C 
ENDBRANCH  24  25
ENDBRANCH  23  24
ENDBRANCH   3  23
BRANCH   5  35
HETATM   35  O7  UNL     1       2.590   0.826  -3.250  1.00  0.00    -0.390 OA
ATOM     36  H7  UNL     1       3.535   0.914  -3.279  1.00  0.00     0.210 HD
ENDBRANCH   5  35
BRANCH   4  37
HETATM   37  O6  UNL     1       0.169  -0.408  -2.550  1.00  0.00    -0.388 OA
ATOM     38  H6  UNL     1       0.405  -0.411  -3.470  1.00  0.00     0.210 HD
ENDBRANCH   4  37
TORSDOF 13
