REMARK  13 active torsions:
REMARK  status: ('A' for Active; 'I' for Inactive)
REMARK    1  A    between atoms: C2_2  and  O1_3 
REMARK    2  A    between atoms: O1_3  and  N1_4 
REMARK    3  A    between atoms: N1_4  and  C3_5 
REMARK    4  A    between atoms: C3_5  and  N2_6 
REMARK    5  A    between atoms: C3_5  and  C5_10 
REMARK       I    between atoms: C5_10  and  N4_12 
REMARK    6  A    between atoms: N4_12  and  C6_14 
REMARK    7  A    between atoms: C10_18  and  N5_19 
REMARK       I    between atoms: N5_19  and  C11_21 
REMARK    8  A    between atoms: C11_21  and  C12_23 
REMARK    9  A    between atoms: C12_23  and  N6_26 
REMARK   10  A    between atoms: C15_30  and  O4_31 
REMARK   11  A    between atoms: O4_31  and  C16_32 
REMARK   12  A    between atoms: C18_35  and  O6_36 
REMARK   13  A    between atoms: C19_38  and  O7_39 
ROOT
HETATM    1  N2  UNL     1       5.587   0.326   1.256  1.00  0.00    -0.261 N 
ATOM      2  H2  UNL     1       5.977   1.263   1.152  1.00  0.00     0.181 HD
HETATM    3  C4  UNL     1       5.458  -0.201   2.531  1.00  0.00     0.184 C 
HETATM    4  N3  UNL     1       5.328  -0.656   3.587  1.00  0.00    -0.172 NA
ENDROOT
BRANCH   1   5
HETATM    5  C3  UNL     1       5.190  -0.401   0.059  1.00  0.00     0.289 C 
BRANCH   5   6
HETATM    6  N1  UNL     1       5.996  -0.980  -0.586  1.00  0.00    -0.256 NA
BRANCH   6   7
HETATM    7  O1  UNL     1       6.789  -1.619  -1.326  1.00  0.00    -0.208 OA
BRANCH   7   8
HETATM    8  C2  UNL     1       7.321  -2.899  -0.920  1.00  0.00     0.213 C 
HETATM    9  C1  UNL     1       8.158  -3.473  -2.017  1.00  0.00     0.037 C 
ENDBRANCH   7   8
ENDBRANCH   6   7
ENDBRANCH   5   6
BRANCH   5  10
HETATM   10  C5  UNL     1       3.756  -0.360  -0.201  1.00  0.00     0.303 C 
HETATM   11  O2  UNL     1       3.350  -0.994  -1.201  1.00  0.00    -0.263 OA
HETATM   12  N4  UNL     1       2.894   0.334   0.600  1.00  0.00    -0.346 N 
ATOM     13  H4  UNL     1       3.310   0.830   1.388  1.00  0.00     0.163 HD
BRANCH  12  14
HETATM   14  C6  UNL     1       1.443   0.447   0.457  1.00  0.00     0.116 C 
HETATM   15  C7  UNL     1       0.903  -0.312   1.680  1.00  0.00     0.028 C 
HETATM   16  C8  UNL     1      -0.395  -1.016   1.348  1.00  0.00     0.004 C 
HETATM   17  C9  UNL     1      -1.504  -0.135   1.780  1.00  0.00     0.028 C 
HETATM   18  C10 UNL     1      -2.077   0.829   0.843  1.00  0.00     0.116 C 
HETATM   19  C15 UNL     1      -1.340   1.306  -0.331  1.00  0.00     0.185 C 
HETATM   20  C18 UNL     1      -0.214   2.281  -0.122  1.00  0.00     0.180 C 
HETATM   21  C19 UNL     1       1.056   1.866   0.427  1.00  0.00     0.172 C 
BRANCH  18  22
HETATM   22  N5  UNL     1      -3.369   0.294   0.375  1.00  0.00    -0.352 N 
HETATM   23  C11 UNL     1      -4.588   0.848   0.873  1.00  0.00     0.253 C 
HETATM   24  O3  UNL     1      -4.555   1.780   1.687  1.00  0.00    -0.271 OA
ATOM     25  H5  UNL     1      -3.392  -0.469  -0.302  1.00  0.00     0.163 HD
BRANCH  23  26
HETATM   26  C12 UNL     1      -5.889   0.315   0.424  1.00  0.00     0.196 C 
HETATM   27  C13 UNL     1      -6.687   1.389  -0.334  1.00  0.00     0.056 C 
HETATM   28  C14 UNL     1      -6.695  -0.012   1.672  1.00  0.00     0.056 C 
BRANCH  26  29
HETATM   29  N6  UNL     1      -5.819  -0.832  -0.410  1.00  0.00    -0.062 N 
ATOM     30  H63 UNL     1      -5.221  -0.644  -1.214  1.00  0.00     0.275 HD
ATOM     31  H62 UNL     1      -5.279  -1.566   0.048  1.00  0.00     0.275 HD
ATOM     32  H61 UNL     1      -6.718  -1.200  -0.720  1.00  0.00     0.275 HD
ENDBRANCH  26  29
ENDBRANCH  23  26
ENDBRANCH  18  22
BRANCH  19  33
HETATM   33  O4  UNL     1      -1.054   0.358  -1.339  1.00  0.00    -0.311 OA
BRANCH  33  34
HETATM   34  C16 UNL     1      -1.613   0.331  -2.584  1.00  0.00     0.255 C 
HETATM   35  C17 UNL     1      -1.183  -0.742  -3.524  1.00  0.00     0.126 C 
HETATM   36  O5  UNL     1      -2.455   1.206  -2.903  1.00  0.00    -0.266 OA
ENDBRANCH  33  34
ENDBRANCH  19  33
BRANCH  20  37
HETATM   37  O6  UNL     1      -0.748   3.367   0.576  1.00  0.00    -0.390 OA
ATOM     38  H6  UNL     1      -0.037   3.983   0.708  1.00  0.00     0.210 HD
ENDBRANCH  20  37
BRANCH  21  39
HETATM   39  O7  UNL     1       1.286   2.393   1.724  1.00  0.00    -0.391 OA
ATOM     40  H7  UNL     1       1.036   3.309   1.705  1.00  0.00     0.210 HD
ENDBRANCH  21  39
ENDBRANCH  12  14
ENDBRANCH   5  10
ENDBRANCH   1   5
TORSDOF 13
