REMARK  11 active torsions:
REMARK  status: ('A' for Active; 'I' for Inactive)
REMARK    1  A    between atoms: C2_2  and  C3_3 
REMARK    2  A    between atoms: C4_4  and  C5_5 
REMARK    3  A    between atoms: C8_10  and  C9_11 
REMARK    4  A    between atoms: C10_13  and  C11_14 
REMARK    5  A    between atoms: C11_14  and  C12_15 
REMARK    6  A    between atoms: C16_20  and  N1_21 
REMARK    7  A    between atoms: C18_25  and  O5_26 
REMARK    8  A    between atoms: C19_31  and  N3_32 
REMARK    9  A    between atoms: N3_32  and  C20_34 
REMARK   10  A    between atoms: C21_36  and  O7_37 
REMARK   11  A    between atoms: C22_39  and  O8_40 
ROOT
HETATM    1  C5  UNL     1      -3.636  -0.427  -0.848  1.00  0.00     0.179 C 
HETATM    2  O1  UNL     1      -2.694   0.279  -0.160  1.00  0.00    -0.339 OA
HETATM    3  C6  UNL     1      -1.785  -0.427   0.573  1.00  0.00     0.274 C 
HETATM    4  C7  UNL     1      -1.270   0.529   1.657  1.00  0.00     0.241 C 
HETATM    5  O2  UNL     1      -0.002   0.926   1.286  1.00  0.00    -0.352 OA
HETATM    6  C8  UNL     1       0.033   0.690  -0.061  1.00  0.00     0.356 C 
HETATM    7  N2  UNL     1      -0.527  -0.639  -0.163  1.00  0.00    -0.010 N 
ATOM      8  H21 UNL     1      -0.617  -1.017  -1.106  1.00  0.00     0.284 HD
ATOM      9  H22 UNL     1       0.064  -1.401   0.169  1.00  0.00     0.284 HD
HETATM   10  C19 UNL     1      -2.256  -1.655   1.253  1.00  0.00     0.180 C 
HETATM   11  C21 UNL     1      -3.382  -2.377   0.553  1.00  0.00     0.177 C 
HETATM   12  C22 UNL     1      -4.398  -1.333   0.128  1.00  0.00     0.181 C 
ENDROOT
BRANCH  10  13
HETATM   13  N3  UNL     1      -1.154  -2.584   1.326  1.00  0.00    -0.356 N 
ATOM     14  H3  UNL     1      -0.696  -2.905   0.473  1.00  0.00     0.162 HD
BRANCH  13  15
HETATM   15  C20 UNL     1      -0.714  -3.046   2.590  1.00  0.00     0.349 C 
HETATM   16  O6  UNL     1      -1.279  -2.651   3.635  1.00  0.00    -0.284 OA
ENDBRANCH  13  15
ENDBRANCH  10  13
BRANCH   1  17
HETATM   17  C4  UNL     1      -4.633   0.514  -1.403  1.00  0.00     0.007 C 
HETATM   18  C3  UNL     1      -4.799   1.710  -0.888  1.00  0.00    -0.002 C 
BRANCH  18  19
HETATM   19  C2  UNL     1      -5.756   2.671  -1.386  1.00  0.00    -0.010 C 
HETATM   20  C1  UNL     1      -5.872   3.853  -0.824  1.00  0.00     0.011 C 
ENDBRANCH  18  19
ENDBRANCH   1  17
BRANCH   6  21
HETATM   21  C9  UNL     1       1.387   0.793  -0.681  1.00  0.00     0.209 C 
HETATM   22  O3  UNL     1       2.335  -0.032  -0.128  1.00  0.00    -0.371 OA
HETATM   23  C10 UNL     1       3.550   0.417  -0.582  1.00  0.00     0.159 C 
HETATM   24  C16 UNL     1       3.419   1.891  -0.882  1.00  0.00     0.245 C 
HETATM   25  C18 UNL     1       1.996   2.158  -0.434  1.00  0.00     0.184 C 
BRANCH  23  26
HETATM   26  C11 UNL     1       4.658   0.260   0.433  1.00  0.00     0.074 C 
BRANCH  26  27
HETATM   27  C12 UNL     1       4.871  -1.155   0.829  1.00  0.00    -0.032 A 
HETATM   28  C13 UNL     1       4.266  -1.840   1.861  1.00  0.00     0.033 A 
HETATM   29  C14 UNL     1       4.782  -3.120   1.836  1.00  0.00     0.142 A 
HETATM   30  O4  UNL     1       5.647  -3.200   0.846  1.00  0.00    -0.334 OA
HETATM   31  C15 UNL     1       5.731  -2.039   0.215  1.00  0.00     0.148 A 
ENDBRANCH  26  27
ENDBRANCH  23  26
BRANCH  24  32
HETATM   32  N1  UNL     1       3.476   2.149  -2.327  1.00  0.00    -0.070 N 
HETATM   33  C17 UNL     1       4.772   1.736  -2.829  1.00  0.00     0.267 C 
ATOM     34  H12 UNL     1       2.706   1.709  -2.831  1.00  0.00     0.277 HD
ATOM     35  H11 UNL     1       3.261   3.119  -2.557  1.00  0.00     0.277 HD
ENDBRANCH  24  32
BRANCH  25  36
HETATM   36  O5  UNL     1       1.928   2.389   0.938  1.00  0.00    -0.391 OA
ATOM     37  H5  UNL     1       2.310   3.245   1.093  1.00  0.00     0.210 HD
ENDBRANCH  25  36
ENDBRANCH   6  21
BRANCH  11  38
HETATM   38  O7  UNL     1      -2.894  -2.986  -0.606  1.00  0.00    -0.391 OA
ATOM     39  H7  UNL     1      -3.603  -3.440  -1.046  1.00  0.00     0.210 HD
ENDBRANCH  11  38
BRANCH  12  40
HETATM   40  O8  UNL     1      -4.706  -0.576   1.262  1.00  0.00    -0.390 OA
ATOM     41  H8  UNL     1      -5.178  -1.137   1.866  1.00  0.00     0.210 HD
ENDBRANCH  12  40
TORSDOF 11
