REMARK  4 active torsions:
REMARK  status: ('A' for Active; 'I' for Inactive)
REMARK    1  A    between atoms: C2_2  and  C3_3 
REMARK    2  A    between atoms: C16_16  and  O1_17 
REMARK    3  A    between atoms: C17_19  and  O2_20 
REMARK    4  A    between atoms: O2_20  and  O3_21 
ROOT
HETATM    1  C3  UNL     1      -2.468  -0.702   0.059  1.00  0.00    -0.021 C 
HETATM    2  C4  UNL     1      -3.296  -0.834  -1.205  1.00  0.00     0.020 C 
HETATM    3  C5  UNL     1      -1.573  -1.868   0.183  1.00  0.00     0.016 C 
HETATM    4  C6  UNL     1      -0.324  -1.622   0.990  1.00  0.00     0.043 C 
HETATM    5  C7  UNL     1       0.762  -1.109   0.082  1.00  0.00     0.163 C 
HETATM    6  C8  UNL     1       1.177  -2.342  -0.752  1.00  0.00     0.049 C 
HETATM    7  C9  UNL     1       0.170  -0.164  -0.885  1.00  0.00     0.065 C 
HETATM    8  C10 UNL     1       1.220   0.273  -1.912  1.00  0.00     0.013 C 
HETATM    9  C11 UNL     1       2.586   0.427  -1.361  1.00  0.00     0.042 C 
HETATM   10  C12 UNL     1       2.749   0.268   0.099  1.00  0.00     0.157 C 
HETATM   11  C13 UNL     1       4.231  -0.090   0.342  1.00  0.00     0.049 C 
HETATM   12  C14 UNL     1       2.627   1.625   0.806  1.00  0.00     0.044 C 
HETATM   13  C15 UNL     1       1.445   2.420   0.281  1.00  0.00     0.037 C 
HETATM   14  C16 UNL     1       0.206   1.786   0.724  1.00  0.00     0.157 C 
HETATM   15  C17 UNL     1      -0.592   1.013  -0.307  1.00  0.00     0.132 C 
HETATM   16  C18 UNL     1      -1.909   0.670   0.242  1.00  0.00     0.034 C 
HETATM   17  C19 UNL     1      -3.058   1.595  -0.106  1.00  0.00     0.014 C 
HETATM   18  N1  UNL     1       1.952  -0.696   0.746  1.00  0.00     0.103 N 
HETATM   19  C20 UNL     1       2.671  -1.810   1.298  1.00  0.00     0.312 C 
ENDROOT
BRANCH   1  20
HETATM   20  C2  UNL     1      -3.492  -0.852   1.173  1.00  0.00    -0.027 C 
HETATM   21  C1  UNL     1      -4.673  -1.369   1.013  1.00  0.00     0.007 C 
ENDBRANCH   1  20
BRANCH  15  22
HETATM   22  O2  UNL     1      -0.730   1.836  -1.413  1.00  0.00    -0.228 OA
BRANCH  22  23
HETATM   23  O3  UNL     1      -1.296   2.962  -1.285  1.00  0.00    -0.250 OA
ATOM     24  H3  UNL     1      -1.391   3.526  -2.043  1.00  0.00     0.253 HD
ENDBRANCH  22  23
ENDBRANCH  15  22
BRANCH  14  25
HETATM   25  O1  UNL     1      -0.692   2.778   1.201  1.00  0.00    -0.392 OA
ATOM     26  H1  UNL     1      -1.498   2.366   1.489  1.00  0.00     0.210 HD
ENDBRANCH  14  25
TORSDOF 4
