REMARK  15 active torsions:
REMARK  status: ('A' for Active; 'I' for Inactive)
REMARK    1  A    between atoms: C2_2  and  C4_4 
REMARK    2  A    between atoms: C4_4  and  C5_5 
REMARK    3  A    between atoms: C5_5  and  C6_6 
REMARK    4  A    between atoms: C5_5  and  C15_21 
REMARK    5  A    between atoms: C7_7  and  N1_8 
REMARK    6  A    between atoms: N1_8  and  C8_9 
REMARK    7  A    between atoms: N1_8  and  O2_18 
REMARK    8  A    between atoms: C8_9  and  C9_10 
REMARK    9  A    between atoms: C9_10  and  C10_11 
REMARK   10  A    between atoms: C10_11  and  C11_12 
REMARK   11  A    between atoms: C11_12  and  C12_13 
REMARK   12  A    between atoms: C12_13  and  C13_14 
REMARK   13  A    between atoms: C13_14  and  S1_15 
REMARK   14  A    between atoms: O2_18  and  O3_19 
REMARK   15  A    between atoms: C25_32  and  O5_33 
ROOT
HETATM    1  C15 UNL     1      -1.591   0.026  -1.326  1.00  0.00     0.023 C 
HETATM    2  C16 UNL     1      -2.338   0.354  -2.590  1.00  0.00     0.010 C 
HETATM    3  C17 UNL     1      -3.728   0.825  -2.102  1.00  0.00     0.007 C 
HETATM    4  C18 UNL     1      -3.828  -0.085  -0.909  1.00  0.00     0.003 C 
HETATM    5  C19 UNL     1      -5.069  -0.156  -0.180  1.00  0.00    -0.032 C 
HETATM    6  C20 UNL     1      -6.036  -1.004  -1.042  1.00  0.00     0.016 C 
HETATM    7  C21 UNL     1      -5.806   1.079   0.141  1.00  0.00     0.015 C 
HETATM    8  C22 UNL     1      -6.912   0.844   1.132  1.00  0.00     0.042 C 
HETATM    9  C23 UNL     1      -7.153  -0.554   1.461  1.00  0.00    -0.024 A 
HETATM   10  C24 UNL     1      -8.286  -1.253   1.794  1.00  0.00     0.152 A 
HETATM   11  O4  UNL     1      -7.967  -2.531   2.003  1.00  0.00    -0.299 OA
HETATM   12  C25 UNL     1      -6.663  -2.702   1.820  1.00  0.00     0.190 A 
HETATM   13  C26 UNL     1      -6.123  -1.509   1.485  1.00  0.00     0.013 A 
HETATM   14  C27 UNL     1      -4.817  -0.886   1.143  1.00  0.00     0.033 C 
HETATM   15  C28 UNL     1      -3.688  -1.806   0.932  1.00  0.00     0.011 C 
HETATM   16  C29 UNL     1      -2.412  -1.003   0.804  1.00  0.00     0.011 C 
HETATM   17  C30 UNL     1      -2.514   0.143  -0.192  1.00  0.00    -0.032 C 
HETATM   18  C31 UNL     1      -2.426   1.448   0.536  1.00  0.00     0.016 C 
ENDROOT
BRANCH   1  19
HETATM   19  C5  UNL     1      -0.251   0.660  -1.356  1.00  0.00    -0.073 C 
BRANCH  19  20
HETATM   20  C4  UNL     1      -0.144   2.121  -1.491  1.00  0.00     0.038 C 
BRANCH  20  21
HETATM   21  C2  UNL     1       0.961   2.736  -2.244  1.00  0.00    -0.019 C 
HETATM   22  C1  UNL     1       2.364   2.531  -1.852  1.00  0.00     0.010 C 
HETATM   23  C3  UNL     1       0.729   4.271  -2.133  1.00  0.00     0.010 C 
ENDBRANCH  20  21
ENDBRANCH  19  20
BRANCH  19  24
HETATM   24  C6  UNL     1       0.804  -0.071  -0.630  1.00  0.00     0.022 C 
HETATM   25  C7  UNL     1       1.446   0.378   0.415  1.00  0.00     0.120 C 
BRANCH  25  26
HETATM   26  N1  UNL     1       2.466  -0.245   1.174  1.00  0.00    -0.238 N 
BRANCH  26  27
HETATM   27  C8  UNL     1       3.509   0.551   1.764  1.00  0.00     0.158 C 
BRANCH  27  28
HETATM   28  C9  UNL     1       4.442  -0.091   2.694  1.00  0.00     0.022 C 
BRANCH  28  29
HETATM   29  C10 UNL     1       5.298  -1.204   2.235  1.00  0.00     0.002 C 
BRANCH  29  30
HETATM   30  C11 UNL     1       6.222  -0.894   1.090  1.00  0.00     0.001 C 
BRANCH  30  31
HETATM   31  C12 UNL     1       7.192   0.217   1.420  1.00  0.00     0.012 C 
BRANCH  31  32
HETATM   32  C13 UNL     1       8.101   0.477   0.244  1.00  0.00     0.108 C 
BRANCH  32  33
HETATM   33  S1  UNL     1       9.044  -0.970  -0.180  1.00  0.00     0.010 S 
HETATM   34  C14 UNL     1      10.108  -0.667  -1.556  1.00  0.00     0.127 C 
HETATM   35  O1  UNL     1       9.893  -1.531   1.141  1.00  0.00    -0.258 OA
ENDBRANCH  32  33
ENDBRANCH  31  32
ENDBRANCH  30  31
ENDBRANCH  29  30
ENDBRANCH  28  29
ENDBRANCH  27  28
ENDBRANCH  26  27
BRANCH  26  36
HETATM   36  O2  UNL     1       2.472  -1.576   1.349  1.00  0.00    -0.113 OA
BRANCH  36  37
HETATM   37  O3  UNL     1       2.717  -2.151   0.197  1.00  0.00    -0.227 OA
ATOM     38  H3  UNL     1       2.721  -3.093   0.321  1.00  0.00     0.256 HD
ENDBRANCH  36  37
ENDBRANCH  26  36
ENDBRANCH  25  26
ENDBRANCH  19  24
ENDBRANCH   1  19
BRANCH  12  39
HETATM   39  O5  UNL     1      -5.915  -3.872   1.936  1.00  0.00    -0.340 OA
ATOM     40  H5  UNL     1      -4.982  -3.994   1.805  1.00  0.00     0.220 HD
ENDBRANCH  12  39
TORSDOF 15
