REMARK  15 active torsions:
REMARK  status: ('A' for Active; 'I' for Inactive)
REMARK    1  A    between atoms: C2_2  and  C3_3 
REMARK    2  A    between atoms: C3_3  and  O1_4 
REMARK    3  A    between atoms: C3_3  and  C4_6 
REMARK    4  A    between atoms: C3_3  and  C15_19 
REMARK    5  A    between atoms: C4_6  and  C5_7 
REMARK    6  A    between atoms: C5_7  and  C6_8 
REMARK    7  A    between atoms: C6_8  and  C7_9 
REMARK    8  A    between atoms: C7_9  and  C9_11 
REMARK    9  A    between atoms: C7_9  and  O2_15 
REMARK   10  A    between atoms: C9_11  and  C10_12 
REMARK   11  A    between atoms: O2_15  and  C13_16 
REMARK   12  A    between atoms: C16_20  and  C17_21 
REMARK   13  A    between atoms: C17_21  and  C18_22 
REMARK   14  A    between atoms: C17_21  and  C28_32 
REMARK   15  A    between atoms: C32_36  and  O4_37 
ROOT
HETATM    1  C17 UNL     1      -2.415  -0.309   0.647  1.00  0.00     0.028 C 
ENDROOT
BRANCH   1   2
HETATM    2  C16 UNL     1      -1.407   0.695   0.383  1.00  0.00    -0.022 C 
HETATM    3  C15 UNL     1      -0.010   0.776   0.248  1.00  0.00     0.007 C 
BRANCH   3   4
HETATM    4  C3  UNL     1       1.032   0.607   1.348  1.00  0.00     0.078 C 
BRANCH   4   5
HETATM    5  C2  UNL     1       0.976  -0.711   1.958  1.00  0.00     0.038 C 
HETATM    6  C1  UNL     1       1.868  -1.035   3.125  1.00  0.00     0.008 C 
ENDBRANCH   4   5
BRANCH   4   7
HETATM    7  O1  UNL     1       0.800   1.641   2.299  1.00  0.00    -0.386 OA
ATOM      8  H1  UNL     1       0.837   2.502   1.900  1.00  0.00     0.211 HD
ENDBRANCH   4   7
BRANCH   4   9
HETATM    9  C4  UNL     1       2.318   0.982   0.668  1.00  0.00     0.068 C 
BRANCH   9  10
HETATM   10  C5  UNL     1       3.564   1.036   1.413  1.00  0.00    -0.024 C 
BRANCH  10  11
HETATM   11  C6  UNL     1       4.825   1.517   0.814  1.00  0.00     0.007 C 
BRANCH  11  12
HETATM   12  C7  UNL     1       5.477   0.817  -0.327  1.00  0.00     0.085 C 
HETATM   13  C8  UNL     1       4.522   0.835  -1.508  1.00  0.00     0.051 C 
BRANCH  12  14
HETATM   14  C9  UNL     1       5.826  -0.556   0.112  1.00  0.00     0.046 C 
BRANCH  14  15
HETATM   15  C10 UNL     1       6.474  -1.515  -0.759  1.00  0.00    -0.020 C 
HETATM   16  C11 UNL     1       5.783  -1.923  -2.031  1.00  0.00     0.009 C 
HETATM   17  C12 UNL     1       7.926  -1.281  -1.115  1.00  0.00     0.009 C 
ENDBRANCH  14  15
ENDBRANCH  12  14
BRANCH  12  18
HETATM   18  O2  UNL     1       6.588   1.547  -0.821  1.00  0.00    -0.307 OA
BRANCH  18  19
HETATM   19  C13 UNL     1       7.705   1.918  -0.162  1.00  0.00     0.255 C 
HETATM   20  C14 UNL     1       8.825   2.693  -0.777  1.00  0.00     0.126 C 
HETATM   21  O3  UNL     1       7.834   1.610   1.027  1.00  0.00    -0.266 OA
ENDBRANCH  18  19
ENDBRANCH  12  18
ENDBRANCH  11  12
ENDBRANCH  10  11
ENDBRANCH   9  10
ENDBRANCH   4   9
ENDBRANCH   3   4
ENDBRANCH   1   2
BRANCH   1  22
HETATM   22  C18 UNL     1      -3.817   0.276   0.824  1.00  0.00     0.004 C 
HETATM   23  C19 UNL     1      -3.752   1.185   2.091  1.00  0.00     0.007 C 
HETATM   24  C20 UNL     1      -4.225   2.321   1.302  1.00  0.00     0.011 C 
HETATM   25  C21 UNL     1      -4.502   1.306   0.145  1.00  0.00    -0.028 C 
HETATM   26  C22 UNL     1      -4.303   2.003  -1.106  1.00  0.00     0.011 C 
HETATM   27  C26 UNL     1      -6.046   1.122   0.227  1.00  0.00    -0.032 A 
HETATM   28  C23 UNL     1      -5.606   2.033  -1.924  1.00  0.00     0.006 C 
HETATM   29  C24 UNL     1      -6.659   1.549  -1.010  1.00  0.00    -0.005 A 
HETATM   30  C25 UNL     1      -6.835   2.403   0.254  1.00  0.00     0.015 A 
HETATM   31  C27 UNL     1      -6.623  -0.005   0.999  1.00  0.00     0.016 C 
ENDBRANCH   1  22
BRANCH   1  32
HETATM   32  C28 UNL     1      -2.537  -1.501  -0.260  1.00  0.00     0.024 C 
HETATM   33  C29 UNL     1      -1.284  -2.362  -0.389  1.00  0.00     0.024 C 
HETATM   34  C30 UNL     1      -3.520  -2.542   0.321  1.00  0.00     0.020 C 
HETATM   35  C31 UNL     1      -3.782  -3.660  -0.673  1.00  0.00     0.033 C 
HETATM   36  C32 UNL     1      -4.609  -3.114  -1.782  1.00  0.00     0.125 C 
HETATM   37  C33 UNL     1      -4.267  -1.708  -2.199  1.00  0.00     0.111 C 
HETATM   38  C34 UNL     1      -2.958  -1.263  -1.643  1.00  0.00     0.138 C 
HETATM   39  O5  UNL     1      -2.210  -0.673  -2.398  1.00  0.00    -0.297 OA
BRANCH  36  40
HETATM   40  O4  UNL     1      -5.959  -3.216  -1.426  1.00  0.00    -0.395 OA
ATOM     41  H4  UNL     1      -6.487  -2.867  -2.134  1.00  0.00     0.210 HD
ENDBRANCH  36  40
ENDBRANCH   1  32
TORSDOF 15
