REMARK  14 active torsions:
REMARK  status: ('A' for Active; 'I' for Inactive)
REMARK    1  A    between atoms: C3_3  and  C4_4 
REMARK    2  A    between atoms: C4_4  and  C5_6 
REMARK    3  A    between atoms: C5_6  and  C6_7 
REMARK    4  A    between atoms: C6_7  and  C7_8 
REMARK    5  A    between atoms: C7_8  and  C8_10 
REMARK    6  A    between atoms: C8_10  and  O3_11 
REMARK    7  A    between atoms: C19_23  and  O4_24 
REMARK    8  A    between atoms: C23_29  and  C24_30 
REMARK    9  A    between atoms: C24_30  and  C26_32 
REMARK   10  A    between atoms: C26_32  and  C27_33 
REMARK   11  A    between atoms: C27_33  and  C28_34 
REMARK   12  A    between atoms: C28_34  and  O6_36 
REMARK   13  A    between atoms: O6_36  and  C29_37 
REMARK   14  A    between atoms: C29_37  and  C30_38 
ROOT
HETATM    1  C8  UNL     1      -0.859   0.650   0.811  1.00  0.00     0.122 C 
HETATM    2  C9  UNL     1      -1.871   0.250   1.843  1.00  0.00     0.047 C 
HETATM    3  C10 UNL     1      -2.699  -0.952   1.540  1.00  0.00     0.009 C 
HETATM    4  C11 UNL     1      -1.801  -2.081   1.224  1.00  0.00    -0.001 C 
HETATM    5  C12 UNL     1      -1.026  -1.706  -0.049  1.00  0.00    -0.002 C 
HETATM    6  C13 UNL     1      -1.967  -1.729  -1.182  1.00  0.00     0.006 C 
HETATM    7  C14 UNL     1      -2.334  -3.228  -1.393  1.00  0.00     0.007 C 
HETATM    8  C15 UNL     1      -3.146  -3.544  -0.196  1.00  0.00     0.004 C 
HETATM    9  C16 UNL     1      -3.826  -4.837  -0.121  1.00  0.00    -0.017 C 
HETATM   10  C17 UNL     1      -5.138  -4.726  -0.914  1.00  0.00     0.018 C 
HETATM   11  C18 UNL     1      -3.087  -6.005  -0.691  1.00  0.00     0.018 C 
HETATM   12  C19 UNL     1      -4.127  -4.991   1.363  1.00  0.00     0.127 C 
HETATM   13  C20 UNL     1      -3.375  -3.858   2.073  1.00  0.00     0.042 C 
HETATM   14  C21 UNL     1      -2.348  -3.429   1.079  1.00  0.00    -0.033 C 
HETATM   15  C22 UNL     1      -1.212  -4.430   1.142  1.00  0.00     0.016 C 
HETATM   16  C23 UNL     1      -0.171  -0.514   0.183  1.00  0.00     0.036 C 
ENDROOT
BRANCH  16  17
HETATM   17  C24 UNL     1       0.675  -0.210  -1.019  1.00  0.00    -0.010 C 
HETATM   18  C25 UNL     1       1.254  -1.583  -1.419  1.00  0.00     0.010 C 
BRANCH  17  19
HETATM   19  C26 UNL     1       1.863   0.643  -0.726  1.00  0.00     0.014 C 
BRANCH  19  20
HETATM   20  C27 UNL     1       2.628   0.942  -1.985  1.00  0.00     0.111 C 
BRANCH  20  21
HETATM   21  C28 UNL     1       3.817   1.806  -1.706  1.00  0.00     0.259 C 
HETATM   22  O5  UNL     1       4.526   2.158  -2.681  1.00  0.00    -0.265 OA
BRANCH  21  23
HETATM   23  O6  UNL     1       4.158   2.224  -0.444  1.00  0.00    -0.318 OA
BRANCH  23  24
HETATM   24  C29 UNL     1       5.291   3.038  -0.232  1.00  0.00     0.206 C 
BRANCH  24  25
HETATM   25  C30 UNL     1       6.564   2.422  -0.664  1.00  0.00     0.002 C 
HETATM   26  C31 UNL     1       7.526   2.221   0.213  1.00  0.00    -0.089 C 
HETATM   27  C32 UNL     1       7.329   2.611   1.623  1.00  0.00     0.042 C 
HETATM   28  C33 UNL     1       8.839   1.604  -0.155  1.00  0.00     0.042 C 
ENDBRANCH  24  25
ENDBRANCH  23  24
ENDBRANCH  21  23
ENDBRANCH  20  21
ENDBRANCH  19  20
ENDBRANCH  17  19
ENDBRANCH  16  17
BRANCH   1  29
HETATM   29  C7  UNL     1      -1.448   1.660  -0.065  1.00  0.00     0.161 C 
HETATM   30  O2  UNL     1      -2.273   1.434  -0.941  1.00  0.00    -0.295 OA
BRANCH  29  31
HETATM   31  C6  UNL     1      -1.088   3.108   0.033  1.00  0.00     0.089 C 
BRANCH  31  32
HETATM   32  C5  UNL     1      -1.814   3.974  -0.959  1.00  0.00     0.090 C 
BRANCH  32  33
HETATM   33  C4  UNL     1      -1.333   5.383  -0.730  1.00  0.00     0.149 C 
HETATM   34  O1  UNL     1      -0.190   5.673  -1.155  1.00  0.00    -0.293 OA
BRANCH  33  35
HETATM   35  C3  UNL     1      -2.130   6.366  -0.060  1.00  0.00     0.045 C 
HETATM   36  C2  UNL     1      -1.751   7.591   0.153  1.00  0.00    -0.027 C 
HETATM   37  C1  UNL     1      -0.443   8.134  -0.268  1.00  0.00     0.036 C 
ENDBRANCH  33  35
ENDBRANCH  32  33
ENDBRANCH  31  32
ENDBRANCH  29  31
ENDBRANCH   1  29
BRANCH   1  38
HETATM   38  O3  UNL     1       0.115   1.338   1.595  1.00  0.00    -0.382 OA
ATOM     39  H3  UNL     1       0.498   0.681   2.165  1.00  0.00     0.211 HD
ENDBRANCH   1  38
BRANCH  12  40
HETATM   40  O4  UNL     1      -3.790  -6.232   1.846  1.00  0.00    -0.395 OA
ATOM     41  H4  UNL     1      -3.978  -6.328   2.772  1.00  0.00     0.210 HD
ENDBRANCH  12  40
TORSDOF 14
