REMARK  3 active torsions:
REMARK  status: ('A' for Active; 'I' for Inactive)
REMARK    1  A    between atoms: N1_4  and  C4_5 
REMARK       I    between atoms: N3_9  and  C6_11 
REMARK       I    between atoms: C6_11  and  N4_13 
REMARK    2  A    between atoms: N4_13  and  N5_15 
REMARK    3  A    between atoms: N8_23  and  N9_25 
ROOT
HETATM    1  C4  UNL     1      -1.174  -0.501   0.022  1.00  0.00     0.710 C 
HETATM    2  N2  UNL     1      -0.105  -1.213  -0.087  1.00  0.00    -0.020 N 
ATOM      3  H2  UNL     1      -0.285  -2.185  -0.338  1.00  0.00     0.203 HD
HETATM    4  C5  UNL     1       1.275  -0.913   0.073  1.00  0.00     0.715 C 
HETATM    5  N3  UNL     1       2.091  -1.928   0.167  1.00  0.00    -0.138 N 
ATOM      6  H3  UNL     1       1.698  -2.868   0.121  1.00  0.00     0.189 HD
HETATM    7  C6  UNL     1       3.470  -1.798   0.327  1.00  0.00     0.352 C 
HETATM    8  O1  UNL     1       3.985  -1.943   1.459  1.00  0.00    -0.245 OA
HETATM    9  N4  UNL     1       4.291  -1.504  -0.785  1.00  0.00    -0.258 N 
ATOM     10  H4  UNL     1       3.848  -1.391  -1.697  1.00  0.00     0.191 HD
HETATM   11  N6  UNL     1       1.825   0.398   0.136  1.00  0.00    -0.117 N 
ATOM     12  H6  UNL     1       2.844   0.448   0.143  1.00  0.00     0.206 HD
HETATM   13  N7  UNL     1       1.151   1.646   0.191  1.00  0.00    -0.116 N 
ATOM     14  H7  UNL     1       1.745   2.474   0.137  1.00  0.00     0.206 HD
HETATM   15  C7  UNL     1      -0.244   1.892   0.312  1.00  0.00     0.726 C 
HETATM   16  N8  UNL     1      -0.677   3.103   0.389  1.00  0.00    -0.137 N 
ATOM     17  H8  UNL     1      -1.679   3.274   0.476  1.00  0.00     0.205 HD
HETATM   18  N10 UNL     1      -1.259   0.898   0.361  1.00  0.00    -0.019 N 
ATOM     19  H10 UNL     1      -2.173   1.218   0.680  1.00  0.00     0.203 HD
ENDROOT
BRANCH   1  20
HETATM   20  N1  UNL     1      -2.426  -1.134  -0.212  1.00  0.00    -0.209 N 
HETATM   21  C2  UNL     1      -3.840  -1.220   0.230  1.00  0.00     0.116 A 
HETATM   22  C1  UNL     1      -4.715  -0.052  -0.109  1.00  0.00     0.034 C 
HETATM   23  C3  UNL     1      -3.327  -2.049  -0.893  1.00  0.00     0.167 A 
ENDBRANCH   1  20
BRANCH   9  24
HETATM   24  N5  UNL     1       5.684  -1.360  -0.699  1.00  0.00    -0.341 N 
ATOM     25  H52 UNL     1       6.110  -1.477   0.220  1.00  0.00     0.177 HD
ATOM     26  H51 UNL     1       6.277  -1.148  -1.502  1.00  0.00     0.177 HD
ENDBRANCH   9  24
BRANCH  16  27
HETATM   27  N9  UNL     1       0.197   4.173   0.355  1.00  0.00    -0.331 N 
ATOM     28  H92 UNL     1       1.196   3.984   0.267  1.00  0.00     0.177 HD
ATOM     29  H91 UNL     1      -0.146   5.132   0.416  1.00  0.00     0.177 HD
ENDBRANCH  16  27
TORSDOF 3
