REMARK  2 active torsions:
REMARK  status: ('A' for Active; 'I' for Inactive)
REMARK    1  A    between atoms: N1_1  and  N2_4 
REMARK       I    between atoms: N2_4  and  C1_6 
REMARK       I    between atoms: C1_6  and  N3_8 
REMARK    2  A    between atoms: C3_15  and  S1_16 
ROOT
HETATM    1  N2  UNL     1      -3.546  -0.352  -0.359  1.00  0.00    -0.258 N 
ATOM      2  H2  UNL     1      -3.500  -1.251  -0.839  1.00  0.00     0.191 HD
HETATM    3  C1  UNL     1      -2.533   0.039   0.553  1.00  0.00     0.352 C 
HETATM    4  O1  UNL     1      -2.574   1.153   1.160  1.00  0.00    -0.245 OA
HETATM    5  N3  UNL     1      -1.436  -0.793   0.825  1.00  0.00    -0.137 N 
ATOM      6  H3  UNL     1      -1.621  -1.707   1.239  1.00  0.00     0.189 HD
HETATM    7  C2  UNL     1      -0.209  -0.477   0.585  1.00  0.00     0.715 A 
HETATM    8  N4  UNL     1       0.202   0.760   0.010  1.00  0.00    -0.128 N 
ATOM      9  H4  UNL     1      -0.505   1.453  -0.234  1.00  0.00     0.205 HD
HETATM   10  N5  UNL     1       1.553   1.049  -0.229  1.00  0.00    -0.258 N 
ATOM     11  H5  UNL     1       1.785   1.952  -0.643  1.00  0.00     0.190 HD
HETATM   12  C3  UNL     1       2.519   0.239   0.045  1.00  0.00     0.255 A 
HETATM   13  N6  UNL     1       2.169  -1.013   0.621  1.00  0.00    -0.258 N 
ATOM     14  H6  UNL     1       2.916  -1.670   0.846  1.00  0.00     0.190 HD
HETATM   15  N7  UNL     1       0.840  -1.388   0.896  1.00  0.00    -0.128 N 
ATOM     16  H7  UNL     1       0.632  -2.296   1.311  1.00  0.00     0.205 HD
ENDROOT
BRANCH   1  17
HETATM   17  N1  UNL     1      -4.606   0.525  -0.581  1.00  0.00    -0.341 N 
ATOM     18  H12 UNL     1      -4.637   1.420  -0.093  1.00  0.00     0.177 HD
ATOM     19  H11 UNL     1      -5.335   0.244  -1.237  1.00  0.00     0.177 HD
ENDBRANCH   1  17
BRANCH  12  20
HETATM   20  S1  UNL     1       4.197   0.668  -0.282  1.00  0.00     0.175 S 
HETATM   21  O2  UNL     1       4.314   1.599  -1.434  1.00  0.00    -0.589 OA
HETATM   22  O3  UNL     1       4.938  -0.617  -0.482  1.00  0.00    -0.589 OA
HETATM   23  O4  UNL     1       4.871   1.445   1.065  1.00  0.00    -0.589 OA
ENDBRANCH  12  20
TORSDOF 2
