REMARK  7 active torsions:
REMARK  status: ('A' for Active; 'I' for Inactive)
REMARK    1  A    between atoms: C2_2  and  N1_3 
REMARK    2  A    between atoms: C3_9  and  N3_10 
REMARK    3  A    between atoms: N3_10  and  N4_12 
REMARK    4  A    between atoms: N7_20  and  O1_21 
REMARK    5  A    between atoms: C5_23  and  C6_24 
REMARK    6  A    between atoms: C6_24  and  N9_28 
REMARK    7  A    between atoms: N9_28  and  N10_30 
ROOT
HETATM    1  C1  UNL     1       0.055  -1.539   1.535  1.00  0.00     0.073 C 
HETATM    2  C2  UNL     1       0.174  -0.920   0.134  1.00  0.00     0.231 C 
HETATM    3  N2  UNL     1      -1.055  -1.117  -0.606  1.00  0.00    -0.188 N 
ATOM      4  H2  UNL     1      -1.025  -1.858  -1.307  1.00  0.00     0.180 HD
HETATM    5  C3  UNL     1      -2.196  -0.489  -0.511  1.00  0.00     0.692 C 
HETATM    6  N6  UNL     1      -2.489   0.577   0.381  1.00  0.00    -0.211 N 
ATOM      7  H6  UNL     1      -3.468   0.835   0.502  1.00  0.00     0.179 HD
HETATM    8  C4  UNL     1      -1.489   1.335   1.141  1.00  0.00     0.261 C 
HETATM    9  N7  UNL     1      -0.348   1.507   0.298  1.00  0.00    -0.165 NA
HETATM   10  C5  UNL     1       0.621   0.475   0.304  1.00  0.00     0.212 C 
ENDROOT
BRANCH  10  11
HETATM   11  C6  UNL     1       1.657   0.792  -0.727  1.00  0.00     0.114 C 
HETATM   12  N8  UNL     1       1.361   1.697  -1.598  1.00  0.00    -0.386 N 
ATOM     13  H82 UNL     1       0.457   2.169  -1.571  1.00  0.00     0.157 HD
ATOM     14  H81 UNL     1       2.068   1.913  -2.301  1.00  0.00     0.157 HD
BRANCH  11  15
HETATM   15  N9  UNL     1       2.915   0.135  -0.764  1.00  0.00    -0.294 N 
ATOM     16  H9  UNL     1       3.240  -0.216  -1.665  1.00  0.00     0.187 HD
BRANCH  15  17
HETATM   17  N10 UNL     1       3.736  -0.064   0.342  1.00  0.00    -0.344 N 
ATOM     18 2H10 UNL     1       3.395   0.294   1.234  1.00  0.00     0.176 HD
ATOM     19 1H10 UNL     1       4.640  -0.536   0.315  1.00  0.00     0.176 HD
ENDBRANCH  15  17
ENDBRANCH  11  15
ENDBRANCH  10  11
BRANCH   2  20
HETATM   20  N1  UNL     1       1.172  -1.726  -0.556  1.00  0.00    -0.050 N 
ATOM     21  H13 UNL     1       2.060  -1.796  -0.060  1.00  0.00     0.277 HD
ATOM     22  H12 UNL     1       0.962  -2.724  -0.563  1.00  0.00     0.277 HD
ATOM     23  H11 UNL     1       1.251  -1.315  -1.486  1.00  0.00     0.277 HD
ENDBRANCH   2  20
BRANCH   9  24
HETATM   24  O1  UNL     1       0.282   2.653   0.724  1.00  0.00    -0.311 OA
ATOM     25  H1  UNL     1       1.041   2.767   0.164  1.00  0.00     0.237 HD
ENDBRANCH   9  24
BRANCH   5  26
HETATM   26  N3  UNL     1      -3.264  -0.883  -1.367  1.00  0.00    -0.118 N 
ATOM     27  H3  UNL     1      -3.062  -1.119  -2.338  1.00  0.00     0.207 HD
BRANCH  26  28
HETATM   28  N4  UNL     1      -4.443  -0.946  -0.956  1.00  0.00    -0.235 N 
HETATM   29  N5  UNL     1      -5.597  -0.582  -0.671  1.00  0.00    -0.330 N 
ATOM     30  H52 UNL     1      -5.502   0.389  -0.970  1.00  0.00     0.178 HD
ATOM     31  H51 UNL     1      -6.559  -0.633  -0.336  1.00  0.00     0.178 HD
ATOM     32  H4  UNL     1      -4.485  -1.925  -0.672  1.00  0.00     0.208 HD
ENDBRANCH  26  28
ENDBRANCH   5  26
TORSDOF 7
