REMARK  3 active torsions:
REMARK  status: ('A' for Active; 'I' for Inactive)
REMARK    1  A    between atoms: N1_1  and  C1_4 
REMARK    2  A    between atoms: C4_11  and  N4_12 
REMARK    3  A    between atoms: N6_20  and  N7_21 
ROOT
HETATM    1  C1  UNL     1       2.898   1.936   0.728  1.00  0.00     0.678 A 
HETATM    2  N2  UNL     1       3.619   0.868   0.394  1.00  0.00    -0.175 N 
ATOM      3  H2  UNL     1       4.638   0.822   0.423  1.00  0.00     0.186 HD
HETATM    4  C2  UNL     1       2.803  -0.158   0.007  1.00  0.00     0.149 A 
HETATM    5  C3  UNL     1       1.508   0.337   0.120  1.00  0.00     0.138 A 
HETATM    6  N3  UNL     1       1.608   1.603   0.557  1.00  0.00    -0.184 N 
ATOM      7  H3  UNL     1       0.818   2.223   0.734  1.00  0.00     0.184 HD
HETATM    8  C4  UNL     1       0.463  -0.415  -0.183  1.00  0.00     0.153 A 
HETATM    9  N6  UNL     1       0.724  -1.738  -0.624  1.00  0.00    -0.263 N 
HETATM   10  C9  UNL     1       2.060  -2.277  -0.750  1.00  0.00     0.273 A 
HETATM   11  N8  UNL     1       3.075  -1.332  -0.383  1.00  0.00    -0.356 N 
ATOM     12  H8  UNL     1       4.053  -1.616  -0.438  1.00  0.00     0.162 HD
ENDROOT
BRANCH   8  13
HETATM   13  N4  UNL     1      -0.864   0.067  -0.076  1.00  0.00    -0.361 N 
HETATM   14  C5  UNL     1      -1.725   0.266  -1.240  1.00  0.00     0.152 C 
HETATM   15  C6  UNL     1      -2.932   1.036  -0.820  1.00  0.00     0.252 C 
HETATM   16  N5  UNL     1      -3.659   0.468   0.270  1.00  0.00    -0.072 N 
HETATM   17  C7  UNL     1      -2.843  -0.273   1.202  1.00  0.00     0.252 C 
ATOM     18  H52 UNL     1      -4.193   1.188   0.757  1.00  0.00     0.277 HD
ATOM     19  H51 UNL     1      -4.424  -0.112  -0.075  1.00  0.00     0.277 HD
HETATM   20  C8  UNL     1      -1.465   0.399   1.214  1.00  0.00     0.152 C 
ENDBRANCH   8  13
BRANCH   9  21
HETATM   21  N7  UNL     1      -0.337  -2.609  -0.968  1.00  0.00    -0.340 N 
ATOM     22  H72 UNL     1      -1.279  -2.229  -0.879  1.00  0.00     0.177 HD
ATOM     23  H71 UNL     1      -0.149  -3.560  -1.285  1.00  0.00     0.177 HD
ENDBRANCH   9  21
BRANCH   1  24
HETATM   24  N1  UNL     1       3.328   3.092   1.142  1.00  0.00    -0.234 N 
ATOM     25  H12 UNL     1       4.308   3.345   1.272  1.00  0.00     0.174 HD
ATOM     26  H11 UNL     1       2.776   3.910   1.398  1.00  0.00     0.174 HD
ENDBRANCH   1  24
TORSDOF 3
