REMARK  12 active torsions:
REMARK  status: ('A' for Active; 'I' for Inactive)
REMARK    1  A    between atoms: C2_2  and  N1_5 
REMARK       I    between atoms: N1_5  and  C5_7 
REMARK    2  A    between atoms: C5_7  and  C6_9 
REMARK    3  A    between atoms: N2_14  and  C11_15 
REMARK    4  A    between atoms: C11_15  and  C12_19 
REMARK    5  A    between atoms: C12_19  and  C13_23 
REMARK    6  A    between atoms: C13_23  and  S1_24 
REMARK    7  A    between atoms: S1_24  and  C14_26 
REMARK    8  A    between atoms: C15_27  and  C16_28 
REMARK    9  A    between atoms: C16_28  and  C17_29 
REMARK   10  A    between atoms: C17_29  and  N5_30 
REMARK   11  A    between atoms: N6_33  and  C20_34 
REMARK   12  A    between atoms: C20_34  and  C21_35 
ROOT
HETATM    1  C12 UNL     1      -0.929   0.259  -0.786  1.00  0.00     0.058 C 
HETATM    2  N4  UNL     1      -0.100   1.247  -0.950  1.00  0.00    -0.399 N 
ATOM      3  H41 UNL     1       0.567   1.429  -0.200  1.00  0.00     0.156 HD
ATOM      4  H42 UNL     1      -0.169   1.778  -1.818  1.00  0.00     0.156 HD
ENDROOT
BRANCH   1   5
HETATM    5  C11 UNL     1      -1.876   0.001  -1.851  1.00  0.00     0.121 C 
HETATM    6  N3  UNL     1      -1.828   0.755  -2.889  1.00  0.00    -0.384 N 
ATOM      7  H32 UNL     1      -2.495   0.573  -3.639  1.00  0.00     0.157 HD
ATOM      8  H31 UNL     1      -1.126   1.494  -2.929  1.00  0.00     0.157 HD
BRANCH   5   9
HETATM    9  N2  UNL     1      -2.843  -1.017  -1.796  1.00  0.00    -0.352 N 
HETATM   10  C6  UNL     1      -4.004  -1.123  -0.921  1.00  0.00     0.182 C 
HETATM   11  C7  UNL     1      -4.887  -1.880  -1.861  1.00  0.00     0.024 A 
HETATM   12  C8  UNL     1      -5.210  -3.226  -2.065  1.00  0.00     0.014 A 
HETATM   13  C9  UNL     1      -3.822  -3.047  -1.995  1.00  0.00     0.010 A 
HETATM   14  C10 UNL     1      -2.835  -2.190  -2.678  1.00  0.00     0.130 C 
BRANCH  10  15
HETATM   15  C5  UNL     1      -4.533   0.172  -0.512  1.00  0.00     0.241 C 
HETATM   16  N1  UNL     1      -5.676   0.250   0.351  1.00  0.00    -0.351 N 
ATOM     17  H1  UNL     1      -6.110  -0.615   0.672  1.00  0.00     0.163 HD
HETATM   18  O1  UNL     1      -4.020   1.232  -0.891  1.00  0.00    -0.271 OA
BRANCH  16  19
HETATM   19  C2  UNL     1      -6.231   1.505   0.780  1.00  0.00     0.022 C 
HETATM   20  C1  UNL     1      -7.430   1.238   1.681  1.00  0.00     0.037 C 
HETATM   21  C3  UNL     1      -6.704   2.252  -0.447  1.00  0.00     0.037 C 
HETATM   22  C4  UNL     1      -5.214   2.368   1.492  1.00  0.00     0.037 C 
ENDBRANCH  16  19
ENDBRANCH  10  15
ENDBRANCH   5   9
ENDBRANCH   1   5
BRANCH   1  23
HETATM   23  C13 UNL     1      -0.828  -0.515   0.478  1.00  0.00     0.173 C 
BRANCH  23  24
HETATM   24  S1  UNL     1      -0.528  -2.039   0.137  1.00  0.00     0.044 S 
HETATM   25  O2  UNL     1      -1.325  -2.890   0.967  1.00  0.00    -0.253 OA
BRANCH  24  26
HETATM   26  C14 UNL     1       0.637  -2.725  -0.628  1.00  0.00     0.078 C 
HETATM   27  C15 UNL     1       2.023  -2.735  -0.284  1.00  0.00     0.007 C 
BRANCH  27  28
HETATM   28  C16 UNL     1       3.018  -1.684  -0.188  1.00  0.00     0.001 C 
BRANCH  28  29
HETATM   29  C17 UNL     1       2.977  -0.592   0.774  1.00  0.00     0.267 C 
BRANCH  29  30
HETATM   30  N5  UNL     1       4.130   0.270   0.673  1.00  0.00    -0.037 N 
HETATM   31  C18 UNL     1       3.800   1.662   0.910  1.00  0.00     0.268 C 
HETATM   32  C19 UNL     1       5.150   2.232   1.355  1.00  0.00     0.268 C 
HETATM   33  N6  UNL     1       6.044   1.118   1.305  1.00  0.00    -0.030 N 
HETATM   34  C22 UNL     1       6.286   0.771  -0.055  1.00  0.00     0.268 C 
HETATM   35  C24 UNL     1       5.122   0.039   1.721  1.00  0.00     0.474 C 
HETATM   36  C23 UNL     1       4.928   0.173  -0.488  1.00  0.00     0.268 C 
BRANCH  33  37
HETATM   37  C20 UNL     1       7.173   1.198   2.164  1.00  0.00     0.352 C 
BRANCH  37  38
HETATM   38  C21 UNL     1       8.136   2.230   1.783  1.00  0.00     0.199 C 
HETATM   39  O3  UNL     1       9.176   2.383   2.479  1.00  0.00    -0.647 OA
HETATM   40  O4  UNL     1       7.949   3.036   0.699  1.00  0.00    -0.647 OA
ENDBRANCH  37  38
ENDBRANCH  33  37
ENDBRANCH  29  30
ENDBRANCH  28  29
ENDBRANCH  27  28
ENDBRANCH  24  26
ENDBRANCH  23  24
ENDBRANCH   1  23
TORSDOF 12
