REMARK  13 active torsions:
REMARK  status: ('A' for Active; 'I' for Inactive)
REMARK       I    between atoms: C2_2  and  N1_4 
REMARK    1  A    between atoms: N1_4  and  C3_6 
REMARK    2  A    between atoms: C3_6  and  C4_7 
REMARK       I    between atoms: C4_7  and  N2_9 
REMARK    3  A    between atoms: N2_9  and  C5_11 
REMARK    4  A    between atoms: C5_11  and  C6_12 
REMARK    5  A    between atoms: C5_11  and  C25_38 
REMARK       I    between atoms: C6_12  and  N3_14 
REMARK    6  A    between atoms: N3_14  and  C7_16 
REMARK    7  A    between atoms: C7_16  and  C8_17 
REMARK    8  A    between atoms: C7_16  and  C23_33 
REMARK    9  A    between atoms: C8_17  and  C9_18 
REMARK   10  A    between atoms: C10_19  and  C11_20 
REMARK   11  A    between atoms: C12_21  and  C13_22 
REMARK   12  A    between atoms: C13_22  and  N4_23 
REMARK   13  A    between atoms: C23_33  and  C24_35 
ROOT
HETATM    1  C7  UNL     1       2.116   2.162   2.508  1.00  0.00     0.175 C 
ENDROOT
BRANCH   1   2
HETATM    2  N3  UNL     1       2.732   1.360   1.473  1.00  0.00    -0.346 N 
HETATM    3  C6  UNL     1       4.063   1.475   1.063  1.00  0.00     0.241 C 
HETATM    4  O3  UNL     1       4.797   2.326   1.616  1.00  0.00    -0.271 OA
ATOM      5  H3  UNL     1       2.153   0.660   1.009  1.00  0.00     0.163 HD
BRANCH   3   6
HETATM    6  C5  UNL     1       4.632   0.625   0.001  1.00  0.00     0.180 C 
BRANCH   6   7
HETATM    7  N2  UNL     1       6.011   0.977  -0.207  1.00  0.00    -0.346 N 
HETATM    8  C4  UNL     1       7.091   0.093  -0.051  1.00  0.00     0.236 C 
HETATM    9  O2  UNL     1       6.897  -1.114   0.296  1.00  0.00    -0.272 OA
ATOM     10  H2  UNL     1       6.219   1.935  -0.487  1.00  0.00     0.163 HD
BRANCH   8  11
HETATM   11  C3  UNL     1       8.470   0.579  -0.296  1.00  0.00     0.225 C 
BRANCH  11  12
HETATM   12  N1  UNL     1       9.489  -0.404  -0.115  1.00  0.00    -0.353 N 
HETATM   13  C2  UNL     1       9.588  -1.594  -0.848  1.00  0.00     0.213 C 
HETATM   14  C1  UNL     1      10.675  -2.582  -0.608  1.00  0.00     0.117 C 
HETATM   15  O1  UNL     1       8.747  -1.870  -1.749  1.00  0.00    -0.274 OA
ATOM     16  H1  UNL     1      10.196  -0.228   0.599  1.00  0.00     0.162 HD
ENDBRANCH  11  12
ENDBRANCH   8  11
ENDBRANCH   6   7
BRANCH   6  17
HETATM   17  C25 UNL     1       3.874   0.692  -1.301  1.00  0.00     0.009 C 
HETATM   18  C26 UNL     1       4.549  -0.307  -2.246  1.00  0.00     0.012 C 
HETATM   19  C27 UNL     1       3.985   2.043  -1.976  1.00  0.00     0.012 C 
ENDBRANCH   6  17
ENDBRANCH   3   6
ENDBRANCH   1   2
BRANCH   1  20
HETATM   20  C8  UNL     1       1.010   2.997   1.945  1.00  0.00     0.128 C 
BRANCH  20  21
HETATM   21  C9  UNL     1      -0.008   2.119   1.350  1.00  0.00    -0.090 C 
HETATM   22  C10 UNL     1      -0.855   1.407   0.836  1.00  0.00    -0.015 C 
BRANCH  22  23
HETATM   23  C11 UNL     1      -1.845   0.598   0.217  1.00  0.00    -0.013 C 
HETATM   24  C12 UNL     1      -2.691  -0.076  -0.328  1.00  0.00    -0.064 C 
BRANCH  24  25
HETATM   25  C13 UNL     1      -3.720  -0.870  -1.008  1.00  0.00     0.336 C 
BRANCH  25  26
HETATM   26  N4  UNL     1      -5.075  -0.496  -0.586  1.00  0.00    -0.041 N 
HETATM   27  C14 UNL     1      -4.851   0.858  -0.013  1.00  0.00     0.279 C 
HETATM   28  C15 UNL     1      -5.525  -1.369   0.389  1.00  0.00     0.199 C 
HETATM   29  C16 UNL     1      -6.527  -2.409   0.257  1.00  0.00    -0.002 C 
HETATM   30  C17 UNL     1      -6.918  -3.000  -1.036  1.00  0.00     0.028 C 
HETATM   31  C18 UNL     1      -8.061  -2.383  -1.770  1.00  0.00     0.004 C 
HETATM   32  C19 UNL     1      -8.816  -1.310  -1.077  1.00  0.00     0.000 C 
HETATM   33  C20 UNL     1      -8.129  -0.013  -0.846  1.00  0.00     0.002 C 
HETATM   34  C21 UNL     1      -7.084   0.381  -1.807  1.00  0.00     0.028 C 
HETATM   35  C22 UNL     1      -5.766  -0.240  -1.795  1.00  0.00     0.243 C 
ENDBRANCH  25  26
ENDBRANCH  24  25
ENDBRANCH  22  23
ENDBRANCH  20  21
ENDBRANCH   1  20
BRANCH   1  36
HETATM   36  C23 UNL     1       1.620   1.368   3.632  1.00  0.00     0.237 C 
HETATM   37  O4  UNL     1       1.770   0.117   3.553  1.00  0.00    -0.285 OA
BRANCH  36  38
HETATM   38  C24 UNL     1       0.976   1.894   4.823  1.00  0.00     0.302 C 
HETATM   39  N5  UNL     1       0.551   1.000   5.830  1.00  0.00    -0.054 NA
HETATM   40  O5  UNL     1       0.776   3.123   5.004  1.00  0.00    -0.268 OA
ENDBRANCH  36  38
ENDBRANCH   1  36
TORSDOF 13
