REMARK  12 active torsions:
REMARK  status: ('A' for Active; 'I' for Inactive)
REMARK    1  A    between atoms: C2_2  and  C3_3 
REMARK    2  A    between atoms: C3_3  and  N1_4 
REMARK    3  A    between atoms: N1_4  and  C4_5 
REMARK    4  A    between atoms: N1_4  and  S1_10 
REMARK    5  A    between atoms: C4_5  and  C5_6 
REMARK    6  A    between atoms: S1_10  and  C9_12 
REMARK    7  A    between atoms: S1_10  and  N4_18 
REMARK    8  A    between atoms: C9_12  and  N2_13 
REMARK    9  A    between atoms: N4_18  and  C11_20 
REMARK   10  A    between atoms: C11_20  and  C12_22 
REMARK   11  A    between atoms: C12_22  and  N5_24 
REMARK       I    between atoms: C14_26  and  N6_27 
REMARK       I    between atoms: C14_26  and  N7_32 
REMARK       I    between atoms: N6_27  and  C15_29 
REMARK   12  A    between atoms: N7_32  and  C17_34 
ROOT
HETATM    1  C11 UNL     1       0.231  -0.755  -1.732  1.00  0.00     0.135 C 
HETATM    2  S2  UNL     1      -0.080  -2.201  -2.365  1.00  0.00    -0.057 SA
ENDROOT
BRANCH   1   3
HETATM    3  N4  UNL     1      -0.348  -0.282  -0.570  1.00  0.00    -0.292 N 
ATOM      4  H4  UNL     1      -0.124   0.661  -0.253  1.00  0.00     0.177 HD
BRANCH   3   5
HETATM    5  S1  UNL     1      -1.591  -1.377   0.490  1.00  0.00     0.112 S 
HETATM    6  O1  UNL     1      -2.626  -1.209  -1.180  1.00  0.00    -0.232 OA
BRANCH   5   7
HETATM    7  N1  UNL     1      -3.122  -0.494   1.118  1.00  0.00    -0.223 NA
BRANCH   7   8
HETATM    8  C3  UNL     1      -3.391  -0.554   2.514  1.00  0.00     0.132 C 
BRANCH   8   9
HETATM    9  C2  UNL     1      -3.520  -1.970   2.978  1.00  0.00    -0.022 C 
HETATM   10  C1  UNL     1      -4.660  -2.403   3.539  1.00  0.00     0.008 C 
ENDBRANCH   8   9
ENDBRANCH   7   8
BRANCH   7  11
HETATM   11  C4  UNL     1      -3.006   0.919   0.760  1.00  0.00     0.111 C 
BRANCH  11  12
HETATM   12  C5  UNL     1      -4.347   1.598   0.889  1.00  0.00     0.004 A 
HETATM   13  C6  UNL     1      -5.512   1.172   0.115  1.00  0.00     0.011 A 
HETATM   14  C7  UNL     1      -4.872   2.495  -0.153  1.00  0.00    -0.013 A 
HETATM   15  C8  UNL     1      -4.226   2.631  -1.507  1.00  0.00     0.010 C 
ENDBRANCH  11  12
ENDBRANCH   7  11
ENDBRANCH   5   7
BRANCH   5  16
HETATM   16  C9  UNL     1      -1.597  -3.218   0.221  1.00  0.00     0.293 C 
BRANCH  16  17
HETATM   17  N2  UNL     1      -2.857  -3.865  -0.201  1.00  0.00    -0.214 N 
HETATM   18  C10 UNL     1      -3.369  -4.117  -1.423  1.00  0.00     0.236 A 
HETATM   19  N3  UNL     1      -4.436  -4.670  -0.825  1.00  0.00    -0.235 N 
HETATM   20  O2  UNL     1      -3.906  -4.409   0.313  1.00  0.00    -0.152 OA
ATOM     21  H3  UNL     1      -5.300  -5.110  -1.141  1.00  0.00     0.197 HD
ENDBRANCH  16  17
ENDBRANCH   5  16
ENDBRANCH   3   5
ENDBRANCH   1   3
BRANCH   1  22
HETATM   22  C12 UNL     1       1.170   0.099  -2.481  1.00  0.00     0.078 C 
HETATM   23  C13 UNL     1       1.709  -0.367  -3.579  1.00  0.00     0.047 C 
BRANCH  22  24
HETATM   24  N5  UNL     1       1.449   1.379  -2.003  1.00  0.00    -0.190 N 
HETATM   25  C14 UNL     1       2.538   1.840  -1.535  1.00  0.00     0.681 C 
HETATM   26  N6  UNL     1       2.536   3.213  -1.115  1.00  0.00    -0.160 N 
HETATM   27  N7  UNL     1       3.695   1.033  -1.424  1.00  0.00    -0.221 N 
HETATM   28  C15 UNL     1       3.670   3.863  -0.591  1.00  0.00     0.231 C 
ATOM     29  H6  UNL     1       1.670   3.744  -1.200  1.00  0.00     0.187 HD
HETATM   30  C16 UNL     1       3.599   5.274  -0.175  1.00  0.00     0.118 C 
HETATM   31  O3  UNL     1       4.765   3.279  -0.459  1.00  0.00    -0.273 OA
ATOM     32  H7  UNL     1       4.510   1.328  -1.961  1.00  0.00     0.178 HD
ATOM     33  H5  UNL     1       0.671   2.038  -2.033  1.00  0.00     0.184 HD
BRANCH  27  34
HETATM   34  C17 UNL     1       3.841  -0.150  -0.640  1.00  0.00     0.099 C 
HETATM   35  C18 UNL     1       3.537   0.141   0.814  1.00  0.00     0.026 C 
HETATM   36  C19 UNL     1       4.797   0.290   1.641  1.00  0.00     0.002 C 
HETATM   37  C20 UNL     1       5.435  -1.072   1.762  1.00  0.00     0.000 C 
HETATM   38  C21 UNL     1       5.589  -1.628   0.369  1.00  0.00     0.002 C 
HETATM   39  C22 UNL     1       5.291  -0.603  -0.691  1.00  0.00     0.026 C 
ENDBRANCH  27  34
ENDBRANCH  22  24
ENDBRANCH   1  22
TORSDOF 12
