REMARK  5 active torsions:
REMARK  status: ('A' for Active; 'I' for Inactive)
REMARK    1  A    between atoms: O1_2  and  C2_3 
REMARK    2  A    between atoms: C4_5  and  C5_6 
REMARK       I    between atoms: C5_6  and  N1_8 
REMARK    3  A    between atoms: N2_11  and  C8_12 
REMARK    4  A    between atoms: C12_18  and  O3_19 
REMARK    5  A    between atoms: C16_26  and  O5_27 
ROOT
HETATM    1  C5  UNL     1      -1.497   1.791   0.220  1.00  0.00     0.277 C 
HETATM    2  O2  UNL     1      -1.666   2.986  -0.135  1.00  0.00    -0.265 OA
HETATM    3  N1  UNL     1      -0.241   1.369   0.660  1.00  0.00    -0.343 N 
HETATM    4  C6  UNL     1       0.864   2.323   0.702  1.00  0.00     0.146 C 
HETATM    5  C7  UNL     1       1.970   1.691  -0.115  1.00  0.00     0.143 C 
HETATM    6  N2  UNL     1       2.388   0.482   0.568  1.00  0.00    -0.374 N 
HETATM    7  C14 UNL     1       1.487  -0.140   1.491  1.00  0.00     0.143 C 
HETATM    8  C15 UNL     1       0.028   0.015   1.085  1.00  0.00     0.146 C 
ENDROOT
BRANCH   1   9
HETATM    9  C4  UNL     1      -2.604   0.832   0.178  1.00  0.00     0.148 A 
HETATM   10  C3  UNL     1      -3.895   1.167  -0.248  1.00  0.00     0.085 A 
HETATM   11  C2  UNL     1      -4.604  -0.007  -0.131  1.00  0.00     0.129 A 
HETATM   12  C16 UNL     1      -3.764  -0.990   0.344  1.00  0.00     0.220 A 
HETATM   13  O4  UNL     1      -2.595  -0.432   0.506  1.00  0.00    -0.280 OA
BRANCH  11  14
HETATM   14  O1  UNL     1      -5.946  -0.135  -0.450  1.00  0.00    -0.351 OA
HETATM   15  C1  UNL     1      -6.736   0.918  -0.929  1.00  0.00     0.210 C 
ENDBRANCH  11  14
BRANCH  12  16
HETATM   16  O5  UNL     1      -4.152  -2.303   0.581  1.00  0.00    -0.333 OA
HETATM   17  C17 UNL     1      -3.971  -3.338  -0.363  1.00  0.00     0.212 C 
ENDBRANCH  12  16
ENDBRANCH   1   9
BRANCH   6  18
HETATM   18  C8  UNL     1       3.682  -0.010   0.274  1.00  0.00     0.094 A 
HETATM   19  C9  UNL     1       4.744   0.420   1.026  1.00  0.00     0.065 A 
HETATM   20 CL1  UNL     1       4.440   1.559   2.315  1.00  0.00    -0.082 Cl
HETATM   21  C10 UNL     1       6.035  -0.026   0.785  1.00  0.00     0.053 A 
HETATM   22  C11 UNL     1       6.205  -0.935  -0.261  1.00  0.00     0.072 A 
HETATM   23 CL2  UNL     1       7.805  -1.558  -0.644  1.00  0.00    -0.081 Cl
HETATM   24  C12 UNL     1       5.159  -1.387  -1.036  1.00  0.00     0.128 A 
HETATM   25  C13 UNL     1       3.874  -0.906  -0.752  1.00  0.00     0.179 A 
HETATM   26  F1  UNL     1       2.841  -1.351  -1.516  1.00  0.00    -0.201 F 
BRANCH  24  27
HETATM   27  O3  UNL     1       5.314  -2.288  -2.076  1.00  0.00    -0.356 OA
ATOM     28  H3  UNL     1       4.593  -2.600  -2.610  1.00  0.00     0.218 HD
ENDBRANCH  24  27
ENDBRANCH   6  18
TORSDOF 5
