REMARK  4 active torsions:
REMARK  status: ('A' for Active; 'I' for Inactive)
REMARK    1  A    between atoms: C4_5  and  C5_6 
REMARK    2  A    between atoms: C12_18  and  C13_19 
REMARK    3  A    between atoms: N5_24  and  C14_25 
REMARK    4  A    between atoms: C14_25  and  C15_26 
REMARK       I    between atoms: C15_26  and  N6_28 
ROOT
HETATM    1  C1  UNL     1       1.452   1.968   2.663  1.00  0.00     0.070 C 
HETATM    2  C2  UNL     1       0.985   0.911   1.715  1.00  0.00     0.031 A 
HETATM    3  C3  UNL     1      -0.275   0.454   1.553  1.00  0.00     0.072 A 
HETATM    4 CL1  UNL     1      -1.725   0.950   2.389  1.00  0.00    -0.081 Cl
HETATM    5  C4  UNL     1      -0.220  -0.541   0.545  1.00  0.00     0.063 A 
HETATM    6  C12 UNL     1       1.074  -0.660   0.125  1.00  0.00     0.089 A 
HETATM    7  N5  UNL     1       1.804   0.235   0.847  1.00  0.00    -0.337 N 
ENDROOT
BRANCH   5   8
HETATM    8  C5  UNL     1      -1.425  -1.248   0.116  1.00  0.00     0.138 A 
HETATM    9  N1  UNL     1      -1.955  -2.390   0.577  1.00  0.00    -0.283 N 
HETATM   10  N2  UNL     1      -3.103  -2.671  -0.033  1.00  0.00    -0.287 N 
ATOM     11  H1  UNL     1      -1.532  -2.969   1.302  1.00  0.00     0.188 HD
HETATM   12  C6  UNL     1      -3.306  -1.657  -0.922  1.00  0.00     0.099 A 
ATOM     13  H2  UNL     1      -3.706  -3.477   0.130  1.00  0.00     0.188 HD
HETATM   14  N3  UNL     1      -2.267  -0.783  -0.825  1.00  0.00    -0.320 N 
HETATM   15  C11 UNL     1      -4.484  -1.600  -1.803  1.00  0.00     0.078 C 
HETATM   16  C7  UNL     1      -2.104   0.419  -1.587  1.00  0.00     0.132 C 
HETATM   17  C8  UNL     1      -3.157   1.447  -1.252  1.00  0.00     0.020 C 
HETATM   18  C9  UNL     1      -4.476   0.761  -0.922  1.00  0.00     0.002 C 
HETATM   19  C10 UNL     1      -4.907  -0.178  -1.996  1.00  0.00     0.007 C 
ENDBRANCH   5   8
BRANCH   6  20
HETATM   20  C13 UNL     1       1.552  -1.592  -0.903  1.00  0.00     0.125 C 
HETATM   21  N4  UNL     1       2.706  -1.738  -1.308  1.00  0.00    -0.388 N 
ATOM     22  H42 UNL     1       3.418  -1.143  -0.885  1.00  0.00     0.157 HD
ATOM     23  H41 UNL     1       3.038  -2.386  -2.022  1.00  0.00     0.157 HD
HETATM   24 CL2  UNL     1       0.296  -2.642  -1.650  1.00  0.00    -0.062 Cl
ENDBRANCH   6  20
BRANCH   7  25
HETATM   25  C14 UNL     1       3.208   0.438   0.723  1.00  0.00     0.233 C 
BRANCH  25  26
HETATM   26  C15 UNL     1       4.040  -0.405   1.571  1.00  0.00     0.252 C 
HETATM   27  O1  UNL     1       3.506  -1.236   2.338  1.00  0.00    -0.270 OA
HETATM   28  N6  UNL     1       5.450  -0.321   1.564  1.00  0.00    -0.263 N 
HETATM   29  C16 UNL     1       6.149   0.624   0.697  1.00  0.00     0.174 C 
HETATM   30 CL3  UNL     1       6.410  -1.331   2.576  1.00  0.00     0.015 Cl
ENDBRANCH  25  26
ENDBRANCH   7  25
TORSDOF 4
