REMARK  4 active torsions:
REMARK  status: ('A' for Active; 'I' for Inactive)
REMARK       I    between atoms: C1_2  and  N1_3 
REMARK    1  A    between atoms: C1_2  and  C14_22 
REMARK    2  A    between atoms: N1_3  and  C2_5 
REMARK    3  A    between atoms: C2_5  and  C3_6 
REMARK    4  A    between atoms: C3_6  and  C4_7 
ROOT
HETATM    1  C3  UNL     1      -1.645   0.256   0.381  1.00  0.00     0.020 C 
HETATM    2  C9  UNL     1      -1.594   0.771  -1.026  1.00  0.00     0.017 C 
HETATM    3  C10 UNL     1      -1.050  -0.100  -2.078  1.00  0.00     0.001 C 
HETATM    4  C11 UNL     1      -1.056  -1.565  -1.868  1.00  0.00     0.000 C 
HETATM    5  C12 UNL     1      -1.816  -2.006  -0.634  1.00  0.00     0.001 C 
HETATM    6  C13 UNL     1      -1.235  -1.208   0.501  1.00  0.00     0.017 C 
ENDROOT
BRANCH   1   7
HETATM    7  C2  UNL     1      -0.635   0.999   1.235  1.00  0.00     0.139 C 
BRANCH   7   8
HETATM    8  N1  UNL     1       0.700   0.886   0.666  1.00  0.00    -0.353 N 
HETATM    9  C1  UNL     1       1.780   1.501   1.297  1.00  0.00     0.287 C 
HETATM   10  O1  UNL     1       1.502   2.161   2.374  1.00  0.00    -0.264 OA
ATOM     11  H1  UNL     1       0.845   0.357  -0.194  1.00  0.00     0.162 HD
BRANCH   9  12
HETATM   12  C14 UNL     1       3.164   1.507   0.912  1.00  0.00     0.193 A 
HETATM   13  N3  UNL     1       4.086   2.392   1.366  1.00  0.00    -0.279 N 
HETATM   14  N4  UNL     1       5.234   2.116   0.827  1.00  0.00    -0.278 N 
ATOM     15  H3  UNL     1       3.907   3.151   2.024  1.00  0.00     0.189 HD
HETATM   16  C15 UNL     1       5.091   1.047   0.011  1.00  0.00     0.163 A 
ATOM     17  H4  UNL     1       6.103   2.623   0.992  1.00  0.00     0.189 HD
HETATM   18  N5  UNL     1       3.815   0.674   0.069  1.00  0.00    -0.307 N 
HETATM   19  S1  UNL     1       6.318   0.216  -1.040  1.00  0.00    -0.092 SA
HETATM   20  C16 UNL     1       3.265  -0.486  -0.651  1.00  0.00     0.134 C 
HETATM   21  C17 UNL     1       4.300  -1.498  -1.001  1.00  0.00     0.031 C 
HETATM   22  C18 UNL     1       5.309  -0.986  -2.006  1.00  0.00     0.084 C 
ENDBRANCH   9  12
ENDBRANCH   7   8
ENDBRANCH   1   7
BRANCH   1  23
HETATM   23  C4  UNL     1      -3.013   0.363   0.956  1.00  0.00     0.044 A 
HETATM   24  N2  UNL     1      -3.677  -0.753   1.396  1.00  0.00    -0.364 N 
HETATM   25  C5  UNL     1      -4.876  -0.746   1.947  1.00  0.00     0.133 A 
ATOM     26  H2  UNL     1      -3.210  -1.654   1.290  1.00  0.00     0.165 HD
HETATM   27  C6  UNL     1      -5.581   0.414   2.131  1.00  0.00     0.171 A 
HETATM   28  F1  UNL     1      -6.817   0.398   2.701  1.00  0.00    -0.201 F 
HETATM   29  C7  UNL     1      -4.978   1.578   1.711  1.00  0.00     0.179 A 
HETATM   30  F2  UNL     1      -5.635   2.737   1.873  1.00  0.00    -0.201 F 
HETATM   31  C8  UNL     1      -3.707   1.532   1.132  1.00  0.00     0.099 A 
HETATM   32 CL1  UNL     1      -3.055   3.040   0.599  1.00  0.00    -0.079 Cl
ENDBRANCH   1  23
TORSDOF 4
