REMARK  4 active torsions:
REMARK  status: ('A' for Active; 'I' for Inactive)
REMARK    1  A    between atoms: N1_1  and  C1_5 
REMARK    2  A    between atoms: C1_5  and  C2_6 
REMARK    3  A    between atoms: C2_6  and  N2_7 
REMARK       I    between atoms: C3_9  and  N4_11 
REMARK    4  A    between atoms: C5_13  and  N5_14 
ROOT
HETATM    1  N2  UNL     1       1.445  -0.035  -0.789  1.00  0.00    -0.363 N 
ATOM      2  H2  UNL     1       1.130   0.847  -1.193  1.00  0.00     0.162 HD
HETATM    3  C3  UNL     1       0.600  -0.747  -0.130  1.00  0.00     0.186 C 
HETATM    4  N3  UNL     1       1.060  -1.978   0.427  1.00  0.00    -0.064 NA
HETATM    5  N4  UNL     1      -0.728  -0.306   0.023  1.00  0.00    -0.349 N 
HETATM    6  C4  UNL     1      -1.727  -0.325  -1.016  1.00  0.00     0.159 C 
HETATM    7  C5  UNL     1      -2.943   0.371  -0.448  1.00  0.00     0.207 C 
HETATM    8  C6  UNL     1      -2.718   0.507   1.015  1.00  0.00     0.042 A 
HETATM    9  C7  UNL     1      -2.346  -0.642   1.872  1.00  0.00     0.034 A 
HETATM   10  C8  UNL     1      -1.288   0.227   1.226  1.00  0.00     0.093 A 
ENDROOT
BRANCH   1  11
HETATM   11  C2  UNL     1       2.822  -0.432  -0.981  1.00  0.00     0.149 C 
BRANCH  11  12
HETATM   12  C1  UNL     1       3.738   0.182   0.078  1.00  0.00     0.249 C 
BRANCH  12  13
HETATM   13  N1  UNL     1       3.619   1.614  -0.051  1.00  0.00    -0.078 N 
ATOM     14  H13 UNL     1       3.812   1.951  -0.994  1.00  0.00     0.274 HD
ATOM     15  H12 UNL     1       2.656   1.945   0.009  1.00  0.00     0.274 HD
ATOM     16  H11 UNL     1       4.230   2.024   0.656  1.00  0.00     0.274 HD
ENDBRANCH  12  13
ENDBRANCH  11  12
ENDBRANCH   1  11
BRANCH   7  17
HETATM   17  N5  UNL     1      -3.090   1.705  -1.010  1.00  0.00    -0.073 N 
ATOM     18  H53 UNL     1      -2.245   2.262  -0.884  1.00  0.00     0.274 HD
ATOM     19  H52 UNL     1      -3.111   1.684  -2.030  1.00  0.00     0.274 HD
ATOM     20  H51 UNL     1      -3.910   2.175  -0.627  1.00  0.00     0.274 HD
ENDBRANCH   7  17
TORSDOF 4
