REMARK  6 active torsions:
REMARK  status: ('A' for Active; 'I' for Inactive)
REMARK    1  A    between atoms: C2_2  and  N1_4 
REMARK    2  A    between atoms: N1_4  and  C4_6 
REMARK       I    between atoms: N3_13  and  C8_14 
REMARK       I    between atoms: C8_14  and  N4_16 
REMARK    3  A    between atoms: N4_16  and  C9_18 
REMARK    4  A    between atoms: C9_18  and  C10_19 
REMARK    5  A    between atoms: C9_18  and  C11_22 
REMARK    6  A    between atoms: C10_19  and  O2_20 
ROOT
HETATM    1  C4  UNL     1      -3.844  -0.804  -0.566  1.00  0.00     0.116 A 
HETATM    2  N2  UNL     1      -4.698  -1.117  -1.534  1.00  0.00    -0.312 N 
ATOM      3  H2  UNL     1      -5.688  -0.880  -1.601  1.00  0.00     0.176 HD
HETATM    4  S1  UNL     1      -3.764  -1.997  -2.625  1.00  0.00    -0.014 SA
HETATM    5  C5  UNL     1      -2.268  -1.954  -1.818  1.00  0.00     0.049 A 
HETATM    6  C6  UNL     1      -2.558  -1.237  -0.699  1.00  0.00     0.022 A 
HETATM    7  C7  UNL     1      -1.256  -1.155   0.089  1.00  0.00     0.173 C 
HETATM    8  N3  UNL     1      -0.288  -1.347  -0.949  1.00  0.00    -0.307 N 
HETATM    9  C8  UNL     1       0.936  -0.670  -1.076  1.00  0.00     0.320 C 
HETATM   10  O1  UNL     1       1.664  -0.990  -2.083  1.00  0.00    -0.247 OA
HETATM   11  N4  UNL     1       1.375   0.322  -0.158  1.00  0.00    -0.336 N 
ATOM     12  H4  UNL     1       0.801   0.583   0.644  1.00  0.00     0.164 HD
HETATM   13  C16 UNL     1      -0.809  -2.354  -1.821  1.00  0.00     0.228 C 
HETATM   14 CL1  UNL     1      -0.636  -3.977  -1.155  1.00  0.00    -0.096 Cl
ENDROOT
BRANCH  11  15
HETATM   15  C9  UNL     1       2.672   0.959  -0.392  1.00  0.00     0.113 C 
BRANCH  15  16
HETATM   16  C10 UNL     1       2.320   2.384  -0.767  1.00  0.00     0.189 C 
BRANCH  16  17
HETATM   17  O2  UNL     1       3.468   3.093  -1.044  1.00  0.00    -0.399 OA
ATOM     18  H2  UNL     1       3.247   3.987  -1.279  1.00  0.00     0.209 HD
ENDBRANCH  16  17
ENDBRANCH  15  16
BRANCH  15  19
HETATM   19  C11 UNL     1       3.520   0.817   0.821  1.00  0.00     0.014 C 
HETATM   20  C12 UNL     1       4.889   1.389   0.752  1.00  0.00     0.033 C 
HETATM   21  C13 UNL     1       5.687   0.711  -0.355  1.00  0.00     0.168 C 
HETATM   22  O3  UNL     1       5.828  -0.623  -0.072  1.00  0.00    -0.391 OA
HETATM   23  C14 UNL     1       5.151  -1.065   1.030  1.00  0.00     0.168 C 
HETATM   24  C15 UNL     1       3.689  -0.679   1.078  1.00  0.00     0.033 C 
ENDBRANCH  15  19
ENDBRANCH  11  15
BRANCH   1  25
HETATM   25  N1  UNL     1      -4.248  -0.099   0.475  1.00  0.00    -0.371 N 
ATOM     26  H1  UNL     1      -3.576   0.130   1.208  1.00  0.00     0.161 HD
BRANCH  25  27
HETATM   27  C2  UNL     1      -5.587   0.349   0.605  1.00  0.00     0.075 C 
HETATM   28  C1  UNL     1      -6.557  -0.722   1.010  1.00  0.00     0.031 C 
HETATM   29  C3  UNL     1      -5.678   1.468   1.619  1.00  0.00     0.031 C 
ENDBRANCH  25  27
ENDBRANCH   1  25
TORSDOF 6
