REMARK  7 active torsions:
REMARK  status: ('A' for Active; 'I' for Inactive)
REMARK    1  A    between atoms: O1_2  and  C2_3 
REMARK    2  A    between atoms: C2_3  and  C3_5 
REMARK    3  A    between atoms: C5_9  and  N2_10 
REMARK    4  A    between atoms: N2_10  and  C6_12 
REMARK    5  A    between atoms: C13_22  and  N4_23 
REMARK    6  A    between atoms: N4_23  and  C14_25 
REMARK    7  A    between atoms: C19_30  and  N5_31 
ROOT
HETATM    1  C3  UNL     1      -0.493   1.182  -2.142  1.00  0.00     0.099 A 
HETATM    2  C4  UNL     1       0.857   1.332  -2.016  1.00  0.00     0.127 A 
HETATM    3  N1  UNL     1       1.534   0.843  -0.962  1.00  0.00    -0.201 N 
ATOM      4  H1  UNL     1       2.543   0.983  -0.918  1.00  0.00     0.183 HD
HETATM    5  C5  UNL     1       0.931   0.178   0.033  1.00  0.00     0.679 A 
HETATM    6  N3  UNL     1      -0.425   0.019  -0.079  1.00  0.00    -0.176 N 
ATOM      7  H3  UNL     1      -0.911  -0.483   0.664  1.00  0.00     0.186 HD
HETATM    8  C13 UNL     1      -1.151   0.483  -1.104  1.00  0.00     0.135 A 
ENDROOT
BRANCH   8   9
HETATM    9  N4  UNL     1      -2.390   0.366  -1.255  1.00  0.00    -0.368 N 
ATOM     10  H4  UNL     1      -2.741   0.795  -2.111  1.00  0.00     0.161 HD
BRANCH   9  11
HETATM   11  C14 UNL     1      -3.381  -0.236  -0.482  1.00  0.00     0.113 C 
HETATM   12  C15 UNL     1      -3.250  -1.695  -0.178  1.00  0.00     0.027 C 
HETATM   13  C16 UNL     1      -3.774  -1.978   1.220  1.00  0.00     0.002 C 
HETATM   14  C17 UNL     1      -5.118  -1.300   1.434  1.00  0.00     0.002 C 
HETATM   15  C18 UNL     1      -5.019   0.196   1.277  1.00  0.00     0.035 C 
HETATM   16  C19 UNL     1      -3.598   0.530   0.809  1.00  0.00     0.206 C 
BRANCH  16  17
HETATM   17  N5  UNL     1      -3.501   1.959   0.564  1.00  0.00    -0.073 N 
ATOM     18  H53 UNL     1      -2.621   2.210   0.114  1.00  0.00     0.274 HD
ATOM     19  H52 UNL     1      -4.137   2.264  -0.172  1.00  0.00     0.274 HD
ATOM     20  H51 UNL     1      -3.647   2.474   1.432  1.00  0.00     0.274 HD
ENDBRANCH  16  17
ENDBRANCH   9  11
ENDBRANCH   8   9
BRANCH   1  21
HETATM   21  C2  UNL     1      -1.258   1.697  -3.273  1.00  0.00     0.298 C 
HETATM   22  O2  UNL     1      -0.614   2.319  -4.181  1.00  0.00    -0.259 OA
BRANCH  21  23
HETATM   23  O1  UNL     1      -2.610   1.553  -3.415  1.00  0.00    -0.322 OA
HETATM   24  C1  UNL     1      -3.241   2.106  -4.574  1.00  0.00     0.213 C 
ENDBRANCH  21  23
ENDBRANCH   1  21
BRANCH   5  25
HETATM   25  N2  UNL     1       1.503  -0.305   1.049  1.00  0.00    -0.220 N 
ATOM     26  H2  UNL     1       0.875  -0.778   1.699  1.00  0.00     0.178 HD
BRANCH  25  27
HETATM   27  C6  UNL     1       2.864  -0.307   1.448  1.00  0.00     0.118 C 
HETATM   28  C7  UNL     1       3.505   1.017   1.642  1.00  0.00     0.027 C 
HETATM   29  C8  UNL     1       4.926   1.112   1.132  1.00  0.00     0.002 C 
HETATM   30  C9  UNL     1       5.649  -0.127   1.602  1.00  0.00     0.006 C 
HETATM   31  C10 UNL     1       5.113  -1.284   0.821  1.00  0.00     0.002 C 
HETATM   32  C11 UNL     1       5.626  -2.565   1.465  1.00  0.00     0.011 C 
HETATM   33  C12 UNL     1       3.643  -1.283   0.597  1.00  0.00     0.109 C 
HETATM   34 CL1  UNL     1       3.055  -2.917   1.078  1.00  0.00    -0.122 Cl
ENDBRANCH  25  27
ENDBRANCH   5  25
TORSDOF 7
