REMARK  7 active torsions:
REMARK  status: ('A' for Active; 'I' for Inactive)
REMARK    1  A    between atoms: C2_2  and  C4_4 
REMARK    2  A    between atoms: C4_4  and  O2_6 
REMARK    3  A    between atoms: O2_6  and  C5_7 
REMARK    4  A    between atoms: C10_12  and  O3_13 
REMARK    5  A    between atoms: C16_20  and  O4_21 
REMARK    6  A    between atoms: C16_20  and  C17_23 
REMARK    7  A    between atoms: C17_23  and  O5_24 
ROOT
HETATM    1  C5  UNL     1       0.486   0.191  -0.143  1.00  0.00     0.064 C 
HETATM    2  C6  UNL     1      -0.079   0.114  -1.322  1.00  0.00     0.013 C 
HETATM    3  C7  UNL     1      -1.529  -0.286  -1.169  1.00  0.00     0.034 C 
HETATM    4  C8  UNL     1      -2.463   0.894  -1.218  1.00  0.00     0.018 C 
HETATM    5  C9  UNL     1      -1.873   2.044  -0.538  1.00  0.00     0.022 A 
HETATM    6  C10 UNL     1      -2.447   3.054   0.335  1.00  0.00     0.127 A 
HETATM    7  C11 UNL     1      -2.191   1.770   0.951  1.00  0.00     0.022 A 
HETATM    8  C12 UNL     1      -1.005   1.143   1.493  1.00  0.00     0.025 C 
HETATM    9  C13 UNL     1      -0.520  -0.141   0.910  1.00  0.00     0.030 C 
HETATM   10  C14 UNL     1       0.137  -1.061   1.885  1.00  0.00     0.021 C 
HETATM   11  C15 UNL     1      -0.069  -2.466   1.355  1.00  0.00     0.043 C 
HETATM   12  C16 UNL     1      -0.698  -2.295   0.004  1.00  0.00     0.098 C 
HETATM   13  C18 UNL     1      -1.457  -0.984   0.150  1.00  0.00     0.071 C 
HETATM   14 BR1  UNL     1      -3.103  -1.477   0.947  1.00  0.00    -0.080 Br
ENDROOT
BRANCH   1  15
HETATM   15  O2  UNL     1       1.771   0.515   0.159  1.00  0.00    -0.279 OA
BRANCH  15  16
HETATM   16  C4  UNL     1       2.805   0.843  -0.661  1.00  0.00     0.293 C 
HETATM   17  O1  UNL     1       2.604   0.866  -1.877  1.00  0.00    -0.259 OA
BRANCH  16  18
HETATM   18  C2  UNL     1       4.142   1.168  -0.132  1.00  0.00     0.004 C 
HETATM   19  C1  UNL     1       4.403   1.156   1.153  1.00  0.00     0.024 C 
HETATM   20  C3  UNL     1       5.215   1.515  -1.091  1.00  0.00     0.054 C 
ENDBRANCH  16  18
ENDBRANCH  15  16
ENDBRANCH   1  15
BRANCH  12  21
HETATM   21  O4  UNL     1       0.169  -2.364  -1.039  1.00  0.00    -0.386 OA
ATOM     22  H4  UNL     1      -0.229  -2.256  -1.895  1.00  0.00     0.210 HD
ENDBRANCH  12  21
BRANCH  12  23
HETATM   23  C17 UNL     1      -1.676  -3.459  -0.171  1.00  0.00     0.203 C 
BRANCH  23  24
HETATM   24  O5  UNL     1      -2.369  -3.375  -1.365  1.00  0.00    -0.398 OA
ATOM     25  H5  UNL     1      -2.976  -4.098  -1.474  1.00  0.00     0.209 HD
ENDBRANCH  23  24
ENDBRANCH  12  23
BRANCH   6  26
HETATM   26  O3  UNL     1      -3.746   3.454   0.017  1.00  0.00    -0.395 OA
ATOM     27  H3  UNL     1      -4.121   4.114   0.588  1.00  0.00     0.210 HD
ENDBRANCH   6  26
TORSDOF 7
