REMARK  5 active torsions:
REMARK  status: ('A' for Active; 'I' for Inactive)
REMARK       I    between atoms: C2_4  and  N2_5 
REMARK       I    between atoms: C2_4  and  N4_9 
REMARK    1  A    between atoms: C5_11  and  O1_12 
REMARK    2  A    between atoms: C6_14  and  N5_15 
REMARK       I    between atoms: N5_15  and  C8_17 
REMARK       I    between atoms: C8_17  and  N6_19 
REMARK    3  A    between atoms: N6_19  and  C9_20 
REMARK    4  A    between atoms: C9_20  and  C10_21 
REMARK    5  A    between atoms: C14_26  and  C15_27 
ROOT
HETATM    1  C1  UNL     1      -5.628  -2.957  -2.100  1.00  0.00     0.165 C 
HETATM    2  N1  UNL     1      -4.291  -2.362  -1.919  1.00  0.00    -0.230 N 
ATOM      3  H1  UNL     1      -3.551  -2.542  -2.597  1.00  0.00     0.177 HD
HETATM    4  C2  UNL     1      -4.065  -1.602  -0.881  1.00  0.00     0.684 C 
HETATM    5  N2  UNL     1      -5.123  -1.387   0.024  1.00  0.00    -0.126 N 
ATOM      6  H2  UNL     1      -5.204  -2.002   0.834  1.00  0.00     0.197 HD
HETATM    7  C3  UNL     1      -6.076  -0.360  -0.138  1.00  0.00     0.196 C 
HETATM    8  N3  UNL     1      -6.852   0.500  -0.283  1.00  0.00    -0.171 NA
HETATM    9  N4  UNL     1      -2.772  -1.025  -0.721  1.00  0.00    -0.214 N 
HETATM   10  C4  UNL     1      -1.639  -1.831  -0.987  1.00  0.00     0.179 C 
HETATM   11  C5  UNL     1      -0.336  -1.259  -0.453  1.00  0.00     0.182 C 
HETATM   12  C6  UNL     1      -0.324   0.223  -0.488  1.00  0.00     0.031 C 
HETATM   13  C14 UNL     1      -1.475   0.851   0.264  1.00  0.00     0.067 C 
HETATM   14  C16 UNL     1      -2.759   0.343  -0.292  1.00  0.00     0.153 C 
ENDROOT
BRANCH  11  15
HETATM   15  O1  UNL     1      -0.162  -1.838   0.800  1.00  0.00    -0.388 OA
ATOM     16  H1  UNL     1       0.652  -1.480   1.134  1.00  0.00     0.210 HD
ENDBRANCH  11  15
BRANCH  13  17
HETATM   17  C15 UNL     1      -1.406   0.902   1.735  1.00  0.00     0.126 C 
HETATM   18 CL1  UNL     1      -2.918   1.659   2.410  1.00  0.00    -0.130 Cl
ENDBRANCH  13  17
BRANCH  12  19
HETATM   19  N5  UNL     1       0.913   0.866  -0.454  1.00  0.00    -0.297 N 
HETATM   20  C7  UNL     1       1.357   1.672  -1.614  1.00  0.00     0.162 C 
HETATM   21  C8  UNL     1       1.839   0.836   0.621  1.00  0.00     0.399 C 
HETATM   22  O2  UNL     1       1.579   0.108   1.588  1.00  0.00    -0.230 OA
HETATM   23  N6  UNL     1       2.985   1.626   0.539  1.00  0.00    -0.363 NA
BRANCH  23  24
HETATM   24  C9  UNL     1       4.093   2.390   0.459  1.00  0.00     0.207 C 
BRANCH  24  25
HETATM   25  C10 UNL     1       5.378   1.600   0.485  1.00  0.00     0.033 A 
HETATM   26  C11 UNL     1       5.826   0.744   1.452  1.00  0.00     0.022 A 
HETATM   27  C12 UNL     1       7.029   0.161   1.260  1.00  0.00     0.008 A 
HETATM   28  C13 UNL     1       7.702   0.475   0.113  1.00  0.00     0.050 A 
HETATM   29  S1  UNL     1       6.650   1.566  -0.664  1.00  0.00    -0.100 SA
ENDBRANCH  24  25
ENDBRANCH  23  24
ENDBRANCH  12  19
TORSDOF 5
