REMARK  12 active torsions:
REMARK  status: ('A' for Active; 'I' for Inactive)
REMARK    1  A    between atoms: C2_3  and  C3_4 
REMARK       I    between atoms: C3_4  and  N2_6 
REMARK    2  A    between atoms: N2_6  and  O2_8 
REMARK    3  A    between atoms: O2_8  and  C4_9 
REMARK    4  A    between atoms: C4_9  and  O3_11 
REMARK    5  A    between atoms: C4_9  and  C6_13 
REMARK    6  A    between atoms: C6_13  and  O4_14 
REMARK    7  A    between atoms: C8_22  and  C9_23 
REMARK    8  A    between atoms: C9_23  and  O5_25 
REMARK    9  A    between atoms: C9_23  and  C11_27 
REMARK   10  A    between atoms: C11_27  and  N6_28 
REMARK   11  A    between atoms: C13_36  and  N10_37 
REMARK   12  A    between atoms: C14_42  and  N12_43 
ROOT
HETATM    1  C6  UNL     1      -6.577   1.544  -0.858  1.00  0.00     0.288 C 
HETATM    2  C7  UNL     1      -6.650   2.693   0.042  1.00  0.00     0.096 C 
HETATM    3  N3  UNL     1      -6.694   3.578   0.758  1.00  0.00    -0.194 NA
ENDROOT
BRANCH   1   4
HETATM    4  C4  UNL     1      -5.093   1.253  -1.125  1.00  0.00     0.223 C 
HETATM    5  C5  UNL     1      -4.559   2.504  -1.771  1.00  0.00     0.085 C 
BRANCH   4   6
HETATM    6  O2  UNL     1      -4.538   0.975   0.115  1.00  0.00    -0.234 OA
BRANCH   6   7
HETATM    7  N2  UNL     1      -3.204   0.840   0.083  1.00  0.00    -0.225 N 
HETATM    8  C3  UNL     1      -2.612  -0.393   0.518  1.00  0.00     0.310 C 
HETATM    9  O1  UNL     1      -3.399  -1.286   0.905  1.00  0.00    -0.262 OA
ATOM     10  H2  UNL     1      -2.616   1.606  -0.247  1.00  0.00     0.198 HD
BRANCH   8  11
HETATM   11  C2  UNL     1      -1.158  -0.528   0.485  1.00  0.00     0.194 A 
HETATM   12  N1  UNL     1      -0.416  -1.606   0.744  1.00  0.00    -0.318 N 
HETATM   13  C1  UNL     1      -0.940  -2.921   1.017  1.00  0.00     0.159 C 
HETATM   14  C8  UNL     1       0.937  -1.303   0.664  1.00  0.00     0.140 A 
HETATM   15  N5  UNL     1       0.922  -0.012   0.344  1.00  0.00    -0.284 N 
HETATM   16  N4  UNL     1      -0.281   0.479   0.231  1.00  0.00    -0.279 N 
ATOM     17  H5  UNL     1       1.768   0.540   0.201  1.00  0.00     0.188 HD
ATOM     18  H4  UNL     1      -0.520   1.442  -0.005  1.00  0.00     0.189 HD
BRANCH  14  19
HETATM   19  C9  UNL     1       2.019  -2.245   0.931  1.00  0.00     0.147 C 
HETATM   20  C10 UNL     1       1.722  -2.814   2.353  1.00  0.00     0.060 C 
BRANCH  19  21
HETATM   21  O5  UNL     1       1.931  -3.347   0.045  1.00  0.00    -0.377 OA
ATOM     22  H5  UNL     1       2.635  -3.960   0.219  1.00  0.00     0.211 HD
ENDBRANCH  19  21
BRANCH  19  23
HETATM   23  C11 UNL     1       3.402  -1.730   0.997  1.00  0.00     0.136 C 
BRANCH  23  24
HETATM   24  N6  UNL     1       3.990  -1.097  -0.115  1.00  0.00    -0.246 N 
HETATM   25  N7  UNL     1       4.301  -1.848  -1.220  1.00  0.00    -0.234 N 
HETATM   26  N8  UNL     1       4.766  -1.106  -2.155  1.00  0.00    -0.268 N 
ATOM     27  H7  UNL     1       4.179  -2.858  -1.288  1.00  0.00     0.209 HD
HETATM   28  C12 UNL     1       4.784   0.195  -1.702  1.00  0.00     0.169 A 
ATOM     29  H8  UNL     1       5.070  -1.423  -3.075  1.00  0.00     0.190 HD
HETATM   30  N9  UNL     1       5.187   1.312  -2.280  1.00  0.00    -0.173 N 
HETATM   31  C15 UNL     1       4.289   0.145  -0.419  1.00  0.00     0.146 A 
HETATM   32  C13 UNL     1       5.140   2.532  -1.632  1.00  0.00     0.679 A 
ATOM     33  H9  UNL     1       5.544   1.273  -3.235  1.00  0.00     0.186 HD
HETATM   34  N11 UNL     1       4.666   2.514  -0.384  1.00  0.00    -0.175 N 
HETATM   35  C14 UNL     1       4.248   1.390   0.237  1.00  0.00     0.147 A 
ATOM     36  H11 UNL     1       4.617   3.395   0.127  1.00  0.00     0.186 HD
BRANCH  32  37
HETATM   37  N10 UNL     1       5.514   3.619  -2.148  1.00  0.00    -0.234 N 
ATOM     38 2H10 UNL     1       5.876   3.633  -3.101  1.00  0.00     0.174 HD
ATOM     39 1H10 UNL     1       5.479   4.519  -1.670  1.00  0.00     0.174 HD
ENDBRANCH  32  37
BRANCH  35  40
HETATM   40  N12 UNL     1       3.869   1.497   1.407  1.00  0.00    -0.383 N 
ATOM     41 2H12 UNL     1       3.839   2.399   1.882  1.00  0.00     0.157 HD
ATOM     42 1H12 UNL     1       3.553   0.648   1.876  1.00  0.00     0.157 HD
ENDBRANCH  35  40
ENDBRANCH  23  24
ENDBRANCH  19  23
ENDBRANCH  14  19
ENDBRANCH   8  11
ENDBRANCH   6   7
ENDBRANCH   4   6
BRANCH   4  43
HETATM   43  O3  UNL     1      -5.028   0.220  -2.025  1.00  0.00    -0.361 OA
ATOM     44  H3  UNL     1      -5.408   0.410  -2.875  1.00  0.00     0.213 HD
ENDBRANCH   4  43
ENDBRANCH   1   4
BRANCH   1  45
HETATM   45  O4  UNL     1      -7.105   0.412  -0.253  1.00  0.00    -0.376 OA
ATOM     46  H4  UNL     1      -8.023   0.592  -0.088  1.00  0.00     0.211 HD
ENDBRANCH   1  45
TORSDOF 12
