REMARK  11 active torsions:
REMARK  status: ('A' for Active; 'I' for Inactive)
REMARK    1  A    between atoms: N1_1  and  N2_4 
REMARK    2  A    between atoms: C2_9  and  N4_10 
REMARK    3  A    between atoms: C2_9  and  O2_14 
REMARK    4  A    between atoms: N5_17  and  N6_19 
REMARK    5  A    between atoms: C4_21  and  C5_22 
REMARK    6  A    between atoms: C6_23  and  O3_24 
REMARK    7  A    between atoms: C7_26  and  O4_27 
REMARK    8  A    between atoms: C8_29  and  O5_30 
REMARK    9  A    between atoms: C12_37  and  C13_38 
REMARK   10  A    between atoms: C13_38  and  N8_39 
REMARK   11  A    between atoms: N8_39  and  N9_41 
ROOT
HETATM    1  C5  UNL     1       0.637  -1.344  -0.290  1.00  0.00     0.029 A 
HETATM    2  C6  UNL     1       0.333  -2.695  -0.594  1.00  0.00     0.114 A 
HETATM    3  C7  UNL     1       1.299  -3.527  -1.091  1.00  0.00     0.134 A 
HETATM    4  C8  UNL     1       2.564  -3.033  -1.290  1.00  0.00     0.114 A 
HETATM    5  C9  UNL     1       2.876  -1.714  -0.997  1.00  0.00     0.027 A 
HETATM    6  C10 UNL     1       4.154  -1.261  -1.214  1.00  0.00     0.102 A 
HETATM    7  N7  UNL     1       4.499  -0.007  -0.951  1.00  0.00    -0.374 N 
ATOM      8  H7  UNL     1       5.451   0.319  -1.116  1.00  0.00     0.164 HD
HETATM    9  C11 UNL     1       3.564   0.820  -0.463  1.00  0.00     0.097 A 
HETATM   10  C12 UNL     1       2.240   0.472  -0.202  1.00  0.00    -0.011 A 
HETATM   11  C16 UNL     1       1.907  -0.854  -0.491  1.00  0.00     0.002 A 
ENDROOT
BRANCH   1  12
HETATM   12  C4  UNL     1      -0.437  -0.581   0.201  1.00  0.00     0.122 C 
HETATM   13  N6  UNL     1      -1.610  -1.243   0.317  1.00  0.00    -0.309 N 
ATOM     14  H6  UNL     1      -1.646  -2.227   0.050  1.00  0.00     0.186 HD
BRANCH  13  15
HETATM   15  N5  UNL     1      -2.753  -0.644   0.780  1.00  0.00    -0.282 N 
HETATM   16  C3  UNL     1      -3.565   0.070   0.113  1.00  0.00     0.209 C 
HETATM   17  N2  UNL     1      -4.747   0.685   0.605  1.00  0.00    -0.181 N 
HETATM   18  C2  UNL     1      -3.471   0.420  -1.308  1.00  0.00     0.368 C 
HETATM   19  N3  UNL     1      -5.494   1.211  -0.473  1.00  0.00    -0.243 N 
HETATM   20  C1  UNL     1      -4.818   0.951  -1.693  1.00  0.00     0.309 C 
ATOM     21  H3  UNL     1      -6.384   1.703  -0.387  1.00  0.00     0.192 HD
HETATM   22  O1  UNL     1      -5.209   1.111  -2.867  1.00  0.00    -0.266 OA
ATOM     23  H5  UNL     1      -2.975  -0.787   1.765  1.00  0.00     0.188 HD
BRANCH  17  24
HETATM   24  N1  UNL     1      -5.162   0.786   1.952  1.00  0.00    -0.322 N 
ATOM     25  H12 UNL     1      -6.011   1.228   2.305  1.00  0.00     0.179 HD
ATOM     26  H11 UNL     1      -4.623   0.406   2.730  1.00  0.00     0.179 HD
ENDBRANCH  17  24
BRANCH  18  27
HETATM   27  N4  UNL     1      -2.527   1.492  -1.567  1.00  0.00    -0.030 N 
ATOM     28  H43 UNL     1      -2.566   1.846  -2.523  1.00  0.00     0.279 HD
ATOM     29  H42 UNL     1      -2.767   2.367  -1.101  1.00  0.00     0.279 HD
ATOM     30  H41 UNL     1      -1.610   1.130  -1.305  1.00  0.00     0.279 HD
ENDBRANCH  18  27
BRANCH  18  31
HETATM   31  O2  UNL     1      -3.198  -0.674  -2.108  1.00  0.00    -0.352 OA
ATOM     32  H2  UNL     1      -2.344  -1.011  -1.864  1.00  0.00     0.213 HD
ENDBRANCH  18  31
ENDBRANCH  13  15
ENDBRANCH   1  12
BRANCH   2  33
HETATM   33  O3  UNL     1      -0.948  -3.207  -0.397  1.00  0.00    -0.357 OA
ATOM     34  H3  UNL     1      -1.152  -4.112  -0.601  1.00  0.00     0.217 HD
ENDBRANCH   2  33
BRANCH   3  35
HETATM   35  O4  UNL     1       1.036  -4.851  -1.399  1.00  0.00    -0.356 OA
ATOM     36  H4  UNL     1       1.707  -5.429  -1.744  1.00  0.00     0.218 HD
ENDBRANCH   3  35
BRANCH  10  37
HETATM   37  C13 UNL     1       1.279   1.425   0.309  1.00  0.00     0.180 C 
BRANCH  37  38
HETATM   38  N8  UNL     1       2.028   2.683   0.549  1.00  0.00    -0.324 N 
ATOM     39  H8  UNL     1       1.972   3.445  -0.127  1.00  0.00     0.181 HD
BRANCH  38  40
HETATM   40  N9  UNL     1       2.821   2.831   1.713  1.00  0.00    -0.249 N 
HETATM   41  C14 UNL     1       3.533   3.909   2.032  1.00  0.00     0.223 A 
HETATM   42  N10 UNL     1       4.129   3.658   3.208  1.00  0.00    -0.293 N 
HETATM   43  N11 UNL     1       3.791   2.447   3.605  1.00  0.00    -0.293 N 
ATOM     44  H10 UNL     1       4.742   4.299   3.712  1.00  0.00     0.187 HD
HETATM   45  C15 UNL     1       2.978   1.917   2.691  1.00  0.00     0.223 A 
ATOM     46  H11 UNL     1       4.099   1.993   4.465  1.00  0.00     0.187 HD
ENDBRANCH  38  40
ENDBRANCH  37  38
ENDBRANCH  10  37
BRANCH   4  47
HETATM   47  O5  UNL     1       3.567  -3.858  -1.796  1.00  0.00    -0.357 OA
ATOM     48  H5  UNL     1       4.443  -3.516  -1.934  1.00  0.00     0.217 HD
ENDBRANCH   4  47
TORSDOF 11
