REMARK  15 active torsions:
REMARK  status: ('A' for Active; 'I' for Inactive)
REMARK    1  A    between atoms: O1_2  and  C2_3 
REMARK    2  A    between atoms: C2_3  and  C3_4 
REMARK    3  A    between atoms: C4_7  and  C5_8 
REMARK    4  A    between atoms: C5_8  and  O2_9 
REMARK    5  A    between atoms: C5_8  and  C6_11 
REMARK    6  A    between atoms: C6_11  and  O3_12 
REMARK    7  A    between atoms: C6_11  and  C7_14 
REMARK    8  A    between atoms: C7_14  and  O4_15 
REMARK    9  A    between atoms: C7_14  and  C8_17 
REMARK   10  A    between atoms: C8_17  and  O5_18 
REMARK   11  A    between atoms: C8_17  and  O6_20 
REMARK   12  A    between atoms: C10_24  and  O8_25 
REMARK   13  A    between atoms: C11_27  and  N2_28 
REMARK   14  A    between atoms: N2_28  and  O9_30 
REMARK   15  A    between atoms: C14_33  and  O10_34 
ROOT
HETATM    1  C3  UNL     1      -0.323   1.968  -1.247  1.00  0.00     0.282 C 
HETATM    2  N1  UNL     1       0.362   1.691  -2.504  1.00  0.00    -0.108 NA
HETATM    3  S1  UNL     1       0.457  -0.085  -2.360  1.00  0.00    -0.013 SA
HETATM    4  C4  UNL     1       0.096  -0.142  -0.556  1.00  0.00     0.190 C 
HETATM    5  O7  UNL     1       0.279   1.231  -0.272  1.00  0.00    -0.308 OA
HETATM    6  C9  UNL     1      -1.311  -0.462  -0.414  1.00  0.00     0.062 A 
HETATM    7  C10 UNL     1      -1.817  -1.633   0.084  1.00  0.00     0.107 A 
HETATM    8  C11 UNL     1      -3.196  -1.821   0.170  1.00  0.00     0.093 A 
HETATM    9  C13 UNL     1      -4.082  -0.830  -0.247  1.00  0.00     0.074 A 
HETATM   10  C14 UNL     1      -3.558   0.340  -0.745  1.00  0.00     0.102 A 
HETATM   11  C15 UNL     1      -2.196   0.525  -0.829  1.00  0.00     0.120 A 
HETATM   12  O11 UNL     1      -1.703   1.721  -1.336  1.00  0.00    -0.293 OA
ENDROOT
BRANCH   4  13
HETATM   13  C5  UNL     1       1.103  -0.923   0.181  1.00  0.00     0.201 C 
BRANCH  13  14
HETATM   14  O2  UNL     1       0.958  -0.761   1.555  1.00  0.00    -0.389 OA
ATOM     15  H2  UNL     1       1.608  -1.265   2.031  1.00  0.00     0.210 HD
ENDBRANCH  13  14
BRANCH  13  16
HETATM   16  C6  UNL     1       2.507  -0.329  -0.096  1.00  0.00     0.184 C 
BRANCH  16  17
HETATM   17  O3  UNL     1       2.506   0.994   0.316  1.00  0.00    -0.390 OA
ATOM     18  H3  UNL     1       3.367   1.358   0.146  1.00  0.00     0.210 HD
ENDBRANCH  16  17
BRANCH  16  19
HETATM   19  C7  UNL     1       3.490  -1.104   0.777  1.00  0.00     0.204 C 
BRANCH  19  20
HETATM   20  O4  UNL     1       3.432  -2.432   0.296  1.00  0.00    -0.388 OA
ATOM     21  H4  UNL     1       4.044  -2.914   0.839  1.00  0.00     0.210 HD
ENDBRANCH  19  20
BRANCH  19  22
HETATM   22  C8  UNL     1       4.890  -0.583   0.626  1.00  0.00     0.285 C 
BRANCH  22  23
HETATM   23  O5  UNL     1       4.972   0.714   1.091  1.00  0.00    -0.369 OA
ATOM     24  H5  UNL     1       5.858   1.044   0.995  1.00  0.00     0.212 HD
ENDBRANCH  22  23
BRANCH  22  25
HETATM   25  O6  UNL     1       5.723  -1.363   1.437  1.00  0.00    -0.369 OA
ATOM     26  H6  UNL     1       6.609  -1.033   1.341  1.00  0.00     0.212 HD
ENDBRANCH  22  25
ENDBRANCH  19  22
ENDBRANCH  16  19
ENDBRANCH  13  16
ENDBRANCH   4  13
BRANCH   1  27
HETATM   27  C2  UNL     1      -0.111   3.421  -0.937  1.00  0.00     0.257 C 
BRANCH  27  28
HETATM   28  O1  UNL     1      -0.743   3.755   0.260  1.00  0.00    -0.389 OA
HETATM   29  C1  UNL     1      -0.547   5.103   0.549  1.00  0.00     0.201 C 
ENDBRANCH  27  28
ENDBRANCH   1  27
BRANCH   7  30
HETATM   30  O8  UNL     1      -1.011  -2.665   0.516  1.00  0.00    -0.358 OA
ATOM     31  H8  UNL     1      -1.362  -3.477   0.861  1.00  0.00     0.217 HD
ENDBRANCH   7  30
BRANCH   8  32
HETATM   32  N2  UNL     1      -3.783  -2.999   0.701  1.00  0.00    -0.263 N 
HETATM   33  C12 UNL     1      -3.646  -3.278   2.114  1.00  0.00     0.185 C 
BRANCH  32  34
HETATM   34  O9  UNL     1      -4.470  -3.876  -0.067  1.00  0.00    -0.287 OA
ATOM     35  H9  UNL     1      -4.863  -4.665   0.288  1.00  0.00     0.244 HD
ENDBRANCH  32  34
ENDBRANCH   8  32
BRANCH  10  36
HETATM   36  O10 UNL     1      -4.424   1.338  -1.165  1.00  0.00    -0.358 OA
ATOM     37  H10 UNL     1      -4.062   2.146  -1.509  1.00  0.00     0.217 HD
ENDBRANCH  10  36
TORSDOF 15
