REMARK  4 active torsions:
REMARK  status: ('A' for Active; 'I' for Inactive)
REMARK       I    between atoms: C1_2  and  N1_3 
REMARK       I    between atoms: C1_2  and  N3_20 
REMARK    1  A    between atoms: N1_3  and  C2_5 
REMARK    2  A    between atoms: C9_15  and  C10_16 
REMARK    3  A    between atoms: C10_16  and  C11_17 
REMARK    4  A    between atoms: C11_17  and  C12_18 
ROOT
HETATM    1  C2  UNL     1      -0.472   0.004  -0.026  1.00  0.00     0.119 C 
HETATM    2  C3  UNL     1      -0.933  -1.411   0.338  1.00  0.00     0.066 C 
HETATM    3  C4  UNL     1      -2.339  -1.214   0.795  1.00  0.00     0.128 C 
HETATM    4  C5  UNL     1      -3.347  -1.267  -0.305  1.00  0.00     0.039 C 
HETATM    5  C6  UNL     1      -3.430  -2.761  -0.608  1.00  0.00     0.002 C 
HETATM    6  C7  UNL     1      -3.480  -3.354   0.778  1.00  0.00     0.002 C 
HETATM    7  C8  UNL     1      -2.798  -2.365   1.695  1.00  0.00     0.039 C 
HETATM    8  N2  UNL     1      -2.291   0.026   1.505  1.00  0.00    -0.060 N 
ATOM      9  H21 UNL     1      -2.109  -0.094   2.501  1.00  0.00     0.278 HD
ATOM     10  H22 UNL     1      -3.205   0.471   1.589  1.00  0.00     0.278 HD
HETATM   11  C9  UNL     1      -1.311   0.868   0.849  1.00  0.00     0.209 C 
ENDROOT
BRANCH   1  12
HETATM   12  N1  UNL     1       0.946   0.087   0.268  1.00  0.00    -0.336 N 
HETATM   13  C1  UNL     1       1.925   0.333  -0.715  1.00  0.00     0.318 C 
HETATM   14  O1  UNL     1       1.541   0.486  -1.897  1.00  0.00    -0.247 OA
HETATM   15  N3  UNL     1       3.292   0.412  -0.419  1.00  0.00    -0.330 N 
HETATM   16  C13 UNL     1       4.225   0.672  -1.526  1.00  0.00     0.153 C 
HETATM   17  C16 UNL     1       3.911   0.264   0.872  1.00  0.00     0.153 C 
HETATM   18  C14 UNL     1       5.580   0.180  -1.034  1.00  0.00     0.187 C 
HETATM   19  O2  UNL     1       5.384  -1.074  -0.469  1.00  0.00    -0.388 OA
HETATM   20  C15 UNL     1       4.954  -0.849   0.858  1.00  0.00     0.187 C 
ATOM     21  H1  UNL     1       1.249  -0.039   1.234  1.00  0.00     0.164 HD
ENDBRANCH   1  12
BRANCH  11  22
HETATM   22  C10 UNL     1      -2.067   1.951   0.128  1.00  0.00     0.037 C 
BRANCH  22  23
HETATM   23  C11 UNL     1      -1.140   2.901  -0.600  1.00  0.00     0.033 C 
BRANCH  23  24
HETATM   24  C12 UNL     1      -1.956   3.970  -1.307  1.00  0.00     0.222 C 
HETATM   25  F1  UNL     1      -2.824   3.441  -2.227  1.00  0.00    -0.255 F 
ENDBRANCH  23  24
ENDBRANCH  22  23
ENDBRANCH  11  22
TORSDOF 4
