REMARK  6 active torsions:
REMARK  status: ('A' for Active; 'I' for Inactive)
REMARK    1  A    between atoms: C1_2  and  N1_3 
REMARK    2  A    between atoms: C1_2  and  N3_13 
REMARK    3  A    between atoms: N1_3  and  C2_5 
REMARK    4  A    between atoms: C2_5  and  C3_6 
REMARK    5  A    between atoms: C3_6  and  N2_7 
REMARK    6  A    between atoms: N3_13  and  C8_15 
ROOT
HETATM    1  S1  UNL     1       0.547  -0.711  -1.590  1.00  0.00    -0.041 SA
HETATM    2  C1  UNL     1       0.601  -1.205  -0.036  1.00  0.00     0.167 C 
ENDROOT
BRANCH   2   3
HETATM    3  N1  UNL     1      -0.573  -1.664   0.583  1.00  0.00    -0.366 N 
ATOM      4  H1  UNL     1      -0.525  -2.013   1.540  1.00  0.00     0.161 HD
BRANCH   3   5
HETATM    5  C2  UNL     1      -1.838  -1.656  -0.094  1.00  0.00     0.152 C 
BRANCH   5   6
HETATM    6  C3  UNL     1      -2.327  -0.245  -0.240  1.00  0.00     0.292 C 
BRANCH   6   7
HETATM    7  N2  UNL     1      -3.612  -0.223  -0.920  1.00  0.00     0.094 N 
HETATM    8  C4  UNL     1      -3.973   1.168  -1.213  1.00  0.00     0.298 C 
HETATM    9  C5  UNL     1      -4.122   2.008   0.019  1.00  0.00     0.198 C 
HETATM   10  O1  UNL     1      -4.839   1.340   1.012  1.00  0.00    -0.388 OA
HETATM   11  C6  UNL     1      -5.542   0.283   0.455  1.00  0.00     0.198 C 
HETATM   12  C7  UNL     1      -4.600  -0.808  -0.027  1.00  0.00     0.298 C 
ENDBRANCH   6   7
ENDBRANCH   5   6
ENDBRANCH   3   5
ENDBRANCH   2   3
BRANCH   2  13
HETATM   13  N3  UNL     1       1.866  -1.202   0.674  1.00  0.00    -0.363 N 
ATOM     14  H3  UNL     1       1.939  -1.533   1.636  1.00  0.00     0.162 HD
BRANCH  13  15
HETATM   15  C8  UNL     1       3.009  -0.713  -0.039  1.00  0.00     0.085 C 
HETATM   16  C9  UNL     1       2.845   0.734  -0.457  1.00  0.00     0.025 C 
HETATM   17  C10 UNL     1       4.008   1.583   0.025  1.00  0.00     0.004 C 
HETATM   18  C11 UNL     1       5.323   1.012  -0.462  1.00  0.00     0.020 C 
HETATM   19  C12 UNL     1       5.423  -0.468  -0.205  1.00  0.00     0.084 C 
HETATM   20 CL1  UNL     1       5.223  -1.286  -1.795  1.00  0.00    -0.125 Cl
HETATM   21  C13 UNL     1       4.294  -0.869   0.726  1.00  0.00     0.045 C 
ENDBRANCH  13  15
ENDBRANCH   2  13
TORSDOF 6
