REMARK  4 active torsions:
REMARK  status: ('A' for Active; 'I' for Inactive)
REMARK    1  A    between atoms: C2_2  and  C3_3 
REMARK    2  A    between atoms: C3_3  and  N1_4 
REMARK    3  A    between atoms: N4_14  and  S1_15 
REMARK    4  A    between atoms: S1_15  and  C8_18 
ROOT
HETATM    1  N1  UNL     1       3.901   0.788   0.126  1.00  0.00    -0.226 N 
ATOM      2  H1  UNL     1       4.145   1.773   0.233  1.00  0.00     0.177 HD
HETATM    3  C4  UNL     1       2.700   0.442  -0.163  1.00  0.00     0.678 A 
HETATM    4  N2  UNL     1       2.281  -0.819  -0.325  1.00  0.00    -0.194 N 
ATOM      5  H2  UNL     1       2.845  -1.665  -0.244  1.00  0.00     0.184 HD
HETATM    6  C5  UNL     1       0.967  -0.749  -0.617  1.00  0.00     0.052 A 
HETATM    7  C6  UNL     1       0.600   0.579  -0.630  1.00  0.00     0.063 A 
HETATM    8  N3  UNL     1       1.682   1.305  -0.348  1.00  0.00    -0.193 N 
ATOM      9  H3  UNL     1       1.730   2.322  -0.284  1.00  0.00     0.184 HD
HETATM   10  C7  UNL     1      -0.808   1.004  -0.926  1.00  0.00     0.164 C 
HETATM   11  N4  UNL     1      -1.602  -0.142  -0.431  1.00  0.00    -0.225 NA
HETATM   12  C11 UNL     1      -1.274  -1.187  -1.419  1.00  0.00     0.112 C 
HETATM   13  C12 UNL     1      -0.018  -1.851  -0.897  1.00  0.00     0.075 C 
ENDROOT
BRANCH  11  14
HETATM   14  S1  UNL     1      -3.194   0.129   0.009  1.00  0.00     0.096 S 
HETATM   15  O1  UNL     1      -3.614   0.545  -1.559  1.00  0.00    -0.238 OA
HETATM   16 CL1  UNL     1      -3.280  -1.789   0.654  1.00  0.00    -0.008 Cl
BRANCH  14  17
HETATM   17  C8  UNL     1      -4.876   0.349   0.646  1.00  0.00     0.089 C 
HETATM   18  C9  UNL     1      -5.129   0.042   2.140  1.00  0.00     0.025 C 
HETATM   19  C10 UNL     1      -5.934  -0.534  -0.051  1.00  0.00     0.025 C 
ENDBRANCH  14  17
ENDBRANCH  11  14
BRANCH   1  20
HETATM   20  C3  UNL     1       4.903  -0.240   0.297  1.00  0.00     0.137 C 
BRANCH  20  21
HETATM   21  C2  UNL     1       6.047   0.362   1.086  1.00  0.00     0.016 C 
HETATM   22  C1  UNL     1       6.590   1.524   0.297  1.00  0.00     0.006 C 
ENDBRANCH  20  21
ENDBRANCH   1  20
TORSDOF 4
