REMARK  4 active torsions:
REMARK  status: ('A' for Active; 'I' for Inactive)
REMARK    1  A    between atoms: N1_2  and  C2_5 
REMARK    2  A    between atoms: N2_7  and  C4_8 
REMARK    3  A    between atoms: C4_8  and  C5_9 
REMARK    4  A    between atoms: C5_9  and  C6_10 
ROOT
HETATM    1  C4  UNL     1      -0.575  -0.772  -0.560  1.00  0.00     0.128 C 
ENDROOT
BRANCH   1   2
HETATM    2  N2  UNL     1      -2.000  -0.667  -0.796  1.00  0.00    -0.350 N 
HETATM    3  C3  UNL     1      -2.682   0.598  -0.774  1.00  0.00     0.161 C 
HETATM    4  C2  UNL     1      -4.025   0.478  -0.127  1.00  0.00     0.237 C 
HETATM    5  C17 UNL     1      -4.868  -0.588  -0.736  1.00  0.00     0.211 C 
HETATM    6  C16 UNL     1      -4.177  -1.927  -0.633  1.00  0.00     0.142 C 
HETATM    7  F1  UNL     1      -5.206  -0.364  -2.046  1.00  0.00    -0.247 F 
HETATM    8  C15 UNL     1      -2.770  -1.830  -1.129  1.00  0.00     0.222 C 
HETATM    9  O1  UNL     1      -2.294  -2.743  -1.805  1.00  0.00    -0.273 OA
BRANCH   4  10
HETATM   10  N1  UNL     1      -4.678   1.789  -0.252  1.00  0.00    -0.070 N 
HETATM   11  C1  UNL     1      -5.399   2.195   0.900  1.00  0.00     0.267 C 
ATOM     12  H12 UNL     1      -5.280   1.810  -1.075  1.00  0.00     0.277 HD
ATOM     13  H11 UNL     1      -3.998   2.502  -0.516  1.00  0.00     0.277 HD
ENDBRANCH   4  10
ENDBRANCH   1   2
BRANCH   1  14
HETATM   14  C5  UNL     1      -0.221  -1.228   0.808  1.00  0.00     0.053 C 
BRANCH  14  15
HETATM   15  C6  UNL     1       1.299  -1.175   0.998  1.00  0.00     0.188 C 
HETATM   16  C7  UNL     1       1.819   0.239   0.944  1.00  0.00     0.044 C 
HETATM   17  C8  UNL     1       3.153   0.086   0.261  1.00  0.00    -0.007 C 
HETATM   18  C9  UNL     1       3.041  -1.132  -0.594  1.00  0.00     0.243 C 
HETATM   19  C10 UNL     1       3.626   1.363  -0.363  1.00  0.00    -0.004 C 
HETATM   20  C13 UNL     1       4.371   0.208   1.126  1.00  0.00    -0.004 C 
HETATM   21  N3  UNL     1       1.921  -1.874  -0.113  1.00  0.00    -0.070 N 
ATOM     22  H32 UNL     1       2.174  -2.831   0.132  1.00  0.00     0.277 HD
ATOM     23  H31 UNL     1       1.253  -2.081  -0.856  1.00  0.00     0.277 HD
HETATM   24  C11 UNL     1       4.952   0.999  -0.970  1.00  0.00     0.006 C 
HETATM   25  C14 UNL     1       4.108   1.724   1.063  1.00  0.00     0.011 C 
HETATM   26  C12 UNL     1       5.508   0.117   0.147  1.00  0.00     0.006 C 
ENDBRANCH  14  15
ENDBRANCH   1  14
TORSDOF 4
