REMARK  9 active torsions:
REMARK  status: ('A' for Active; 'I' for Inactive)
REMARK    1  A    between atoms: N3_4  and  C2_6 
REMARK    2  A    between atoms: C2_6  and  C3_7 
REMARK    3  A    between atoms: C3_7  and  C4_8 
REMARK    4  A    between atoms: C4_8  and  C5_9 
REMARK    5  A    between atoms: N4_13  and  C8_14 
REMARK    6  A    between atoms: C8_14  and  C9_15 
REMARK    7  A    between atoms: C12_18  and  O2_19 
REMARK    8  A    between atoms: O2_19  and  C13_20 
REMARK    9  A    between atoms: C13_20  and  C14_21 
ROOT
HETATM    1  C5  UNL     1       2.317   0.630  -0.943  1.00  0.00     0.249 C 
HETATM    2  C6  UNL     1       2.438   1.705   0.112  1.00  0.00     0.205 C 
HETATM    3  O1  UNL     1       1.229   1.647   0.842  1.00  0.00    -0.360 OA
HETATM    4  C7  UNL     1       0.949   0.282   0.776  1.00  0.00     0.441 C 
HETATM    5  N4  UNL     1       1.013   0.065  -0.654  1.00  0.00     0.122 N 
ENDROOT
BRANCH   5   6
HETATM    6  C8  UNL     1       0.059   0.860  -1.375  1.00  0.00     0.314 C 
BRANCH   6   7
HETATM    7  C9  UNL     1      -1.335   0.441  -1.214  1.00  0.00    -0.030 A 
HETATM    8  C10 UNL     1      -2.112   0.974  -0.209  1.00  0.00     0.011 A 
HETATM    9  C11 UNL     1      -3.442   0.588  -0.037  1.00  0.00     0.037 A 
HETATM   10  C12 UNL     1      -4.030  -0.344  -0.868  1.00  0.00     0.068 A 
HETATM   11  C17 UNL     1      -3.252  -0.876  -1.873  1.00  0.00     0.037 A 
HETATM   12  C18 UNL     1      -1.926  -0.494  -2.047  1.00  0.00     0.011 A 
BRANCH  10  13
HETATM   13  O2  UNL     1      -5.352  -0.735  -0.707  1.00  0.00    -0.351 OA
BRANCH  13  14
HETATM   14  C13 UNL     1      -6.195  -0.233   0.293  1.00  0.00     0.180 C 
BRANCH  14  15
HETATM   15  C14 UNL     1      -7.557  -0.878   0.171  1.00  0.00     0.010 A 
HETATM   16  C15 UNL     1      -8.643  -0.501   1.138  1.00  0.00     0.007 A 
HETATM   17  C16 UNL     1      -7.939  -1.802   1.285  1.00  0.00     0.007 A 
ENDBRANCH  14  15
ENDBRANCH  13  14
ENDBRANCH  10  13
ENDBRANCH   6   7
ENDBRANCH   5   6
BRANCH   1  18
HETATM   18  C4  UNL     1       3.444  -0.351  -0.799  1.00  0.00     0.040 C 
BRANCH  18  19
HETATM   19  C3  UNL     1       4.741   0.405  -0.982  1.00  0.00     0.022 C 
BRANCH  19  20
HETATM   20  C2  UNL     1       5.887  -0.572  -0.839  1.00  0.00     0.122 C 
BRANCH  20  21
HETATM   21  N3  UNL     1       5.857  -1.180   0.470  1.00  0.00    -0.367 N 
HETATM   22  C1  UNL     1       6.577  -0.741   1.438  1.00  0.00     0.196 C 
HETATM   23  N1  UNL     1       6.517  -1.366   2.702  1.00  0.00    -0.067 NA
HETATM   24  N2  UNL     1       7.424   0.367   1.218  1.00  0.00    -0.067 NA
ATOM     25  H3  UNL     1       5.246  -1.981   0.630  1.00  0.00     0.161 HD
ENDBRANCH  20  21
ENDBRANCH  19  20
ENDBRANCH  18  19
ENDBRANCH   1  18
TORSDOF 9
