REMARK  12 active torsions:
REMARK  status: ('A' for Active; 'I' for Inactive)
REMARK    1  A    between atoms: O1_1  and  C1_3 
REMARK    2  A    between atoms: C1_3  and  C2_4 
REMARK    3  A    between atoms: C3_5  and  C4_6 
REMARK    4  A    between atoms: C4_6  and  O2_7 
REMARK    5  A    between atoms: O2_7  and  C5_8 
REMARK    6  A    between atoms: C5_8  and  C6_9 
REMARK    7  A    between atoms: C6_9  and  N1_10 
REMARK    8  A    between atoms: N1_10  and  C7_12 
REMARK    9  A    between atoms: C7_12  and  C8_13 
REMARK   10  A    between atoms: N2_17  and  C12_18 
REMARK   11  A    between atoms: C12_18  and  C13_19 
REMARK   12  A    between atoms: C13_19  and  C14_20 
ROOT
HETATM    1  C8  UNL     1      -0.176  -1.101   0.895  1.00  0.00     0.042 C 
HETATM    2  C9  UNL     1       0.227  -2.111  -0.097  1.00  0.00     0.016 C 
HETATM    3  C10 UNL     1      -0.512  -1.882  -1.404  1.00  0.00     0.045 C 
HETATM    4  C11 UNL     1      -2.019  -1.913  -1.242  1.00  0.00     0.063 C 
HETATM    5  N2  UNL     1      -2.431  -1.301  -0.047  1.00  0.00    -0.373 N 
HETATM    6  C20 UNL     1      -1.515  -0.434   0.591  1.00  0.00     0.136 C 
ENDROOT
BRANCH   1   7
HETATM    7  C7  UNL     1       0.783  -0.024   1.284  1.00  0.00     0.061 C 
BRANCH   7   8
HETATM    8  N1  UNL     1       1.293   0.860   0.352  1.00  0.00    -0.400 N 
ATOM      9  H1  UNL     1       0.919   1.809   0.349  1.00  0.00     0.158 HD
BRANCH   8  10
HETATM   10  C6  UNL     1       2.284   0.552  -0.588  1.00  0.00     0.145 C 
BRANCH  10  11
HETATM   11  C5  UNL     1       3.644   0.341   0.141  1.00  0.00     0.188 C 
BRANCH  11  12
HETATM   12  O2  UNL     1       3.890   1.541   0.773  1.00  0.00    -0.378 OA
BRANCH  12  13
HETATM   13  C4  UNL     1       5.033   1.626   1.513  1.00  0.00     0.261 C 
BRANCH  13  14
HETATM   14  C3  UNL     1       6.259   1.412   0.743  1.00  0.00    -0.078 C 
HETATM   15  C2  UNL     1       7.279   1.236   0.129  1.00  0.00    -0.079 C 
BRANCH  15  16
HETATM   16  C1  UNL     1       8.530   1.010  -0.600  1.00  0.00     0.257 C 
BRANCH  16  17
HETATM   17  O1  UNL     1       8.308   1.378  -1.921  1.00  0.00    -0.389 OA
ATOM     18  H1  UNL     1       9.119   1.231  -2.394  1.00  0.00     0.210 HD
ENDBRANCH  16  17
ENDBRANCH  15  16
ENDBRANCH  13  14
ENDBRANCH  12  13
ENDBRANCH  11  12
ENDBRANCH  10  11
ENDBRANCH   8  10
ENDBRANCH   7   8
ENDBRANCH   1   7
BRANCH   5  19
HETATM   19  C12 UNL     1      -3.513  -1.816   0.675  1.00  0.00     0.067 C 
BRANCH  19  20
HETATM   20  C13 UNL     1      -4.823  -1.603  -0.023  1.00  0.00     0.083 C 
BRANCH  20  21
HETATM   21  C14 UNL     1      -5.120  -0.168  -0.229  1.00  0.00    -0.053 A 
HETATM   22  C15 UNL     1      -4.837   0.535  -1.375  1.00  0.00     0.007 A 
HETATM   23  C16 UNL     1      -5.114   1.895  -1.506  1.00  0.00     0.001 A 
HETATM   24  C17 UNL     1      -5.691   2.603  -0.480  1.00  0.00     0.000 A 
HETATM   25  C18 UNL     1      -5.980   1.903   0.680  1.00  0.00     0.001 A 
HETATM   26  C19 UNL     1      -5.701   0.558   0.797  1.00  0.00     0.007 A 
ENDBRANCH  20  21
ENDBRANCH  19  20
ENDBRANCH   5  19
TORSDOF 12
