REMARK  14 active torsions:
REMARK  status: ('A' for Active; 'I' for Inactive)
REMARK       I    between atoms: C2_2  and  N1_4 
REMARK    1  A    between atoms: N1_4  and  C3_6 
REMARK    2  A    between atoms: C3_6  and  C4_7 
REMARK    3  A    between atoms: C3_6  and  C32_45 
REMARK       I    between atoms: C4_7  and  N2_9 
REMARK    4  A    between atoms: N2_9  and  C5_11 
REMARK    5  A    between atoms: C5_11  and  C6_12 
REMARK    6  A    between atoms: C5_11  and  C12_18 
REMARK    7  A    between atoms: C6_12  and  C7_13 
REMARK    8  A    between atoms: C12_18  and  O4_20 
REMARK    9  A    between atoms: O4_20  and  C13_21 
REMARK   10  A    between atoms: C16_24  and  C17_25 
REMARK   11  A    between atoms: C17_25  and  C18_26 
REMARK       I    between atoms: C18_26  and  N3_28 
REMARK   12  A    between atoms: N3_28  and  C19_29 
REMARK   13  A    between atoms: C19_29  and  C20_30 
REMARK   14  A    between atoms: C19_29  and  C25_38 
REMARK       I    between atoms: C20_30  and  N4_32 
ROOT
HETATM    1  C13 UNL     1      -0.803   0.037   0.820  1.00  0.00     0.132 C 
HETATM    2  C14 UNL     1       0.182  -0.794   0.010  1.00  0.00     0.033 C 
HETATM    3  C15 UNL     1       1.347   0.058  -0.429  1.00  0.00     0.013 C 
HETATM    4  C16 UNL     1       1.920   0.900   0.670  1.00  0.00    -0.027 A 
HETATM    5  C29 UNL     1       1.349   2.316   0.850  1.00  0.00     0.015 A 
HETATM    6  C30 UNL     1       1.123   1.218   1.814  1.00  0.00    -0.002 A 
HETATM    7  C31 UNL     1      -0.239   0.676   2.015  1.00  0.00     0.038 C 
ENDROOT
BRANCH   1   8
HETATM    8  O4  UNL     1      -2.102  -0.485   0.878  1.00  0.00    -0.314 OA
BRANCH   8   9
HETATM    9  C12 UNL     1      -3.156  -0.087   0.064  1.00  0.00     0.282 C 
HETATM   10  O3  UNL     1      -2.825   0.805  -0.791  1.00  0.00    -0.263 OA
BRANCH   9  11
HETATM   11  C5  UNL     1      -4.533  -0.553   0.093  1.00  0.00     0.184 C 
BRANCH  11  12
HETATM   12  N2  UNL     1      -5.364   0.713   0.030  1.00  0.00    -0.345 N 
HETATM   13  C4  UNL     1      -6.695   0.735   0.382  1.00  0.00     0.241 C 
HETATM   14  O2  UNL     1      -7.189  -0.411   0.700  1.00  0.00    -0.271 OA
ATOM     15  H2  UNL     1      -4.923   1.577  -0.284  1.00  0.00     0.163 HD
BRANCH  13  16
HETATM   16  C3  UNL     1      -7.545   1.933   0.417  1.00  0.00     0.184 C 
BRANCH  16  17
HETATM   17  N1  UNL     1      -8.877   1.503   0.914  1.00  0.00    -0.347 N 
HETATM   18  C2  UNL     1      -9.308   1.896   2.216  1.00  0.00     0.214 C 
HETATM   19  C1  UNL     1     -10.635   1.472   2.701  1.00  0.00     0.117 C 
HETATM   20  O1  UNL     1      -8.577   2.590   2.953  1.00  0.00    -0.274 OA
ATOM     21  H1  UNL     1      -9.481   0.929   0.326  1.00  0.00     0.163 HD
ENDBRANCH  16  17
BRANCH  16  22
HETATM   22  C32 UNL     1      -7.740   2.600  -0.910  1.00  0.00    -0.022 C 
HETATM   23  C33 UNL     1      -8.742   3.737  -0.630  1.00  0.00     0.017 C 
HETATM   24  C34 UNL     1      -8.269   1.755  -1.998  1.00  0.00     0.017 C 
HETATM   25  C35 UNL     1      -6.482   3.333  -1.377  1.00  0.00     0.017 C 
ENDBRANCH  16  22
ENDBRANCH  13  16
ENDBRANCH  11  12
BRANCH  11  26
HETATM   26  C6  UNL     1      -4.971  -1.366  -1.114  1.00  0.00     0.040 C 
BRANCH  26  27
HETATM   27  C7  UNL     1      -4.338  -2.699  -1.162  1.00  0.00    -0.012 C 
HETATM   28  C8  UNL     1      -2.881  -2.837  -1.239  1.00  0.00     0.005 C 
HETATM   29  C9  UNL     1      -2.700  -4.235  -1.905  1.00  0.00     0.000 C 
HETATM   30  C10 UNL     1      -3.710  -4.083  -3.024  1.00  0.00     0.000 C 
HETATM   31  C11 UNL     1      -4.921  -3.544  -2.305  1.00  0.00     0.005 C 
ENDBRANCH  26  27
ENDBRANCH  11  26
ENDBRANCH   9  11
ENDBRANCH   8   9
ENDBRANCH   1   8
BRANCH   4  32
HETATM   32  C17 UNL     1       3.420   0.991   0.589  1.00  0.00     0.128 C 
BRANCH  32  33
HETATM   33  C18 UNL     1       4.132  -0.346   0.670  1.00  0.00     0.288 C 
HETATM   34  O5  UNL     1       3.424  -1.351   0.951  1.00  0.00    -0.258 OA
HETATM   35  N3  UNL     1       5.438  -0.335   0.427  1.00  0.00    -0.399 NA
BRANCH  35  36
HETATM   36  C19 UNL     1       6.837  -0.328   0.168  1.00  0.00     0.265 C 
BRANCH  36  37
HETATM   37  C20 UNL     1       7.729  -0.689   1.263  1.00  0.00     0.256 C 
HETATM   38  O6  UNL     1       7.357  -1.609   2.074  1.00  0.00    -0.270 OA
HETATM   39  N4  UNL     1       9.021  -0.099   1.512  1.00  0.00    -0.345 N 
HETATM   40  C21 UNL     1       9.558   1.041   0.862  1.00  0.00     0.152 C 
HETATM   41  C24 UNL     1       9.868  -0.836   2.473  1.00  0.00     0.152 C 
HETATM   42  C22 UNL     1      10.534   1.776   1.773  1.00  0.00     0.187 C 
HETATM   43  O7  UNL     1      11.504   0.873   2.167  1.00  0.00    -0.388 OA
HETATM   44  C23 UNL     1      10.880   0.042   3.124  1.00  0.00     0.187 C 
ENDBRANCH  36  37
BRANCH  36  45
HETATM   45  C25 UNL     1       7.106  -1.129  -1.117  1.00  0.00    -0.010 C 
HETATM   46  C26 UNL     1       6.597  -2.565  -0.849  1.00  0.00     0.018 C 
HETATM   47  C27 UNL     1       8.523  -1.287  -1.503  1.00  0.00     0.018 C 
HETATM   48  C28 UNL     1       6.258  -0.623  -2.254  1.00  0.00     0.018 C 
ENDBRANCH  36  45
ENDBRANCH  35  36
ENDBRANCH  32  33
ENDBRANCH   4  32
TORSDOF 14
