REMARK  16 active torsions:
REMARK  status: ('A' for Active; 'I' for Inactive)
REMARK    1  A    between atoms: C2_2  and  C3_3 
REMARK    2  A    between atoms: C3_3  and  C4_4 
REMARK    3  A    between atoms: C3_3  and  C6_6 
REMARK    4  A    between atoms: C3_3  and  C28_36 
REMARK    5  A    between atoms: C6_6  and  C7_7 
REMARK       I    between atoms: C7_7  and  N1_9 
REMARK    6  A    between atoms: N2_12  and  C10_13 
REMARK    7  A    between atoms: C10_13  and  O2_14 
REMARK    8  A    between atoms: C10_13  and  C11_16 
REMARK    9  A    between atoms: C11_16  and  N3_17 
REMARK   10  A    between atoms: C11_16  and  C17_25 
REMARK       I    between atoms: N3_17  and  C12_18 
REMARK   11  A    between atoms: C12_18  and  O4_20 
REMARK   12  A    between atoms: O4_20  and  C13_21 
REMARK       I    between atoms: C28_36  and  N4_38 
REMARK   13  A    between atoms: N4_38  and  C29_40 
REMARK   14  A    between atoms: C29_40  and  C30_41 
REMARK   15  A    between atoms: C30_41  and  S1_42 
REMARK   16  A    between atoms: S1_42  and  N5_43 
ROOT
HETATM    1  C7  UNL     1       2.635  -1.284  -0.552  1.00  0.00     0.224 C 
HETATM    2  O1  UNL     1       2.966  -2.432  -0.219  1.00  0.00    -0.273 OA
HETATM    3  N1  UNL     1       1.263  -0.882  -0.320  1.00  0.00    -0.328 N 
HETATM    4  C8  UNL     1       0.371  -1.838   0.280  1.00  0.00     0.151 C 
HETATM    5  C9  UNL     1      -0.999  -1.818  -0.249  1.00  0.00     0.146 C 
HETATM    6  N2  UNL     1      -1.549  -0.432  -0.464  1.00  0.00    -0.347 N 
HETATM    7  C21 UNL     1      -0.653   0.534  -1.005  1.00  0.00     0.066 C 
HETATM    8  C22 UNL     1      -0.771   0.355  -2.535  1.00  0.00     0.037 C 
HETATM    9  C23 UNL     1      -0.073   1.390  -3.334  1.00  0.00     0.003 C 
HETATM   10  C24 UNL     1      -0.458   2.772  -2.885  1.00  0.00     0.000 C 
HETATM   11  C25 UNL     1      -0.132   2.934  -1.435  1.00  0.00     0.003 C 
HETATM   12  C26 UNL     1      -0.952   1.963  -0.590  1.00  0.00     0.037 C 
HETATM   13  C27 UNL     1       0.803   0.396  -0.628  1.00  0.00     0.098 C 
ENDROOT
BRANCH   1  14
HETATM   14  C6  UNL     1       3.573  -0.350  -1.148  1.00  0.00     0.122 C 
BRANCH  14  15
HETATM   15  C3  UNL     1       5.006  -0.783  -1.177  1.00  0.00     0.049 C 
BRANCH  15  16
HETATM   16  C2  UNL     1       5.326  -2.000  -1.961  1.00  0.00     0.015 C 
HETATM   17  C1  UNL     1       6.749  -2.468  -1.885  1.00  0.00     0.006 C 
ENDBRANCH  15  16
BRANCH  15  18
HETATM   18  C4  UNL     1       5.849   0.365  -1.688  1.00  0.00     0.015 C 
HETATM   19  C5  UNL     1       5.612   0.671  -3.152  1.00  0.00     0.006 C 
ENDBRANCH  15  18
BRANCH  15  20
HETATM   20  C28 UNL     1       5.480  -0.944   0.272  1.00  0.00     0.230 C 
HETATM   21  O5  UNL     1       5.998  -2.016   0.556  1.00  0.00    -0.272 OA
HETATM   22  N4  UNL     1       5.300   0.108   1.178  1.00  0.00    -0.336 N 
ATOM     23  H4  UNL     1       4.835   0.939   0.813  1.00  0.00     0.168 HD
BRANCH  22  24
HETATM   24  C29 UNL     1       5.680   0.158   2.523  1.00  0.00     0.104 C 
BRANCH  24  25
HETATM   25  C30 UNL     1       7.015   0.297   3.067  1.00  0.00     0.148 C 
BRANCH  25  26
HETATM   26  S1  UNL     1       8.354  -0.739   2.709  1.00  0.00     0.247 S 
HETATM   27  O6  UNL     1       9.588  -0.347   3.542  1.00  0.00    -0.202 OA
HETATM   28  O7  UNL     1       8.106  -2.181   3.117  1.00  0.00    -0.202 OA
BRANCH  26  29
HETATM   29  N5  UNL     1       8.847  -0.636   1.080  1.00  0.00    -0.325 N 
ATOM     30  H52 UNL     1       8.392  -0.025   0.402  1.00  0.00     0.169 HD
ATOM     31  H51 UNL     1       9.636  -1.247   0.869  1.00  0.00     0.169 HD
ENDBRANCH  26  29
ENDBRANCH  25  26
ENDBRANCH  24  25
ENDBRANCH  22  24
ENDBRANCH  15  20
ENDBRANCH  14  15
ENDBRANCH   1  14
BRANCH   6  32
HETATM   32  C10 UNL     1      -2.866  -0.286  -0.095  1.00  0.00     0.152 C 
BRANCH  32  33
HETATM   33  O2  UNL     1      -3.239  -1.502   0.521  1.00  0.00    -0.347 OA
ATOM     34  H2  UNL     1      -4.149  -1.401   0.776  1.00  0.00     0.219 HD
ENDBRANCH  32  33
BRANCH  32  35
HETATM   35  C11 UNL     1      -4.054   0.514  -0.034  1.00  0.00     0.250 C 
BRANCH  35  36
HETATM   36  N3  UNL     1      -4.991   0.034   0.881  1.00  0.00    -0.376 NA
HETATM   37  C12 UNL     1      -5.910  -0.443   1.770  1.00  0.00     0.436 C 
HETATM   38  O3  UNL     1      -6.641  -1.480   1.620  1.00  0.00    -0.221 OA
BRANCH  37  39
HETATM   39  O4  UNL     1      -6.164   0.198   3.015  1.00  0.00    -0.283 OA
BRANCH  39  40
HETATM   40  C13 UNL     1      -7.129  -0.344   3.882  1.00  0.00     0.062 C 
HETATM   41  C14 UNL     1      -7.265   0.451   5.144  1.00  0.00     0.046 C 
HETATM   42  C15 UNL     1      -6.734  -1.784   4.159  1.00  0.00     0.046 C 
HETATM   43  C16 UNL     1      -8.503  -0.385   3.223  1.00  0.00     0.046 C 
ENDBRANCH  39  40
ENDBRANCH  37  39
ENDBRANCH  35  36
BRANCH  35  44
HETATM   44  C17 UNL     1      -4.807   0.849  -1.308  1.00  0.00    -0.011 C 
HETATM   45  C18 UNL     1      -5.228  -0.308  -2.155  1.00  0.00     0.018 C 
HETATM   46  C19 UNL     1      -6.249   1.350  -0.778  1.00  0.00     0.018 C 
HETATM   47  C20 UNL     1      -4.375   2.000  -2.127  1.00  0.00     0.018 C 
ENDBRANCH  35  44
ENDBRANCH  32  35
ENDBRANCH   6  32
TORSDOF 16
