REMARK  12 active torsions:
REMARK  status: ('A' for Active; 'I' for Inactive)
REMARK    1  A    between atoms: C2_2  and  C3_3 
REMARK    2  A    between atoms: C3_3  and  C4_4 
REMARK    3  A    between atoms: C4_4  and  C5_5 
REMARK    4  A    between atoms: C5_5  and  C6_6 
REMARK       I    between atoms: C6_6  and  N1_8 
REMARK    5  A    between atoms: N1_8  and  C7_10 
REMARK    6  A    between atoms: C8_11  and  C9_12 
REMARK    7  A    between atoms: C9_12  and  O2_13 
REMARK    8  A    between atoms: C9_12  and  C10_15 
REMARK    9  A    between atoms: C18_24  and  O4_25 
REMARK   10  A    between atoms: C21_29  and  C22_30 
REMARK   11  A    between atoms: C23_31  and  O6_32 
REMARK   12  A    between atoms: O6_32  and  C24_33 
ROOT
HETATM    1  C7  UNL     1      -1.487   0.126   0.949  1.00  0.00     0.058 C 
HETATM    2  C8  UNL     1      -1.442  -1.126   0.138  1.00  0.00     0.199 C 
HETATM    3  O3  UNL     1      -0.249  -1.678   0.705  1.00  0.00    -0.368 OA
HETATM    4  C13 UNL     1       0.668  -0.632   0.806  1.00  0.00     0.167 C 
HETATM    5  C14 UNL     1       1.610  -0.918   1.893  1.00  0.00     0.019 C 
HETATM    6  C15 UNL     1       1.211  -0.268   3.163  1.00  0.00     0.019 C 
HETATM    7  C16 UNL     1       1.222   1.227   2.914  1.00  0.00     0.059 C 
HETATM    8  C17 UNL     1       0.264   1.653   1.877  1.00  0.00     0.059 C 
HETATM    9  C18 UNL     1      -0.103   0.672   0.810  1.00  0.00     0.128 C 
HETATM   10  C20 UNL     1       2.639   1.550   2.591  1.00  0.00     0.135 C 
HETATM   11  O5  UNL     1       3.205   2.424   3.228  1.00  0.00    -0.297 OA
HETATM   12  C21 UNL     1       3.373   0.820   1.506  1.00  0.00     0.064 C 
HETATM   13  C28 UNL     1       3.048  -0.645   1.500  1.00  0.00     0.020 C 
ENDROOT
BRANCH  12  14
HETATM   14  C22 UNL     1       4.800   1.185   1.546  1.00  0.00     0.043 A 
HETATM   15  C23 UNL     1       5.838   0.632   0.645  1.00  0.00     0.152 A 
HETATM   16  C25 UNL     1       5.338   1.984   0.464  1.00  0.00     0.036 A 
HETATM   17  C26 UNL     1       6.064   3.242   0.550  1.00  0.00     0.182 A 
HETATM   18  C27 UNL     1       4.632   2.480  -0.739  1.00  0.00     0.182 A 
HETATM   19  O8  UNL     1       5.405   3.663  -0.627  1.00  0.00    -0.389 OA
BRANCH  15  20
HETATM   20  O6  UNL     1       5.563  -0.286  -0.380  1.00  0.00    -0.300 OA
BRANCH  20  21
HETATM   21  C24 UNL     1       6.455  -1.216  -0.884  1.00  0.00     0.373 C 
HETATM   22  N2  UNL     1       6.174  -2.127  -1.907  1.00  0.00    -0.032 NA
HETATM   23  O7  UNL     1       7.608  -1.228  -0.366  1.00  0.00    -0.242 OA
ENDBRANCH  20  21
ENDBRANCH  15  20
ENDBRANCH  12  14
BRANCH   9  24
HETATM   24  O4  UNL     1       0.096   1.217  -0.406  1.00  0.00    -0.376 OA
HETATM   25  C19 UNL     1      -0.497   2.242  -0.969  1.00  0.00     0.203 C 
ENDBRANCH   9  24
BRANCH   1  26
HETATM   26  N1  UNL     1      -2.584   0.977   0.900  1.00  0.00    -0.329 N 
HETATM   27  C6  UNL     1      -3.892   0.492   1.151  1.00  0.00     0.221 C 
HETATM   28  O1  UNL     1      -4.056  -0.724   1.394  1.00  0.00    -0.273 OA
ATOM     29  H1  UNL     1      -2.446   1.964   0.681  1.00  0.00     0.168 HD
BRANCH  27  30
HETATM   30  C5  UNL     1      -5.126   1.321   1.149  1.00  0.00     0.103 C 
BRANCH  30  31
HETATM   31  C4  UNL     1      -6.305   0.458   0.656  1.00  0.00     0.013 C 
BRANCH  31  32
HETATM   32  C3  UNL     1      -5.985   0.093  -0.774  1.00  0.00     0.027 C 
BRANCH  32  33
HETATM   33  C2  UNL     1      -6.975  -0.730  -1.455  1.00  0.00    -0.037 C 
HETATM   34  C1  UNL     1      -8.094  -1.231  -0.986  1.00  0.00     0.007 C 
ENDBRANCH  32  33
ENDBRANCH  31  32
ENDBRANCH  30  31
ENDBRANCH  27  30
ENDBRANCH   1  26
BRANCH   2  35
HETATM   35  C9  UNL     1      -1.291  -1.125  -1.303  1.00  0.00     0.156 C 
BRANCH  35  36
HETATM   36  O2  UNL     1      -2.321  -0.620  -2.053  1.00  0.00    -0.392 OA
ATOM     37  H2  UNL     1      -2.222  -0.619  -2.998  1.00  0.00     0.210 HD
ENDBRANCH  35  36
BRANCH  35  38
HETATM   38  C10 UNL     1      -1.238  -2.626  -1.721  1.00  0.00     0.009 C 
HETATM   39  C11 UNL     1      -2.463  -3.366  -1.338  1.00  0.00     0.012 C 
HETATM   40  C12 UNL     1      -0.988  -2.645  -3.202  1.00  0.00     0.012 C 
ENDBRANCH  35  38
ENDBRANCH   2  35
TORSDOF 12
