REMARK  12 active torsions:
REMARK  status: ('A' for Active; 'I' for Inactive)
REMARK    1  A    between atoms: C2_2  and  C3_3 
REMARK    2  A    between atoms: C3_3  and  N1_4 
REMARK    3  A    between atoms: C3_3  and  C7_11 
REMARK       I    between atoms: N1_4  and  C4_6 
REMARK       I    between atoms: C4_6  and  N2_8 
REMARK       I    between atoms: C7_11  and  N3_13 
REMARK       I    between atoms: N3_13  and  C8_15 
REMARK    4  A    between atoms: C8_15  and  C9_17 
REMARK    5  A    between atoms: C9_17  and  C10_18 
REMARK    6  A    between atoms: C9_17  and  N4_22 
REMARK    7  A    between atoms: C10_18  and  C11_19 
REMARK       I    between atoms: N4_22  and  C14_23 
REMARK    8  A    between atoms: C14_23  and  O5_25 
REMARK    9  A    between atoms: O5_25  and  C15_26 
REMARK   10  A    between atoms: C20_32  and  O7_33 
REMARK   11  A    between atoms: C20_32  and  C22_35 
REMARK   12  A    between atoms: C22_35  and  C24_37 
ROOT
HETATM    1  C9  UNL     1       1.315  -0.564  -0.985  1.00  0.00     0.261 C 
ENDROOT
BRANCH   1   2
HETATM    2  C8  UNL     1       2.130   0.295  -0.027  1.00  0.00     0.260 C 
HETATM    3  N3  UNL     1       3.520   0.202  -0.125  1.00  0.00    -0.293 N 
HETATM    4  C7  UNL     1       4.351   1.070   0.662  1.00  0.00     0.247 C 
ATOM      5  H3  UNL     1       3.944  -0.480  -0.754  1.00  0.00     0.172 HD
HETATM    6  O2  UNL     1       3.866   1.815   1.532  1.00  0.00    -0.271 OA
HETATM    7  O3  UNL     1       1.542   1.020   0.761  1.00  0.00    -0.270 OA
BRANCH   4   8
HETATM    8  C3  UNL     1       5.788   1.042   0.385  1.00  0.00     0.178 C 
BRANCH   8   9
HETATM    9  C2  UNL     1       5.933   1.494  -1.091  1.00  0.00     0.030 C 
HETATM   10  C1  UNL     1       7.368   1.465  -1.507  1.00  0.00     0.007 C 
ENDBRANCH   8   9
BRANCH   8  11
HETATM   11  N1  UNL     1       6.544   1.954   1.206  1.00  0.00    -0.330 N 
HETATM   12  C4  UNL     1       7.750   1.515   1.778  1.00  0.00     0.318 C 
HETATM   13  O1  UNL     1       8.189   0.345   1.604  1.00  0.00    -0.247 OA
HETATM   14  N2  UNL     1       8.525   2.391   2.579  1.00  0.00    -0.343 N 
HETATM   15  C5  UNL     1       9.790   1.939   3.159  1.00  0.00     0.154 C 
HETATM   16  C6  UNL     1       8.110   3.740   2.843  1.00  0.00     0.154 C 
ATOM     17  H1  UNL     1       6.209   2.903   1.369  1.00  0.00     0.165 HD
ENDBRANCH   8  11
ENDBRANCH   4   8
ENDBRANCH   1   2
BRANCH   1  18
HETATM   18  C10 UNL     1       1.524  -2.023  -0.587  1.00  0.00     0.053 C 
BRANCH  18  19
HETATM   19  C11 UNL     1       0.750  -2.887  -1.532  1.00  0.00    -0.019 C 
HETATM   20  C12 UNL     1       1.197  -2.736  -2.955  1.00  0.00     0.009 C 
HETATM   21  C13 UNL     1       0.810  -4.354  -1.153  1.00  0.00     0.009 C 
ENDBRANCH  18  19
ENDBRANCH   1  18
BRANCH   1  22
HETATM   22  N4  UNL     1       0.021  -0.158  -1.008  1.00  0.00    -0.375 NA
HETATM   23  C14 UNL     1      -1.307   0.275  -1.037  1.00  0.00     0.435 C 
HETATM   24  O4  UNL     1      -1.794   1.360  -1.352  1.00  0.00    -0.221 OA
BRANCH  23  25
HETATM   25  O5  UNL     1      -2.296  -0.665  -0.661  1.00  0.00    -0.285 OA
BRANCH  25  26
HETATM   26  C15 UNL     1      -3.655  -0.350  -0.661  1.00  0.00     0.168 C 
HETATM   27  C16 UNL     1      -4.228  -0.857  -2.017  1.00  0.00     0.204 C 
HETATM   28  O6  UNL     1      -5.429  -1.430  -1.973  1.00  0.00    -0.359 OA
HETATM   29  C17 UNL     1      -5.838  -2.177  -0.921  1.00  0.00     0.264 C 
HETATM   30  C18 UNL     1      -4.744  -2.338   0.140  1.00  0.00     0.073 C 
HETATM   31  O8  UNL     1      -6.708  -1.384  -0.148  1.00  0.00    -0.325 OA
HETATM   32  C19 UNL     1      -4.483  -0.867   0.418  1.00  0.00     0.085 C 
HETATM   33  C20 UNL     1      -5.944  -0.313   0.258  1.00  0.00     0.176 C 
BRANCH  33  34
HETATM   34  O7  UNL     1      -5.883   0.679  -0.674  1.00  0.00    -0.359 OA
HETATM   35  C21 UNL     1      -6.952   1.324  -1.139  1.00  0.00     0.205 C 
ENDBRANCH  33  34
BRANCH  33  36
HETATM   36  C22 UNL     1      -6.381   0.176   1.585  1.00  0.00     0.044 C 
HETATM   37  C23 UNL     1      -5.494   1.345   2.005  1.00  0.00     0.015 C 
BRANCH  36  38
HETATM   38  C24 UNL     1      -7.781   0.462   1.880  1.00  0.00     0.005 C 
HETATM   39  C25 UNL     1      -8.785  -0.634   1.784  1.00  0.00     0.005 C 
ENDBRANCH  36  38
ENDBRANCH  33  36
ENDBRANCH  25  26
ENDBRANCH  23  25
ENDBRANCH   1  22
TORSDOF 12
