REMARK  13 active torsions:
REMARK  status: ('A' for Active; 'I' for Inactive)
REMARK    1  A    between atoms: C2_2  and  C3_3 
REMARK    2  A    between atoms: C3_3  and  C4_4 
REMARK    3  A    between atoms: C4_4  and  C5_5 
REMARK    4  A    between atoms: C5_5  and  C6_6 
REMARK    5  A    between atoms: N1_7  and  C8_9 
REMARK    6  A    between atoms: C8_9  and  C9_10 
REMARK    7  A    between atoms: C9_10  and  O1_11 
REMARK    8  A    between atoms: C9_10  and  C10_13 
REMARK    9  A    between atoms: C12_18  and  C13_19 
REMARK   10  A    between atoms: C13_19  and  S1_20 
REMARK   11  A    between atoms: C15_24  and  O3_25 
REMARK       I    between atoms: N4_28  and  C17_30 
REMARK   12  A    between atoms: C17_30  and  O5_32 
REMARK   13  A    between atoms: O5_32  and  C18_33 
ROOT
HETATM    1  C10 UNL     1      -0.442   0.227  -0.008  1.00  0.00     0.118 C 
HETATM    2  N2  UNL     1      -0.433   1.402  -0.835  1.00  0.00    -0.352 N 
ATOM      3  H2  UNL     1      -0.829   1.256  -1.763  1.00  0.00     0.163 HD
HETATM    4  C11 UNL     1       0.009   2.691  -0.614  1.00  0.00     0.241 C 
HETATM    5  O2  UNL     1      -0.879   3.617  -0.816  1.00  0.00    -0.271 OA
HETATM    6  C12 UNL     1       1.352   3.192  -0.179  1.00  0.00     0.185 C 
HETATM    7  N3  UNL     1       2.389   2.776  -1.062  1.00  0.00    -0.353 N 
ATOM      8  H3  UNL     1       2.073   2.718  -2.030  1.00  0.00     0.162 HD
HETATM    9  C15 UNL     1       3.726   2.431  -0.923  1.00  0.00     0.189 C 
HETATM   10  C16 UNL     1       4.336   1.303  -0.223  1.00  0.00     0.198 C 
HETATM   11  N4  UNL     1       5.565   1.386   0.157  1.00  0.00    -0.279 N 
ATOM     12  H4  UNL     1       6.083   2.242  -0.042  1.00  0.00     0.173 HD
HETATM   13  C17 UNL     1       6.211   0.357   0.825  1.00  0.00     0.367 C 
HETATM   14  O4  UNL     1       6.274   0.322   2.083  1.00  0.00    -0.238 OA
HETATM   15  O6  UNL     1       3.675   0.114   0.071  1.00  0.00    -0.332 OA
HETATM   16  C22 UNL     1       2.744  -0.459  -0.867  1.00  0.00     0.178 C 
HETATM   17  C23 UNL     1       1.638  -1.042  -0.055  1.00  0.00     0.033 C 
HETATM   18  C24 UNL     1       0.284  -0.946  -0.670  1.00  0.00     0.009 C 
HETATM   19  C25 UNL     1       0.250  -0.782  -2.153  1.00  0.00     0.012 C 
ENDROOT
BRANCH   1  20
HETATM   20  C9  UNL     1      -1.891  -0.288   0.205  1.00  0.00     0.159 C 
BRANCH  20  21
HETATM   21  C8  UNL     1      -2.798   0.770   0.723  1.00  0.00     0.155 C 
BRANCH  21  22
HETATM   22  N1  UNL     1      -4.167   0.376   0.835  1.00  0.00    -0.392 N 
HETATM   23  C6  UNL     1      -4.581  -0.528   1.769  1.00  0.00     0.081 C 
HETATM   24  C7  UNL     1      -5.056   1.214   0.124  1.00  0.00     0.148 C 
BRANCH  23  25
HETATM   25  C5  UNL     1      -5.224  -1.830   1.570  1.00  0.00    -0.010 C 
BRANCH  25  26
HETATM   26  C4  UNL     1      -6.472  -2.052   0.832  1.00  0.00     0.028 C 
BRANCH  26  27
HETATM   27  C3  UNL     1      -6.486  -1.904  -0.648  1.00  0.00     0.003 C 
BRANCH  27  28
HETATM   28  C2  UNL     1      -7.898  -2.176  -1.197  1.00  0.00    -0.004 C 
HETATM   29  C1  UNL     1      -8.873  -1.196  -0.600  1.00  0.00     0.005 C 
ENDBRANCH  27  28
ENDBRANCH  26  27
ENDBRANCH  25  26
ENDBRANCH  23  25
ENDBRANCH  21  22
ENDBRANCH  20  21
BRANCH  20  30
HETATM   30  O1  UNL     1      -1.859  -1.423   0.996  1.00  0.00    -0.392 OA
ATOM     31  H1  UNL     1      -1.279  -2.099   0.665  1.00  0.00     0.210 HD
ENDBRANCH  20  30
ENDBRANCH   1  20
BRANCH   6  32
HETATM   32  C13 UNL     1       1.572   3.058   1.281  1.00  0.00     0.108 C 
BRANCH  32  33
HETATM   33  S1  UNL     1       3.161   3.711   1.787  1.00  0.00    -0.171 SA
HETATM   34  C14 UNL     1       3.281   5.499   1.581  1.00  0.00     0.089 C 
ENDBRANCH  32  33
ENDBRANCH   6  32
BRANCH   9  35
HETATM   35  O3  UNL     1       4.632   3.197  -1.486  1.00  0.00    -0.343 OA
ATOM     36  H3  UNL     1       5.547   2.961  -1.391  1.00  0.00     0.219 HD
ENDBRANCH   9  35
BRANCH  13  37
HETATM   37  O5  UNL     1       6.804  -0.661   0.096  1.00  0.00    -0.298 OA
BRANCH  37  38
HETATM   38  C18 UNL     1       7.454  -1.697   0.776  1.00  0.00     0.133 C 
HETATM   39  C19 UNL     1       8.789  -2.040   0.168  1.00  0.00     0.033 C 
HETATM   40  C20 UNL     1       8.414  -3.492   0.259  1.00  0.00     0.005 C 
HETATM   41  C21 UNL     1       6.965  -3.058   0.311  1.00  0.00     0.033 C 
ENDBRANCH  37  38
ENDBRANCH  13  37
TORSDOF 13
