REMARK  13 active torsions:
REMARK  status: ('A' for Active; 'I' for Inactive)
REMARK    1  A    between atoms: O1_2  and  C2_3 
REMARK    2  A    between atoms: C2_3  and  C3_5 
REMARK    3  A    between atoms: N1_10  and  C7_11 
REMARK    4  A    between atoms: C7_11  and  C8_12 
REMARK    5  A    between atoms: C7_11  and  C9_15 
REMARK    6  A    between atoms: C8_12  and  O3_13 
REMARK    7  A    between atoms: C9_15  and  C10_16 
REMARK    8  A    between atoms: C10_16  and  C11_17 
REMARK    9  A    between atoms: C11_17  and  N2_18 
REMARK       I    between atoms: N2_18  and  C12_20 
REMARK   10  A    between atoms: C12_20  and  C13_22 
REMARK   11  A    between atoms: C20_29  and  C21_30 
REMARK   12  A    between atoms: C21_30  and  C22_31 
REMARK   13  A    between atoms: C27_37  and  O5_38 
ROOT
HETATM    1  N2  UNL     1      -0.598  -0.892  -1.123  1.00  0.00    -0.361 N 
ATOM      2  H2  UNL     1      -0.294  -1.858  -1.245  1.00  0.00     0.162 HD
HETATM    3  C12 UNL     1       0.385   0.087  -0.972  1.00  0.00     0.226 C 
HETATM    4  O4  UNL     1       0.117   1.294  -0.825  1.00  0.00    -0.273 OA
ENDROOT
BRANCH   3   5
HETATM    5  C13 UNL     1       1.822  -0.293  -0.983  1.00  0.00     0.126 C 
HETATM    6  C14 UNL     1       2.245  -0.955  -2.272  1.00  0.00     0.018 C 
HETATM    7  C15 UNL     1       3.017  -0.061  -3.172  1.00  0.00     0.003 C 
HETATM    8  C16 UNL     1       4.370   0.331  -2.864  1.00  0.00     0.026 C 
HETATM    9  C17 UNL     1       4.930   0.271  -1.489  1.00  0.00     0.090 C 
HETATM   10  C18 UNL     1       5.647  -0.988  -1.271  1.00  0.00     0.018 A 
HETATM   11  N3  UNL     1       4.009   0.418  -0.418  1.00  0.00    -0.362 N 
HETATM   12  C19 UNL     1       6.979  -1.385  -1.079  1.00  0.00     0.017 A 
HETATM   13  C20 UNL     1       6.426  -0.730   0.045  1.00  0.00    -0.030 A 
HETATM   14  C25 UNL     1       5.379  -1.081   1.037  1.00  0.00     0.054 C 
HETATM   15  C26 UNL     1       4.252  -0.112   0.831  1.00  0.00     0.062 C 
HETATM   16  C27 UNL     1       2.711   0.879  -0.704  1.00  0.00     0.232 C 
BRANCH  13  17
HETATM   17  C21 UNL     1       6.990   0.634   0.350  1.00  0.00     0.015 C 
BRANCH  17  18
HETATM   18  C22 UNL     1       7.693   0.479   1.712  1.00  0.00    -0.014 A 
HETATM   19  C23 UNL     1       8.334   1.798   2.175  1.00  0.00     0.005 A 
HETATM   20  C24 UNL     1       7.217   1.135   2.912  1.00  0.00     0.005 A 
ENDBRANCH  17  18
ENDBRANCH  13  17
BRANCH  16  21
HETATM   21  O5  UNL     1       2.203   1.490   0.470  1.00  0.00    -0.376 OA
ATOM     22  H5  UNL     1       2.767   2.234   0.647  1.00  0.00     0.212 HD
ENDBRANCH  16  21
ENDBRANCH   3   5
BRANCH   1  23
HETATM   23  C11 UNL     1      -2.034  -0.623  -1.118  1.00  0.00     0.122 C 
BRANCH  23  24
HETATM   24  C10 UNL     1      -2.463  -0.063   0.171  1.00  0.00     0.022 C 
BRANCH  24  25
HETATM   25  C9  UNL     1      -3.903   0.223   0.326  1.00  0.00     0.028 C 
BRANCH  25  26
HETATM   26  C7  UNL     1      -4.830  -0.889   0.469  1.00  0.00     0.103 C 
BRANCH  26  27
HETATM   27  N1  UNL     1      -6.212  -0.444   0.565  1.00  0.00    -0.392 N 
HETATM   28  C3  UNL     1      -6.822   0.043  -0.579  1.00  0.00     0.189 C 
HETATM   29  C4  UNL     1      -8.126  -0.711  -0.831  1.00  0.00     0.109 C 
HETATM   30  S1  UNL     1      -8.894  -1.316   0.669  1.00  0.00    -0.165 SA
HETATM   31  C5  UNL     1      -7.814  -1.307   2.097  1.00  0.00     0.093 C 
HETATM   32  C6  UNL     1      -6.735  -0.244   1.839  1.00  0.00     0.128 C 
BRANCH  28  33
HETATM   33  C2  UNL     1      -7.138   1.485  -0.634  1.00  0.00     0.281 C 
HETATM   34  O2  UNL     1      -7.706   1.901  -1.688  1.00  0.00    -0.263 OA
BRANCH  33  35
HETATM   35  O1  UNL     1      -6.876   2.413   0.342  1.00  0.00    -0.325 OA
HETATM   36  C1  UNL     1      -7.211   3.784   0.214  1.00  0.00     0.213 C 
ENDBRANCH  33  35
ENDBRANCH  28  33
ENDBRANCH  26  27
BRANCH  26  37
HETATM   37  C8  UNL     1      -4.758  -2.023  -0.457  1.00  0.00     0.189 C 
BRANCH  37  38
HETATM   38  O3  UNL     1      -5.677  -3.044  -0.003  1.00  0.00    -0.399 OA
ATOM     39  H3  UNL     1      -5.630  -3.779  -0.603  1.00  0.00     0.209 HD
ENDBRANCH  37  38
ENDBRANCH  26  37
ENDBRANCH  25  26
ENDBRANCH  24  25
ENDBRANCH  23  24
ENDBRANCH   1  23
TORSDOF 13
