REMARK  16 active torsions:
REMARK  status: ('A' for Active; 'I' for Inactive)
REMARK    1  A    between atoms: C3_3  and  C4_4 
REMARK    2  A    between atoms: C4_4  and  C5_5 
REMARK    3  A    between atoms: C5_5  and  C6_6 
REMARK    4  A    between atoms: C6_6  and  C7_7 
REMARK    5  A    between atoms: C7_7  and  C8_8 
REMARK    6  A    between atoms: C8_8  and  C9_9 
REMARK    7  A    between atoms: C9_9  and  C10_10 
REMARK    8  A    between atoms: C10_10  and  C11_11 
REMARK    9  A    between atoms: C11_11  and  C12_12 
REMARK   10  A    between atoms: C12_12  and  C13_13 
REMARK   11  A    between atoms: C15_15  and  N1_16 
REMARK   12  A    between atoms: N3_23  and  C18_24 
REMARK   13  A    between atoms: N5_30  and  C20_31 
REMARK   14  A    between atoms: C20_31  and  C22_34 
REMARK   15  A    between atoms: C22_34  and  O3_35 
REMARK   16  A    between atoms: C24_39  and  C25_40 
ROOT
HETATM    1  C1  UNL     1       7.869  -3.731   0.055  1.00  0.00     0.012 C 
HETATM    2  C2  UNL     1       8.526  -2.760   0.341  1.00  0.00    -0.117 C 
HETATM    3  C3  UNL     1       9.304  -1.575   0.692  1.00  0.00     0.093 C 
ENDROOT
BRANCH   3   4
HETATM    4  C4  UNL     1       8.381  -0.514   1.235  1.00  0.00     0.012 C 
BRANCH   4   5
HETATM    5  C5  UNL     1       7.680  -1.047   2.465  1.00  0.00     0.001 C 
BRANCH   5   6
HETATM    6  C6  UNL     1       6.741  -0.027   3.053  1.00  0.00     0.000 C 
BRANCH   6   7
HETATM    7  C7  UNL     1       5.658   0.410   2.109  1.00  0.00     0.000 C 
BRANCH   7   8
HETATM    8  C8  UNL     1       4.782  -0.719   1.658  1.00  0.00     0.001 C 
BRANCH   8   9
HETATM    9  C9  UNL     1       3.741  -0.162   0.723  1.00  0.00     0.012 C 
BRANCH   9  10
HETATM   10  C10 UNL     1       2.807  -1.252   0.218  1.00  0.00     0.094 C 
BRANCH  10  11
HETATM   11  C11 UNL     1       1.801  -0.702  -0.689  1.00  0.00    -0.100 C 
BRANCH  11  12
HETATM   12  C12 UNL     1       0.964  -0.226  -1.439  1.00  0.00    -0.049 C 
BRANCH  12  13
HETATM   13  C13 UNL     1      -0.011   0.332  -2.337  1.00  0.00     0.090 A 
HETATM   14  C14 UNL     1       0.291   0.568  -3.662  1.00  0.00     0.070 A 
HETATM   15  C15 UNL     1      -0.606   1.101  -4.565  1.00  0.00     0.059 A 
HETATM   16  C16 UNL     1      -1.864   1.407  -4.100  1.00  0.00     0.104 A 
HETATM   17  N2  UNL     1      -2.966   1.925  -4.671  1.00  0.00    -0.347 N 
HETATM   18  C27 UNL     1      -2.172   1.174  -2.777  1.00  0.00     0.144 A 
HETATM   19  C17 UNL     1      -3.913   2.004  -3.727  1.00  0.00     0.192 A 
ATOM     20  H2  UNL     1      -3.063   2.207  -5.646  1.00  0.00     0.167 HD
HETATM   21  N3  UNL     1      -3.453   1.549  -2.551  1.00  0.00    -0.279 N 
HETATM   22  N7  UNL     1      -1.252   0.650  -1.941  1.00  0.00    -0.333 N 
ATOM     23  H7  UNL     1      -1.511   0.489  -0.968  1.00  0.00     0.168 HD
BRANCH  15  24
HETATM   24  N1  UNL     1      -0.296   1.313  -5.805  1.00  0.00    -0.397 N 
ATOM     25  H12 UNL     1       0.637   1.086  -6.150  1.00  0.00     0.156 HD
ATOM     26  H11 UNL     1      -0.959   1.707  -6.472  1.00  0.00     0.156 HD
ENDBRANCH  15  24
BRANCH  21  27
HETATM   27  C18 UNL     1      -4.119   1.449  -1.279  1.00  0.00     0.124 C 
HETATM   28  N4  UNL     1      -3.775   2.447  -0.525  1.00  0.00    -0.242 N 
HETATM   29  O1  UNL     1      -4.213   2.681   0.756  1.00  0.00    -0.179 OA
ATOM     30  H4  UNL     1      -3.118   3.120  -0.920  1.00  0.00     0.196 HD
HETATM   31  C19 UNL     1      -4.497   1.690   1.691  1.00  0.00     0.393 C 
HETATM   32  O2  UNL     1      -4.205   1.957   2.908  1.00  0.00    -0.236 OA
HETATM   33  N5  UNL     1      -5.075   0.414   1.452  1.00  0.00    -0.241 N 
HETATM   34  C23 UNL     1      -5.076  -0.289   0.221  1.00  0.00     0.241 C 
HETATM   35  O4  UNL     1      -5.154  -1.568   0.299  1.00  0.00    -0.272 OA
HETATM   36  C24 UNL     1      -4.996   0.293  -1.134  1.00  0.00     0.148 C 
BRANCH  33  37
HETATM   37  C20 UNL     1      -5.723  -0.222   2.563  1.00  0.00     0.228 C 
HETATM   38  C21 UNL     1      -5.082  -1.516   2.824  1.00  0.00     0.087 C 
HETATM   39  N6  UNL     1      -4.568  -2.551   3.058  1.00  0.00    -0.195 NA
BRANCH  37  40
HETATM   40  C22 UNL     1      -7.183  -0.460   2.238  1.00  0.00     0.205 C 
BRANCH  40  41
HETATM   41  O3  UNL     1      -7.804  -1.086   3.345  1.00  0.00    -0.398 OA
ATOM     42  H3  UNL     1      -8.720  -1.235   3.141  1.00  0.00     0.209 HD
ENDBRANCH  40  41
ENDBRANCH  37  40
ENDBRANCH  33  37
BRANCH  36  43
HETATM   43  C25 UNL     1      -6.367   0.492  -1.726  1.00  0.00     0.017 C 
HETATM   44  C26 UNL     1      -7.135   1.619  -1.133  1.00  0.00     0.006 C 
ENDBRANCH  36  43
ENDBRANCH  21  27
ENDBRANCH  12  13
ENDBRANCH  11  12
ENDBRANCH  10  11
ENDBRANCH   9  10
ENDBRANCH   8   9
ENDBRANCH   7   8
ENDBRANCH   6   7
ENDBRANCH   5   6
ENDBRANCH   4   5
ENDBRANCH   3   4
TORSDOF 16
