REMARK  9 active torsions:
REMARK  status: ('A' for Active; 'I' for Inactive)
REMARK    1  A    between atoms: C2_2  and  C4_4 
REMARK    2  A    between atoms: C4_4  and  O1_5 
REMARK    3  A    between atoms: O1_5  and  C5_6 
REMARK       I    between atoms: C5_6  and  N1_8 
REMARK    4  A    between atoms: N1_8  and  C6_10 
REMARK    5  A    between atoms: C6_10  and  C7_11 
REMARK    6  A    between atoms: C6_10  and  C18_29 
REMARK       I    between atoms: C7_11  and  N2_13 
REMARK    7  A    between atoms: C9_15  and  C10_16 
REMARK    8  A    between atoms: C11_19  and  C12_20 
REMARK       I    between atoms: C12_20  and  N3_22 
REMARK    9  A    between atoms: N3_22  and  C13_24 
ROOT
HETATM    1  C7  UNL     1       0.430   0.104  -0.162  1.00  0.00     0.244 C 
HETATM    2  O3  UNL     1       0.345  -1.140  -0.167  1.00  0.00    -0.271 OA
HETATM    3  N2  UNL     1      -0.781   0.761   0.357  1.00  0.00    -0.335 N 
HETATM    4  C8  UNL     1      -1.249   2.109   0.523  1.00  0.00     0.145 C 
HETATM    5  C9  UNL     1      -1.987   1.643   1.735  1.00  0.00     0.137 C 
HETATM    6  C11 UNL     1      -2.000   0.327   0.995  1.00  0.00     0.195 C 
ENDROOT
BRANCH   1   7
HETATM    7  C6  UNL     1       1.579   0.933  -0.594  1.00  0.00     0.186 C 
BRANCH   7   8
HETATM    8  N1  UNL     1       2.867   0.526  -0.151  1.00  0.00    -0.323 N 
HETATM    9  C5  UNL     1       3.387  -0.643   0.389  1.00  0.00     0.361 C 
HETATM   10  O2  UNL     1       2.806  -1.733   0.633  1.00  0.00    -0.238 OA
ATOM     11  H1  UNL     1       3.569   1.259  -0.253  1.00  0.00     0.165 HD
BRANCH   9  12
HETATM   12  O1  UNL     1       4.765  -0.687   0.736  1.00  0.00    -0.304 OA
BRANCH  12  13
HETATM   13  C4  UNL     1       5.338  -1.904   1.251  1.00  0.00     0.184 C 
BRANCH  13  14
HETATM   14  C2  UNL     1       6.776  -1.658   1.651  1.00  0.00     0.002 C 
HETATM   15  C1  UNL     1       7.645  -1.157   0.538  1.00  0.00     0.011 C 
HETATM   16  C3  UNL     1       6.911  -0.743   2.843  1.00  0.00     0.011 C 
ENDBRANCH  13  14
ENDBRANCH  12  13
ENDBRANCH   9  12
ENDBRANCH   7   8
BRANCH   7  17
HETATM   17  C18 UNL     1       1.581   1.265  -2.069  1.00  0.00    -0.022 C 
HETATM   18  C19 UNL     1       0.236   1.682  -2.613  1.00  0.00     0.017 C 
HETATM   19  C20 UNL     1       2.049   0.063  -2.886  1.00  0.00     0.017 C 
HETATM   20  C21 UNL     1       2.536   2.386  -2.432  1.00  0.00     0.017 C 
ENDBRANCH   7  17
ENDBRANCH   1   7
BRANCH   6  21
HETATM   21  C12 UNL     1      -3.088   0.111   0.021  1.00  0.00     0.241 C 
HETATM   22  O6  UNL     1      -3.067   0.556  -1.152  1.00  0.00    -0.271 OA
HETATM   23  N3  UNL     1      -4.267  -0.641   0.350  1.00  0.00    -0.355 N 
ATOM     24  H3  UNL     1      -4.344  -1.037   1.287  1.00  0.00     0.162 HD
BRANCH  23  25
HETATM   25  C13 UNL     1      -5.348  -0.864  -0.580  1.00  0.00     0.084 C 
HETATM   26  C14 UNL     1      -6.670  -0.406  -0.067  1.00  0.00     0.025 C 
HETATM   27  C15 UNL     1      -7.437  -1.663   0.321  1.00  0.00     0.002 C 
HETATM   28  C16 UNL     1      -6.387  -2.779   0.278  1.00  0.00     0.002 C 
HETATM   29  C17 UNL     1      -5.553  -2.329  -0.911  1.00  0.00     0.025 C 
ENDBRANCH  23  25
ENDBRANCH   6  21
BRANCH   5  30
HETATM   30  C10 UNL     1      -3.233   2.310   2.038  1.00  0.00     0.181 C 
HETATM   31  O4  UNL     1      -4.292   1.675   2.159  1.00  0.00    -0.648 OA
HETATM   32  O5  UNL     1      -3.348   3.704   2.213  1.00  0.00    -0.648 OA
ENDBRANCH   5  30
TORSDOF 9
