REMARK  9 active torsions:
REMARK  status: ('A' for Active; 'I' for Inactive)
REMARK    1  A    between atoms: C2_2  and  C3_3 
REMARK    2  A    between atoms: C3_3  and  N1_4 
REMARK    3  A    between atoms: C3_3  and  C9_12 
REMARK       I    between atoms: N1_4  and  C4_5 
REMARK    4  A    between atoms: C4_5  and  O2_7 
REMARK    5  A    between atoms: O2_7  and  C5_8 
REMARK       I    between atoms: C9_12  and  N2_14 
REMARK    6  A    between atoms: N2_14  and  C10_16 
REMARK    7  A    between atoms: C17_23  and  N3_24 
REMARK    8  A    between atoms: C21_28  and  C22_29 
REMARK    9  A    between atoms: C22_29  and  O4_30 
ROOT
HETATM    1  C10 UNL     1      -0.653   1.366  -0.567  1.00  0.00     0.092 C 
HETATM    2  C11 UNL     1      -1.484   0.863   0.560  1.00  0.00     0.011 C 
HETATM    3  C12 UNL     1      -2.224   2.110   1.084  1.00  0.00     0.012 C 
HETATM    4  C13 UNL     1      -3.196   2.536   0.035  1.00  0.00    -0.007 C 
HETATM    5  C14 UNL     1      -2.589   2.721  -1.334  1.00  0.00     0.012 C 
HETATM    6  C15 UNL     1      -1.595   1.690  -1.690  1.00  0.00     0.011 C 
HETATM    7  C16 UNL     1      -2.282   0.379  -2.109  1.00  0.00     0.048 C 
HETATM    8  C17 UNL     1      -3.120  -0.216  -1.017  1.00  0.00     0.160 C 
HETATM    9  C20 UNL     1      -4.402   0.554  -0.943  1.00  0.00     0.048 C 
HETATM   10  C21 UNL     1      -4.413   1.684   0.049  1.00  0.00     0.016 C 
HETATM   11  C23 UNL     1      -2.386  -0.275   0.309  1.00  0.00     0.048 C 
ENDROOT
BRANCH   1  12
HETATM   12  N2  UNL     1       0.458   0.592  -1.010  1.00  0.00    -0.353 N 
HETATM   13  C9  UNL     1       1.380  -0.105  -0.201  1.00  0.00     0.254 C 
HETATM   14  O3  UNL     1       1.400  -0.124   1.044  1.00  0.00    -0.270 OA
ATOM     15  H2  UNL     1       0.602   0.536  -2.018  1.00  0.00     0.163 HD
BRANCH  13  16
HETATM   16  C3  UNL     1       2.442  -0.907  -0.928  1.00  0.00     0.260 C 
BRANCH  16  17
HETATM   17  C2  UNL     1       1.879  -2.357  -0.873  1.00  0.00     0.045 C 
HETATM   18  C1  UNL     1       1.718  -2.822   0.546  1.00  0.00     0.009 C 
ENDBRANCH  16  17
BRANCH  16  19
HETATM   19  N1  UNL     1       3.674  -0.850  -0.307  1.00  0.00    -0.375 NA
HETATM   20  C4  UNL     1       4.886  -0.797   0.296  1.00  0.00     0.436 C 
HETATM   21  O1  UNL     1       5.951  -1.141  -0.338  1.00  0.00    -0.221 OA
BRANCH  20  22
HETATM   22  O2  UNL     1       5.149  -0.384   1.598  1.00  0.00    -0.283 OA
BRANCH  22  23
HETATM   23  C5  UNL     1       6.414  -0.318   2.127  1.00  0.00     0.062 C 
HETATM   24  C6  UNL     1       7.284   0.658   1.370  1.00  0.00     0.046 C 
HETATM   25  C7  UNL     1       6.308   0.275   3.555  1.00  0.00     0.046 C 
HETATM   26  C8  UNL     1       7.161  -1.616   2.271  1.00  0.00     0.046 C 
ENDBRANCH  22  23
ENDBRANCH  20  22
ENDBRANCH  16  19
ENDBRANCH  13  16
ENDBRANCH   1  12
BRANCH   8  27
HETATM   27  N3  UNL     1      -3.408  -1.608  -1.331  1.00  0.00     0.089 N 
HETATM   28  C18 UNL     1      -4.160  -1.775  -2.540  1.00  0.00     0.310 C 
HETATM   29  C19 UNL     1      -4.028  -2.304  -0.212  1.00  0.00     0.310 C 
ENDBRANCH   8  27
BRANCH  10  30
HETATM   30  C22 UNL     1      -5.647   2.531  -0.267  1.00  0.00     0.169 C 
BRANCH  30  31
HETATM   31  O4  UNL     1      -6.784   1.727  -0.254  1.00  0.00    -0.400 OA
ATOM     32  H4  UNL     1      -7.550   2.253  -0.450  1.00  0.00     0.209 HD
ENDBRANCH  30  31
ENDBRANCH  10  30
TORSDOF 9
