REMARK  6 active torsions:
REMARK  status: ('A' for Active; 'I' for Inactive)
REMARK    1  A    between atoms: C2_2  and  C3_3 
REMARK       I    between atoms: N1_5  and  C5_6 
REMARK       I    between atoms: C5_6  and  N4_11 
REMARK       I    between atoms: N4_11  and  C7_13 
REMARK    2  A    between atoms: C7_13  and  C8_15 
REMARK    3  A    between atoms: C8_15  and  N5_17 
REMARK       I    between atoms: N5_17  and  C10_19 
REMARK       I    between atoms: C10_19  and  N6_21 
REMARK    4  A    between atoms: N6_21  and  C11_23 
REMARK    5  A    between atoms: C18_30  and  C19_31 
REMARK    6  A    between atoms: C19_31  and  N7_32 
ROOT
HETATM    1  C3  UNL     1      -3.487   0.849   0.535  1.00  0.00     0.010 C 
HETATM    2  C4  UNL     1      -2.466   0.764   1.610  1.00  0.00     0.146 C 
HETATM    3  N1  UNL     1      -1.968  -0.538   1.932  1.00  0.00    -0.217 N 
HETATM    4  C5  UNL     1      -1.155  -0.705   3.084  1.00  0.00     0.692 C 
HETATM    5  N2  UNL     1      -1.745  -0.842   4.257  1.00  0.00    -0.126 N 
ATOM      6  H2  UNL     1      -1.193  -0.968   5.105  1.00  0.00     0.197 HD
HETATM    7  C6  UNL     1      -3.120  -0.811   4.313  1.00  0.00     0.196 C 
HETATM    8  N3  UNL     1      -4.290  -0.776   4.386  1.00  0.00    -0.171 NA
HETATM    9  N4  UNL     1       0.259  -0.725   3.044  1.00  0.00    -0.157 N 
ATOM     10  H4  UNL     1       0.720  -0.848   3.945  1.00  0.00     0.187 HD
HETATM   11  C7  UNL     1       1.105  -0.601   1.956  1.00  0.00     0.258 C 
HETATM   12  O1  UNL     1       0.689  -0.439   0.797  1.00  0.00    -0.270 OA
HETATM   13  C16 UNL     1      -2.296  -1.672   1.128  1.00  0.00     0.141 C 
HETATM   14  C17 UNL     1      -3.746  -1.674   0.694  1.00  0.00     0.027 C 
HETATM   15  C18 UNL     1      -4.202  -0.364   0.153  1.00  0.00     0.021 C 
ENDROOT
BRANCH  11  16
HETATM   16  C8  UNL     1       2.593  -0.665   2.129  1.00  0.00     0.175 C 
HETATM   17  C9  UNL     1       3.023  -1.889   2.882  1.00  0.00     0.042 C 
BRANCH  16  18
HETATM   18  N5  UNL     1       3.241  -0.623   0.846  1.00  0.00    -0.330 N 
HETATM   19  C10 UNL     1       4.149   0.412   0.523  1.00  0.00     0.317 C 
HETATM   20  O2  UNL     1       4.399   1.310   1.346  1.00  0.00    -0.247 OA
HETATM   21  N6  UNL     1       4.777   0.412  -0.773  1.00  0.00    -0.339 N 
ATOM     22  H6  UNL     1       4.564  -0.330  -1.439  1.00  0.00     0.164 HD
ATOM     23  H5  UNL     1       3.043  -1.350   0.159  1.00  0.00     0.165 HD
BRANCH  21  24
HETATM   24  C11 UNL     1       5.707   1.457  -1.135  1.00  0.00     0.086 C 
HETATM   25  C12 UNL     1       7.045   0.898  -1.548  1.00  0.00     0.025 C 
HETATM   26  C13 UNL     1       7.639   1.961  -2.422  1.00  0.00     0.002 C 
HETATM   27  C14 UNL     1       6.502   2.738  -2.995  1.00  0.00     0.002 C 
HETATM   28  C15 UNL     1       5.251   2.217  -2.339  1.00  0.00     0.025 C 
ENDBRANCH  21  24
ENDBRANCH  16  18
ENDBRANCH  11  16
BRANCH   1  29
HETATM   29  C2  UNL     1      -2.990   1.789  -0.521  1.00  0.00     0.002 C 
HETATM   30  C1  UNL     1      -1.702   1.477  -1.174  1.00  0.00     0.005 C 
ENDBRANCH   1  29
BRANCH  15  31
HETATM   31  C19 UNL     1      -4.456  -0.519  -1.331  1.00  0.00     0.276 C 
BRANCH  31  32
HETATM   32  N7  UNL     1      -5.164  -1.751  -1.634  1.00  0.00     0.080 N 
HETATM   33  C20 UNL     1      -5.317  -1.797  -3.096  1.00  0.00     0.309 C 
HETATM   34  C21 UNL     1      -6.445  -1.892  -1.047  1.00  0.00     0.309 C 
ENDBRANCH  31  32
ENDBRANCH  15  31
TORSDOF 6
