REMARK  7 active torsions:
REMARK  status: ('A' for Active; 'I' for Inactive)
REMARK    1  A    between atoms: C10_11  and  C11_12 
REMARK    2  A    between atoms: C11_12  and  O1_13 
REMARK    3  A    between atoms: C17_21  and  C18_22 
REMARK    4  A    between atoms: C18_22  and  C19_23 
REMARK       I    between atoms: C19_23  and  N2_25 
REMARK    5  A    between atoms: N2_25  and  C20_27 
REMARK    6  A    between atoms: C20_27  and  C21_28 
REMARK    7  A    between atoms: C21_28  and  C22_29 
ROOT
HETATM    1  C1  UNL     1       0.702  -3.062   0.268  1.00  0.00     0.012 C 
HETATM    2  C2  UNL     1      -0.117  -1.835   0.538  1.00  0.00     0.018 C 
HETATM    3  C3  UNL     1      -1.504  -2.111   0.019  1.00  0.00     0.278 C 
HETATM    4  N1  UNL     1      -2.396  -1.914   1.147  1.00  0.00     0.099 N 
HETATM    5  C4  UNL     1      -3.520  -2.816   0.951  1.00  0.00     0.277 C 
HETATM    6  C5  UNL     1      -4.068  -2.231  -0.351  1.00  0.00     0.066 C 
HETATM    7  C6  UNL     1      -3.872  -0.748  -0.114  1.00  0.00    -0.048 C 
HETATM    8  C7  UNL     1      -4.397   0.096  -0.957  1.00  0.00    -0.022 C 
HETATM    9  C8  UNL     1      -4.449   1.563  -1.099  1.00  0.00     0.028 C 
HETATM   10  C9  UNL     1      -3.209   2.299  -0.760  1.00  0.00     0.011 C 
HETATM   11  C10 UNL     1      -1.917   1.498  -0.913  1.00  0.00     0.015 C 
HETATM   12  C12 UNL     1      -1.386   1.161   0.429  1.00  0.00     0.013 C 
HETATM   13  C13 UNL     1      -0.009   0.667   0.563  1.00  0.00     0.009 C 
HETATM   14  C14 UNL     1       0.325   0.716   2.044  1.00  0.00     0.080 C 
HETATM   15  S1  UNL     1      -1.290   0.354   2.849  1.00  0.00    -0.161 SA
HETATM   16  C15 UNL     1      -2.337   0.548   1.376  1.00  0.00     0.089 C 
HETATM   17  C16 UNL     1      -3.075  -0.658   1.111  1.00  0.00     0.265 C 
HETATM   18  C17 UNL     1       0.454  -0.567  -0.106  1.00  0.00     0.024 C 
ENDROOT
BRANCH  18  19
HETATM   19  C18 UNL     1       1.924  -0.781  -0.072  1.00  0.00     0.052 C 
BRANCH  19  20
HETATM   20  C19 UNL     1       2.861   0.180  -0.596  1.00  0.00     0.237 C 
HETATM   21  O2  UNL     1       2.535   1.212  -1.216  1.00  0.00    -0.269 OA
HETATM   22  N2  UNL     1       4.285   0.005  -0.432  1.00  0.00    -0.357 N 
ATOM     23  H2  UNL     1       4.641  -0.812   0.064  1.00  0.00     0.162 HD
BRANCH  22  24
HETATM   24  C20 UNL     1       5.192   0.961  -0.955  1.00  0.00     0.133 C 
BRANCH  24  25
HETATM   25  C21 UNL     1       6.629   0.625  -0.696  1.00  0.00     0.133 C 
BRANCH  25  26
HETATM   26  C22 UNL     1       6.922   0.531   0.763  1.00  0.00     0.174 C 
HETATM   27  O3  UNL     1       6.051   0.715   1.652  1.00  0.00    -0.648 OA
HETATM   28  O4  UNL     1       8.217   0.225   1.157  1.00  0.00    -0.648 OA
ENDBRANCH  25  26
ENDBRANCH  24  25
ENDBRANCH  22  24
ENDBRANCH  19  20
ENDBRANCH  18  19
BRANCH  11  29
HETATM   29  C11 UNL     1      -0.974   2.530  -1.551  1.00  0.00     0.169 C 
BRANCH  29  30
HETATM   30  O1  UNL     1      -1.552   2.930  -2.762  1.00  0.00    -0.400 OA
ATOM     31  H1  UNL     1      -0.969   3.568  -3.156  1.00  0.00     0.209 HD
ENDBRANCH  29  30
ENDBRANCH  11  29
TORSDOF 7
