REMARK  14 active torsions:
REMARK  status: ('A' for Active; 'I' for Inactive)
REMARK    1  A    between atoms: C2_2  and  C3_3 
REMARK    2  A    between atoms: C3_3  and  C4_4 
REMARK    3  A    between atoms: C4_4  and  C5_5 
REMARK    4  A    between atoms: C5_5  and  N1_6 
REMARK    5  A    between atoms: C5_5  and  C23_31 
REMARK       I    between atoms: N1_6  and  C6_8 
REMARK    6  A    between atoms: C6_8  and  C7_10 
REMARK    7  A    between atoms: C7_10  and  N2_11 
REMARK       I    between atoms: N2_11  and  C8_13 
REMARK    8  A    between atoms: C8_13  and  C9_15 
REMARK    9  A    between atoms: C13_19  and  N3_20 
REMARK   10  A    between atoms: C23_31  and  C24_33 
REMARK       I    between atoms: C24_33  and  N4_35 
REMARK   11  A    between atoms: N4_35  and  C25_37 
REMARK   12  A    between atoms: C29_42  and  O6_43 
REMARK   13  A    between atoms: O6_43  and  C30_44 
REMARK   14  A    between atoms: C30_44  and  C31_46 
ROOT
HETATM    1  N1  UNL     1       0.335  -1.973   0.971  1.00  0.00    -0.347 N 
ATOM      2  H1  UNL     1       0.257  -2.979   0.822  1.00  0.00     0.163 HD
HETATM    3  C6  UNL     1      -0.890  -1.318   1.035  1.00  0.00     0.247 C 
HETATM    4  O1  UNL     1      -0.919  -0.076   1.196  1.00  0.00    -0.271 OA
ENDROOT
BRANCH   1   5
HETATM    5  C5  UNL     1       1.665  -1.512   1.073  1.00  0.00     0.164 C 
BRANCH   5   6
HETATM    6  C4  UNL     1       1.840  -0.216   1.842  1.00  0.00     0.033 C 
BRANCH   6   7
HETATM    7  C3  UNL     1       1.419  -0.242   3.258  1.00  0.00     0.002 C 
BRANCH   7   8
HETATM    8  C2  UNL     1       1.614   1.127   3.863  1.00  0.00    -0.004 C 
HETATM    9  C1  UNL     1       3.023   1.620   3.843  1.00  0.00     0.005 C 
ENDBRANCH   7   8
ENDBRANCH   6   7
ENDBRANCH   5   6
BRANCH   5  10
HETATM   10  C23 UNL     1       2.340  -1.351  -0.214  1.00  0.00     0.238 C 
HETATM   11  O3  UNL     1       1.635  -0.934  -1.200  1.00  0.00    -0.285 OA
BRANCH  10  12
HETATM   12  C24 UNL     1       3.737  -1.615  -0.506  1.00  0.00     0.290 C 
HETATM   13  O4  UNL     1       4.457  -2.083   0.409  1.00  0.00    -0.264 OA
HETATM   14  N4  UNL     1       4.326  -1.374  -1.759  1.00  0.00    -0.345 N 
ATOM     15  H4  UNL     1       3.720  -0.979  -2.478  1.00  0.00     0.163 HD
BRANCH  14  16
HETATM   16  C25 UNL     1       5.684  -1.623  -2.135  1.00  0.00     0.145 C 
HETATM   17  C26 UNL     1       5.639  -2.173  -3.557  1.00  0.00     0.142 C 
HETATM   18  C27 UNL     1       7.000  -2.567  -4.067  1.00  0.00     0.042 C 
HETATM   19  O5  UNL     1       5.139  -1.059  -4.251  1.00  0.00    -0.382 OA
HETATM   20  C28 UNL     1       5.730   0.079  -3.730  1.00  0.00     0.203 C 
HETATM   21  C29 UNL     1       6.413  -0.290  -2.458  1.00  0.00     0.180 C 
BRANCH  21  22
HETATM   22  O6  UNL     1       6.136   0.665  -1.464  1.00  0.00    -0.311 OA
BRANCH  22  23
HETATM   23  C30 UNL     1       7.192   1.190  -0.735  1.00  0.00     0.267 C 
HETATM   24  O7  UNL     1       8.356   0.768  -1.026  1.00  0.00    -0.264 OA
BRANCH  23  25
HETATM   25  C31 UNL     1       7.089   2.183   0.337  1.00  0.00     0.037 C 
HETATM   26  C32 UNL     1       6.171   1.649   1.449  1.00  0.00     0.025 C 
HETATM   27  C33 UNL     1       8.442   2.373   1.033  1.00  0.00     0.025 C 
HETATM   28  C34 UNL     1       6.528   3.516  -0.093  1.00  0.00     0.025 C 
ENDBRANCH  23  25
ENDBRANCH  22  23
ENDBRANCH  21  22
ENDBRANCH  14  16
ENDBRANCH  10  12
ENDBRANCH   5  10
ENDBRANCH   1   5
BRANCH   3  29
HETATM   29  C7  UNL     1      -2.227  -1.994   0.922  1.00  0.00     0.122 C 
HETATM   30  C18 UNL     1      -2.464  -2.658   2.249  1.00  0.00     0.042 C 
HETATM   31  C19 UNL     1      -2.016  -4.044   2.425  1.00  0.00     0.004 C 
HETATM   32  C20 UNL     1      -3.273  -4.911   2.613  1.00  0.00     0.010 C 
HETATM   33  C21 UNL     1      -4.065  -4.737   1.307  1.00  0.00     0.074 C 
HETATM   34  S1  UNL     1      -2.855  -4.554  -0.004  1.00  0.00    -0.166 SA
HETATM   35  C22 UNL     1      -2.340  -2.872  -0.277  1.00  0.00     0.115 C 
BRANCH  29  36
HETATM   36  N2  UNL     1      -3.270  -0.984   0.811  1.00  0.00    -0.342 N 
HETATM   37  C8  UNL     1      -3.359  -0.061  -0.251  1.00  0.00     0.222 C 
HETATM   38  O2  UNL     1      -2.492  -0.105  -1.155  1.00  0.00    -0.273 OA
ATOM     39  H2  UNL     1      -3.978  -0.942   1.544  1.00  0.00     0.163 HD
BRANCH  37  40
HETATM   40  C9  UNL     1      -4.418   0.971  -0.377  1.00  0.00     0.078 C 
HETATM   41  C10 UNL     1      -4.289   1.732  -1.684  1.00  0.00     0.014 C 
HETATM   42  C11 UNL     1      -5.298   1.243  -2.701  1.00  0.00     0.003 C 
HETATM   43  C12 UNL     1      -6.711   1.599  -2.387  1.00  0.00     0.036 C 
HETATM   44  C13 UNL     1      -6.921   2.359  -1.122  1.00  0.00     0.222 C 
HETATM   45  C16 UNL     1      -6.820   1.436   0.053  1.00  0.00     0.036 C 
HETATM   46  C17 UNL     1      -5.801   0.364  -0.250  1.00  0.00     0.016 C 
BRANCH  44  47
HETATM   47  N3  UNL     1      -8.209   3.023  -1.212  1.00  0.00     0.084 N 
HETATM   48  C14 UNL     1      -8.516   3.798  -0.050  1.00  0.00     0.309 C 
HETATM   49  C15 UNL     1      -9.269   2.127  -1.590  1.00  0.00     0.309 C 
ENDBRANCH  44  47
ENDBRANCH  37  40
ENDBRANCH  29  36
ENDBRANCH   3  29
TORSDOF 14
