REMARK  15 active torsions:
REMARK  status: ('A' for Active; 'I' for Inactive)
REMARK    1  A    between atoms: C2_2  and  C3_4 
REMARK    2  A    between atoms: C8_11  and  C9_12 
REMARK    3  A    between atoms: C9_12  and  O2_13 
REMARK    4  A    between atoms: C9_12  and  N2_15 
REMARK    5  A    between atoms: N2_15  and  C10_16 
REMARK    6  A    between atoms: C10_16  and  C11_17 
REMARK    7  A    between atoms: C10_16  and  C32_47 
REMARK       I    between atoms: C11_17  and  N3_19 
REMARK    8  A    between atoms: N3_19  and  C12_21 
REMARK    9  A    between atoms: C12_21  and  C13_22 
REMARK   10  A    between atoms: C12_21  and  C19_29 
REMARK   11  A    between atoms: C13_22  and  C14_23 
REMARK       I    between atoms: C19_29  and  N4_31 
REMARK   12  A    between atoms: N4_31  and  C20_33 
REMARK   13  A    between atoms: C20_33  and  C21_34 
REMARK   14  A    between atoms: C20_33  and  C28_41 
REMARK   15  A    between atoms: C21_34  and  C22_35 
ROOT
HETATM    1  C11 UNL     1       1.235  -1.223  -0.540  1.00  0.00     0.279 C 
HETATM    2  O3  UNL     1       0.934  -0.184  -1.204  1.00  0.00    -0.265 OA
HETATM    3  N3  UNL     1       0.126  -2.029  -0.175  1.00  0.00    -0.342 N 
ATOM      4  H3  UNL     1       0.255  -2.875   0.380  1.00  0.00     0.163 HD
ENDROOT
BRANCH   3   5
HETATM    5  C12 UNL     1      -1.217  -1.615  -0.617  1.00  0.00     0.177 C 
BRANCH   5   6
HETATM    6  C13 UNL     1      -2.230  -2.652  -0.394  1.00  0.00     0.039 C 
BRANCH   6   7
HETATM    7  C14 UNL     1      -1.940  -3.961  -1.077  1.00  0.00    -0.008 C 
HETATM    8  C15 UNL     1      -1.852  -3.922  -2.560  1.00  0.00     0.031 C 
HETATM    9  C16 UNL     1      -1.875  -5.304  -3.165  1.00  0.00     0.168 C 
HETATM   10  O4  UNL     1      -2.721  -6.184  -2.544  1.00  0.00    -0.391 OA
HETATM   11  C17 UNL     1      -2.355  -6.331  -1.213  1.00  0.00     0.168 C 
HETATM   12  C18 UNL     1      -2.827  -5.042  -0.524  1.00  0.00     0.031 C 
ENDBRANCH   6   7
ENDBRANCH   5   6
BRANCH   5  13
HETATM   13  C19 UNL     1      -1.599  -0.419   0.314  1.00  0.00     0.244 C 
HETATM   14  O5  UNL     1      -0.935  -0.474   1.359  1.00  0.00    -0.271 OA
HETATM   15  N4  UNL     1      -2.552   0.478  -0.134  1.00  0.00    -0.330 N 
ATOM     16  H4  UNL     1      -2.939   0.227  -1.044  1.00  0.00     0.168 HD
BRANCH  15  17
HETATM   17  C20 UNL     1      -3.111   1.676   0.397  1.00  0.00     0.019 C 
BRANCH  17  18
HETATM   18  C21 UNL     1      -4.066   2.350  -0.523  1.00  0.00     0.060 C 
BRANCH  18  19
HETATM   19  C22 UNL     1      -5.244   1.546  -0.967  1.00  0.00    -0.009 C 
HETATM   20  C23 UNL     1      -6.091   2.389  -1.893  1.00  0.00     0.005 C 
HETATM   21  C24 UNL     1      -7.006   3.307  -1.164  1.00  0.00     0.000 C 
HETATM   22  C25 UNL     1      -7.985   2.461  -0.369  1.00  0.00     0.000 C 
HETATM   23  C26 UNL     1      -7.191   1.717   0.665  1.00  0.00     0.000 C 
HETATM   24  C27 UNL     1      -6.085   0.907   0.067  1.00  0.00     0.005 C 
ENDBRANCH  18  19
ENDBRANCH  17  18
BRANCH  17  25
HETATM   25  C28 UNL     1      -3.330   1.704   1.845  1.00  0.00     0.172 C 
HETATM   26  C29 UNL     1      -2.107   2.228   2.654  1.00  0.00     0.075 C 
HETATM   27  C30 UNL     1      -2.811   2.539   3.998  1.00  0.00     0.182 A 
HETATM   28  O6  UNL     1      -3.334   3.795   4.180  1.00  0.00    -0.348 OA
HETATM   29  C31 UNL     1      -4.178   2.842   3.525  1.00  0.00     0.290 A 
HETATM   30  O7  UNL     1      -4.117   2.912   2.144  1.00  0.00    -0.348 OA
ENDBRANCH  17  25
ENDBRANCH  15  17
ENDBRANCH   5  13
ENDBRANCH   3   5
BRANCH   1  31
HETATM   31  C10 UNL     1       2.652  -1.466  -0.218  1.00  0.00     0.162 C 
BRANCH  31  32
HETATM   32  N2  UNL     1       3.350  -0.438   0.394  1.00  0.00    -0.378 NA
BRANCH  32  33
HETATM   33  C9  UNL     1       4.041   0.579   1.001  1.00  0.00     0.227 C 
BRANCH  33  34
HETATM   34  C8  UNL     1       4.778   1.688   0.354  1.00  0.00     0.058 A 
HETATM   35  C6  UNL     1       4.116   2.716  -0.231  1.00  0.00     0.021 A 
HETATM   36  N1  UNL     1       4.844   3.715  -0.798  1.00  0.00    -0.362 N 
HETATM   37  C7  UNL     1       2.605   2.855  -0.250  1.00  0.00     0.069 C 
HETATM   38  C4  UNL     1       6.184   3.777  -0.827  1.00  0.00     0.020 A 
ATOM     39  H1  UNL     1       4.330   4.479  -1.237  1.00  0.00     0.165 HD
HETATM   40  C3  UNL     1       6.841   2.713  -0.220  1.00  0.00     0.038 A 
HETATM   41  C5  UNL     1       6.907   4.899  -1.426  1.00  0.00     0.069 C 
HETATM   42  C36 UNL     1       6.173   1.673   0.368  1.00  0.00    -0.029 A 
HETATM   43  C37 UNL     1       6.902   0.554   1.010  1.00  0.00     0.050 C 
BRANCH  40  44
HETATM   44  C2  UNL     1       8.302   2.727  -0.212  1.00  0.00     0.158 C 
HETATM   45  C1  UNL     1       9.053   3.361   0.915  1.00  0.00     0.097 C 
HETATM   46  O1  UNL     1       8.969   2.215  -1.142  1.00  0.00    -0.293 OA
ENDBRANCH  40  44
ENDBRANCH  33  34
BRANCH  33  47
HETATM   47  O2  UNL     1       4.162   0.722   2.299  1.00  0.00    -0.335 OA
ATOM     48  H2  UNL     1       3.689   0.010   2.714  1.00  0.00     0.220 HD
ENDBRANCH  33  47
ENDBRANCH  32  33
ENDBRANCH  31  32
BRANCH  31  49
HETATM   49  C32 UNL     1       2.976  -2.882   0.229  1.00  0.00     0.010 C 
HETATM   50  C33 UNL     1       2.288  -3.952  -0.523  1.00  0.00     0.022 C 
HETATM   51  C34 UNL     1       4.496  -3.102   0.078  1.00  0.00     0.022 C 
HETATM   52  C35 UNL     1       2.664  -3.067   1.703  1.00  0.00     0.022 C 
ENDBRANCH  31  49
ENDBRANCH   1  31
TORSDOF 15
