REMARK  17 active torsions:
REMARK  status: ('A' for Active; 'I' for Inactive)
REMARK    1  A    between atoms: C2_2  and  C3_3 
REMARK    2  A    between atoms: C3_3  and  O1_5 
REMARK    3  A    between atoms: O1_5  and  C5_6 
REMARK    4  A    between atoms: C8_9  and  C9_10 
REMARK    5  A    between atoms: C9_10  and  N1_11 
REMARK    6  A    between atoms: C9_10  and  C24_39 
REMARK    7  A    between atoms: N1_11  and  C10_13 
REMARK    8  A    between atoms: C10_13  and  O2_14 
REMARK    9  A    between atoms: C10_13  and  C11_16 
REMARK   10  A    between atoms: C11_16  and  N2_17 
REMARK   11  A    between atoms: C11_16  and  C20_35 
REMARK       I    between atoms: N2_17  and  C12_19 
REMARK   12  A    between atoms: C12_19  and  C13_21 
REMARK   13  A    between atoms: C15_25  and  C16_26 
REMARK   14  A    between atoms: C16_26  and  C17_27 
REMARK   15  A    between atoms: C17_27  and  N4_30 
REMARK   16  A    between atoms: C24_39  and  O4_40 
REMARK   17  A    between atoms: C24_39  and  C25_42 
REMARK       I    between atoms: C25_42  and  N5_44 
REMARK       I    between atoms: N6_47  and  C28_48 
ROOT
HETATM    1  N1  UNL     1      -0.649   0.776   0.683  1.00  0.00    -0.362 N 
ATOM      2  H1  UNL     1      -0.985   1.103   1.589  1.00  0.00     0.162 HD
ENDROOT
BRANCH   1   3
HETATM    3  C9  UNL     1      -1.647   0.498  -0.427  1.00  0.00     0.150 C 
BRANCH   3   4
HETATM    4  C8  UNL     1      -2.452  -0.639  -0.033  1.00  0.00     0.015 C 
HETATM    5  C7  UNL     1      -3.390  -1.143  -1.098  1.00  0.00     0.009 C 
HETATM    6  C6  UNL     1      -4.399  -2.117  -0.497  1.00  0.00     0.032 C 
HETATM    7  C5  UNL     1      -3.644  -3.284   0.121  1.00  0.00     0.122 C 
HETATM    8  C33 UNL     1      -2.660  -2.757   1.134  1.00  0.00     0.032 C 
HETATM    9  C32 UNL     1      -1.653  -1.883   0.397  1.00  0.00     0.009 C 
BRANCH   7  10
HETATM   10  O1  UNL     1      -4.567  -4.138   0.691  1.00  0.00    -0.381 OA
BRANCH  10  11
HETATM   11  C3  UNL     1      -4.447  -5.379   0.059  1.00  0.00     0.117 C 
HETATM   12  C4  UNL     1      -4.290  -6.498   1.055  1.00  0.00     0.039 C 
BRANCH  11  13
HETATM   13  C2  UNL     1      -5.748  -5.630  -0.705  1.00  0.00     0.027 C 
HETATM   14  C1  UNL     1      -6.910  -5.641   0.240  1.00  0.00     0.007 C 
ENDBRANCH  11  13
ENDBRANCH  10  11
ENDBRANCH   7  10
ENDBRANCH   3   4
BRANCH   3  15
HETATM   15  C24 UNL     1      -2.254   1.844  -0.567  1.00  0.00     0.134 C 
BRANCH  15  16
HETATM   16  O4  UNL     1      -1.305   2.755  -0.670  1.00  0.00    -0.358 OA
ATOM     17  H4  UNL     1      -1.694   3.617  -0.760  1.00  0.00     0.217 HD
ENDBRANCH  15  16
BRANCH  15  18
HETATM   18  C25 UNL     1      -3.565   2.321  -0.602  1.00  0.00     0.274 C 
HETATM   19  O5  UNL     1      -4.598   1.582  -0.429  1.00  0.00    -0.266 OA
HETATM   20  N5  UNL     1      -3.904   3.691  -0.833  1.00  0.00    -0.344 N 
HETATM   21  C26 UNL     1      -2.936   4.718  -1.033  1.00  0.00     0.146 C 
HETATM   22  C31 UNL     1      -5.327   4.087  -0.870  1.00  0.00     0.146 C 
HETATM   23  C27 UNL     1      -3.538   6.114  -1.202  1.00  0.00     0.145 C 
HETATM   24  N6  UNL     1      -4.671   6.080  -2.082  1.00  0.00    -0.349 N 
HETATM   25  C28 UNL     1      -4.950   7.166  -2.936  1.00  0.00     0.215 C 
HETATM   26  C30 UNL     1      -5.564   4.921  -2.117  1.00  0.00     0.145 C 
HETATM   27  C29 UNL     1      -4.042   8.356  -2.911  1.00  0.00     0.117 C 
HETATM   28  O6  UNL     1      -5.951   7.139  -3.710  1.00  0.00    -0.274 OA
ENDBRANCH  15  18
ENDBRANCH   3  15
ENDBRANCH   1   3
BRANCH   1  29
HETATM   29  C10 UNL     1       0.708   0.593   0.487  1.00  0.00     0.136 C 
BRANCH  29  30
HETATM   30  O2  UNL     1       1.035   0.138  -0.706  1.00  0.00    -0.348 OA
ATOM     31  H2  UNL     1       1.967   0.012  -0.841  1.00  0.00     0.219 HD
ENDBRANCH  29  30
BRANCH  29  32
HETATM   32  C11 UNL     1       1.862   0.810   1.347  1.00  0.00     0.166 C 
BRANCH  32  33
HETATM   33  N2  UNL     1       2.991   0.039   0.856  1.00  0.00    -0.344 N 
HETATM   34  C12 UNL     1       4.092   0.606   0.185  1.00  0.00     0.260 C 
HETATM   35  O3  UNL     1       4.124   1.836  -0.022  1.00  0.00    -0.267 OA
ATOM     36  H2  UNL     1       2.986  -0.970   1.006  1.00  0.00     0.163 HD
BRANCH  34  37
HETATM   37  C13 UNL     1       5.226  -0.199  -0.290  1.00  0.00     0.089 A 
HETATM   38  C14 UNL     1       5.426  -1.550  -0.164  1.00  0.00     0.113 A 
HETATM   39  N3  UNL     1       6.516  -2.054  -0.651  1.00  0.00    -0.362 N 
HETATM   40  C15 UNL     1       7.391  -1.251  -1.248  1.00  0.00     0.053 A 
ATOM     41  H3  UNL     1       6.700  -3.055  -0.577  1.00  0.00     0.165 HD
HETATM   42  S1  UNL     1       6.645   0.272  -1.118  1.00  0.00    -0.070 SA
BRANCH  40  43
HETATM   43  C16 UNL     1       8.691  -1.705  -1.835  1.00  0.00     0.102 C 
BRANCH  43  44
HETATM   44  C17 UNL     1       9.810  -1.604  -0.831  1.00  0.00     0.122 C 
HETATM   45  C18 UNL     1      11.124  -2.070  -1.415  1.00  0.00     0.046 C 
HETATM   46  C19 UNL     1       9.964  -0.104  -0.537  1.00  0.00     0.046 C 
BRANCH  44  47
HETATM   47  N4  UNL     1       9.566  -2.277   0.391  1.00  0.00    -0.071 N 
ATOM     48  H43 UNL     1       8.689  -1.958   0.803  1.00  0.00     0.275 HD
ATOM     49  H42 UNL     1       9.332  -3.255   0.217  1.00  0.00     0.275 HD
ATOM     50  H41 UNL     1      10.323  -2.209   1.071  1.00  0.00     0.275 HD
ENDBRANCH  44  47
ENDBRANCH  43  44
ENDBRANCH  40  43
ENDBRANCH  34  37
ENDBRANCH  32  33
BRANCH  32  51
HETATM   51  C20 UNL     1       1.611   0.676   2.795  1.00  0.00    -0.023 C 
HETATM   52  C21 UNL     1       0.624   1.648   3.382  1.00  0.00     0.017 C 
HETATM   53  C22 UNL     1       2.962   0.980   3.492  1.00  0.00     0.017 C 
HETATM   54  C23 UNL     1       1.146  -0.705   3.221  1.00  0.00     0.017 C 
ENDBRANCH  32  51
ENDBRANCH  29  32
ENDBRANCH   1  29
TORSDOF 17
