REMARK  8 active torsions:
REMARK  status: ('A' for Active; 'I' for Inactive)
REMARK    1  A    between atoms: C3_3  and  N1_4 
REMARK       I    between atoms: N1_4  and  C4_6 
REMARK    2  A    between atoms: C4_6  and  C5_8 
REMARK    3  A    between atoms: C8_11  and  C9_12 
REMARK    4  A    between atoms: C9_12  and  O2_13 
REMARK    5  A    between atoms: N2_15  and  O3_17 
REMARK    6  A    between atoms: N3_20  and  S1_21 
REMARK    7  A    between atoms: S1_21  and  C11_24 
REMARK    8  A    between atoms: C11_24  and  C12_25 
ROOT
HETATM    1  C1  UNL     1       2.202   0.248  -3.269  1.00  0.00     0.015 C 
HETATM    2  C2  UNL     1       2.248   0.254  -2.054  1.00  0.00    -0.081 C 
HETATM    3  C3  UNL     1       2.276   0.245  -0.554  1.00  0.00     0.114 C 
HETATM    4  C14 UNL     1       2.922  -1.011  -0.130  1.00  0.00     0.049 C 
HETATM    5  C15 UNL     1       3.996  -0.978   0.881  1.00  0.00     0.004 C 
HETATM    6  C16 UNL     1       5.193  -0.150   0.623  1.00  0.00     0.000 C 
HETATM    7  C17 UNL     1       5.523   0.143  -0.787  1.00  0.00     0.004 C 
HETATM    8  C18 UNL     1       5.056   1.448  -1.314  1.00  0.00     0.027 C 
HETATM    9  C19 UNL     1       3.976   2.159  -0.630  1.00  0.00    -0.027 C 
HETATM   10  C20 UNL     1       2.834   1.501  -0.021  1.00  0.00     0.013 C 
ENDROOT
BRANCH   3  11
HETATM   11  N1  UNL     1       0.859   0.210  -0.198  1.00  0.00    -0.336 N 
HETATM   12  C4  UNL     1       0.326   0.203   1.093  1.00  0.00     0.243 C 
HETATM   13  O1  UNL     1       1.029   0.228   2.127  1.00  0.00    -0.271 OA
ATOM     14  H1  UNL     1       0.192   0.189  -0.970  1.00  0.00     0.164 HD
BRANCH  12  15
HETATM   15  C5  UNL     1      -1.159   0.163   1.347  1.00  0.00     0.192 C 
HETATM   16  C6  UNL     1      -1.478  -0.949   2.315  1.00  0.00     0.037 C 
HETATM   17  C7  UNL     1      -1.556  -2.292   1.620  1.00  0.00     0.020 C 
HETATM   18  C8  UNL     1      -2.652  -2.179   0.585  1.00  0.00     0.101 C 
HETATM   19  C10 UNL     1      -2.307  -1.106  -0.379  1.00  0.00     0.090 C 
HETATM   20  N3  UNL     1      -1.872   0.126   0.132  1.00  0.00    -0.276 N 
BRANCH  18  21
HETATM   21  C9  UNL     1      -2.800  -3.472  -0.126  1.00  0.00     0.144 C 
HETATM   22  N2  UNL     1      -2.629  -3.518  -1.399  1.00  0.00    -0.251 N 
ATOM     23  H2  UNL     1      -2.394  -2.662  -1.901  1.00  0.00     0.196 HD
BRANCH  21  24
HETATM   24  O2  UNL     1      -3.120  -4.620   0.578  1.00  0.00    -0.348 OA
ATOM     25  H2  UNL     1      -3.215  -5.448   0.123  1.00  0.00     0.219 HD
ENDBRANCH  21  24
BRANCH  22  26
HETATM   26  O3  UNL     1      -2.755  -4.690  -2.098  1.00  0.00    -0.288 OA
ATOM     27  H3  UNL     1      -2.629  -4.724  -3.039  1.00  0.00     0.244 HD
ENDBRANCH  22  26
ENDBRANCH  18  21
BRANCH  20  28
HETATM   28  S1  UNL     1      -2.789   1.492  -0.261  1.00  0.00     0.232 S 
HETATM   29  O4  UNL     1      -3.330   1.346  -1.636  1.00  0.00    -0.205 OA
HETATM   30  O5  UNL     1      -1.873   2.696  -0.266  1.00  0.00    -0.205 OA
BRANCH  28  31
HETATM   31  C11 UNL     1      -4.072   1.832   0.919  1.00  0.00     0.163 C 
BRANCH  31  32
HETATM   32  C12 UNL     1      -4.825   3.074   0.461  1.00  0.00     0.012 C 
HETATM   33  C13 UNL     1      -5.454   2.908  -0.885  1.00  0.00     0.006 C 
ENDBRANCH  31  32
ENDBRANCH  28  31
ENDBRANCH  20  28
ENDBRANCH  12  15
ENDBRANCH   3  11
TORSDOF 8
