REMARK  4 active torsions:
REMARK  status: ('A' for Active; 'I' for Inactive)
REMARK    1  A    between atoms: C4_7  and  C5_8 
REMARK    2  A    between atoms: C5_8  and  N2_9 
REMARK    3  A    between atoms: N2_9  and  C6_12 
REMARK    4  A    between atoms: C6_12  and  C7_13 
ROOT
HETATM    1  N2  UNL     1      -0.194   0.835   0.163  1.00  0.00    -0.074 N 
ATOM      2  H21 UNL     1      -0.619   1.715   0.456  1.00  0.00     0.277 HD
ATOM      3  H22 UNL     1       0.121   1.102  -0.770  1.00  0.00     0.277 HD
ENDROOT
BRANCH   1   4
HETATM    4  C5  UNL     1      -1.169  -0.198   0.090  1.00  0.00     0.246 C 
BRANCH   4   5
HETATM    5  C4  UNL     1      -2.257   0.165  -0.872  1.00  0.00     0.105 C 
HETATM    6  C1  UNL     1      -3.019   1.370  -0.561  1.00  0.00     0.223 C 
HETATM    7  O1  UNL     1      -2.614   2.543  -0.440  1.00  0.00    -0.273 OA
HETATM    8  N1  UNL     1      -4.373   0.988  -0.410  1.00  0.00    -0.361 N 
HETATM    9  C2  UNL     1      -4.393  -0.413  -0.098  1.00  0.00     0.123 C 
ATOM     10  H1  UNL     1      -5.186   1.597  -0.505  1.00  0.00     0.162 HD
HETATM   11  C3  UNL     1      -3.286  -0.958  -0.985  1.00  0.00     0.035 C 
ENDBRANCH   4   5
ENDBRANCH   1   4
BRANCH   1  12
HETATM   12  C6  UNL     1       0.936   0.500   1.013  1.00  0.00     0.240 C 
BRANCH  12  13
HETATM   13  C7  UNL     1       1.806  -0.585   0.462  1.00  0.00     0.047 C 
HETATM   14  C8  UNL     1       2.948  -0.875   1.374  1.00  0.00     0.130 C 
HETATM   15  N3  UNL     1       4.249  -0.541   0.837  1.00  0.00    -0.367 N 
HETATM   16  C9  UNL     1       4.443   0.471  -0.154  1.00  0.00     0.167 C 
ATOM     17  H3  UNL     1       5.064  -1.050   1.180  1.00  0.00     0.161 HD
HETATM   18  S1  UNL     1       5.862   1.209  -0.391  1.00  0.00    -0.041 SA
HETATM   19  N4  UNL     1       3.264   0.780  -0.929  1.00  0.00    -0.367 N 
HETATM   20  C10 UNL     1       2.273  -0.267  -0.945  1.00  0.00     0.130 C 
ATOM     21  H4  UNL     1       3.143   1.664  -1.423  1.00  0.00     0.161 HD
ENDBRANCH  12  13
ENDBRANCH   1  12
TORSDOF 4
