REMARK  5 active torsions:
REMARK  status: ('A' for Active; 'I' for Inactive)
REMARK       I    between atoms: C1_4  and  N2_5 
REMARK       I    between atoms: C1_4  and  N4_14 
REMARK    1  A    between atoms: N2_5  and  C2_7 
REMARK    2  A    between atoms: C2_7  and  C3_8 
REMARK    3  A    between atoms: C3_8  and  C4_9 
REMARK    4  A    between atoms: C4_9  and  N3_10 
REMARK    5  A    between atoms: N4_14  and  C5_16 
ROOT
HETATM    1  N1  UNL     1       0.036  -2.232   0.653  1.00  0.00    -0.235 N 
ATOM      2  H11 UNL     1      -0.834  -2.730   0.840  1.00  0.00     0.174 HD
ATOM      3  H12 UNL     1       0.838  -2.786   0.353  1.00  0.00     0.174 HD
HETATM    4  C1  UNL     1       0.164  -0.965   0.776  1.00  0.00     0.667 C 
HETATM    5  N2  UNL     1       1.377  -0.270   0.515  1.00  0.00    -0.227 N 
ATOM      6  H2  UNL     1       1.326   0.605  -0.007  1.00  0.00     0.177 HD
HETATM    7  N4  UNL     1      -0.956  -0.191   1.195  1.00  0.00    -0.221 N 
ATOM      8  H4  UNL     1      -1.143  -0.101   2.194  1.00  0.00     0.178 HD
ENDROOT
BRANCH   5   9
HETATM    9  C2  UNL     1       2.664  -0.726   0.941  1.00  0.00     0.139 C 
BRANCH   9  10
HETATM   10  C3  UNL     1       3.719   0.255   0.491  1.00  0.00     0.047 C 
BRANCH  10  11
HETATM   11  C4  UNL     1       3.728   0.391  -1.025  1.00  0.00     0.231 C 
BRANCH  11  12
HETATM   12  N3  UNL     1       4.006  -0.886  -1.651  1.00  0.00    -0.079 N 
ATOM     13  H33 UNL     1       4.872  -1.297  -1.303  1.00  0.00     0.274 HD
ATOM     14  H32 UNL     1       3.357  -1.609  -1.340  1.00  0.00     0.274 HD
ATOM     15  H31 UNL     1       4.012  -0.795  -2.667  1.00  0.00     0.274 HD
ENDBRANCH  11  12
ENDBRANCH  10  11
ENDBRANCH   9  10
ENDBRANCH   5   9
BRANCH   7  16
HETATM   16  C5  UNL     1      -1.840   0.473   0.260  1.00  0.00     0.114 C 
HETATM   17  C6  UNL     1      -2.893   1.186   0.982  1.00  0.00     0.041 C 
HETATM   18  C7  UNL     1      -4.062   1.459   0.093  1.00  0.00     0.142 C 
HETATM   19  S1  UNL     1      -3.923   0.231  -1.202  1.00  0.00     0.146 S 
HETATM   20  O1  UNL     1      -5.079  -0.694  -1.227  1.00  0.00    -0.228 OA
HETATM   21  O2  UNL     1      -3.697   0.949  -2.478  1.00  0.00    -0.228 OA
HETATM   22  C8  UNL     1      -2.433  -0.585  -0.624  1.00  0.00     0.165 C 
ENDBRANCH   7  16
TORSDOF 5
