REMARK  8 active torsions:
REMARK  status: ('A' for Active; 'I' for Inactive)
REMARK    1  A    between atoms: C2_2  and  N2_5 
REMARK    2  A    between atoms: C2_2  and  C12_26 
REMARK    3  A    between atoms: N2_5  and  C4_7 
REMARK    4  A    between atoms: C4_7  and  C5_8 
REMARK    5  A    between atoms: C5_8  and  O1_9 
REMARK    6  A    between atoms: C5_8  and  C6_11 
REMARK    7  A    between atoms: C6_11  and  N3_12 
REMARK    8  A    between atoms: C18_35  and  N9_36 
ROOT
HETATM    1  C1  UNL     1       1.031   0.714  -1.940  1.00  0.00     0.062 C 
HETATM    2  C2  UNL     1       1.157   0.731  -0.437  1.00  0.00     0.160 C 
HETATM    3  C3  UNL     1       0.637   2.044  -0.010  1.00  0.00     0.097 C 
HETATM    4  N1  UNL     1       0.210   3.074   0.340  1.00  0.00    -0.194 NA
ENDROOT
BRANCH   2   5
HETATM    5  N2  UNL     1       0.596  -0.350   0.231  1.00  0.00    -0.374 N 
ATOM      6  H2  UNL     1       1.261  -0.959   0.707  1.00  0.00     0.160 HD
BRANCH   5   7
HETATM    7  C4  UNL     1      -0.719  -0.719   0.345  1.00  0.00     0.090 C 
BRANCH   7   8
HETATM    8  C5  UNL     1      -1.398  -1.185  -0.887  1.00  0.00     0.176 C 
BRANCH   8   9
HETATM    9  O1  UNL     1      -0.604  -2.262  -1.392  1.00  0.00    -0.389 OA
ATOM     10  H1  UNL     1      -1.039  -2.561  -2.182  1.00  0.00     0.210 HD
ENDBRANCH   8   9
BRANCH   8  11
HETATM   11  C6  UNL     1      -2.709  -1.908  -0.576  1.00  0.00     0.186 C 
BRANCH  11  12
HETATM   12  N3  UNL     1      -3.603  -1.066   0.135  1.00  0.00    -0.281 N 
HETATM   13  N4  UNL     1      -3.810  -0.846   1.443  1.00  0.00    -0.291 N 
HETATM   14  C7  UNL     1      -4.777   0.017   1.164  1.00  0.00     0.150 A 
ATOM     15  H4  UNL     1      -3.392  -1.200   2.304  1.00  0.00     0.187 HD
HETATM   16  C8  UNL     1      -5.695   0.841   1.773  1.00  0.00     0.277 C 
HETATM   17  C11 UNL     1      -4.574  -0.199  -0.188  1.00  0.00     0.152 A 
HETATM   18  O2  UNL     1      -5.557   1.157   2.971  1.00  0.00    -0.266 OA
HETATM   19  N5  UNL     1      -6.795   1.386   1.198  1.00  0.00    -0.318 N 
HETATM   20  C9  UNL     1      -7.261   1.211  -0.071  1.00  0.00     0.186 C 
ATOM     21  H5  UNL     1      -7.345   2.007   1.791  1.00  0.00     0.169 HD
HETATM   22  N6  UNL     1      -6.477   1.017  -1.154  1.00  0.00    -0.318 N 
HETATM   23  C10 UNL     1      -5.284   0.399  -1.214  1.00  0.00     0.277 C 
ATOM     24  H6  UNL     1      -6.834   1.385  -2.036  1.00  0.00     0.169 HD
HETATM   25  O3  UNL     1      -4.689   0.323  -2.316  1.00  0.00    -0.266 OA
ENDBRANCH  11  12
ENDBRANCH   8  11
ENDBRANCH   7   8
ENDBRANCH   5   7
ENDBRANCH   2   5
BRANCH   2  26
HETATM   26  C12 UNL     1       2.638   0.726  -0.136  1.00  0.00     0.069 A 
HETATM   27  C13 UNL     1       3.244   1.782   0.480  1.00  0.00     0.033 A 
HETATM   28  C14 UNL     1       4.605   1.725   0.790  1.00  0.00     0.037 A 
HETATM   29  C15 UNL     1       5.310   0.573   0.455  1.00  0.00     0.112 A 
HETATM   30  C16 UNL     1       6.640   0.257   0.652  1.00  0.00     0.159 A 
HETATM   31  N10 UNL     1       4.671  -0.423  -0.143  1.00  0.00    -0.084 N 
HETATM   32  C17 UNL     1       7.659   1.057   1.266  1.00  0.00     0.120 C 
HETATM   33  N8  UNL     1       6.767  -0.990   0.137  1.00  0.00    -0.178 N 
HETATM   34  N7  UNL     1       8.479   1.686   1.756  1.00  0.00    -0.190 NA
HETATM   35  C18 UNL     1       5.575  -1.403  -0.342  1.00  0.00     0.698 A 
ATOM     36  H8  UNL     1       7.630  -1.533   0.115  1.00  0.00     0.185 HD
HETATM   37  N11 UNL     1       3.363  -0.357  -0.438  1.00  0.00    -0.280 N 
ATOM     38  H11 UNL     1       2.914  -1.147  -0.901  1.00  0.00     0.188 HD
BRANCH  35  39
HETATM   39  N9  UNL     1       5.351  -2.548  -0.894  1.00  0.00    -0.233 N 
ATOM     40  H92 UNL     1       6.035  -3.290  -1.045  1.00  0.00     0.174 HD
ATOM     41  H91 UNL     1       4.450  -2.860  -1.256  1.00  0.00     0.174 HD
ENDBRANCH  35  39
ENDBRANCH   2  26
TORSDOF 8
