REMARK  4 active torsions:
REMARK  status: ('A' for Active; 'I' for Inactive)
REMARK    1  A    between atoms: N1_2  and  C3_4 
REMARK    2  A    between atoms: C3_4  and  C5_7 
REMARK    3  A    between atoms: C7_9  and  C8_10 
REMARK    4  A    between atoms: C9_13  and  C10_14 
ROOT
HETATM    1  C5  UNL     1       0.201  -0.595   0.017  1.00  0.00     0.173 C 
HETATM    2  C6  UNL     1      -0.259   0.769   0.510  1.00  0.00     0.057 C 
HETATM    3  C7  UNL     1      -1.755   0.511   0.723  1.00  0.00     0.129 C 
HETATM    4  C9  UNL     1      -1.905  -0.877   0.207  1.00  0.00     0.237 C 
HETATM    5  O5  UNL     1      -0.885  -0.950  -0.772  1.00  0.00    -0.363 OA
ENDROOT
BRANCH   1   6
HETATM    6  C3  UNL     1       1.463  -0.555  -0.682  1.00  0.00     0.042 C 
HETATM    7  C4  UNL     1       1.646  -0.961  -1.901  1.00  0.00     0.083 C 
HETATM    8 BR1  UNL     1       0.235  -1.679  -2.955  1.00  0.00    -0.061 Br
BRANCH   6   9
HETATM    9  N1  UNL     1       2.594  -0.027   0.037  1.00  0.00    -0.390 N 
HETATM   10  C1  UNL     1       2.835   1.392   0.126  1.00  0.00     0.149 C 
HETATM   11  C2  UNL     1       3.500  -0.939   0.679  1.00  0.00     0.149 C 
ENDBRANCH   6   9
ENDBRANCH   1   6
BRANCH   3  12
HETATM   12  C8  UNL     1      -2.577   1.523   0.062  1.00  0.00     0.180 C 
HETATM   13  O1  UNL     1      -3.396   1.228  -0.830  1.00  0.00    -0.648 OA
HETATM   14  O2  UNL     1      -2.458   2.855   0.421  1.00  0.00    -0.648 OA
ENDBRANCH   3  12
BRANCH   4  15
HETATM   15  C10 UNL     1      -3.216  -1.238  -0.319  1.00  0.00     0.204 C 
HETATM   16  O3  UNL     1      -3.373  -1.574  -1.519  1.00  0.00    -0.646 OA
HETATM   17  O4  UNL     1      -4.316  -1.211   0.522  1.00  0.00    -0.646 OA
ENDBRANCH   4  15
TORSDOF 4
