REMARK  4 active torsions:
REMARK  status: ('A' for Active; 'I' for Inactive)
REMARK    1  A    between atoms: O1_2  and  C2_3 
REMARK    2  A    between atoms: C2_3  and  C3_5 
REMARK    3  A    between atoms: C3_5  and  N1_7 
REMARK    4  A    between atoms: N1_7  and  C5_9 
ROOT
HETATM    1  C5  UNL     1       0.036  -0.136  -0.461  1.00  0.00     0.085 C 
HETATM    2  C6  UNL     1      -0.529   1.123   0.225  1.00  0.00     0.010 C 
HETATM    3  C7  UNL     1      -1.300   0.720   1.464  1.00  0.00     0.011 C 
HETATM    4  C8  UNL     1      -2.462  -0.184   1.119  1.00  0.00    -0.012 C 
HETATM    5  C9  UNL     1      -1.887  -1.409   0.453  1.00  0.00     0.011 C 
HETATM    6  C10 UNL     1      -1.159  -0.996  -0.788  1.00  0.00     0.010 C 
HETATM    7  C11 UNL     1      -2.112  -0.276  -1.700  1.00  0.00     0.027 C 
HETATM    8  C12 UNL     1      -2.663   0.951  -1.038  1.00  0.00     0.019 C 
HETATM    9 BR1  UNL     1      -3.847   1.909  -2.207  1.00  0.00    -0.086 Br
HETATM   10  C13 UNL     1      -3.411   0.558   0.205  1.00  0.00     0.025 C 
HETATM   11  C14 UNL     1      -1.495   1.845  -0.676  1.00  0.00     0.027 C 
ENDROOT
BRANCH   1  12
HETATM   12  N1  UNL     1       0.916  -0.727   0.447  1.00  0.00    -0.404 N 
ATOM     13  H1  UNL     1       0.623  -0.808   1.421  1.00  0.00     0.154 HD
BRANCH  12  14
HETATM   14  C3  UNL     1       2.164  -1.208   0.095  1.00  0.00     0.173 C 
HETATM   15  C4  UNL     1       2.081  -2.397  -0.893  1.00  0.00     0.042 C 
BRANCH  14  16
HETATM   16  C2  UNL     1       3.169  -0.236  -0.488  1.00  0.00     0.280 C 
HETATM   17  O2  UNL     1       3.524  -0.198  -1.578  1.00  0.00    -0.263 OA
BRANCH  16  18
HETATM   18  O1  UNL     1       3.738   0.661   0.481  1.00  0.00    -0.325 OA
HETATM   19  C1  UNL     1       4.759   1.591   0.045  1.00  0.00     0.213 C 
ENDBRANCH  16  18
ENDBRANCH  14  16
ENDBRANCH  12  14
ENDBRANCH   1  12
TORSDOF 4
