REMARK  6 active torsions:
REMARK  status: ('A' for Active; 'I' for Inactive)
REMARK    1  A    between atoms: O1_2  and  C2_3 
REMARK    2  A    between atoms: C2_3  and  C3_5 
REMARK    3  A    between atoms: C3_5  and  C4_6 
REMARK    4  A    between atoms: C8_10  and  C9_11 
REMARK    5  A    between atoms: C9_11  and  N1_12 
REMARK    6  A    between atoms: C12_16  and  O3_17 
ROOT
HETATM    1  C4  UNL     1       1.149   0.141  -0.005  1.00  0.00     0.024 C 
HETATM    2  C5  UNL     1       1.338  -0.010  -1.486  1.00  0.00     0.007 C 
HETATM    3  C6  UNL     1      -0.026  -0.469  -2.026  1.00  0.00     0.001 C 
HETATM    4  C7  UNL     1      -0.991   0.672  -1.794  1.00  0.00     0.009 C 
HETATM    5  C8  UNL     1      -1.188   1.023  -0.358  1.00  0.00     0.042 C 
HETATM    6  C12 UNL     1       0.156   1.257   0.274  1.00  0.00     0.128 C 
ENDROOT
BRANCH   1   7
HETATM    7  C3  UNL     1       2.376   0.410   0.785  1.00  0.00     0.118 C 
BRANCH   7   8
HETATM    8  C2  UNL     1       3.430  -0.585   0.748  1.00  0.00     0.258 C 
HETATM    9  O2  UNL     1       3.309  -1.651   0.114  1.00  0.00    -0.265 OA
BRANCH   8  10
HETATM   10  O1  UNL     1       4.614  -0.358   1.431  1.00  0.00    -0.326 OA
HETATM   11  C1  UNL     1       5.684  -1.266   1.448  1.00  0.00     0.213 C 
ENDBRANCH   8  10
ENDBRANCH   7   8
ENDBRANCH   1   7
BRANCH   6  12
HETATM   12  O3  UNL     1      -0.003   1.314   1.661  1.00  0.00    -0.395 OA
ATOM     13  H3  UNL     1      -0.624   2.012   1.835  1.00  0.00     0.210 HD
ENDBRANCH   6  12
BRANCH   5  14
HETATM   14  C9  UNL     1      -1.942   0.017   0.454  1.00  0.00     0.257 C 
BRANCH  14  15
HETATM   15  N1  UNL     1      -3.271  -0.261   0.022  1.00  0.00    -0.018 N 
HETATM   16  C10 UNL     1      -4.052  -0.595   1.228  1.00  0.00     0.287 C 
HETATM   17  C11 UNL     1      -3.376  -1.405  -0.872  1.00  0.00     0.287 C 
HETATM   18 BR1  UNL     1      -4.119   1.205  -0.818  1.00  0.00     0.163 Br
ENDBRANCH  14  15
ENDBRANCH   5  14
TORSDOF 6
