REMARK  6 active torsions:
REMARK  status: ('A' for Active; 'I' for Inactive)
REMARK    1  A    between atoms: C2_2  and  C3_4 
REMARK    2  A    between atoms: C3_4  and  C4_5 
REMARK    3  A    between atoms: C4_5  and  N1_6 
REMARK    4  A    between atoms: N1_6  and  C5_8 
REMARK    5  A    between atoms: C7_14  and  N4_15 
REMARK    6  A    between atoms: N4_15  and  C8_17 
ROOT
HETATM    1  C5  UNL     1      -0.745   0.626   0.507  1.00  0.00     0.693 A 
HETATM    2  N2  UNL     1      -0.535   1.328  -0.621  1.00  0.00    -0.187 N 
ATOM      3  H2  UNL     1      -1.269   1.946  -0.968  1.00  0.00     0.185 HD
HETATM    4  C6  UNL     1       0.633   1.232  -1.309  1.00  0.00     0.215 A 
HETATM    5  N3  UNL     1       1.618   0.431  -0.883  1.00  0.00    -0.187 N 
ATOM      6  H3  UNL     1       2.492   0.363  -1.404  1.00  0.00     0.185 HD
HETATM    7  C7  UNL     1       1.436  -0.286   0.248  1.00  0.00     0.693 A 
HETATM    8  N5  UNL     1       0.282  -0.179   0.910  1.00  0.00    -0.022 N 
ATOM      9  H5  UNL     1       0.161  -0.727   1.762  1.00  0.00     0.203 HD
ENDROOT
BRANCH   1  10
HETATM   10  N1  UNL     1      -1.811   0.672   1.193  1.00  0.00    -0.225 N 
ATOM     11  H1  UNL     1      -1.884   0.105   2.037  1.00  0.00     0.177 HD
BRANCH  10  12
HETATM   12  C4  UNL     1      -2.920   1.506   0.808  1.00  0.00     0.139 C 
BRANCH  12  13
HETATM   13  C3  UNL     1      -3.805   0.865  -0.240  1.00  0.00     0.035 C 
BRANCH  13  14
HETATM   14  C2  UNL     1      -4.341  -0.433   0.373  1.00  0.00     0.055 C 
HETATM   15  C1  UNL     1      -5.245  -1.161  -0.598  1.00  0.00     0.022 C 
HETATM   16 BR1  UNL     1      -5.368   0.054   1.947  1.00  0.00    -0.091 Br
ENDBRANCH  13  14
ENDBRANCH  12  13
ENDBRANCH  10  12
ENDBRANCH   1  10
BRANCH   7  17
HETATM   17  N4  UNL     1       2.404  -1.049   0.633  1.00  0.00    -0.221 N 
ATOM     18  H4  UNL     1       2.286  -1.599   1.484  1.00  0.00     0.178 HD
BRANCH  17  19
HETATM   19  C8  UNL     1       3.630  -1.152  -0.085  1.00  0.00     0.099 C 
HETATM   20  C9  UNL     1       4.858  -1.466   0.755  1.00  0.00     0.026 C 
HETATM   21  C10 UNL     1       5.621  -0.521  -0.153  1.00  0.00     0.004 C 
HETATM   22  C11 UNL     1       4.300   0.172  -0.420  1.00  0.00     0.026 C 
ENDBRANCH  17  19
ENDBRANCH   7  17
TORSDOF 6
