REMARK  6 active torsions:
REMARK  status: ('A' for Active; 'I' for Inactive)
REMARK    1  A    between atoms: C3_4  and  C4_5 
REMARK    2  A    between atoms: C4_5  and  N1_6 
REMARK    3  A    between atoms: C8_10  and  N2_11 
REMARK    4  A    between atoms: N2_11  and  C9_13 
REMARK    5  A    between atoms: C9_13  and  N3_15 
REMARK       I    between atoms: N3_15  and  C10_17 
REMARK    6  A    between atoms: C10_17  and  C11_19 
ROOT
HETATM    1  N1  UNL     1      -1.531   0.035  -0.544  1.00  0.00    -0.348 N 
HETATM    2  C5  UNL     1      -1.658  -1.308  -0.147  1.00  0.00     0.068 C 
HETATM    3  C6  UNL     1      -0.917  -1.609   1.132  1.00  0.00     0.047 C 
HETATM    4  C7  UNL     1       0.370  -0.922   1.314  1.00  0.00     0.036 C 
HETATM    5  C8  UNL     1       0.589   0.389   0.658  1.00  0.00     0.123 C 
HETATM    6  C12 UNL     1      -0.252   0.588  -0.546  1.00  0.00     0.093 C 
ENDROOT
BRANCH   5   7
HETATM    7  N2  UNL     1       2.008   0.509   0.290  1.00  0.00    -0.358 N 
ATOM      8  H2  UNL     1       2.232   0.550  -0.704  1.00  0.00     0.162 HD
BRANCH   7   9
HETATM    9  C9  UNL     1       3.075   0.571   1.192  1.00  0.00     0.174 C 
HETATM   10  S1  UNL     1       2.704   0.543   2.818  1.00  0.00    -0.041 SA
BRANCH   9  11
HETATM   11  N3  UNL     1       4.435   0.670   0.876  1.00  0.00    -0.303 N 
HETATM   12  C10 UNL     1       5.020   0.715  -0.407  1.00  0.00     0.237 C 
HETATM   13  O1  UNL     1       4.345   0.671  -1.438  1.00  0.00    -0.272 OA
ATOM     14  H3  UNL     1       5.079   0.715   1.666  1.00  0.00     0.171 HD
BRANCH  12  15
HETATM   15  C11 UNL     1       6.516   0.820  -0.560  1.00  0.00     0.217 C 
HETATM   16 CL2  UNL     1       6.882   0.879  -2.288  1.00  0.00    -0.121 Cl
ENDBRANCH  12  15
ENDBRANCH   9  11
ENDBRANCH   7   9
ENDBRANCH   5   7
BRANCH   1  17
HETATM   17  C4  UNL     1      -2.677   0.839  -0.517  1.00  0.00     0.096 C 
BRANCH  17  18
HETATM   18  C3  UNL     1      -3.632   0.373  -1.591  1.00  0.00     0.036 C 
HETATM   19  C2  UNL     1      -4.855  -0.046  -1.362  1.00  0.00     0.009 C 
HETATM   20  C1  UNL     1      -5.481  -0.126  -0.016  1.00  0.00     0.062 C 
HETATM   21 CL1  UNL     1      -5.839  -0.553  -2.721  1.00  0.00    -0.089 Cl
ENDBRANCH  17  18
ENDBRANCH   1  17
TORSDOF 6
