REMARK  5 active torsions:
REMARK  status: ('A' for Active; 'I' for Inactive)
REMARK    1  A    between atoms: C1_2  and  C2_3 
REMARK       I    between atoms: C1_2  and  N1_10 
REMARK    2  A    between atoms: C2_3  and  C3_4 
REMARK    3  A    between atoms: C9_12  and  C10_13 
REMARK    4  A    between atoms: C10_13  and  C11_14 
REMARK       I    between atoms: C11_14  and  N2_16 
REMARK    5  A    between atoms: C14_22  and  C15_23 
ROOT
HETATM    1  C10 UNL     1       1.051  -1.420  -0.057  1.00  0.00     0.147 C 
ENDROOT
BRANCH   1   2
HETATM    2  C9  UNL     1       0.445  -1.258  -1.403  1.00  0.00     0.073 C 
HETATM    3  N1  UNL     1      -0.650  -0.611  -1.510  1.00  0.00    -0.340 N 
HETATM    4  C1  UNL     1      -1.322  -0.037  -0.421  1.00  0.00     0.221 C 
ATOM      5  H1  UNL     1      -1.059  -0.506  -2.439  1.00  0.00     0.167 HD
HETATM    6  O1  UNL     1      -1.016   1.135  -0.079  1.00  0.00    -0.273 OA
BRANCH   4   7
HETATM    7  C2  UNL     1      -2.383  -0.743   0.350  1.00  0.00     0.107 C 
BRANCH   7   8
HETATM    8  C3  UNL     1      -3.645   0.059   0.322  1.00  0.00    -0.006 C 
HETATM    9  C4  UNL     1      -4.745  -0.621   1.087  1.00  0.00     0.005 C 
HETATM   10  C5  UNL     1      -6.021   0.142   1.115  1.00  0.00     0.000 C 
HETATM   11  C6  UNL     1      -6.317   1.015  -0.030  1.00  0.00     0.000 C 
HETATM   12  C7  UNL     1      -5.245   1.256  -1.024  1.00  0.00     0.000 C 
HETATM   13  C8  UNL     1      -4.180   0.212  -1.104  1.00  0.00     0.005 C 
ENDBRANCH   7   8
ENDBRANCH   4   7
ENDBRANCH   1   2
BRANCH   1  14
HETATM   14  C11 UNL     1       2.522  -1.565  -0.133  1.00  0.00     0.224 C 
HETATM   15  O2  UNL     1       2.973  -2.641  -0.651  1.00  0.00    -0.273 OA
HETATM   16  N2  UNL     1       3.467  -0.616   0.318  1.00  0.00    -0.348 N 
HETATM   17  C12 UNL     1       3.073   0.619   0.926  1.00  0.00     0.153 C 
HETATM   18  C16 UNL     1       4.897  -0.897   0.157  1.00  0.00     0.164 C 
HETATM   19  C13 UNL     1       3.840   1.765   0.265  1.00  0.00     0.253 C 
HETATM   20  N3  UNL     1       5.255   1.451   0.304  1.00  0.00    -0.063 N 
HETATM   21  C14 UNL     1       5.501   0.294  -0.552  1.00  0.00     0.268 C 
ATOM     22  H32 UNL     1       5.839   2.250   0.058  1.00  0.00     0.277 HD
ATOM     23  H31 UNL     1       5.598   1.313   1.255  1.00  0.00     0.277 HD
BRANCH  21  24
HETATM   24  C15 UNL     1       7.008   0.099  -0.624  1.00  0.00     0.385 C 
HETATM   25  F1  UNL     1       7.332  -0.984  -1.420  1.00  0.00    -0.212 F 
HETATM   26  F2  UNL     1       7.464  -0.132   0.665  1.00  0.00    -0.212 F 
ENDBRANCH  21  24
ENDBRANCH   1  14
TORSDOF 5
