REMARK  5 active torsions:
REMARK  status: ('A' for Active; 'I' for Inactive)
REMARK    1  A    between atoms: C3_3  and  N1_4 
REMARK    2  A    between atoms: C6_7  and  C8_9 
REMARK       I    between atoms: C8_9  and  N2_11 
REMARK    3  A    between atoms: N2_11  and  C9_12 
REMARK    4  A    between atoms: C9_12  and  C10_13 
REMARK    5  A    between atoms: C10_13  and  O2_14 
ROOT
HETATM    1  C1  UNL     1      -4.444   0.007   1.943  1.00  0.00     0.013 C 
HETATM    2  C2  UNL     1      -3.669   0.708   1.346  1.00  0.00    -0.087 C 
HETATM    3  C3  UNL     1      -2.770   1.565   0.604  1.00  0.00     0.366 C 
ENDROOT
BRANCH   3   4
HETATM    4  N1  UNL     1      -2.073   1.053  -0.504  1.00  0.00     0.110 N 
HETATM    5  C4  UNL     1      -1.560   2.284  -1.184  1.00  0.00     0.276 C 
HETATM    6  C5  UNL     1      -0.248   2.426  -0.525  1.00  0.00     0.053 C 
HETATM    7  C6  UNL     1       0.307   1.008  -0.737  1.00  0.00     0.088 C 
HETATM    8  C7  UNL     1       0.731   0.981  -2.151  1.00  0.00     0.029 C 
HETATM    9  C11 UNL     1      -0.936   0.225  -0.361  1.00  0.00     0.180 C 
HETATM   10  C12 UNL     1      -0.802  -0.590   0.872  1.00  0.00     0.046 C 
HETATM   11  C15 UNL     1      -0.961  -0.928  -1.398  1.00  0.00     0.085 C 
HETATM   12  C13 UNL     1      -1.443  -1.956   0.632  1.00  0.00     0.045 C 
HETATM   13  C14 UNL     1      -1.743  -2.064  -0.812  1.00  0.00     0.116 C 
HETATM   14 CL1  UNL     1      -1.017  -3.593  -1.426  1.00  0.00    -0.102 Cl
HETATM   15 CL2  UNL     1      -3.425  -2.092  -1.267  1.00  0.00    -0.102 Cl
BRANCH   7  16
HETATM   16  C8  UNL     1       1.460   0.824   0.217  1.00  0.00     0.302 C 
HETATM   17  O1  UNL     1       1.312   1.543   1.255  1.00  0.00    -0.256 OA
HETATM   18  N2  UNL     1       2.521  -0.017  -0.010  1.00  0.00    -0.385 NA
BRANCH  18  19
HETATM   19  C9  UNL     1       3.579  -0.855  -0.237  1.00  0.00     0.184 C 
BRANCH  19  20
HETATM   20  C10 UNL     1       3.848  -1.927   0.841  1.00  0.00     0.223 C 
BRANCH  20  21
HETATM   21  O2  UNL     1       4.097  -1.232   2.005  1.00  0.00    -0.395 OA
ATOM     22  H2  UNL     1       4.263  -1.892   2.668  1.00  0.00     0.209 HD
ENDBRANCH  20  21
ENDBRANCH  19  20
ENDBRANCH  18  19
ENDBRANCH   7  16
ENDBRANCH   3   4
TORSDOF 5
