REMARK  7 active torsions:
REMARK  status: ('A' for Active; 'I' for Inactive)
REMARK    1  A    between atoms: C2_2  and  C3_3 
REMARK    2  A    between atoms: C3_3  and  C4_4 
REMARK    3  A    between atoms: C3_3  and  N2_15 
REMARK       I    between atoms: C4_4  and  N1_6 
REMARK    4  A    between atoms: C7_9  and  C8_10 
REMARK    5  A    between atoms: C8_10  and  O2_11 
REMARK    6  A    between atoms: C14_19  and  O3_20 
REMARK    7  A    between atoms: C14_19  and  C15_22 
ROOT
HETATM    1  C3  UNL     1      -0.911  -1.805   0.721  1.00  0.00     0.314 C 
ENDROOT
BRANCH   1   2
HETATM    2  C2  UNL     1      -0.965  -2.979  -0.219  1.00  0.00     0.041 C 
HETATM    3  C1  UNL     1      -0.405  -4.240   0.402  1.00  0.00     0.007 C 
ENDBRANCH   1   2
BRANCH   1   4
HETATM    4  C4  UNL     1       0.484  -1.527   1.132  1.00  0.00     0.253 C 
HETATM    5  O1  UNL     1       0.805  -2.079   2.253  1.00  0.00    -0.271 OA
HETATM    6  N1  UNL     1       1.468  -0.784   0.500  1.00  0.00    -0.350 N 
HETATM    7  C5  UNL     1       1.415  -0.097  -0.764  1.00  0.00     0.126 C 
HETATM    8  C10 UNL     1       2.774  -0.657   1.179  1.00  0.00     0.126 C 
HETATM    9  C6  UNL     1       1.805   1.382  -0.619  1.00  0.00     0.027 C 
HETATM   10  C7  UNL     1       3.117   1.564   0.078  1.00  0.00     0.012 C 
HETATM   11  C9  UNL     1       3.203   0.763   1.343  1.00  0.00     0.027 C 
BRANCH  10  12
HETATM   12  C8  UNL     1       4.293   1.304  -0.825  1.00  0.00     0.168 C 
BRANCH  12  13
HETATM   13  O2  UNL     1       4.303   2.164  -1.921  1.00  0.00    -0.400 OA
ATOM     14  H2  UNL     1       5.045   2.000  -2.491  1.00  0.00     0.209 HD
ENDBRANCH  12  13
ENDBRANCH  10  12
ENDBRANCH   1   4
BRANCH   1  15
HETATM   15  N2  UNL     1      -1.582  -0.679   0.114  1.00  0.00     0.105 N 
HETATM   16  C11 UNL     1      -2.977  -0.987  -0.081  1.00  0.00     0.273 C 
HETATM   17  C12 UNL     1      -3.640   0.001  -1.036  1.00  0.00     0.033 C 
HETATM   18  C13 UNL     1      -2.912   1.295  -0.947  1.00  0.00     0.047 C 
HETATM   19  C14 UNL     1      -2.479   1.514   0.486  1.00  0.00     0.143 C 
HETATM   20  C16 UNL     1      -1.597   0.463   1.042  1.00  0.00     0.316 C 
BRANCH  19  21
HETATM   21  O3  UNL     1      -3.659   1.535   1.241  1.00  0.00    -0.382 OA
ATOM     22  H3  UNL     1      -3.387   1.673   2.141  1.00  0.00     0.210 HD
ENDBRANCH  19  21
BRANCH  19  23
HETATM   23  C15 UNL     1      -1.923   2.921   0.562  1.00  0.00     0.388 C 
HETATM   24  F1  UNL     1      -2.934   3.824   0.198  1.00  0.00    -0.211 F 
HETATM   25  F2  UNL     1      -1.535   3.276   1.838  1.00  0.00    -0.211 F 
ENDBRANCH  19  23
ENDBRANCH   1  15
TORSDOF 7
