REMARK  6 active torsions:
REMARK  status: ('A' for Active; 'I' for Inactive)
REMARK    1  A    between atoms: C4_6  and  O2_7 
REMARK    2  A    between atoms: C4_6  and  C5_9 
REMARK    3  A    between atoms: C5_9  and  C6_10 
REMARK    4  A    between atoms: C6_10  and  C7_11 
REMARK    5  A    between atoms: C7_11  and  C8_12 
REMARK    6  A    between atoms: C8_12  and  O3_13 
ROOT
HETATM    1  O1  UNL     1       3.518   2.482   0.334  1.00  0.00    -0.295 OA
HETATM    2  C1  UNL     1       2.908   1.439   0.238  1.00  0.00     0.158 C 
HETATM    3  C2  UNL     1       3.541   0.125  -0.052  1.00  0.00     0.131 C 
HETATM    4 BR1  UNL     1       5.121  -0.154   1.018  1.00  0.00    -0.083 Br
HETATM    5  C3  UNL     1       2.415  -0.824   0.380  1.00  0.00     0.063 C 
HETATM    6  C4  UNL     1       1.215  -0.089  -0.177  1.00  0.00     0.079 C 
HETATM    7  C9  UNL     1       1.435   1.297   0.391  1.00  0.00     0.162 C 
HETATM    8 BR2  UNL     1       1.040   1.331   2.288  1.00  0.00    -0.080 Br
ENDROOT
BRANCH   6   9
HETATM    9  O2  UNL     1       1.320  -0.002  -1.554  1.00  0.00    -0.388 OA
ATOM     10  H2  UNL     1       0.567   0.459  -1.904  1.00  0.00     0.210 HD
ENDBRANCH   6   9
BRANCH   6  11
HETATM   11  C5  UNL     1      -0.083  -0.697   0.268  1.00  0.00     0.039 C 
BRANCH  11  12
HETATM   12  C6  UNL     1      -1.283   0.009  -0.268  1.00  0.00     0.005 C 
BRANCH  12  13
HETATM   13  C7  UNL     1      -2.567  -0.638   0.205  1.00  0.00     0.026 C 
BRANCH  13  14
HETATM   14  C8  UNL     1      -3.715   0.150  -0.391  1.00  0.00     0.164 C 
BRANCH  14  15
HETATM   15  O3  UNL     1      -4.940  -0.390   0.003  1.00  0.00    -0.401 OA
ATOM     16  H3  UNL     1      -5.660   0.104  -0.371  1.00  0.00     0.209 HD
ENDBRANCH  14  15
ENDBRANCH  13  14
ENDBRANCH  12  13
ENDBRANCH  11  12
ENDBRANCH   6  11
TORSDOF 6
