REMARK  6 active torsions:
REMARK  status: ('A' for Active; 'I' for Inactive)
REMARK    1  A    between atoms: C2_2  and  C4_4 
REMARK    2  A    between atoms: C4_4  and  C5_5 
REMARK    3  A    between atoms: C5_5  and  N1_6 
REMARK    4  A    between atoms: C5_5  and  C6_10 
REMARK       I    between atoms: C6_10  and  N2_12 
REMARK    5  A    between atoms: C10_18  and  C11_19 
REMARK    6  A    between atoms: C11_19  and  O2_20 
ROOT
HETATM    1  C6  UNL     1      -0.262   1.071   0.278  1.00  0.00     0.251 C 
HETATM    2  O1  UNL     1      -0.494   2.305   0.033  1.00  0.00    -0.271 OA
HETATM    3  N2  UNL     1      -1.346   0.177   0.349  1.00  0.00    -0.341 N 
HETATM    4  C7  UNL     1      -1.289  -1.244   0.631  1.00  0.00     0.129 C 
HETATM    5  C8  UNL     1      -2.599  -1.489   1.352  1.00  0.00     0.059 C 
HETATM    6  C9  UNL     1      -3.548  -0.623   0.561  1.00  0.00     0.118 C 
HETATM    7 CL1  UNL     1      -4.149  -1.573  -0.809  1.00  0.00    -0.104 Cl
HETATM    8 BR1  UNL     1      -4.993  -0.105   1.734  1.00  0.00    -0.066 Br
HETATM    9  C10 UNL     1      -2.735   0.553   0.145  1.00  0.00     0.145 C 
ENDROOT
BRANCH   1  10
HETATM   10  C5  UNL     1       1.154   0.683   0.471  1.00  0.00     0.275 C 
BRANCH  10  11
HETATM   11  C4  UNL     1       1.580  -0.182  -0.665  1.00  0.00     0.046 C 
BRANCH  11  12
HETATM   12  C2  UNL     1       3.007  -0.652  -0.606  1.00  0.00    -0.020 C 
HETATM   13  C1  UNL     1       3.320  -1.461   0.609  1.00  0.00     0.009 C 
HETATM   14  C3  UNL     1       4.008   0.408  -0.916  1.00  0.00     0.009 C 
ENDBRANCH  11  12
ENDBRANCH  10  11
BRANCH  10  15
HETATM   15  N1  UNL     1       1.934   1.898   0.586  1.00  0.00    -0.066 N 
ATOM     16  H13 UNL     1       2.930   1.686   0.645  1.00  0.00     0.275 HD
ATOM     17  H12 UNL     1       1.925   2.419  -0.291  1.00  0.00     0.275 HD
ATOM     18  H11 UNL     1       1.642   2.490   1.364  1.00  0.00     0.275 HD
ENDBRANCH  10  15
ENDBRANCH   1  10
BRANCH   9  19
HETATM   19  C11 UNL     1      -2.972   0.957  -1.294  1.00  0.00     0.192 C 
BRANCH  19  20
HETATM   20  O2  UNL     1      -4.273   1.321  -1.539  1.00  0.00    -0.399 OA
ATOM     21  H2  UNL     1      -4.422   1.575  -2.442  1.00  0.00     0.209 HD
ENDBRANCH  19  20
ENDBRANCH   9  19
TORSDOF 6
