REMARK  6 active torsions:
REMARK  status: ('A' for Active; 'I' for Inactive)
REMARK    1  A    between atoms: C2_2  and  C4_4 
REMARK    2  A    between atoms: C4_4  and  C5_5 
REMARK    3  A    between atoms: C5_5  and  C6_8 
REMARK    4  A    between atoms: N2_19  and  C14_20 
REMARK    5  A    between atoms: C14_20  and  C15_21 
REMARK    6  A    between atoms: C15_21  and  O2_22 
ROOT
HETATM    1  C4  UNL     1      -0.117   0.757   0.111  1.00  0.00     0.118 C 
HETATM    2  C10 UNL     1      -0.259   1.555  -1.128  1.00  0.00     0.100 C 
HETATM    3  N1  UNL     1       0.258   1.151  -2.366  1.00  0.00    -0.338 N 
ATOM      4  H1  UNL     1      -0.128   1.723  -3.117  1.00  0.00     0.167 HD
HETATM    5  C11 UNL     1       1.143   0.200  -2.882  1.00  0.00     0.226 C 
HETATM    6  O1  UNL     1       1.568   0.350  -4.060  1.00  0.00    -0.273 OA
HETATM    7  C12 UNL     1       1.587  -0.948  -2.111  1.00  0.00     0.147 C 
HETATM    8  C13 UNL     1       1.822  -0.590  -0.706  1.00  0.00     0.069 C 
HETATM    9  N2  UNL     1       0.983  -0.134   0.238  1.00  0.00    -0.373 N 
ENDROOT
BRANCH   1  10
HETATM   10  C2  UNL     1       0.088   1.894   1.111  1.00  0.00     0.015 C 
HETATM   11  C1  UNL     1       1.374   2.666   0.726  1.00  0.00     0.012 C 
HETATM   12  C3  UNL     1      -0.942   2.998   1.079  1.00  0.00     0.012 C 
ENDBRANCH   1  10
BRANCH   1  13
HETATM   13  C5  UNL     1      -1.399   0.041   0.502  1.00  0.00     0.215 C 
HETATM   14  F1  UNL     1      -1.186  -0.388   1.794  1.00  0.00    -0.222 F 
HETATM   15 CL1  UNL     1      -2.822   1.101   0.601  1.00  0.00    -0.079 Cl
BRANCH  13  16
HETATM   16  C6  UNL     1      -1.885  -1.169  -0.131  1.00  0.00     0.002 C 
HETATM   17  C7  UNL     1      -2.226  -1.248  -1.557  1.00  0.00     0.019 C 
HETATM   18  C8  UNL     1      -1.224  -2.471   0.239  1.00  0.00     0.019 C 
HETATM   19  C9  UNL     1      -3.280  -1.373   0.544  1.00  0.00     0.019 C 
ENDBRANCH  13  16
ENDBRANCH   1  13
BRANCH   9  20
HETATM   20  C14 UNL     1       1.652  -0.265   1.490  1.00  0.00     0.149 C 
BRANCH  20  21
HETATM   21  C15 UNL     1       2.572  -1.394   1.744  1.00  0.00     0.183 C 
BRANCH  21  22
HETATM   22  O2  UNL     1       2.089  -2.686   1.702  1.00  0.00    -0.399 OA
ATOM     23  H2  UNL     1       2.680  -3.411   1.865  1.00  0.00     0.209 HD
ENDBRANCH  21  22
ENDBRANCH  20  21
ENDBRANCH   9  20
TORSDOF 6
