REMARK  6 active torsions:
REMARK  status: ('A' for Active; 'I' for Inactive)
REMARK    1  A    between atoms: N2_5  and  C3_6 
REMARK    2  A    between atoms: C3_6  and  C4_7 
REMARK    3  A    between atoms: C4_7  and  O2_8 
REMARK    4  A    between atoms: C4_7  and  C5_10 
REMARK    5  A    between atoms: C5_10  and  N3_11 
REMARK    6  A    between atoms: N3_11  and  C6_13 
ROOT
HETATM    1  C1  UNL     1      -3.191  -2.027  -1.956  1.00  0.00     0.155 C 
HETATM    2  N1  UNL     1      -2.347  -1.252  -1.042  1.00  0.00    -0.327 N 
HETATM    3  C2  UNL     1      -0.910  -1.273  -0.990  1.00  0.00     0.321 C 
HETATM    4  O1  UNL     1      -0.202  -1.634  -1.966  1.00  0.00    -0.247 OA
HETATM    5  N2  UNL     1      -0.466  -0.836   0.290  1.00  0.00    -0.329 N 
HETATM    6  C10 UNL     1      -1.574  -0.054   0.830  1.00  0.00     0.158 C 
HETATM    7  C11 UNL     1      -2.766  -0.321  -0.023  1.00  0.00     0.053 C 
HETATM    8  C12 UNL     1      -3.320   0.943  -0.662  1.00  0.00     0.039 C 
HETATM    9  C13 UNL     1      -4.315   1.657   0.211  1.00  0.00     0.081 C 
HETATM   10  C14 UNL     1      -5.557   0.853   0.480  1.00  0.00     0.243 C 
HETATM   11  F1  UNL     1      -6.588   1.194  -0.374  1.00  0.00    -0.206 F 
HETATM   12  F2  UNL     1      -6.034   1.009   1.773  1.00  0.00    -0.206 F 
HETATM   13  C15 UNL     1      -5.236  -0.598   0.187  1.00  0.00     0.081 C 
HETATM   14  C16 UNL     1      -3.913  -0.932   0.794  1.00  0.00     0.039 C 
ENDROOT
BRANCH   5  15
HETATM   15  C3  UNL     1       0.787  -1.067   0.940  1.00  0.00     0.164 C 
BRANCH  15  16
HETATM   16  C4  UNL     1       1.830  -0.014   0.753  1.00  0.00     0.174 C 
BRANCH  16  17
HETATM   17  O2  UNL     1       1.418   1.227   1.265  1.00  0.00    -0.389 OA
ATOM     18  H2  UNL     1       2.081   1.897   1.146  1.00  0.00     0.210 HD
ENDBRANCH  16  17
BRANCH  16  19
HETATM   19  C5  UNL     1       2.325   0.131  -0.664  1.00  0.00     0.089 C 
BRANCH  19  20
HETATM   20  N3  UNL     1       3.429   0.981  -0.841  1.00  0.00    -0.392 N 
ATOM     21  H3  UNL     1       3.302   1.879  -1.308  1.00  0.00     0.159 HD
BRANCH  20  22
HETATM   22  C6  UNL     1       4.708   0.612  -0.384  1.00  0.00     0.018 C 
HETATM   23  C7  UNL     1       5.711   1.521  -1.140  1.00  0.00     0.037 C 
HETATM   24  C8  UNL     1       5.118  -0.797  -0.775  1.00  0.00     0.037 C 
HETATM   25  C9  UNL     1       5.012   0.797   1.066  1.00  0.00     0.037 C 
ENDBRANCH  20  22
ENDBRANCH  19  20
ENDBRANCH  16  19
ENDBRANCH  15  16
ENDBRANCH   5  15
TORSDOF 6
