REMARK  7 active torsions:
REMARK  status: ('A' for Active; 'I' for Inactive)
REMARK    1  A    between atoms: C2_2  and  C4_4 
REMARK    2  A    between atoms: N2_12  and  C11_13 
REMARK    3  A    between atoms: C11_13  and  N3_15 
REMARK    4  A    between atoms: N3_15  and  C12_17 
REMARK    5  A    between atoms: C12_17  and  C13_18 
REMARK    6  A    between atoms: C13_18  and  C14_19 
REMARK    7  A    between atoms: C14_19  and  O1_20 
ROOT
HETATM    1  C4  UNL     1      -2.879  -0.297  -0.595  1.00  0.00     0.025 C 
HETATM    2  C5  UNL     1      -2.770  -1.013   0.761  1.00  0.00     0.280 C 
HETATM    3  N1  UNL     1      -1.312  -1.287   0.882  1.00  0.00     0.108 N 
HETATM    4  C6  UNL     1      -1.043  -2.393   0.025  1.00  0.00     0.312 C 
HETATM    5  C7  UNL     1      -0.844  -0.025   0.500  1.00  0.00     0.330 C 
HETATM    6  C8  UNL     1      -1.527   0.104  -0.881  1.00  0.00     0.046 C 
HETATM    7  C9  UNL     1      -1.110   1.478  -1.179  1.00  0.00     0.029 C 
HETATM    8  C10 UNL     1       0.399   1.327  -0.850  1.00  0.00     0.128 C 
HETATM    9  N2  UNL     1       0.454   0.279   0.149  1.00  0.00    -0.328 N 
ENDROOT
BRANCH   9  10
HETATM   10  C11 UNL     1       1.665  -0.273   0.630  1.00  0.00     0.171 C 
HETATM   11  S1  UNL     1       1.658  -1.456   1.789  1.00  0.00    -0.041 SA
BRANCH  10  12
HETATM   12  N3  UNL     1       2.936   0.151   0.161  1.00  0.00    -0.367 N 
ATOM     13  H3  UNL     1       2.991   0.881  -0.550  1.00  0.00     0.161 HD
BRANCH  12  14
HETATM   14  C12 UNL     1       4.135  -0.426   0.667  1.00  0.00     0.124 C 
BRANCH  14  15
HETATM   15  C13 UNL     1       5.338   0.225  -0.020  1.00  0.00     0.046 C 
BRANCH  15  16
HETATM   16  C14 UNL     1       6.572  -0.433   0.564  1.00  0.00     0.165 C 
BRANCH  16  17
HETATM   17  O1  UNL     1       7.719   0.116  -0.022  1.00  0.00    -0.401 OA
ATOM     18  H1  UNL     1       8.493  -0.296   0.344  1.00  0.00     0.209 HD
ENDBRANCH  16  17
ENDBRANCH  15  16
ENDBRANCH  14  15
ENDBRANCH  12  14
ENDBRANCH  10  12
ENDBRANCH   9  10
BRANCH   1  19
HETATM   19  C2  UNL     1      -4.007   0.631  -0.690  1.00  0.00    -0.016 C 
HETATM   20  C1  UNL     1      -5.309  -0.162  -0.478  1.00  0.00     0.010 C 
HETATM   21  C3  UNL     1      -4.058   1.808   0.198  1.00  0.00     0.010 C 
ENDBRANCH   1  19
TORSDOF 7
