REMARK  4 active torsions:
REMARK  status: ('A' for Active; 'I' for Inactive)
REMARK    1  A    between atoms: N1_5  and  C5_6 
REMARK    2  A    between atoms: C5_6  and  C6_7 
REMARK    3  A    between atoms: C6_7  and  C7_8 
REMARK    4  A    between atoms: C7_8  and  N2_9 
REMARK       I    between atoms: C8_11  and  N4_13 
ROOT
HETATM    1  C6  UNL     1      -0.405   0.367  -1.131  1.00  0.00     0.050 C 
ENDROOT
BRANCH   1   2
HETATM    2  C5  UNL     1      -1.847  -0.006  -1.152  1.00  0.00     0.274 C 
BRANCH   2   3
HETATM    3  N1  UNL     1      -2.322  -0.385   0.136  1.00  0.00     0.092 N 
HETATM    4  C4  UNL     1      -3.590  -1.075   0.091  1.00  0.00     0.310 C 
HETATM    5  C2  UNL     1      -4.820  -0.347   0.379  1.00  0.00     0.144 C 
HETATM    6  C1  UNL     1      -5.821  -1.362   0.974  1.00  0.00     0.048 C 
HETATM    7  C3  UNL     1      -5.512   0.193  -0.859  1.00  0.00     0.048 C 
HETATM    8  N5  UNL     1      -4.697   0.708   1.360  1.00  0.00    -0.064 N 
HETATM    9  C15 UNL     1      -3.578   1.537   0.889  1.00  0.00     0.263 C 
ATOM     10  H52 UNL     1      -5.560   1.229   1.517  1.00  0.00     0.278 HD
ATOM     11  H51 UNL     1      -4.588   0.372   2.317  1.00  0.00     0.278 HD
HETATM   12  C14 UNL     1      -2.333   0.711   1.087  1.00  0.00     0.300 C 
ENDBRANCH   2   3
ENDBRANCH   1   2
BRANCH   1  13
HETATM   13  C7  UNL     1       0.361  -0.873  -0.655  1.00  0.00     0.124 C 
BRANCH  13  14
HETATM   14  N2  UNL     1       1.735  -0.674  -0.666  1.00  0.00    -0.364 N 
HETATM   15  C8  UNL     1       2.485   0.047   0.042  1.00  0.00     0.186 C 
HETATM   16  N3  UNL     1       1.977   0.865   1.080  1.00  0.00    -0.064 NA
HETATM   17  N4  UNL     1       3.888   0.038  -0.190  1.00  0.00    -0.356 N 
HETATM   18  C9  UNL     1       4.534  -1.224  -0.459  1.00  0.00     0.125 C 
HETATM   19  C13 UNL     1       4.654   1.251  -0.156  1.00  0.00     0.125 C 
HETATM   20  C10 UNL     1       5.962  -1.105  -0.860  1.00  0.00     0.020 C 
HETATM   21  C11 UNL     1       6.744  -0.015  -0.221  1.00  0.00     0.003 C 
HETATM   22  C12 UNL     1       5.921   0.904   0.648  1.00  0.00     0.020 C 
ATOM     23  H2  UNL     1       2.227  -1.211  -1.380  1.00  0.00     0.162 HD
ENDBRANCH  13  14
ENDBRANCH   1  13
TORSDOF 4
