REMARK  5 active torsions:
REMARK  status: ('A' for Active; 'I' for Inactive)
REMARK    1  A    between atoms: C12_14  and  O3_15 
REMARK    2  A    between atoms: C12_14  and  C13_17 
REMARK    3  A    between atoms: C13_17  and  C14_18 
REMARK    4  A    between atoms: C14_18  and  C15_19 
REMARK    5  A    between atoms: N1_20  and  N2_22 
ROOT
HETATM    1  C1  UNL     1      -2.203   1.020   1.838  1.00  0.00     0.047 C 
HETATM    2  C2  UNL     1      -2.383  -0.082   0.780  1.00  0.00     0.068 C 
HETATM    3  C3  UNL     1      -3.235  -1.155   1.488  1.00  0.00     0.047 C 
HETATM    4  O1  UNL     1      -3.201   0.452  -0.209  1.00  0.00    -0.310 OA
HETATM    5  C4  UNL     1      -2.906   1.426  -1.129  1.00  0.00     0.259 C 
HETATM    6  O2  UNL     1      -3.930   1.998  -1.606  1.00  0.00    -0.265 OA
HETATM    7  C5  UNL     1      -1.649   1.946  -1.681  1.00  0.00     0.112 C 
HETATM    8  C6  UNL     1      -0.425   1.378  -0.988  1.00  0.00     0.022 C 
HETATM    9  C7  UNL     1      -0.434  -0.084  -0.857  1.00  0.00    -0.006 C 
HETATM   10  C8  UNL     1      -1.136  -0.681  -2.092  1.00  0.00     0.019 C 
HETATM   11  C9  UNL     1      -1.077  -0.608   0.405  1.00  0.00     0.031 C 
HETATM   12  C10 UNL     1      -0.984  -2.085   0.187  1.00  0.00     0.011 C 
HETATM   13  C11 UNL     1       0.413  -2.238  -0.370  1.00  0.00     0.039 C 
HETATM   14  C12 UNL     1       0.867  -0.801  -0.771  1.00  0.00     0.066 C 
ENDROOT
BRANCH  14  15
HETATM   15  O3  UNL     1       1.421  -0.992  -2.064  1.00  0.00    -0.389 OA
ATOM     16  H3  UNL     1       2.252  -1.450  -2.009  1.00  0.00     0.210 HD
ENDBRANCH  14  15
BRANCH  14  17
HETATM   17  C13 UNL     1       1.917  -0.411   0.158  1.00  0.00     0.043 C 
BRANCH  17  18
HETATM   18  C14 UNL     1       2.548   0.927   0.087  1.00  0.00     0.049 C 
BRANCH  18  19
HETATM   19  C15 UNL     1       3.630   1.096   1.105  1.00  0.00     0.081 C 
HETATM   20  N1  UNL     1       4.829   0.829   0.778  1.00  0.00    -0.302 N 
ATOM     21  H1  UNL     1       4.992   0.509  -0.177  1.00  0.00     0.187 HD
BRANCH  20  22
HETATM   22  N2  UNL     1       5.931   0.936   1.607  1.00  0.00    -0.250 N 
HETATM   23  N3  UNL     1       6.159   0.001   2.428  1.00  0.00    -0.331 N 
ATOM     24  H32 UNL     1       5.536  -0.805   2.465  1.00  0.00     0.178 HD
ATOM     25  H31 UNL     1       6.972   0.080   3.039  1.00  0.00     0.178 HD
ATOM     26  H2  UNL     1       6.545   1.749   1.558  1.00  0.00     0.207 HD
ENDBRANCH  20  22
ENDBRANCH  18  19
ENDBRANCH  17  18
ENDBRANCH  14  17
TORSDOF 5
