REMARK  5 active torsions:
REMARK  status: ('A' for Active; 'I' for Inactive)
REMARK       I    between atoms: N1_5  and  C5_6 
REMARK    1  A    between atoms: C5_6  and  C6_8 
REMARK    2  A    between atoms: C6_8  and  C7_9 
REMARK    3  A    between atoms: C7_9  and  C8_10 
REMARK    4  A    between atoms: C8_10  and  O2_11 
REMARK    5  A    between atoms: C8_10  and  C9_13 
ROOT
HETATM    1  C1  UNL     1      -2.513   1.784   2.531  1.00  0.00     0.016 C 
HETATM    2  C2  UNL     1      -2.051   1.387   1.143  1.00  0.00    -0.031 C 
HETATM    3  C3  UNL     1      -1.800   2.669   0.377  1.00  0.00     0.016 C 
HETATM    4  C4  UNL     1      -0.738   0.660   1.267  1.00  0.00     0.134 C 
HETATM    5  N1  UNL     1      -0.326   0.264  -0.054  1.00  0.00    -0.351 N 
HETATM    6  C5  UNL     1       1.038   0.374  -0.403  1.00  0.00     0.219 C 
HETATM    7  O1  UNL     1       1.391   0.033  -1.547  1.00  0.00    -0.273 OA
HETATM    8  C12 UNL     1      -1.269  -0.225  -0.984  1.00  0.00     0.137 C 
HETATM    9  C13 UNL     1      -2.648  -0.423  -0.499  1.00  0.00     0.002 C 
HETATM   10  C14 UNL     1      -3.669  -0.438  -1.634  1.00  0.00     0.040 C 
HETATM   11  C15 UNL     1      -4.786  -1.250  -0.997  1.00  0.00     0.233 C 
HETATM   12  N2  UNL     1      -4.164  -2.203  -0.122  1.00  0.00    -0.074 N 
ATOM     13  H21 UNL     1      -4.291  -3.166  -0.435  1.00  0.00     0.277 HD
ATOM     14  H22 UNL     1      -4.643  -2.285   0.775  1.00  0.00     0.277 HD
HETATM   15  C16 UNL     1      -2.778  -1.843   0.020  1.00  0.00     0.243 C 
HETATM   16  C17 UNL     1      -3.129   0.545   0.529  1.00  0.00     0.023 C 
ENDROOT
BRANCH   6  17
HETATM   17  C6  UNL     1       2.019   0.888   0.573  1.00  0.00     0.105 C 
BRANCH  17  18
HETATM   18  C7  UNL     1       3.421   0.544   0.159  1.00  0.00     0.041 C 
BRANCH  18  19
HETATM   19  C8  UNL     1       3.610  -0.929   0.146  1.00  0.00     0.122 C 
BRANCH  19  20
HETATM   20  O2  UNL     1       3.353  -1.379   1.453  1.00  0.00    -0.395 OA
ATOM     21  H2  UNL     1       3.474  -2.321   1.445  1.00  0.00     0.210 HD
ENDBRANCH  19  20
BRANCH  19  22
HETATM   22  C9  UNL     1       4.973  -1.387  -0.315  1.00  0.00     0.014 A 
HETATM   23  C10 UNL     1       6.204  -0.983   0.403  1.00  0.00     0.007 A 
HETATM   24  C11 UNL     1       5.851  -0.418  -0.956  1.00  0.00     0.007 A 
ENDBRANCH  19  22
ENDBRANCH  18  19
ENDBRANCH  17  18
ENDBRANCH   6  17
TORSDOF 5
