REMARK  5 active torsions:
REMARK  status: ('A' for Active; 'I' for Inactive)
REMARK    1  A    between atoms: C2_2  and  N1_3 
REMARK    2  A    between atoms: N1_3  and  C3_5 
REMARK    3  A    between atoms: N3_13  and  C7_15 
REMARK    4  A    between atoms: C7_15  and  C8_16 
REMARK    5  A    between atoms: C8_16  and  N4_17 
ROOT
HETATM    1  C3  UNL     1       2.696  -0.512  -0.370  1.00  0.00     0.680 A 
HETATM    2  N2  UNL     1       2.973  -0.197   0.905  1.00  0.00    -0.180 N 
ATOM      3  H2  UNL     1       3.940  -0.200   1.230  1.00  0.00     0.185 HD
HETATM    4  C4  UNL     1       1.992   0.120   1.748  1.00  0.00     0.140 A 
HETATM    5 CL1  UNL     1       2.350   0.528   3.411  1.00  0.00    -0.062 Cl
HETATM    6  C5  UNL     1       0.668   0.121   1.291  1.00  0.00     0.094 A 
HETATM    7 BR1  UNL     1      -0.655   0.578   2.561  1.00  0.00    -0.044 Br
HETATM    8  C6  UNL     1       0.355  -0.197  -0.003  1.00  0.00     0.137 A 
HETATM    9  N3  UNL     1      -0.801  -0.221  -0.490  1.00  0.00    -0.373 N 
ATOM     10  H3  UNL     1      -0.818  -0.482  -1.476  1.00  0.00     0.161 HD
HETATM   11  N5  UNL     1       1.435  -0.509  -0.795  1.00  0.00    -0.176 N 
ATOM     12  H5  UNL     1       1.258  -0.753  -1.769  1.00  0.00     0.186 HD
ENDROOT
BRANCH   9  13
HETATM   13  C7  UNL     1      -2.067   0.034   0.035  1.00  0.00     0.151 C 
BRANCH  13  14
HETATM   14  C8  UNL     1      -3.176  -0.170  -1.022  1.00  0.00     0.290 C 
BRANCH  14  15
HETATM   15  N4  UNL     1      -4.462   0.091  -0.458  1.00  0.00     0.081 N 
HETATM   16  C9  UNL     1      -4.696   1.469  -0.124  1.00  0.00     0.309 C 
HETATM   17  C10 UNL     1      -4.800  -0.777   0.630  1.00  0.00     0.309 C 
ENDBRANCH  14  15
ENDBRANCH  13  14
ENDBRANCH   9  13
BRANCH   1  18
HETATM   18  N1  UNL     1       3.648  -0.829  -1.211  1.00  0.00    -0.226 N 
ATOM     19  H1  UNL     1       3.378  -1.060  -2.167  1.00  0.00     0.177 HD
BRANCH  18  20
HETATM   20  C2  UNL     1       5.036  -0.874  -0.886  1.00  0.00     0.133 C 
HETATM   21  C1  UNL     1       5.699   0.472  -1.137  1.00  0.00     0.027 C 
ENDBRANCH  18  20
ENDBRANCH   1  18
TORSDOF 5
