REMARK  5 active torsions:
REMARK  status: ('A' for Active; 'I' for Inactive)
REMARK    1  A    between atoms: N2_10  and  C6_11 
REMARK    2  A    between atoms: C6_11  and  C7_12 
REMARK    3  A    between atoms: C7_12  and  C8_13 
REMARK    4  A    between atoms: C8_13  and  C9_14 
REMARK    5  A    between atoms: C12_18  and  O2_19 
ROOT
HETATM    1  C6  UNL     1      -1.827  -0.817   1.181  1.00  0.00     0.275 C 
ENDROOT
BRANCH   1   2
HETATM    2  N2  UNL     1      -2.442  -0.489  -0.047  1.00  0.00     0.122 N 
HETATM    3  C2  UNL     1      -2.736   0.869  -0.310  1.00  0.00     0.247 C 
HETATM    4  C1  UNL     1      -1.675   1.661  -1.018  1.00  0.00     0.069 C 
HETATM    5 CL1  UNL     1      -3.084   1.758   1.221  1.00  0.00    -0.084 Cl
HETATM    6  C3  UNL     1      -3.987   1.018  -1.204  1.00  0.00     0.180 C 
HETATM    7  N1  UNL     1      -5.077   0.481  -0.429  1.00  0.00    -0.356 N 
HETATM    8  C4  UNL     1      -4.856  -0.808   0.120  1.00  0.00     0.246 C 
ATOM      9  H1  UNL     1      -5.948   0.993  -0.285  1.00  0.00     0.162 HD
HETATM   10  O1  UNL     1      -5.661  -1.380   0.862  1.00  0.00    -0.272 OA
HETATM   11  C5  UNL     1      -3.531  -1.395  -0.304  1.00  0.00     0.377 C 
ENDBRANCH   1   2
BRANCH   1  12
HETATM   12  C7  UNL     1      -0.385  -0.402   1.349  1.00  0.00     0.032 C 
BRANCH  12  13
HETATM   13  C8  UNL     1       0.518  -1.034   0.348  1.00  0.00     0.027 C 
BRANCH  13  14
HETATM   14  C9  UNL     1       1.937  -0.626   0.557  1.00  0.00     0.037 C 
HETATM   15 CL2  UNL     1       2.554  -1.082   2.163  1.00  0.00    -0.119 Cl
HETATM   16  C10 UNL     1       2.156   0.847   0.395  1.00  0.00     0.028 C 
HETATM   17  C11 UNL     1       3.595   1.217   0.689  1.00  0.00     0.033 C 
HETATM   18  C12 UNL     1       4.616   0.312   0.107  1.00  0.00     0.118 C 
HETATM   19  C13 UNL     1       4.234  -1.128  -0.017  1.00  0.00     0.033 C 
HETATM   20  C14 UNL     1       2.830  -1.284  -0.518  1.00  0.00     0.028 C 
BRANCH  18  21
HETATM   21  O2  UNL     1       5.130   0.765  -1.107  1.00  0.00    -0.396 OA
ATOM     22  H2  UNL     1       5.784   0.185  -1.480  1.00  0.00     0.210 HD
ENDBRANCH  18  21
ENDBRANCH  13  14
ENDBRANCH  12  13
ENDBRANCH   1  12
TORSDOF 5
