REMARK  4 active torsions:
REMARK  status: ('A' for Active; 'I' for Inactive)
REMARK    1  A    between atoms: C2_2  and  N1_3 
REMARK    2  A    between atoms: C2_2  and  C10_17 
REMARK       I    between atoms: N1_3  and  C3_5 
REMARK    3  A    between atoms: C3_5  and  C4_7 
REMARK       I    between atoms: N2_11  and  C8_12 
REMARK    4  A    between atoms: C8_12  and  C9_14 
ROOT
HETATM    1  N1  UNL     1      -0.599   0.245  -0.874  1.00  0.00    -0.355 N 
ATOM      2  H1  UNL     1      -0.678  -0.378  -1.678  1.00  0.00     0.162 HD
HETATM    3  C3  UNL     1       0.606   0.248  -0.124  1.00  0.00     0.241 C 
HETATM    4  O1  UNL     1       0.801   0.974   0.878  1.00  0.00    -0.271 OA
ENDROOT
BRANCH   3   5
HETATM    5  C4  UNL     1       1.705  -0.657  -0.541  1.00  0.00     0.179 C 
HETATM    6  C5  UNL     1       2.174  -0.314  -1.930  1.00  0.00     0.037 C 
HETATM    7  C6  UNL     1       3.664  -0.370  -1.833  1.00  0.00     0.022 C 
HETATM    8  C7  UNL     1       3.921   0.107  -0.406  1.00  0.00     0.127 C 
HETATM    9  N2  UNL     1       2.861  -0.538   0.322  1.00  0.00    -0.336 N 
HETATM   10  C8  UNL     1       2.912  -0.979   1.660  1.00  0.00     0.253 C 
HETATM   11  O2  UNL     1       1.876  -1.512   2.163  1.00  0.00    -0.270 OA
BRANCH  10  12
HETATM   12  C9  UNL     1       4.137  -0.839   2.492  1.00  0.00     0.270 C 
HETATM   13 CL1  UNL     1       5.426  -1.865   1.855  1.00  0.00    -0.098 Cl
HETATM   14 CL2  UNL     1       4.618   0.891   2.374  1.00  0.00    -0.098 Cl
ENDBRANCH  10  12
ENDBRANCH   3   5
BRANCH   1  15
HETATM   15  C2  UNL     1      -1.729   1.103  -0.533  1.00  0.00     0.086 C 
HETATM   16  C1  UNL     1      -2.093   2.032  -1.651  1.00  0.00     0.032 C 
BRANCH  15  17
HETATM   17  C10 UNL     1      -2.878   0.215  -0.188  1.00  0.00     0.035 C 
HETATM   18  C11 UNL     1      -2.499  -0.725   0.949  1.00  0.00     0.036 C 
HETATM   19  C12 UNL     1      -3.882  -1.125   1.444  1.00  0.00     0.232 C 
HETATM   20  N3  UNL     1      -4.766  -0.041   1.137  1.00  0.00    -0.075 N 
HETATM   21  C13 UNL     1      -4.037   0.966   0.432  1.00  0.00     0.239 C 
ATOM     22  H32 UNL     1      -5.596  -0.348   0.629  1.00  0.00     0.277 HD
ATOM     23  H31 UNL     1      -5.234   0.326   1.966  1.00  0.00     0.277 HD
ENDBRANCH  15  17
ENDBRANCH   1  15
TORSDOF 4
