REMARK  4 active torsions:
REMARK  status: ('A' for Active; 'I' for Inactive)
REMARK       I    between atoms: N2_3  and  C2_5 
REMARK       I    between atoms: C2_5  and  N4_9 
REMARK    1  A    between atoms: N4_9  and  C3_11 
REMARK    2  A    between atoms: C3_11  and  C4_12 
REMARK    3  A    between atoms: C4_12  and  N5_13 
REMARK    4  A    between atoms: N6_16  and  C7_17 
ROOT
HETATM    1  N1  UNL     1      -8.183  -1.336   1.886  1.00  0.00    -0.171 NA
HETATM    2  C1  UNL     1      -7.374  -0.862   1.186  1.00  0.00     0.196 C 
HETATM    3  N2  UNL     1      -6.411  -0.321   0.350  1.00  0.00    -0.125 N 
ATOM      4  H2  UNL     1      -6.467   0.661   0.080  1.00  0.00     0.197 HD
HETATM    5  C2  UNL     1      -5.358  -1.117  -0.128  1.00  0.00     0.701 C 
HETATM    6  N3  UNL     1      -5.553  -2.320  -0.538  1.00  0.00    -0.130 N 
ATOM      7  H3  UNL     1      -6.500  -2.699  -0.513  1.00  0.00     0.199 HD
HETATM    8 CL1  UNL     1      -4.275  -3.318  -1.129  1.00  0.00     0.026 Cl
HETATM    9  N4  UNL     1      -3.999  -0.613  -0.186  1.00  0.00    -0.202 N 
ATOM     10  H4  UNL     1      -3.268  -1.097  -0.708  1.00  0.00     0.183 HD
ENDROOT
BRANCH   9  11
HETATM   11  C3  UNL     1      -3.743   0.578   0.515  1.00  0.00     0.109 C 
BRANCH  11  12
HETATM   12  C4  UNL     1      -2.455   1.254   0.440  1.00  0.00     0.317 C 
BRANCH  12  13
HETATM   13  N5  UNL     1      -1.256   0.540   0.833  1.00  0.00     0.096 N 
HETATM   14  C5  UNL     1      -0.247   1.501   1.248  1.00  0.00     0.303 C 
HETATM   15  C6  UNL     1       1.130   1.000   1.288  1.00  0.00     0.303 C 
HETATM   16  N6  UNL     1       1.507   0.219   0.100  1.00  0.00     0.099 N 
HETATM   17  C13 UNL     1       0.462   0.456  -0.861  1.00  0.00     0.303 C 
HETATM   18  C14 UNL     1      -0.802  -0.220  -0.309  1.00  0.00     0.303 C 
BRANCH  16  19
HETATM   19  C7  UNL     1       2.817   0.654  -0.369  1.00  0.00     0.256 C 
HETATM   20  C8  UNL     1       3.867   0.430   0.691  1.00  0.00     0.038 C 
HETATM   21  C9  UNL     1       5.109  -0.243   0.238  1.00  0.00     0.002 C 
HETATM   22  C10 UNL     1       4.877  -1.490  -0.568  1.00  0.00     0.003 C 
HETATM   23  C11 UNL     1       3.484  -1.546  -1.156  1.00  0.00     0.039 C 
HETATM   24  C12 UNL     1       3.180  -0.116  -1.604  1.00  0.00     0.203 C 
HETATM   25  F1  UNL     1       4.355   0.404  -2.188  1.00  0.00    -0.247 F 
ENDBRANCH  16  19
ENDBRANCH  12  13
ENDBRANCH  11  12
ENDBRANCH   9  11
TORSDOF 4
