REMARK  4 active torsions:
REMARK  status: ('A' for Active; 'I' for Inactive)
REMARK    1  A    between atoms: N2_5  and  C4_6 
REMARK    2  A    between atoms: C4_6  and  C5_7 
REMARK    3  A    between atoms: C5_7  and  N3_8 
REMARK       I    between atoms: N3_8  and  C6_10 
REMARK       I    between atoms: C6_10  and  N4_12 
REMARK    4  A    between atoms: N4_12  and  C7_14 
ROOT
HETATM    1  N3  UNL     1      -0.001   0.866  -1.308  1.00  0.00    -0.342 N 
ATOM      2  H3  UNL     1       0.090   1.271  -2.240  1.00  0.00     0.164 HD
HETATM    3  C6  UNL     1       1.168   0.480  -0.624  1.00  0.00     0.316 C 
HETATM    4  O1  UNL     1       1.042  -0.004   0.530  1.00  0.00    -0.247 OA
HETATM    5  N4  UNL     1       2.454   0.637  -1.233  1.00  0.00    -0.337 N 
ATOM      6  H4  UNL     1       2.506   1.035  -2.171  1.00  0.00     0.164 HD
ENDROOT
BRANCH   1   7
HETATM    7  C5  UNL     1      -1.311   0.714  -0.751  1.00  0.00     0.143 C 
BRANCH   7   8
HETATM    8  C4  UNL     1      -1.703  -0.698  -0.465  1.00  0.00     0.136 C 
BRANCH   8   9
HETATM    9  N2  UNL     1      -3.012  -0.839   0.088  1.00  0.00    -0.408 N 
HETATM   10  C3  UNL     1      -3.209  -0.338   1.403  1.00  0.00     0.147 C 
HETATM   11  C2  UNL     1      -4.505  -0.977   1.925  1.00  0.00     0.291 C 
HETATM   12  N1  UNL     1      -5.594  -0.500   1.123  1.00  0.00     0.087 N 
HETATM   13  C1  UNL     1      -6.516   0.292   1.887  1.00  0.00     0.310 C 
HETATM   14  C14 UNL     1      -5.224   0.173  -0.081  1.00  0.00     0.291 C 
HETATM   15  C13 UNL     1      -4.091  -0.558  -0.803  1.00  0.00     0.147 C 
ENDBRANCH   8   9
ENDBRANCH   7   8
ENDBRANCH   1   7
BRANCH   5  16
HETATM   16  C7  UNL     1       3.666   0.259  -0.580  1.00  0.00     0.104 C 
HETATM   17  C8  UNL     1       4.277  -0.904  -1.326  1.00  0.00     0.027 C 
HETATM   18  C9  UNL     1       5.582  -1.351  -0.709  1.00  0.00     0.002 C 
HETATM   19  C10 UNL     1       6.495  -0.180  -0.417  1.00  0.00     0.002 C 
HETATM   20  C11 UNL     1       5.814   0.869   0.424  1.00  0.00     0.022 C 
HETATM   21  C12 UNL     1       4.621   1.379  -0.332  1.00  0.00     0.105 C 
HETATM   22 CL1  UNL     1       3.789   2.562   0.725  1.00  0.00    -0.123 Cl
ENDBRANCH   5  16
TORSDOF 4
