REMARK  4 active torsions:
REMARK  status: ('A' for Active; 'I' for Inactive)
REMARK       I    between atoms: C1_2  and  N1_3 
REMARK    1  A    between atoms: C1_2  and  C5_8 
REMARK    2  A    between atoms: N1_3  and  C2_5 
REMARK       I    between atoms: N2_11  and  C8_12 
REMARK       I    between atoms: C8_12  and  N3_14 
REMARK    3  A    between atoms: N3_14  and  N4_16 
REMARK    4  A    between atoms: C9_18  and  C10_19 
ROOT
HETATM    1  C5  UNL     1      -1.109   0.502   0.102  1.00  0.00     0.081 C 
HETATM    2  C6  UNL     1      -0.052   1.099   0.951  1.00  0.00     0.034 C 
HETATM    3  C7  UNL     1       1.268   0.440   0.922  1.00  0.00     0.128 C 
HETATM    4  N2  UNL     1       1.540  -0.398  -0.190  1.00  0.00    -0.333 N 
HETATM    5  C8  UNL     1       2.854  -0.878  -0.401  1.00  0.00     0.336 C 
HETATM    6  O2  UNL     1       3.139  -1.622  -1.374  1.00  0.00    -0.245 OA
HETATM    7  N3  UNL     1       3.878  -0.517   0.499  1.00  0.00    -0.252 N 
ATOM      8  H3  UNL     1       3.670   0.086   1.295  1.00  0.00     0.191 HD
HETATM    9  C11 UNL     1       0.515  -0.789  -1.133  1.00  0.00     0.128 C 
HETATM   10  C12 UNL     1      -0.769  -0.916  -0.300  1.00  0.00     0.034 C 
ENDROOT
BRANCH   7  11
HETATM   11  N4  UNL     1       5.165  -0.983   0.298  1.00  0.00    -0.309 N 
HETATM   12  C9  UNL     1       6.193  -0.231   0.232  1.00  0.00     0.116 C 
ATOM     13  H4  UNL     1       5.300  -1.989   0.196  1.00  0.00     0.185 HD
BRANCH  12  14
HETATM   14  C10 UNL     1       6.093   1.234   0.368  1.00  0.00     0.218 C 
HETATM   15 CL1  UNL     1       5.752   1.670   2.077  1.00  0.00    -0.102 Cl
HETATM   16 CL2  UNL     1       4.765   1.842  -0.632  1.00  0.00    -0.102 Cl
ENDBRANCH  12  14
ENDBRANCH   7  11
BRANCH   1  17
HETATM   17  C1  UNL     1      -2.453   0.522   0.681  1.00  0.00     0.222 C 
HETATM   18  O1  UNL     1      -2.701   1.012   1.821  1.00  0.00    -0.273 OA
HETATM   19  N1  UNL     1      -3.536  -0.024  -0.050  1.00  0.00    -0.356 N 
ATOM     20  H1  UNL     1      -3.369  -0.426  -0.973  1.00  0.00     0.162 HD
BRANCH  19  21
HETATM   21  C2  UNL     1      -4.887  -0.020   0.498  1.00  0.00     0.084 A 
HETATM   22  C3  UNL     1      -6.043   0.098  -0.421  1.00  0.00     0.027 A 
HETATM   23  C4  UNL     1      -5.714  -1.261   0.133  1.00  0.00     0.027 A 
ENDBRANCH  19  21
ENDBRANCH   1  17
TORSDOF 4
