REMARK  5 active torsions:
REMARK  status: ('A' for Active; 'I' for Inactive)
REMARK    1  A    between atoms: C3_6  and  C4_7 
REMARK    2  A    between atoms: C4_7  and  N2_8 
REMARK    3  A    between atoms: C8_12  and  C9_13 
REMARK    4  A    between atoms: N3_20  and  C13_21 
REMARK    5  A    between atoms: C13_21  and  C14_22 
ROOT
HETATM    1  O1  UNL     1       4.175  -3.261  -0.636  1.00  0.00    -0.247 OA
HETATM    2  C1  UNL     1       3.077  -2.655  -0.541  1.00  0.00     0.316 C 
HETATM    3  N1  UNL     1       2.151  -2.893   0.509  1.00  0.00    -0.342 N 
ATOM      4  H1  UNL     1       2.357  -3.509   1.296  1.00  0.00     0.164 HD
HETATM    5  C2  UNL     1       0.875  -2.182   0.372  1.00  0.00     0.143 C 
HETATM    6  C3  UNL     1       1.101  -0.735   0.087  1.00  0.00     0.056 C 
HETATM    7  C12 UNL     1       2.056  -0.250   1.212  1.00  0.00     0.291 C 
HETATM    8  N3  UNL     1       2.699   0.915   0.617  1.00  0.00     0.097 N 
HETATM    9  C15 UNL     1       2.972   0.555  -0.731  1.00  0.00     0.298 C 
HETATM   10  C16 UNL     1       1.965  -0.511  -1.134  1.00  0.00     0.131 C 
HETATM   11  N4  UNL     1       2.708  -1.680  -1.507  1.00  0.00    -0.336 N 
ATOM     12  H4  UNL     1       2.976  -1.814  -2.482  1.00  0.00     0.164 HD
ENDROOT
BRANCH   6  13
HETATM   13  C4  UNL     1      -0.148   0.049   0.124  1.00  0.00     0.078 C 
BRANCH  13  14
HETATM   14  N2  UNL     1      -1.212  -0.234  -0.744  1.00  0.00    -0.373 N 
HETATM   15  C5  UNL     1      -1.985  -1.393  -0.602  1.00  0.00     0.063 C 
HETATM   16  C6  UNL     1      -3.486  -1.153  -0.703  1.00  0.00     0.045 C 
HETATM   17  C7  UNL     1      -4.027  -0.451   0.525  1.00  0.00     0.019 C 
HETATM   18  C8  UNL     1      -4.109   1.032   0.154  1.00  0.00     0.095 C 
HETATM   19  C10 UNL     1      -2.695   1.543   0.118  1.00  0.00     0.033 C 
HETATM   20  C11 UNL     1      -1.929   0.991  -1.039  1.00  0.00     0.127 C 
BRANCH  18  21
HETATM   21  C9  UNL     1      -4.965   1.753   1.156  1.00  0.00     0.391 C 
HETATM   22  F1  UNL     1      -5.048   3.090   0.833  1.00  0.00    -0.171 F 
HETATM   23  F2  UNL     1      -6.257   1.231   1.025  1.00  0.00    -0.171 F 
HETATM   24  F3  UNL     1      -4.577   1.538   2.459  1.00  0.00    -0.171 F 
ENDBRANCH  18  21
ENDBRANCH  13  14
ENDBRANCH   6  13
BRANCH   8  25
HETATM   25  C13 UNL     1       3.920   1.215   1.315  1.00  0.00     0.343 C 
BRANCH  25  26
HETATM   26  C14 UNL     1       4.591   2.460   0.796  1.00  0.00     0.381 C 
HETATM   27  F4  UNL     1       5.764   2.718   1.510  1.00  0.00    -0.213 F 
HETATM   28  F5  UNL     1       4.976   2.359  -0.522  1.00  0.00    -0.213 F 
ENDBRANCH  25  26
ENDBRANCH   8  25
TORSDOF 5
