REMARK  5 active torsions:
REMARK  status: ('A' for Active; 'I' for Inactive)
REMARK    1  A    between atoms: C2_2  and  N1_3 
REMARK    2  A    between atoms: N1_3  and  C3_5 
REMARK    3  A    between atoms: C3_5  and  C4_6 
REMARK    4  A    between atoms: C3_5  and  C10_18 
REMARK       I    between atoms: C4_6  and  N2_8 
REMARK    5  A    between atoms: C8_14  and  C9_15 
ROOT
HETATM    1  C4  UNL     1       0.101  -0.625  -0.624  1.00  0.00     0.247 C 
HETATM    2  O1  UNL     1      -0.436  -0.665  -1.755  1.00  0.00    -0.271 OA
HETATM    3  N2  UNL     1       1.530  -0.590  -0.605  1.00  0.00    -0.330 N 
HETATM    4  C5  UNL     1       2.331  -0.725  -1.838  1.00  0.00     0.206 C 
HETATM    5  C6  UNL     1       3.656  -0.084  -1.532  1.00  0.00     0.262 C 
HETATM    6  F1  UNL     1       3.534   1.285  -1.585  1.00  0.00    -0.204 F 
HETATM    7  F2  UNL     1       4.658  -0.549  -2.341  1.00  0.00    -0.204 F 
HETATM    8  C7  UNL     1       3.858  -0.488  -0.075  1.00  0.00     0.117 C 
HETATM    9  C8  UNL     1       2.427  -0.352   0.466  1.00  0.00     0.194 C 
ENDROOT
BRANCH   1  10
HETATM   10  C3  UNL     1      -0.666  -0.605   0.645  1.00  0.00     0.225 C 
BRANCH  10  11
HETATM   11  N1  UNL     1      -1.672   0.313   0.733  1.00  0.00    -0.398 N 
ATOM     12  H1  UNL     1      -1.505   0.964   1.500  1.00  0.00     0.155 HD
BRANCH  11  13
HETATM   13  C2  UNL     1      -2.842   0.610   0.086  1.00  0.00     0.023 A 
HETATM   14  C1  UNL     1      -4.111  -0.236   0.057  1.00  0.00     0.038 C 
HETATM   15  C11 UNL     1      -2.818   1.669  -1.057  1.00  0.00     0.032 A 
HETATM   16  C12 UNL     1      -3.220   2.127   0.266  1.00  0.00     0.032 A 
ENDBRANCH  11  13
ENDBRANCH  10  11
BRANCH  10  17
HETATM   17  C10 UNL     1      -1.145  -2.017   0.986  1.00  0.00     0.216 C 
HETATM   18 CL1  UNL     1      -1.861  -2.049   2.609  1.00  0.00    -0.081 Cl
HETATM   19 CL2  UNL     1       0.300  -3.125   1.126  1.00  0.00    -0.081 Cl
HETATM   20 CL3  UNL     1      -2.174  -2.786  -0.173  1.00  0.00    -0.081 Cl
ENDBRANCH  10  17
ENDBRANCH   1  10
BRANCH   9  21
HETATM   21  C9  UNL     1       2.353   1.039   0.991  1.00  0.00     0.197 C 
HETATM   22  O2  UNL     1       1.574   1.850   0.485  1.00  0.00    -0.646 OA
HETATM   23  O3  UNL     1       3.163   1.388   2.038  1.00  0.00    -0.646 OA
ENDBRANCH   9  21
TORSDOF 5
