REMARK  10 active torsions:
REMARK  status: ('A' for Active; 'I' for Inactive)
REMARK    1  A    between atoms: C3_3  and  C4_4 
REMARK    2  A    between atoms: C3_3  and  C9_11 
REMARK    3  A    between atoms: C4_4  and  O2_6 
REMARK    4  A    between atoms: O2_6  and  C5_7 
REMARK    5  A    between atoms: C5_7  and  C6_8 
REMARK    6  A    between atoms: C9_11  and  C15_17 
REMARK    7  A    between atoms: C10_12  and  C11_13 
REMARK    8  A    between atoms: C11_13  and  C12_14 
REMARK    9  A    between atoms: C15_17  and  C16_18 
REMARK   10  A    between atoms: C16_18  and  C17_19 
ROOT
HETATM    1  C1  UNL     1       0.848  -3.206  -2.561  1.00  0.00     0.037 C 
HETATM    2  C2  UNL     1      -0.080  -2.215  -2.008  1.00  0.00    -0.013 C 
HETATM    3  C3  UNL     1       0.291  -1.312  -1.096  1.00  0.00     0.041 C 
ENDROOT
BRANCH   3   4
HETATM    4  C4  UNL     1       1.658  -1.295  -0.632  1.00  0.00     0.293 C 
HETATM    5  O1  UNL     1       2.504  -2.142  -1.104  1.00  0.00    -0.259 OA
BRANCH   4   6
HETATM    6  O2  UNL     1       2.238  -0.461   0.299  1.00  0.00    -0.317 OA
BRANCH   6   7
HETATM    7  C5  UNL     1       3.601  -0.556   0.668  1.00  0.00     0.183 C 
BRANCH   7   8
HETATM    8  C6  UNL     1       3.995   0.449   1.693  1.00  0.00     0.002 C 
HETATM    9  C7  UNL     1       3.776   1.854   1.175  1.00  0.00     0.011 C 
HETATM   10  C8  UNL     1       5.465   0.218   2.016  1.00  0.00     0.011 C 
ENDBRANCH   7   8
ENDBRANCH   6   7
ENDBRANCH   4   6
ENDBRANCH   3   4
BRANCH   3  11
HETATM   11  C9  UNL     1      -0.759  -0.421  -0.550  1.00  0.00    -0.046 C 
HETATM   12  C10 UNL     1      -0.452   0.519   0.292  1.00  0.00    -0.018 C 
BRANCH  12  13
HETATM   13  C11 UNL     1      -1.466   1.431   0.873  1.00  0.00     0.031 C 
BRANCH  13  14
HETATM   14  C12 UNL     1      -1.265   2.852   0.394  1.00  0.00    -0.019 C 
HETATM   15  C13 UNL     1      -2.301   3.763   0.993  1.00  0.00     0.010 C 
HETATM   16  C14 UNL     1       0.095   3.396   0.737  1.00  0.00     0.010 C 
ENDBRANCH  13  14
ENDBRANCH  12  13
BRANCH  11  17
HETATM   17  C15 UNL     1      -2.145  -0.571  -0.996  1.00  0.00     0.039 C 
BRANCH  17  18
HETATM   18  C16 UNL     1      -2.850  -1.821  -0.539  1.00  0.00     0.004 C 
BRANCH  18  19
HETATM   19  C17 UNL     1      -4.247  -1.768  -1.148  1.00  0.00    -0.004 C 
HETATM   20  C18 UNL     1      -5.060  -2.974  -0.762  1.00  0.00     0.005 C 
ENDBRANCH  18  19
ENDBRANCH  17  18
ENDBRANCH  11  17
ENDBRANCH   3  11
TORSDOF 10
