REMARK  10 active torsions:
REMARK  status: ('A' for Active; 'I' for Inactive)
REMARK    1  A    between atoms: C2_2  and  C3_3 
REMARK    2  A    between atoms: C3_3  and  C4_4 
REMARK    3  A    between atoms: C4_4  and  C5_5 
REMARK    4  A    between atoms: C9_9  and  C10_10 
REMARK    5  A    between atoms: C10_10  and  C11_11 
REMARK    6  A    between atoms: C11_11  and  C12_12 
REMARK    7  A    between atoms: C12_12  and  O1_13 
REMARK    8  A    between atoms: C13_15  and  C14_16 
REMARK    9  A    between atoms: C14_16  and  C15_17 
REMARK   10  A    between atoms: C15_17  and  O2_20 
ROOT
HETATM    1  C5  UNL     1       1.582  -0.353  -0.443  1.00  0.00    -0.057 A 
HETATM    2  C6  UNL     1       1.336   0.758  -1.174  1.00  0.00     0.014 A 
HETATM    3  C7  UNL     1       0.058   1.320  -1.135  1.00  0.00    -0.055 A 
HETATM    4  C8  UNL     1      -0.161   2.544  -1.965  1.00  0.00     0.049 C 
HETATM    5  C9  UNL     1      -0.962   0.784  -0.379  1.00  0.00    -0.046 A 
HETATM    6  C13 UNL     1      -0.664  -0.345   0.341  1.00  0.00    -0.048 A 
HETATM    7  C18 UNL     1       0.609  -0.934   0.325  1.00  0.00     0.014 A 
ENDROOT
BRANCH   6   8
HETATM    8  C14 UNL     1      -1.685  -1.083   1.078  1.00  0.00     0.076 C 
BRANCH   8   9
HETATM    9  C15 UNL     1      -2.362  -2.189   0.318  1.00  0.00     0.054 C 
HETATM   10  C16 UNL     1      -3.076  -1.846  -0.923  1.00  0.00     0.045 C 
HETATM   11  C17 UNL     1      -1.399  -3.321   0.002  1.00  0.00     0.045 C 
BRANCH   9  12
HETATM   12  O2  UNL     1      -3.306  -2.759   1.208  1.00  0.00    -0.390 OA
ATOM     13  H2  UNL     1      -3.734  -3.458   0.728  1.00  0.00     0.210 HD
ENDBRANCH   9  12
ENDBRANCH   8   9
ENDBRANCH   6   8
BRANCH   5  14
HETATM   14  C10 UNL     1      -2.249   1.452  -0.314  1.00  0.00     0.042 C 
BRANCH  14  15
HETATM   15  C11 UNL     1      -2.186   2.724   0.548  1.00  0.00     0.030 C 
BRANCH  15  16
HETATM   16  C12 UNL     1      -3.537   3.403   0.608  1.00  0.00     0.164 C 
BRANCH  16  17
HETATM   17  O1  UNL     1      -4.520   2.604   1.148  1.00  0.00    -0.401 OA
ATOM     18  H1  UNL     1      -5.368   3.030   1.186  1.00  0.00     0.209 HD
ENDBRANCH  16  17
ENDBRANCH  15  16
ENDBRANCH  14  15
ENDBRANCH   5  14
BRANCH   1  19
HETATM   19  C4  UNL     1       2.939  -0.957  -0.476  1.00  0.00     0.038 C 
BRANCH  19  20
HETATM   20  C3  UNL     1       3.825  -0.354   0.609  1.00  0.00     0.004 C 
BRANCH  20  21
HETATM   21  C2  UNL     1       5.184  -1.017   0.507  1.00  0.00    -0.004 C 
HETATM   22  C1  UNL     1       6.119  -0.458   1.556  1.00  0.00     0.005 C 
ENDBRANCH  20  21
ENDBRANCH  19  20
ENDBRANCH   1  19
TORSDOF 10
