REMARK  19 active torsions:
REMARK  status: ('A' for Active; 'I' for Inactive)
REMARK    1  A    between atoms: C3_4  and  C4_5 
REMARK    2  A    between atoms: N2_8  and  C7_9 
REMARK    3  A    between atoms: C7_9  and  C8_10 
REMARK    4  A    between atoms: C8_10  and  C9_11 
REMARK    5  A    between atoms: C9_11  and  C10_12 
REMARK    6  A    between atoms: C10_12  and  C11_13 
REMARK    7  A    between atoms: C11_13  and  C12_14 
REMARK    8  A    between atoms: C12_14  and  N3_15 
REMARK    9  A    between atoms: C15_18  and  C16_19 
REMARK   10  A    between atoms: C16_19  and  S1_20 
REMARK   11  A    between atoms: S1_20  and  C17_21 
REMARK   12  A    between atoms: C17_21  and  C18_22 
REMARK   13  A    between atoms: C18_22  and  C19_23 
REMARK   14  A    between atoms: C19_23  and  C20_24 
REMARK       I    between atoms: C20_24  and  N4_26 
REMARK   15  A    between atoms: N4_26  and  C21_28 
REMARK   16  A    between atoms: C21_28  and  C22_29 
REMARK   17  A    between atoms: C22_29  and  O2_30 
REMARK   18  A    between atoms: C27_38  and  N6_39 
REMARK   19  A    between atoms: C28_44  and  N8_45 
ROOT
HETATM    1  N1  UNL     1      -9.972   0.545   2.783  1.00  0.00    -0.191 NA
HETATM    2  C1  UNL     1      -9.950   0.068   1.724  1.00  0.00     0.105 C 
HETATM    3  C2  UNL     1      -9.945  -0.485   0.392  1.00  0.00     0.116 A 
HETATM    4  C3  UNL     1      -8.830  -0.923  -0.232  1.00  0.00     0.084 A 
HETATM    5  N5  UNL     1      -8.998  -1.329  -1.531  1.00  0.00    -0.190 N 
ATOM      6  H5  UNL     1      -8.179  -1.665  -2.037  1.00  0.00     0.184 HD
HETATM    7  C27 UNL     1     -10.169  -1.312  -2.174  1.00  0.00     0.678 A 
HETATM    8  N7  UNL     1     -11.254  -0.874  -1.522  1.00  0.00    -0.176 N 
ATOM      9  H7  UNL     1     -12.150  -0.860  -2.009  1.00  0.00     0.186 HD
HETATM   10  C28 UNL     1     -11.201  -0.455  -0.257  1.00  0.00     0.138 A 
ENDROOT
BRANCH   4  11
HETATM   11  C4  UNL     1      -7.495  -0.918   0.347  1.00  0.00    -0.005 A 
HETATM   12  C5  UNL     1      -7.156  -1.047   1.657  1.00  0.00     0.031 A 
HETATM   13  C6  UNL     1      -5.820  -0.931   2.076  1.00  0.00     0.091 A 
HETATM   14  N2  UNL     1      -4.808  -0.691   1.236  1.00  0.00    -0.366 N 
HETATM   15  C25 UNL     1      -5.114  -0.564  -0.045  1.00  0.00     0.091 A 
HETATM   16  C26 UNL     1      -6.398  -0.666  -0.512  1.00  0.00     0.031 A 
BRANCH  14  17
HETATM   17  C7  UNL     1      -3.484  -0.602   1.807  1.00  0.00     0.128 C 
BRANCH  17  18
HETATM   18  C8  UNL     1      -3.079   0.757   2.256  1.00  0.00     0.020 C 
BRANCH  18  19
HETATM   19  C9  UNL     1      -3.010   1.844   1.295  1.00  0.00     0.002 C 
BRANCH  19  20
HETATM   20  C10 UNL     1      -2.172   1.860   0.113  1.00  0.00     0.002 C 
BRANCH  20  21
HETATM   21  C11 UNL     1      -0.695   1.787   0.204  1.00  0.00     0.020 C 
BRANCH  21  22
HETATM   22  C12 UNL     1      -0.070   0.576   0.789  1.00  0.00     0.128 C 
BRANCH  22  23
HETATM   23  N3  UNL     1       1.401   0.676   0.759  1.00  0.00    -0.366 N 
HETATM   24  C13 UNL     1       2.037   1.228   1.811  1.00  0.00     0.091 A 
HETATM   25  C14 UNL     1       3.402   1.360   1.857  1.00  0.00     0.025 A 
HETATM   26  C15 UNL     1       4.159   0.920   0.805  1.00  0.00    -0.046 A 
HETATM   27  C23 UNL     1       3.505   0.356  -0.268  1.00  0.00     0.025 A 
HETATM   28  C24 UNL     1       2.122   0.237  -0.284  1.00  0.00     0.091 A 
BRANCH  26  29
HETATM   29  C16 UNL     1       5.632   1.073   0.869  1.00  0.00     0.112 C 
BRANCH  29  30
HETATM   30  S1  UNL     1       6.317  -0.423   1.629  1.00  0.00    -0.165 SA
BRANCH  30  31
HETATM   31  C17 UNL     1       6.016  -1.809   0.489  1.00  0.00     0.075 C 
BRANCH  31  32
HETATM   32  C18 UNL     1       6.860  -1.518  -0.755  1.00  0.00     0.019 C 
BRANCH  32  33
HETATM   33  C19 UNL     1       8.292  -1.445  -0.297  1.00  0.00     0.103 C 
BRANCH  33  34
HETATM   34  C20 UNL     1       9.188  -1.163  -1.453  1.00  0.00     0.217 C 
HETATM   35  O1  UNL     1       8.667  -1.044  -2.588  1.00  0.00    -0.274 OA
HETATM   36  N4  UNL     1      10.578  -1.030  -1.296  1.00  0.00    -0.359 N 
ATOM     37  H4  UNL     1      10.980  -1.135  -0.365  1.00  0.00     0.162 HD
BRANCH  36  38
HETATM   38  C21 UNL     1      11.446  -0.754  -2.393  1.00  0.00     0.148 C 
BRANCH  38  39
HETATM   39  C22 UNL     1      11.123   0.560  -3.037  1.00  0.00     0.183 C 
BRANCH  39  40
HETATM   40  O2  UNL     1      11.260   1.576  -2.090  1.00  0.00    -0.399 OA
ATOM     41  H2  UNL     1      11.055   2.409  -2.498  1.00  0.00     0.209 HD
ENDBRANCH  39  40
ENDBRANCH  38  39
ENDBRANCH  36  38
ENDBRANCH  33  34
ENDBRANCH  32  33
ENDBRANCH  31  32
ENDBRANCH  30  31
ENDBRANCH  29  30
ENDBRANCH  26  29
ENDBRANCH  22  23
ENDBRANCH  21  22
ENDBRANCH  20  21
ENDBRANCH  19  20
ENDBRANCH  18  19
ENDBRANCH  17  18
ENDBRANCH  14  17
ENDBRANCH   4  11
BRANCH  10  42
HETATM   42  N8  UNL     1     -12.268  -0.032   0.361  1.00  0.00    -0.384 N 
ATOM     43  H82 UNL     1     -12.227   0.288   1.329  1.00  0.00     0.157 HD
ATOM     44  H81 UNL     1     -13.174  -0.010  -0.107  1.00  0.00     0.157 HD
ENDBRANCH  10  42
BRANCH   7  45
HETATM   45  N6  UNL     1     -10.264  -1.716  -3.422  1.00  0.00    -0.234 N 
ATOM     46  H62 UNL     1      -9.438  -2.050  -3.918  1.00  0.00     0.174 HD
ATOM     47  H61 UNL     1     -11.158  -1.703  -3.913  1.00  0.00     0.174 HD
ENDBRANCH   7  45
TORSDOF 19
