REMARK  16 active torsions:
REMARK  status: ('A' for Active; 'I' for Inactive)
REMARK    1  A    between atoms: C2_2  and  C3_3 
REMARK    2  A    between atoms: C3_3  and  N1_4 
REMARK    3  A    between atoms: C3_3  and  C4_8 
REMARK       I    between atoms: C4_8  and  N2_10 
REMARK    4  A    between atoms: N2_10  and  C5_12 
REMARK    5  A    between atoms: C5_12  and  C6_13 
REMARK    6  A    between atoms: C6_13  and  C7_14 
REMARK    7  A    between atoms: C6_13  and  N3_21 
REMARK    8  A    between atoms: C7_14  and  C8_15 
REMARK       I    between atoms: N3_21  and  C14_23 
REMARK    9  A    between atoms: C14_23  and  C15_25 
REMARK   10  A    between atoms: C15_25  and  C16_26 
REMARK   11  A    between atoms: C15_25  and  N4_30 
REMARK   12  A    between atoms: C16_26  and  C17_27 
REMARK       I    between atoms: N4_30  and  C20_32 
REMARK   13  A    between atoms: C20_32  and  C21_34 
REMARK   14  A    between atoms: C21_34  and  C22_35 
REMARK   15  A    between atoms: C21_34  and  N5_42 
REMARK   16  A    between atoms: C22_35  and  C23_36 
ROOT
HETATM    1  N3  UNL     1      -1.538  -1.389  -0.050  1.00  0.00    -0.353 N 
ATOM      2  H3  UNL     1      -1.758  -2.096   0.652  1.00  0.00     0.163 HD
HETATM    3  C14 UNL     1      -0.213  -1.258  -0.483  1.00  0.00     0.240 C 
HETATM    4  O2  UNL     1       0.049  -0.384  -1.344  1.00  0.00    -0.271 OA
ENDROOT
BRANCH   3   5
HETATM    5  C15 UNL     1       0.904  -2.096   0.019  1.00  0.00     0.177 C 
BRANCH   5   6
HETATM    6  C16 UNL     1       0.984  -2.134   1.516  1.00  0.00     0.038 C 
BRANCH   6   7
HETATM    7  C17 UNL     1       2.110  -2.975   2.028  1.00  0.00    -0.020 C 
HETATM    8  C18 UNL     1       2.165  -2.994   3.541  1.00  0.00     0.009 C 
HETATM    9  C19 UNL     1       2.014  -4.416   1.576  1.00  0.00     0.009 C 
ENDBRANCH   6   7
ENDBRANCH   5   6
BRANCH   5  10
HETATM   10  N4  UNL     1       2.165  -1.720  -0.547  1.00  0.00    -0.346 N 
HETATM   11  C20 UNL     1       2.729  -0.440  -0.313  1.00  0.00     0.241 C 
HETATM   12  O3  UNL     1       2.160   0.425   0.397  1.00  0.00    -0.271 OA
ATOM     13  H4  UNL     1       2.668  -2.388  -1.131  1.00  0.00     0.163 HD
BRANCH  11  14
HETATM   14  C21 UNL     1       4.040  -0.090  -0.919  1.00  0.00     0.176 C 
BRANCH  14  15
HETATM   15  C22 UNL     1       5.150   0.038   0.066  1.00  0.00     0.039 C 
BRANCH  15  16
HETATM   16  C23 UNL     1       4.936   1.090   1.104  1.00  0.00    -0.012 C 
HETATM   17  C24 UNL     1       4.757   2.481   0.555  1.00  0.00     0.005 C 
HETATM   18  C25 UNL     1       5.982   3.343   0.763  1.00  0.00     0.000 C 
HETATM   19  C26 UNL     1       7.251   2.598   0.418  1.00  0.00     0.000 C 
HETATM   20  C27 UNL     1       7.401   1.415   1.316  1.00  0.00     0.000 C 
HETATM   21  C28 UNL     1       6.127   1.166   2.057  1.00  0.00     0.005 C 
ENDBRANCH  15  16
ENDBRANCH  14  15
BRANCH  14  22
HETATM   22  N5  UNL     1       4.387  -1.104  -1.938  1.00  0.00    -0.354 N 
HETATM   23  C29 UNL     1       5.196  -0.841  -2.889  1.00  0.00     0.197 C 
HETATM   24  N6  UNL     1       5.482  -1.865  -3.832  1.00  0.00    -0.067 NA
HETATM   25  N7  UNL     1       5.838   0.414  -3.079  1.00  0.00    -0.067 NA
ATOM     26  H5  UNL     1       3.971  -2.033  -1.879  1.00  0.00     0.162 HD
ENDBRANCH  14  22
ENDBRANCH  11  14
ENDBRANCH   5  10
ENDBRANCH   3   5
BRANCH   1  27
HETATM   27  C6  UNL     1      -2.651  -0.525  -0.582  1.00  0.00     0.102 C 
BRANCH  27  28
HETATM   28  C5  UNL     1      -2.914   0.439   0.477  1.00  0.00     0.147 C 
BRANCH  28  29
HETATM   29  N2  UNL     1      -3.795   1.547   0.235  1.00  0.00    -0.357 N 
HETATM   30  C4  UNL     1      -4.131   2.478   1.269  1.00  0.00     0.248 C 
HETATM   31  O1  UNL     1      -3.651   2.334   2.417  1.00  0.00    -0.271 OA
ATOM     32  H2  UNL     1      -4.191   1.674  -0.696  1.00  0.00     0.162 HD
BRANCH  30  33
HETATM   33  C3  UNL     1      -5.036   3.613   1.012  1.00  0.00     0.274 C 
BRANCH  33  34
HETATM   34  C2  UNL     1      -4.289   4.900   1.320  1.00  0.00     0.038 C 
HETATM   35  C1  UNL     1      -5.263   6.054   1.129  1.00  0.00     0.007 C 
ENDBRANCH  33  34
BRANCH  33  36
HETATM   36  N1  UNL     1      -5.515   3.645  -0.348  1.00  0.00    -0.067 N 
ATOM     37  H13 UNL     1      -6.080   4.473  -0.537  1.00  0.00     0.275 HD
ATOM     38  H12 UNL     1      -4.765   3.824  -1.016  1.00  0.00     0.275 HD
ATOM     39  H11 UNL     1      -6.016   2.781  -0.555  1.00  0.00     0.275 HD
ENDBRANCH  33  36
ENDBRANCH  30  33
ENDBRANCH  28  29
ENDBRANCH  27  28
BRANCH  27  40
HETATM   40  C7  UNL     1      -3.580  -1.447  -1.189  1.00  0.00     0.031 C 
BRANCH  40  41
HETATM   41  C8  UNL     1      -4.837  -1.198  -1.871  1.00  0.00    -0.013 C 
HETATM   42  C9  UNL     1      -5.906  -0.628  -1.003  1.00  0.00     0.005 C 
HETATM   43  C10 UNL     1      -7.257  -1.321  -1.255  1.00  0.00     0.000 C 
HETATM   44  C11 UNL     1      -7.139  -2.712  -0.722  1.00  0.00     0.000 C 
HETATM   45  C12 UNL     1      -5.991  -3.392  -1.394  1.00  0.00     0.000 C 
HETATM   46  C13 UNL     1      -5.333  -2.539  -2.437  1.00  0.00     0.005 C 
ENDBRANCH  40  41
ENDBRANCH  27  40
ENDBRANCH   1  27
TORSDOF 16
