REMARK  20 active torsions:
REMARK  status: ('A' for Active; 'I' for Inactive)
REMARK    1  A    between atoms: N1_2  and  C2_5 
REMARK    2  A    between atoms: C2_5  and  C3_6 
REMARK    3  A    between atoms: C3_6  and  C4_7 
REMARK    4  A    between atoms: C4_7  and  C5_8 
REMARK    5  A    between atoms: C5_8  and  C6_9 
REMARK    6  A    between atoms: C6_9  and  C7_10 
REMARK    7  A    between atoms: C7_10  and  N2_11 
REMARK    8  A    between atoms: N2_11  and  C8_13 
REMARK    9  A    between atoms: C9_16  and  N4_17 
REMARK   10  A    between atoms: N4_17  and  C10_19 
REMARK   11  A    between atoms: C10_19  and  C11_20 
REMARK   12  A    between atoms: C11_20  and  C12_21 
REMARK   13  A    between atoms: C12_21  and  N5_22 
REMARK   14  A    between atoms: N5_22  and  C13_24 
REMARK   15  A    between atoms: C18_31  and  O1_32 
REMARK   16  A    between atoms: O1_32  and  C19_33 
REMARK   17  A    between atoms: C25_41  and  N8_42 
REMARK   18  A    between atoms: N8_42  and  C26_44 
REMARK   19  A    between atoms: C26_44  and  C27_45 
REMARK   20  A    between atoms: C27_45  and  N9_46 
ROOT
HETATM    1  C8  UNL     1      -3.479   1.711  -0.527  1.00  0.00     0.707 A 
HETATM    2  N3  UNL     1      -2.510   1.214   0.204  1.00  0.00    -0.021 N 
ATOM      3  H3  UNL     1      -2.490   0.204   0.348  1.00  0.00     0.203 HD
HETATM    4  C9  UNL     1      -1.522   1.964   0.787  1.00  0.00     0.710 A 
HETATM    5  N7  UNL     1      -1.619   3.287   0.550  1.00  0.00    -0.021 N 
ATOM      6  H7  UNL     1      -0.911   3.897   0.960  1.00  0.00     0.203 HD
HETATM    7  C25 UNL     1      -2.585   3.858  -0.190  1.00  0.00     0.707 A 
HETATM    8  N10 UNL     1      -3.505   3.057  -0.720  1.00  0.00    -0.022 N 
ATOM      9  H10 UNL     1      -4.250   3.463  -1.286  1.00  0.00     0.203 HD
ENDROOT
BRANCH   4  10
HETATM   10  N4  UNL     1      -0.664   1.388   1.447  1.00  0.00    -0.204 N 
ATOM     11  H4  UNL     1      -0.854   0.386   1.442  1.00  0.00     0.183 HD
BRANCH  10  12
HETATM   12  C10 UNL     1       0.466   1.631   2.191  1.00  0.00     0.080 C 
BRANCH  12  13
HETATM   13  C11 UNL     1       1.468   2.636   1.721  1.00  0.00     0.065 C 
BRANCH  13  14
HETATM   14  C12 UNL     1       2.039   2.366   0.355  1.00  0.00     0.125 C 
BRANCH  14  15
HETATM   15  N5  UNL     1       2.707   1.108   0.308  1.00  0.00    -0.389 N 
ATOM     16  H5  UNL     1       2.328   0.375   0.907  1.00  0.00     0.159 HD
BRANCH  15  17
HETATM   17  C13 UNL     1       3.725   0.790  -0.396  1.00  0.00     0.042 A 
HETATM   18  C14 UNL     1       4.331   1.683  -1.243  1.00  0.00     0.047 A 
HETATM   19  C15 UNL     1       5.444   1.289  -1.996  1.00  0.00     0.090 A 
HETATM   20  N6  UNL     1       5.889   0.034  -1.866  1.00  0.00    -0.365 N 
HETATM   21  C16 UNL     1       5.323  -0.870  -1.048  1.00  0.00     0.047 A 
ATOM     22  H6  UNL     1       6.699  -0.251  -2.416  1.00  0.00     0.165 HD
HETATM   23  C17 UNL     1       5.810  -2.168  -0.940  1.00  0.00     0.067 A 
HETATM   24  C24 UNL     1       4.228  -0.485  -0.306  1.00  0.00     0.017 A 
HETATM   25  C18 UNL     1       5.262  -3.107  -0.127  1.00  0.00     0.071 A 
HETATM   26  C22 UNL     1       4.149  -2.723   0.632  1.00  0.00     0.038 A 
HETATM   27  C23 UNL     1       3.649  -1.438   0.539  1.00  0.00     0.019 A 
BRANCH  25  28
HETATM   28  O1  UNL     1       5.674  -4.407   0.044  1.00  0.00    -0.347 OA
BRANCH  28  29
HETATM   29  C19 UNL     1       6.744  -5.026  -0.583  1.00  0.00     0.120 C 
HETATM   30  C20 UNL     1       7.777  -5.565   0.381  1.00  0.00     0.040 C 
HETATM   31  C21 UNL     1       6.189  -6.122  -1.471  1.00  0.00     0.040 C 
ENDBRANCH  28  29
ENDBRANCH  25  28
ENDBRANCH  15  17
ENDBRANCH  14  15
ENDBRANCH  13  14
ENDBRANCH  12  13
ENDBRANCH  10  12
ENDBRANCH   4  10
BRANCH   1  32
HETATM   32  N2  UNL     1      -4.384   0.993  -1.062  1.00  0.00    -0.225 N 
ATOM     33  H2  UNL     1      -5.109   1.446  -1.618  1.00  0.00     0.177 HD
BRANCH  32  34
HETATM   34  C7  UNL     1      -4.416  -0.432  -0.908  1.00  0.00     0.138 C 
BRANCH  34  35
HETATM   35  C6  UNL     1      -5.019  -0.876   0.412  1.00  0.00     0.020 C 
BRANCH  35  36
HETATM   36  C5  UNL     1      -5.042  -2.365   0.551  1.00  0.00     0.002 C 
BRANCH  36  37
HETATM   37  C4  UNL     1      -3.695  -3.016   0.499  1.00  0.00     0.002 C 
BRANCH  37  38
HETATM   38  C3  UNL     1      -3.934  -4.519   0.648  1.00  0.00     0.027 C 
BRANCH  38  39
HETATM   39  C2  UNL     1      -2.637  -5.290   0.607  1.00  0.00     0.231 C 
BRANCH  39  40
HETATM   40  N1  UNL     1      -2.835  -6.705   0.741  1.00  0.00    -0.079 N 
HETATM   41  C1  UNL     1      -3.502  -7.285  -0.405  1.00  0.00     0.266 C 
ATOM     42  H12 UNL     1      -3.332  -6.925   1.604  1.00  0.00     0.276 HD
ATOM     43  H11 UNL     1      -1.954  -7.182   0.932  1.00  0.00     0.276 HD
ENDBRANCH  39  40
ENDBRANCH  38  39
ENDBRANCH  37  38
ENDBRANCH  36  37
ENDBRANCH  35  36
ENDBRANCH  34  35
ENDBRANCH  32  34
ENDBRANCH   1  32
BRANCH   7  44
HETATM   44  N8  UNL     1      -2.687   5.109  -0.445  1.00  0.00    -0.223 N 
ATOM     45  H8  UNL     1      -3.462   5.440  -1.019  1.00  0.00     0.177 HD
BRANCH  44  46
HETATM   46  C26 UNL     1      -1.733   6.054   0.061  1.00  0.00     0.168 C 
BRANCH  46  47
HETATM   47  C27 UNL     1      -1.795   7.365  -0.706  1.00  0.00     0.291 C 
BRANCH  47  48
HETATM   48  N9  UNL     1      -3.076   7.975  -0.617  1.00  0.00     0.081 N 
HETATM   49  C28 UNL     1      -3.411   8.452   0.688  1.00  0.00     0.309 C 
HETATM   50  C29 UNL     1      -4.155   7.292  -1.255  1.00  0.00     0.309 C 
ENDBRANCH  47  48
ENDBRANCH  46  47
ENDBRANCH  44  46
ENDBRANCH   7  44
TORSDOF 20
