REMARK  17 active torsions:
REMARK  status: ('A' for Active; 'I' for Inactive)
REMARK    1  A    between atoms: C2_2  and  C4_4 
REMARK    2  A    between atoms: C4_4  and  C5_5 
REMARK    3  A    between atoms: C5_5  and  C6_6 
REMARK    4  A    between atoms: C5_5  and  N7_31 
REMARK    5  A    between atoms: C6_6  and  N4_17 
REMARK    6  A    between atoms: C7_7  and  C8_8 
REMARK    7  A    between atoms: C8_8  and  C9_9 
REMARK    8  A    between atoms: C9_9  and  N1_10 
REMARK       I    between atoms: N1_10  and  C10_12 
REMARK    9  A    between atoms: N4_17  and  S1_19 
REMARK   10  A    between atoms: S1_19  and  N5_22 
REMARK   11  A    between atoms: N5_22  and  C11_24 
REMARK   12  A    between atoms: C11_24  and  C12_25 
REMARK   13  A    between atoms: C12_25  and  N6_28 
REMARK   14  A    between atoms: N7_31  and  C17_32 
REMARK   15  A    between atoms: N7_31  and  S2_36 
REMARK   16  A    between atoms: C17_32  and  C18_33 
REMARK   17  A    between atoms: S2_36  and  C21_39 
ROOT
HETATM    1  C6  UNL     1      -0.388   0.222  -0.163  1.00  0.00     0.062 C 
HETATM    2  C7  UNL     1      -0.042   1.565   0.230  1.00  0.00     0.007 C 
ENDROOT
BRANCH   1   3
HETATM    3  C5  UNL     1      -1.575  -0.582  -0.034  1.00  0.00     0.049 C 
BRANCH   3   4
HETATM    4  C4  UNL     1      -2.132  -1.031   1.265  1.00  0.00     0.004 C 
BRANCH   4   5
HETATM    5  C2  UNL     1      -2.606  -0.291   2.389  1.00  0.00     0.002 C 
HETATM    6  C1  UNL     1      -3.110  -1.373   3.421  1.00  0.00     0.013 C 
HETATM    7  C3  UNL     1      -3.760   0.649   2.261  1.00  0.00     0.013 C 
ENDBRANCH   4   5
ENDBRANCH   3   4
BRANCH   3   8
HETATM    8  N7  UNL     1      -2.665  -0.440  -1.013  1.00  0.00    -0.170 NA
BRANCH   8   9
HETATM    9  C17 UNL     1      -2.620   0.644  -1.887  1.00  0.00     0.117 C 
BRANCH   9  10
HETATM   10  C18 UNL     1      -3.940   1.179  -2.377  1.00  0.00    -0.008 C 
HETATM   11  C19 UNL     1      -3.609   2.367  -3.326  1.00  0.00     0.011 C 
HETATM   12  C20 UNL     1      -4.705   1.840  -1.248  1.00  0.00     0.011 C 
ENDBRANCH   9  10
ENDBRANCH   8   9
BRANCH   8  13
HETATM   13  S2  UNL     1      -2.707  -1.853  -2.024  1.00  0.00     0.248 S 
HETATM   14  O3  UNL     1      -1.490  -1.992  -2.884  1.00  0.00    -0.205 OA
HETATM   15  O4  UNL     1      -3.846  -1.681  -3.046  1.00  0.00    -0.205 OA
BRANCH  13  16
HETATM   16  C21 UNL     1      -3.006  -3.330  -1.213  1.00  0.00     0.075 A 
HETATM   17  C22 UNL     1      -4.307  -3.737  -0.977  1.00  0.00     0.027 A 
HETATM   18  C23 UNL     1      -4.584  -4.922  -0.344  1.00  0.00     0.028 A 
HETATM   19  C24 UNL     1      -3.554  -5.712   0.058  1.00  0.00     0.046 A 
HETATM   20  N8  UNL     1      -3.780  -6.957   0.724  1.00  0.00    -0.102 NA
HETATM   21  C25 UNL     1      -2.256  -5.329  -0.166  1.00  0.00     0.028 A 
HETATM   22  C26 UNL     1      -1.960  -4.138  -0.802  1.00  0.00     0.027 A 
ENDBRANCH  13  16
ENDBRANCH   8  13
ENDBRANCH   3   8
ENDBRANCH   1   3
BRANCH   1  23
HETATM   23  N4  UNL     1       0.315  -0.097  -1.467  1.00  0.00    -0.267 N 
ATOM     24  H4  UNL     1      -0.024   0.243  -2.367  1.00  0.00     0.180 HD
BRANCH  23  25
HETATM   25  S1  UNL     1       1.681  -1.043  -1.327  1.00  0.00     0.319 S 
HETATM   26  O1  UNL     1       1.794  -1.947  -2.557  1.00  0.00    -0.183 OA
HETATM   27  O2  UNL     1       1.646  -2.009  -0.169  1.00  0.00    -0.183 OA
BRANCH  25  28
HETATM   28  N5  UNL     1       3.194  -0.227  -1.250  1.00  0.00    -0.300 N 
ATOM     29  H5  UNL     1       3.636   0.264  -2.027  1.00  0.00     0.173 HD
BRANCH  28  30
HETATM   30  C11 UNL     1       3.734  -0.340   0.054  1.00  0.00     0.174 C 
BRANCH  30  31
HETATM   31  C12 UNL     1       5.052   0.297   0.307  1.00  0.00     0.168 C 
HETATM   32  C13 UNL     1       5.496   0.077   1.761  1.00  0.00     0.050 C 
HETATM   33  C14 UNL     1       5.109   1.784   0.089  1.00  0.00     0.050 C 
BRANCH  31  34
HETATM   34  N6  UNL     1       6.087  -0.287  -0.514  1.00  0.00     0.090 N 
HETATM   35  C15 UNL     1       5.896  -0.123  -1.924  1.00  0.00     0.310 C 
HETATM   36  C16 UNL     1       6.454  -1.598  -0.107  1.00  0.00     0.310 C 
ENDBRANCH  31  34
ENDBRANCH  30  31
ENDBRANCH  28  30
ENDBRANCH  25  28
ENDBRANCH  23  25
ENDBRANCH   1  23
BRANCH   2  37
HETATM   37  C8  UNL     1      -0.036   2.116   1.593  1.00  0.00     0.049 C 
BRANCH  37  38
HETATM   38  C9  UNL     1       0.444   3.598   1.524  1.00  0.00     0.126 C 
BRANCH  38  39
HETATM   39  N1  UNL     1       1.754   3.739   1.026  1.00  0.00    -0.365 N 
HETATM   40  C10 UNL     1       2.330   5.027   0.890  1.00  0.00     0.181 C 
HETATM   41  N2  UNL     1       3.248   5.234   0.011  1.00  0.00    -0.374 N 
HETATM   42  N3  UNL     1       1.956   6.153   1.685  1.00  0.00    -0.064 NA
ATOM     43  H22 UNL     1       3.515   4.430  -0.557  1.00  0.00     0.158 HD
ATOM     44  H21 UNL     1       3.662   6.161  -0.087  1.00  0.00     0.158 HD
ATOM     45  H1  UNL     1       2.290   2.912   0.762  1.00  0.00     0.162 HD
ENDBRANCH  38  39
ENDBRANCH  37  38
ENDBRANCH   2  37
TORSDOF 17
