REMARK  21 active torsions:
REMARK  status: ('A' for Active; 'I' for Inactive)
REMARK    1  A    between atoms: C2_2  and  C3_3 
REMARK       I    between atoms: C3_3  and  N1_5 
REMARK    2  A    between atoms: N1_5  and  C4_7 
REMARK    3  A    between atoms: C4_7  and  C5_8 
REMARK    4  A    between atoms: C4_7  and  C12_15 
REMARK    5  A    between atoms: C5_8  and  C6_9 
REMARK    6  A    between atoms: C12_15  and  O2_16 
REMARK    7  A    between atoms: C12_15  and  C13_18 
REMARK    8  A    between atoms: C13_18  and  C14_19 
REMARK    9  A    between atoms: C14_19  and  C16_21 
REMARK       I    between atoms: C16_21  and  N2_23 
REMARK       I    between atoms: N2_23  and  C17_25 
REMARK   10  A    between atoms: C17_25  and  C18_27 
REMARK   11  A    between atoms: C18_27  and  C19_28 
REMARK   12  A    between atoms: C18_27  and  N3_32 
REMARK   13  A    between atoms: C19_28  and  C20_29 
REMARK   14  A    between atoms: N3_32  and  C23_34 
REMARK   15  A    between atoms: C23_34  and  C25_36 
REMARK       I    between atoms: C25_36  and  N4_38 
REMARK   16  A    between atoms: N4_38  and  C26_40 
REMARK   17  A    between atoms: C26_40  and  C27_41 
REMARK   18  A    between atoms: C27_41  and  O6_42 
REMARK   19  A    between atoms: C27_41  and  C28_44 
REMARK   20  A    between atoms: C28_44  and  O7_45 
REMARK   21  A    between atoms: C28_44  and  C30_47 
ROOT
HETATM    1  C16 UNL     1      -1.615   1.386   0.262  1.00  0.00     0.228 C 
HETATM    2  O3  UNL     1      -2.007   0.830   1.320  1.00  0.00    -0.273 OA
HETATM    3  N2  UNL     1      -0.507   0.848  -0.413  1.00  0.00    -0.296 N 
ATOM      4  H2  UNL     1      -0.187   1.328  -1.254  1.00  0.00     0.171 HD
HETATM    5  C17 UNL     1       0.189  -0.297  -0.016  1.00  0.00     0.246 C 
HETATM    6  O4  UNL     1      -0.264  -0.871   1.052  1.00  0.00    -0.271 OA
ENDROOT
BRANCH   5   7
HETATM    7  C18 UNL     1       1.360  -0.905  -0.682  1.00  0.00     0.170 C 
BRANCH   7   8
HETATM    8  C19 UNL     1       1.881   0.039  -1.771  1.00  0.00     0.038 C 
BRANCH   8   9
HETATM    9  C20 UNL     1       3.056  -0.519  -2.510  1.00  0.00    -0.020 C 
HETATM   10  C21 UNL     1       2.739  -1.819  -3.217  1.00  0.00     0.009 C 
HETATM   11  C22 UNL     1       3.471   0.496  -3.564  1.00  0.00     0.009 C 
ENDBRANCH   8   9
ENDBRANCH   7   8
BRANCH   7  12
HETATM   12  N3  UNL     1       2.359  -1.460   0.096  1.00  0.00    -0.397 N 
ATOM     13  H3  UNL     1       2.457  -2.475   0.057  1.00  0.00     0.154 HD
BRANCH  12  14
HETATM   14  C23 UNL     1       3.238  -0.788   0.920  1.00  0.00     0.166 C 
HETATM   15  C24 UNL     1       2.533  -0.044   2.071  1.00  0.00     0.042 C 
BRANCH  14  16
HETATM   16  C25 UNL     1       4.107  -1.787   1.654  1.00  0.00     0.239 C 
HETATM   17  O5  UNL     1       3.785  -2.987   1.530  1.00  0.00    -0.271 OA
HETATM   18  N4  UNL     1       5.206  -1.377   2.425  1.00  0.00    -0.357 N 
ATOM     19  H4  UNL     1       5.433  -0.383   2.465  1.00  0.00     0.162 HD
BRANCH  18  20
HETATM   20  C26 UNL     1       6.031  -2.310   3.166  1.00  0.00     0.157 C 
BRANCH  20  21
HETATM   21  C27 UNL     1       7.204  -1.555   3.832  1.00  0.00     0.165 C 
BRANCH  21  22
HETATM   22  O6  UNL     1       6.658  -0.641   4.653  1.00  0.00    -0.391 OA
ATOM     23  H6  UNL     1       7.379  -0.177   5.062  1.00  0.00     0.210 HD
ENDBRANCH  21  22
BRANCH  21  24
HETATM   24  C28 UNL     1       8.095  -1.153   2.736  1.00  0.00     0.155 C 
BRANCH  24  25
HETATM   25  O7  UNL     1       8.578  -2.279   2.097  1.00  0.00    -0.388 OA
HETATM   26  C29 UNL     1       8.279  -2.442   0.786  1.00  0.00     0.202 C 
ENDBRANCH  24  25
BRANCH  24  27
HETATM   27  C30 UNL     1       9.226  -0.230   3.009  1.00  0.00     0.017 A 
HETATM   28  C31 UNL     1       8.960   1.162   3.541  1.00  0.00     0.007 A 
HETATM   29  C32 UNL     1       9.772   0.119   4.312  1.00  0.00     0.007 A 
ENDBRANCH  24  27
ENDBRANCH  21  24
ENDBRANCH  20  21
ENDBRANCH  18  20
ENDBRANCH  14  16
ENDBRANCH  12  14
ENDBRANCH   7  12
ENDBRANCH   5   7
BRANCH   1  30
HETATM   30  C14 UNL     1      -2.364   2.594  -0.207  1.00  0.00     0.076 C 
HETATM   31  C15 UNL     1      -3.280   3.070   0.875  1.00  0.00     0.020 C 
BRANCH  30  32
HETATM   32  C13 UNL     1      -2.940   2.352  -1.551  1.00  0.00     0.047 C 
BRANCH  32  33
HETATM   33  C12 UNL     1      -3.972   1.333  -1.757  1.00  0.00     0.141 C 
BRANCH  33  34
HETATM   34  C4  UNL     1      -5.300   1.403  -1.118  1.00  0.00     0.114 C 
BRANCH  34  35
HETATM   35  N1  UNL     1      -5.870   2.768  -1.232  1.00  0.00    -0.350 N 
HETATM   36  C3  UNL     1      -7.059   3.204  -0.704  1.00  0.00     0.240 C 
HETATM   37  O1  UNL     1      -7.837   2.377  -0.088  1.00  0.00    -0.269 OA
ATOM     38  H1  UNL     1      -5.323   3.451  -1.756  1.00  0.00     0.163 HD
BRANCH  36  39
HETATM   39  C2  UNL     1      -7.554   4.548  -0.758  1.00  0.00     0.064 C 
HETATM   40  C1  UNL     1      -6.816   5.544  -1.257  1.00  0.00     0.017 C 
ENDBRANCH  36  39
ENDBRANCH  34  35
BRANCH  34  41
HETATM   41  C5  UNL     1      -6.309   0.437  -1.813  1.00  0.00     0.032 C 
BRANCH  41  42
HETATM   42  C6  UNL     1      -5.928  -0.984  -1.798  1.00  0.00    -0.013 C 
HETATM   43  C7  UNL     1      -5.744  -1.546  -0.398  1.00  0.00     0.005 C 
HETATM   44  C8  UNL     1      -6.869  -2.422   0.059  1.00  0.00     0.000 C 
HETATM   45  C9  UNL     1      -8.242  -1.867  -0.283  1.00  0.00     0.000 C 
HETATM   46  C10 UNL     1      -8.331  -1.576  -1.770  1.00  0.00     0.000 C 
HETATM   47  C11 UNL     1      -7.043  -1.827  -2.467  1.00  0.00     0.005 C 
ENDBRANCH  41  42
ENDBRANCH  34  41
ENDBRANCH  33  34
BRANCH  33  48
HETATM   48  O2  UNL     1      -3.410   0.032  -1.613  1.00  0.00    -0.393 OA
ATOM     49  H2  UNL     1      -2.555  -0.013  -2.024  1.00  0.00     0.210 HD
ENDBRANCH  33  48
ENDBRANCH  32  33
ENDBRANCH  30  32
ENDBRANCH   1  30
TORSDOF 21
