REMARK  19 active torsions:
REMARK  status: ('A' for Active; 'I' for Inactive)
REMARK    1  A    between atoms: C2_2  and  C3_3 
REMARK    2  A    between atoms: C3_3  and  C5_5 
REMARK    3  A    between atoms: C5_5  and  C6_6 
REMARK    4  A    between atoms: C5_5  and  N1_10 
REMARK    5  A    between atoms: C6_6  and  C7_7 
REMARK       I    between atoms: N1_10  and  C10_12 
REMARK    6  A    between atoms: C10_12  and  C11_14 
REMARK    7  A    between atoms: C11_14  and  N2_16 
REMARK       I    between atoms: N2_16  and  C13_18 
REMARK    8  A    between atoms: C13_18  and  C14_20 
REMARK    9  A    between atoms: C14_20  and  N3_21 
REMARK   10  A    between atoms: C14_20  and  C29_48 
REMARK       I    between atoms: N3_21  and  C15_23 
REMARK   11  A    between atoms: C15_23  and  C16_25 
REMARK   12  A    between atoms: C16_25  and  C17_26 
REMARK   13  A    between atoms: C16_25  and  N4_30 
REMARK   14  A    between atoms: C17_26  and  C18_27 
REMARK       I    between atoms: N4_30  and  C21_32 
REMARK   15  A    between atoms: C21_32  and  C22_34 
REMARK   16  A    between atoms: C22_34  and  N5_35 
REMARK   17  A    between atoms: C22_34  and  C26_45 
REMARK       I    between atoms: N5_35  and  C23_37 
REMARK   18  A    between atoms: C23_37  and  C24_39 
REMARK   19  A    between atoms: C24_39  and  N6_41 
ROOT
HETATM    1  N3  UNL     1       1.264   1.895   1.922  1.00  0.00    -0.346 N 
ATOM      2  H3  UNL     1       1.952   1.567   2.600  1.00  0.00     0.163 HD
HETATM    3  C15 UNL     1       1.765   2.434   0.717  1.00  0.00     0.241 C 
HETATM    4  O3  UNL     1       1.018   2.813  -0.173  1.00  0.00    -0.271 OA
ENDROOT
BRANCH   1   5
HETATM    5  C14 UNL     1      -0.116   1.763   2.288  1.00  0.00     0.180 C 
BRANCH   5   6
HETATM    6  C13 UNL     1      -0.747   0.644   1.573  1.00  0.00     0.241 C 
HETATM    7  N2  UNL     1      -1.769  -0.202   2.058  1.00  0.00    -0.346 N 
ATOM      8  H2  UNL     1      -2.116  -0.085   3.010  1.00  0.00     0.163 HD
HETATM    9  O2  UNL     1      -0.344   0.407   0.394  1.00  0.00    -0.271 OA
BRANCH   7  10
HETATM   10  C11 UNL     1      -2.332  -1.247   1.199  1.00  0.00     0.172 C 
HETATM   11  C12 UNL     1      -1.774  -2.604   1.628  1.00  0.00     0.042 C 
BRANCH  10  12
HETATM   12  C10 UNL     1      -3.789  -1.210   1.351  1.00  0.00     0.244 C 
HETATM   13  N1  UNL     1      -4.708  -1.855   0.496  1.00  0.00    -0.325 N 
ATOM     14  H1  UNL     1      -4.355  -2.381  -0.303  1.00  0.00     0.169 HD
HETATM   15  O1  UNL     1      -4.253  -0.540   2.337  1.00  0.00    -0.271 OA
BRANCH  13  16
HETATM   16  C5  UNL     1      -6.176  -1.791   0.725  1.00  0.00     0.033 C 
BRANCH  16  17
HETATM   17  C3  UNL     1      -6.809  -3.082   0.554  1.00  0.00    -0.058 C 
HETATM   18  C4  UNL     1      -7.800  -3.528   1.617  1.00  0.00     0.046 C 
BRANCH  17  19
HETATM   19  C2  UNL     1      -7.178  -3.656  -0.753  1.00  0.00     0.031 C 
HETATM   20  C1  UNL     1      -8.566  -3.341  -1.253  1.00  0.00     0.010 C 
ENDBRANCH  17  19
ENDBRANCH  16  17
BRANCH  16  21
HETATM   21  C6  UNL     1      -6.711  -0.505   0.287  1.00  0.00     0.007 C 
BRANCH  21  22
HETATM   22  C7  UNL     1      -6.980  -0.165  -1.115  1.00  0.00     0.002 C 
HETATM   23  C8  UNL     1      -5.738  -0.248  -2.018  1.00  0.00     0.013 C 
HETATM   24  C9  UNL     1      -7.239   1.391  -1.092  1.00  0.00     0.013 C 
ENDBRANCH  21  22
ENDBRANCH  16  21
ENDBRANCH  13  16
ENDBRANCH  10  12
ENDBRANCH   7  10
ENDBRANCH   5   6
BRANCH   5  25
HETATM   25  C29 UNL     1      -0.417   1.886   3.733  1.00  0.00     0.009 C 
HETATM   26  C30 UNL     1      -0.015   0.671   4.534  1.00  0.00     0.012 C 
HETATM   27  C31 UNL     1      -1.840   2.305   3.968  1.00  0.00     0.012 C 
ENDBRANCH   5  25
ENDBRANCH   1   5
BRANCH   3  28
HETATM   28  C16 UNL     1       3.271   2.551   0.512  1.00  0.00     0.177 C 
BRANCH  28  29
HETATM   29  C17 UNL     1       3.568   3.998   0.682  1.00  0.00     0.038 C 
BRANCH  29  30
HETATM   30  C18 UNL     1       4.958   4.476   0.562  1.00  0.00    -0.020 C 
HETATM   31  C19 UNL     1       5.937   3.827   1.532  1.00  0.00     0.009 C 
HETATM   32  C20 UNL     1       5.529   4.591  -0.797  1.00  0.00     0.009 C 
ENDBRANCH  29  30
ENDBRANCH  28  29
BRANCH  28  33
HETATM   33  N4  UNL     1       3.576   2.065  -0.836  1.00  0.00    -0.346 N 
HETATM   34  C21 UNL     1       4.385   0.918  -1.004  1.00  0.00     0.241 C 
HETATM   35  O4  UNL     1       4.833   0.387   0.083  1.00  0.00    -0.271 OA
ATOM     36  H4  UNL     1       3.205   2.553  -1.651  1.00  0.00     0.163 HD
BRANCH  34  37
HETATM   37  C22 UNL     1       4.749   0.278  -2.258  1.00  0.00     0.180 C 
BRANCH  37  38
HETATM   38  N5  UNL     1       5.628  -0.886  -2.006  1.00  0.00    -0.346 N 
HETATM   39  C23 UNL     1       5.293  -2.199  -2.410  1.00  0.00     0.248 C 
HETATM   40  O5  UNL     1       4.209  -2.423  -3.016  1.00  0.00    -0.271 OA
ATOM     41  H5  UNL     1       6.512  -0.735  -1.521  1.00  0.00     0.163 HD
BRANCH  39  42
HETATM   42  C24 UNL     1       6.199  -3.354  -2.137  1.00  0.00     0.270 C 
HETATM   43  C25 UNL     1       6.297  -3.665  -0.665  1.00  0.00     0.050 C 
BRANCH  42  44
HETATM   44  N6  UNL     1       5.637  -4.533  -2.777  1.00  0.00    -0.067 N 
ATOM     45  H63 UNL     1       4.674  -4.713  -2.494  1.00  0.00     0.275 HD
ATOM     46  H62 UNL     1       5.464  -4.395  -3.773  1.00  0.00     0.275 HD
ATOM     47  H61 UNL     1       6.256  -5.322  -2.591  1.00  0.00     0.275 HD
ENDBRANCH  42  44
ENDBRANCH  39  42
ENDBRANCH  37  38
BRANCH  37  48
HETATM   48  C26 UNL     1       5.385   1.107  -3.308  1.00  0.00     0.009 C 
HETATM   49  C27 UNL     1       6.705   1.727  -2.941  1.00  0.00     0.012 C 
HETATM   50  C28 UNL     1       5.590   0.255  -4.573  1.00  0.00     0.012 C 
ENDBRANCH  37  48
ENDBRANCH  34  37
ENDBRANCH  28  33
ENDBRANCH   3  28
TORSDOF 19
