REMARK  14 active torsions:
REMARK  status: ('A' for Active; 'I' for Inactive)
REMARK    1  A    between atoms: N1_2  and  N2_3 
REMARK    2  A    between atoms: N1_2  and  N3_7 
REMARK    3  A    between atoms: N2_3  and  O1_5 
REMARK    4  A    between atoms: N3_7  and  C2_8 
REMARK    5  A    between atoms: C2_8  and  C3_9 
REMARK    6  A    between atoms: C3_9  and  N4_10 
REMARK    7  A    between atoms: N4_10  and  C4_13 
REMARK    8  A    between atoms: C4_13  and  C5_14 
REMARK    9  A    between atoms: C5_14  and  O2_15 
REMARK   10  A    between atoms: O2_15  and  N5_16 
REMARK       I    between atoms: N5_16  and  C6_18 
REMARK       I    between atoms: C6_18  and  N7_20 
REMARK   11  A    between atoms: N7_20  and  C7_21 
REMARK   12  A    between atoms: C7_21  and  C8_22 
REMARK   13  A    between atoms: C8_22  and  O3_23 
REMARK   14  A    between atoms: N11_31  and  N12_32 
REMARK       I    between atoms: N12_32  and  C10_34 
ROOT
HETATM    1  N5  UNL     1       0.581  -0.318   0.376  1.00  0.00    -0.227 N 
ATOM      2  H5  UNL     1       0.585  -1.338   0.390  1.00  0.00     0.198 HD
HETATM    3  C6  UNL     1      -0.603   0.476   0.053  1.00  0.00     0.282 C 
HETATM    4  N6  UNL     1      -0.484   1.887   0.458  1.00  0.00    -0.048 NA
HETATM    5  N7  UNL     1      -1.556  -0.011  -0.427  1.00  0.00    -0.412 NA
ENDROOT
BRANCH   5   6
HETATM    6  C7  UNL     1      -2.653  -0.591  -0.983  1.00  0.00     0.292 C 
BRANCH   6   7
HETATM    7  C8  UNL     1      -3.552  -1.190   0.163  1.00  0.00     0.276 C 
HETATM    8  N8  UNL     1      -3.499  -0.046   1.182  1.00  0.00    -0.017 N 
HETATM    9  C9  UNL     1      -4.706   0.491   0.642  1.00  0.00     0.325 C 
ATOM     10  H82 UNL     1      -3.434  -0.253   2.179  1.00  0.00     0.283 HD
ATOM     11  H81 UNL     1      -2.666   0.539   1.249  1.00  0.00     0.283 HD
HETATM   12  N9  UNL     1      -5.685   0.640   1.707  1.00  0.00    -0.094 NA
HETATM   13  C11 UNL     1      -4.971  -0.887   0.024  1.00  0.00     0.214 C 
HETATM   14  N10 UNL     1      -5.839  -0.661   2.146  1.00  0.00    -0.034 NA
HETATM   15  N11 UNL     1      -5.923  -1.426   0.961  1.00  0.00    -0.112 NA
BRANCH   7  16
HETATM   16  O3  UNL     1      -3.033  -2.249   0.820  1.00  0.00    -0.361 OA
ATOM     17  H3  UNL     1      -3.575  -2.610   1.511  1.00  0.00     0.212 HD
ENDBRANCH   7  16
BRANCH  15  18
HETATM   18  N12 UNL     1      -7.211  -1.122   0.469  1.00  0.00    -0.276 N 
HETATM   19  C10 UNL     1      -7.501  -0.440  -0.723  1.00  0.00     0.197 C 
HETATM   20  N13 UNL     1      -7.581   0.847  -0.762  1.00  0.00    -0.373 N 
HETATM   21  N14 UNL     1      -7.725  -1.205  -1.904  1.00  0.00    -0.063 NA
ATOM     22 2H13 UNL     1      -7.421   1.395   0.083  1.00  0.00     0.158 HD
ATOM     23 1H13 UNL     1      -7.792   1.343  -1.628  1.00  0.00     0.158 HD
ATOM     24  H12 UNL     1      -8.005  -1.426   1.032  1.00  0.00     0.185 HD
ENDBRANCH  15  18
ENDBRANCH   6   7
ENDBRANCH   5   6
BRANCH   1  25
HETATM   25  O2  UNL     1       1.674   0.435   0.655  1.00  0.00    -0.275 OA
BRANCH  25  26
HETATM   26  C5  UNL     1       2.089   1.097  -0.518  1.00  0.00     0.228 C 
BRANCH  26  27
HETATM   27  C4  UNL     1       3.160   2.064  -0.174  1.00  0.00     0.261 C 
BRANCH  27  28
HETATM   28  N4  UNL     1       4.328   1.486   0.376  1.00  0.00    -0.072 N 
ATOM     29  H42 UNL     1       4.108   0.914   1.191  1.00  0.00     0.277 HD
ATOM     30  H41 UNL     1       4.912   2.191   0.826  1.00  0.00     0.277 HD
BRANCH  28  31
HETATM   31  C3  UNL     1       5.086   0.724  -0.617  1.00  0.00     0.250 C 
BRANCH  31  32
HETATM   32  C2  UNL     1       6.412   0.407   0.092  1.00  0.00     0.164 C 
BRANCH  32  33
HETATM   33  N3  UNL     1       7.288  -0.313  -0.814  1.00  0.00    -0.120 NA
BRANCH  33  34
HETATM   34  N1  UNL     1       8.493  -0.483  -0.145  1.00  0.00    -0.223 N 
HETATM   35  C1  UNL     1       8.662  -1.506   0.823  1.00  0.00     0.197 C 
BRANCH  34  36
HETATM   36  N2  UNL     1       9.553   0.390  -0.427  1.00  0.00    -0.197 N 
ATOM     37  H2  UNL     1      10.423   0.022  -0.811  1.00  0.00     0.217 HD
BRANCH  36  38
HETATM   38  O1  UNL     1       9.439   1.636  -0.208  1.00  0.00    -0.273 OA
ATOM     39  H1  UNL     1      10.157   2.228  -0.399  1.00  0.00     0.246 HD
ENDBRANCH  36  38
ENDBRANCH  34  36
ENDBRANCH  33  34
ENDBRANCH  32  33
ENDBRANCH  31  32
ENDBRANCH  28  31
ENDBRANCH  27  28
ENDBRANCH  26  27
ENDBRANCH  25  26
ENDBRANCH   1  25
TORSDOF 14
