REMARK  20 active torsions:
REMARK  status: ('A' for Active; 'I' for Inactive)
REMARK    1  A    between atoms: N1_1  and  C1_5 
REMARK    2  A    between atoms: C1_5  and  C2_6 
REMARK    3  A    between atoms: C2_6  and  C3_7 
REMARK    4  A    between atoms: C3_7  and  C4_8 
REMARK    5  A    between atoms: C4_8  and  C5_9 
REMARK    6  A    between atoms: C5_9  and  N2_10 
REMARK    7  A    between atoms: N2_10  and  C6_12 
REMARK    8  A    between atoms: C6_12  and  C7_13 
REMARK    9  A    between atoms: C6_12  and  N4_18 
REMARK   10  A    between atoms: C7_13  and  N3_14 
REMARK   11  A    between atoms: N4_18  and  C8_20 
REMARK   12  A    between atoms: C9_21  and  N5_22 
REMARK   13  A    between atoms: C10_26  and  O1_27 
REMARK   14  A    between atoms: C11_29  and  O2_30 
REMARK   15  A    between atoms: C12_32  and  N6_33 
REMARK   16  A    between atoms: C12_32  and  O3_37 
REMARK   17  A    between atoms: O3_37  and  C13_38 
REMARK   18  A    between atoms: C13_38  and  C14_39 
REMARK   19  A    between atoms: C14_39  and  N7_40 
REMARK   20  A    between atoms: C16_45  and  N10_46 
ROOT
HETATM    1  C8  UNL     1       0.664  -1.607  -0.611  1.00  0.00     0.147 C 
HETATM    2  C9  UNL     1       1.248  -2.266  -1.792  1.00  0.00     0.239 C 
HETATM    3  C10 UNL     1       2.740  -2.297  -1.900  1.00  0.00     0.184 C 
HETATM    4  C11 UNL     1       3.507  -1.303  -1.123  1.00  0.00     0.214 C 
HETATM    5  C12 UNL     1       2.706  -0.144  -0.576  1.00  0.00     0.283 C 
HETATM    6  C16 UNL     1       1.512  -0.637   0.149  1.00  0.00     0.273 C 
ENDROOT
BRANCH   1   7
HETATM    7  N4  UNL     1      -0.543  -0.933  -0.981  1.00  0.00    -0.392 N 
ATOM      8  H4  UNL     1      -0.530  -0.198  -1.689  1.00  0.00     0.155 HD
BRANCH   7   9
HETATM    9  C6  UNL     1      -1.752  -1.301  -0.351  1.00  0.00     0.198 C 
BRANCH   9  10
HETATM   10  N2  UNL     1      -2.726  -0.285  -0.656  1.00  0.00    -0.400 N 
ATOM     11  H2  UNL     1      -2.566   0.387  -1.407  1.00  0.00     0.155 HD
BRANCH  10  12
HETATM   12  C5  UNL     1      -3.910  -0.246   0.116  1.00  0.00     0.115 C 
BRANCH  12  13
HETATM   13  C4  UNL     1      -4.717   0.940  -0.403  1.00  0.00     0.019 C 
BRANCH  13  14
HETATM   14  C3  UNL     1      -5.993   1.144   0.358  1.00  0.00     0.003 C 
BRANCH  14  15
HETATM   15  C2  UNL     1      -5.729   1.424   1.822  1.00  0.00     0.027 C 
BRANCH  15  16
HETATM   16  C1  UNL     1      -7.028   1.643   2.538  1.00  0.00     0.229 C 
BRANCH  16  17
HETATM   17  N1  UNL     1      -7.775   2.758   2.022  1.00  0.00    -0.079 N 
ATOM     18  H13 UNL     1      -7.210   3.607   2.026  1.00  0.00     0.274 HD
ATOM     19  H12 UNL     1      -7.925   2.662   1.018  1.00  0.00     0.274 HD
ATOM     20  H11 UNL     1      -8.659   2.907   2.509  1.00  0.00     0.274 HD
ENDBRANCH  16  17
ENDBRANCH  15  16
ENDBRANCH  14  15
ENDBRANCH  13  14
ENDBRANCH  12  13
ENDBRANCH  10  12
ENDBRANCH   9  10
BRANCH   9  21
HETATM   21  C7  UNL     1      -2.176  -2.679  -0.580  1.00  0.00     0.275 C 
BRANCH  21  22
HETATM   22  N3  UNL     1      -2.546  -2.920  -1.956  1.00  0.00    -0.076 N 
ATOM     23  H33 UNL     1      -3.259  -2.260  -2.266  1.00  0.00     0.274 HD
ATOM     24  H32 UNL     1      -1.792  -2.657  -2.591  1.00  0.00     0.274 HD
ATOM     25  H31 UNL     1      -2.842  -3.883  -2.116  1.00  0.00     0.274 HD
ENDBRANCH  21  22
ENDBRANCH   9  21
ENDBRANCH   7   9
ENDBRANCH   1   7
BRANCH   2  26
HETATM   26  N5  UNL     1       0.687  -1.720  -3.045  1.00  0.00    -0.070 N 
ATOM     27  H53 UNL     1      -0.332  -1.772  -3.053  1.00  0.00     0.274 HD
ATOM     28  H52 UNL     1       0.793  -0.707  -3.092  1.00  0.00     0.274 HD
ATOM     29  H51 UNL     1       1.091  -2.176  -3.863  1.00  0.00     0.274 HD
ENDBRANCH   2  26
BRANCH   6  30
HETATM   30  N10 UNL     1       1.984  -1.303   1.379  1.00  0.00    -0.068 N 
ATOM     31 3H10 UNL     1       1.220  -1.681   1.939  1.00  0.00     0.275 HD
ATOM     32 2H10 UNL     1       2.465  -2.182   1.190  1.00  0.00     0.275 HD
ATOM     33 1H10 UNL     1       2.562  -0.642   1.897  1.00  0.00     0.275 HD
ENDBRANCH   6  30
BRANCH   3  34
HETATM   34  O1  UNL     1       3.075  -2.110  -3.260  1.00  0.00    -0.391 OA
ATOM     35  H1  UNL     1       4.022  -2.130  -3.329  1.00  0.00     0.210 HD
ENDBRANCH   3  34
BRANCH   5  36
HETATM   36  N6  UNL     1       2.413   0.851  -1.574  1.00  0.00    -0.042 N 
ATOM     37  H63 UNL     1       3.267   1.178  -2.026  1.00  0.00     0.278 HD
ATOM     38  H62 UNL     1       1.948   0.434  -2.381  1.00  0.00     0.278 HD
ATOM     39  H61 UNL     1       1.872   1.633  -1.205  1.00  0.00     0.278 HD
ENDBRANCH   5  36
BRANCH   5  40
HETATM   40  O3  UNL     1       3.561   0.511   0.333  1.00  0.00    -0.346 OA
BRANCH  40  41
HETATM   41  C13 UNL     1       2.998   1.574   0.972  1.00  0.00     0.215 C 
BRANCH  41  42
HETATM   42  C14 UNL     1       4.063   2.218   1.854  1.00  0.00     0.089 C 
BRANCH  42  43
HETATM   43  N7  UNL     1       5.172   2.693   1.140  1.00  0.00    -0.344 N 
HETATM   44  C15 UNL     1       6.371   2.332   1.038  1.00  0.00     0.200 C 
HETATM   45  N8  UNL     1       7.234   3.074   0.193  1.00  0.00    -0.067 NA
HETATM   46  N9  UNL     1       6.908   1.226   1.726  1.00  0.00    -0.067 NA
ATOM     47  H7  UNL     1       4.957   3.516   0.577  1.00  0.00     0.167 HD
ENDBRANCH  42  43
ENDBRANCH  41  42
ENDBRANCH  40  41
ENDBRANCH   5  40
BRANCH   4  48
HETATM   48  O2  UNL     1       4.133  -1.899  -0.001  1.00  0.00    -0.388 OA
ATOM     49  H2  UNL     1       4.626  -1.259   0.499  1.00  0.00     0.210 HD
ENDBRANCH   4  48
TORSDOF 20
