REMARK  4 active torsions:
REMARK  status: ('A' for Active; 'I' for Inactive)
REMARK    1  A    between atoms: C2_2  and  C3_3 
REMARK    2  A    between atoms: C3_3  and  C4_4 
REMARK    3  A    between atoms: C4_4  and  C5_6 
REMARK    4  A    between atoms: C5_6  and  C6_7 
ROOT
HETATM    1  C4  UNL     1      -0.051  -0.410  -0.552  1.00  0.00     0.065 C 
HETATM    2  S1  UNL     1       0.002  -1.681   0.730  1.00  0.00    -0.092 SA
ENDROOT
BRANCH   1   3
HETATM    3  C3  UNL     1      -1.426   0.215  -0.545  1.00  0.00     0.042 C 
BRANCH   3   4
HETATM    4  C2  UNL     1      -1.763   0.840   0.739  1.00  0.00    -0.036 C 
HETATM    5  C1  UNL     1      -2.811   0.426   1.433  1.00  0.00     0.007 C 
ENDBRANCH   3   4
ENDBRANCH   1   3
BRANCH   1   6
HETATM    6  C5  UNL     1       1.047   0.602  -0.333  1.00  0.00     0.042 C 
BRANCH   6   7
HETATM    7  C6  UNL     1       2.341  -0.131  -0.360  1.00  0.00    -0.036 C 
HETATM    8  C7  UNL     1       3.183  -0.157   0.654  1.00  0.00     0.007 C 
ENDBRANCH   6   7
ENDBRANCH   1   6
TORSDOF 4
