REMARK  5 active torsions:
REMARK  status: ('A' for Active; 'I' for Inactive)
REMARK    1  A    between atoms: C2_2  and  C3_3 
REMARK    2  A    between atoms: C3_3  and  N1_4 
REMARK    3  A    between atoms: N1_4  and  C4_7 
REMARK    4  A    between atoms: C4_7  and  C5_8 
REMARK    5  A    between atoms: C5_8  and  C6_9 
ROOT
HETATM    1  N1  UNL     1      -1.130   0.352   1.235  1.00  0.00    -0.072 N 
ATOM      2  H11 UNL     1      -1.056   0.361   2.252  1.00  0.00     0.277 HD
ATOM      3  H12 UNL     1      -1.113   1.359   1.074  1.00  0.00     0.277 HD
ENDROOT
BRANCH   1   4
HETATM    4  C3  UNL     1      -2.361  -0.240   0.792  1.00  0.00     0.259 C 
BRANCH   4   5
HETATM    5  C2  UNL     1      -2.606   0.066  -0.664  1.00  0.00    -0.010 C 
HETATM    6  C1  UNL     1      -3.706   0.746  -1.026  1.00  0.00     0.008 C 
ENDBRANCH   4   5
ENDBRANCH   1   4
BRANCH   1   7
HETATM    7  C4  UNL     1      -0.017  -0.304   0.626  1.00  0.00     0.233 C 
BRANCH   7   8
HETATM    8  C5  UNL     1       1.312   0.342   1.048  1.00  0.00     0.032 C 
BRANCH   8   9
HETATM    9  C6  UNL     1       2.388  -0.458   0.357  1.00  0.00    -0.013 A 
HETATM   10  C7  UNL     1       2.289  -0.466  -1.165  1.00  0.00     0.005 A 
HETATM   11  C8  UNL     1       3.437   0.174  -0.467  1.00  0.00     0.005 A 
ENDBRANCH   8   9
ENDBRANCH   7   8
ENDBRANCH   1   7
TORSDOF 5
