REMARK  4 active torsions:
REMARK  status: ('A' for Active; 'I' for Inactive)
REMARK    1  A    between atoms: C2_2  and  C3_3 
REMARK    2  A    between atoms: C3_3  and  C4_4 
REMARK    3  A    between atoms: C4_4  and  C5_5 
REMARK    4  A    between atoms: C5_5  and  C6_6 
ROOT
HETATM    1  C6  UNL     1       1.812  -0.041   0.433  1.00  0.00     0.027 A 
HETATM    2  C7  UNL     1       2.231   0.161  -0.844  1.00  0.00     0.045 A 
HETATM    3  C8  UNL     1       3.600   0.262  -0.792  1.00  0.00     0.109 A 
HETATM    4  N1  UNL     1       4.003   0.125   0.479  1.00  0.00    -0.312 N 
ATOM      5  H1  UNL     1       4.963   0.155   0.823  1.00  0.00     0.186 HD
HETATM    6  N2  UNL     1       2.910  -0.056   1.196  1.00  0.00    -0.305 N 
ATOM      7  H2  UNL     1       2.904  -0.191   2.207  1.00  0.00     0.186 HD
ENDROOT
BRANCH   1   8
HETATM    8  C5  UNL     1       0.436  -0.221   0.971  1.00  0.00     0.059 C 
BRANCH   8   9
HETATM    9  C4  UNL     1      -0.583  -0.149  -0.173  1.00  0.00     0.010 C 
BRANCH   9  10
HETATM   10  C3  UNL     1      -1.942  -0.341   0.469  1.00  0.00     0.026 C 
BRANCH  10  11
HETATM   11  C2  UNL     1      -3.046  -0.299  -0.501  1.00  0.00    -0.037 C 
HETATM   12  C1  UNL     1      -4.017   0.599  -0.421  1.00  0.00     0.007 C 
ENDBRANCH  10  11
ENDBRANCH   9  10
ENDBRANCH   8   9
ENDBRANCH   1   8
TORSDOF 4
