REMARK  9 active torsions:
REMARK  status: ('A' for Active; 'I' for Inactive)
REMARK    1  A    between atoms: N1_1  and  C1_4 
REMARK    2  A    between atoms: C2_7  and  N3_8 
REMARK    3  A    between atoms: N5_15  and  N6_16 
REMARK    4  A    between atoms: N6_16  and  C5_18 
REMARK    5  A    between atoms: C5_18  and  C6_19 
REMARK    6  A    between atoms: C6_19  and  N7_20 
REMARK    7  A    between atoms: N7_20  and  C7_22 
REMARK    8  A    between atoms: C7_22  and  C8_23 
REMARK    9  A    between atoms: C8_23  and  O1_24 
ROOT
HETATM    1  C1  UNL     1      -3.248   1.074  -1.592  1.00  0.00     0.679 A 
HETATM    2  N2  UNL     1      -4.270   1.420  -0.812  1.00  0.00    -0.175 N 
ATOM      3  H2  UNL     1      -5.050   1.944  -1.209  1.00  0.00     0.186 HD
HETATM    4  C2  UNL     1      -4.290   1.090   0.490  1.00  0.00     0.145 A 
HETATM    5  C3  UNL     1      -3.224   0.380   1.014  1.00  0.00     0.124 A 
HETATM    6  N4  UNL     1      -2.965  -0.087   2.230  1.00  0.00    -0.345 N 
ATOM      7  H4  UNL     1      -3.564   0.016   3.049  1.00  0.00     0.167 HD
HETATM    8  C4  UNL     1      -1.789  -0.713   2.196  1.00  0.00     0.209 A 
HETATM    9  N5  UNL     1      -1.234  -0.681   0.944  1.00  0.00    -0.233 N 
HETATM   10  C9  UNL     1      -2.136   0.002   0.219  1.00  0.00     0.174 A 
HETATM   11  N8  UNL     1      -2.208   0.380  -1.079  1.00  0.00    -0.173 N 
ATOM     12  H8  UNL     1      -1.439   0.129  -1.700  1.00  0.00     0.186 HD
ENDROOT
BRANCH   9  13
HETATM   13  N6  UNL     1      -0.042  -1.249   0.563  1.00  0.00    -0.305 N 
ATOM     14  H6  UNL     1       0.428  -1.742   1.322  1.00  0.00     0.186 HD
BRANCH  13  15
HETATM   15  C5  UNL     1       0.668  -1.295  -0.652  1.00  0.00     0.100 C 
BRANCH  15  16
HETATM   16  C6  UNL     1       2.039  -0.607  -0.632  1.00  0.00     0.160 C 
BRANCH  16  17
HETATM   17  N7  UNL     1       2.893  -1.250   0.315  1.00  0.00    -0.415 N 
ATOM     18  H7  UNL     1       2.534  -1.909   1.005  1.00  0.00     0.153 HD
BRANCH  17  19
HETATM   19  C7  UNL     1       4.278  -0.916   0.239  1.00  0.00     0.140 C 
BRANCH  19  20
HETATM   20  C8  UNL     1       4.675   0.464   0.612  1.00  0.00     0.183 C 
BRANCH  20  21
HETATM   21  O1  UNL     1       4.082   1.440  -0.175  1.00  0.00    -0.399 OA
ATOM     22  H1  UNL     1       4.336   2.324   0.064  1.00  0.00     0.209 HD
ENDBRANCH  20  21
ENDBRANCH  19  20
ENDBRANCH  17  19
ENDBRANCH  16  17
ENDBRANCH  15  16
ENDBRANCH  13  15
ENDBRANCH   9  13
BRANCH   4  23
HETATM   23  N3  UNL     1      -5.237   1.399   1.294  1.00  0.00    -0.383 N 
ATOM     24  H32 UNL     1      -6.023   1.922   0.908  1.00  0.00     0.157 HD
ATOM     25  H31 UNL     1      -5.252   1.148   2.283  1.00  0.00     0.157 HD
ENDBRANCH   4  23
BRANCH   1  26
HETATM   26  N1  UNL     1      -3.227   1.376  -2.871  1.00  0.00    -0.234 N 
ATOM     27  H12 UNL     1      -4.012   1.900  -3.258  1.00  0.00     0.174 HD
ATOM     28  H11 UNL     1      -2.444   1.111  -3.469  1.00  0.00     0.174 HD
ENDBRANCH   1  26
TORSDOF 9
