REMARK  9 active torsions:
REMARK  status: ('A' for Active; 'I' for Inactive)
REMARK    1  A    between atoms: N1_1  and  C1_4 
REMARK    2  A    between atoms: C2_7  and  N3_8 
REMARK    3  A    between atoms: N6_16  and  C4_17 
REMARK    4  A    between atoms: C4_17  and  C5_18 
REMARK    5  A    between atoms: C5_18  and  C6_19 
REMARK    6  A    between atoms: C6_19  and  N7_20 
REMARK    7  A    between atoms: N7_20  and  C7_22 
REMARK    8  A    between atoms: C7_22  and  C8_23 
REMARK    9  A    between atoms: C8_23  and  O1_24 
ROOT
HETATM    1  C1  UNL     1      -3.420   1.151  -1.654  1.00  0.00     0.679 A 
HETATM    2  N2  UNL     1      -4.627   0.776  -1.205  1.00  0.00    -0.175 N 
ATOM      3  H2  UNL     1      -5.461   0.913  -1.776  1.00  0.00     0.186 HD
HETATM    4  C2  UNL     1      -4.713   0.211   0.025  1.00  0.00     0.147 A 
HETATM    5  C3  UNL     1      -3.551   0.041   0.774  1.00  0.00     0.140 A 
HETATM    6  N4  UNL     1      -3.329  -0.482   2.012  1.00  0.00    -0.279 N 
ATOM      7  H4  UNL     1      -4.036  -0.864   2.640  1.00  0.00     0.189 HD
HETATM    8  N5  UNL     1      -2.022  -0.404   2.254  1.00  0.00    -0.238 N 
ATOM      9  H5  UNL     1      -1.570  -0.723   3.111  1.00  0.00     0.208 HD
HETATM   10  N6  UNL     1      -1.398   0.140   1.238  1.00  0.00    -0.260 N 
HETATM   11  C9  UNL     1      -2.314   0.431   0.299  1.00  0.00     0.171 A 
HETATM   12  N8  UNL     1      -2.297   0.991  -0.943  1.00  0.00    -0.173 N 
ATOM     13  H8  UNL     1      -1.408   1.295  -1.340  1.00  0.00     0.186 HD
ENDROOT
BRANCH  10  14
HETATM   14  C4  UNL     1      -0.009   0.390   1.090  1.00  0.00     0.154 C 
BRANCH  14  15
HETATM   15  C5  UNL     1       0.725  -0.815   0.479  1.00  0.00     0.041 C 
BRANCH  15  16
HETATM   16  C6  UNL     1       2.181  -0.380   0.342  1.00  0.00     0.115 C 
BRANCH  16  17
HETATM   17  N7  UNL     1       3.004  -1.391  -0.199  1.00  0.00    -0.419 N 
ATOM     18  H7  UNL     1       2.674  -2.348  -0.324  1.00  0.00     0.153 HD
BRANCH  17  19
HETATM   19  C7  UNL     1       4.310  -0.997  -0.556  1.00  0.00     0.139 C 
BRANCH  19  20
HETATM   20  C8  UNL     1       5.259  -0.591   0.509  1.00  0.00     0.183 C 
BRANCH  20  21
HETATM   21  O1  UNL     1       4.817   0.507   1.234  1.00  0.00    -0.399 OA
ATOM     22  H1  UNL     1       5.425   0.767   1.916  1.00  0.00     0.209 HD
ENDBRANCH  20  21
ENDBRANCH  19  20
ENDBRANCH  17  19
ENDBRANCH  16  17
ENDBRANCH  15  16
ENDBRANCH  14  15
ENDBRANCH  10  14
BRANCH   4  23
HETATM   23  N3  UNL     1      -5.851  -0.170   0.495  1.00  0.00    -0.383 N 
ATOM     24  H32 UNL     1      -6.702  -0.046  -0.053  1.00  0.00     0.157 HD
ATOM     25  H31 UNL     1      -5.916  -0.595   1.420  1.00  0.00     0.157 HD
ENDBRANCH   4  23
BRANCH   1  26
HETATM   26  N1  UNL     1      -3.401   1.690  -2.854  1.00  0.00    -0.234 N 
ATOM     27  H12 UNL     1      -4.257   1.812  -3.396  1.00  0.00     0.174 HD
ATOM     28  H11 UNL     1      -2.483   1.975  -3.195  1.00  0.00     0.174 HD
ENDBRANCH   1  26
TORSDOF 9
