REMARK  10 active torsions:
REMARK  status: ('A' for Active; 'I' for Inactive)
REMARK    1  A    between atoms: C2_3  and  N2_4 
REMARK    2  A    between atoms: C2_3  and  C3_8 
REMARK    3  A    between atoms: C2_3  and  C4_13 
REMARK    4  A    between atoms: C3_8  and  N3_9 
REMARK    5  A    between atoms: C4_13  and  C5_14 
REMARK    6  A    between atoms: C5_14  and  O1_15 
REMARK    7  A    between atoms: O1_15  and  N4_16 
REMARK    8  A    between atoms: N4_16  and  C6_18 
REMARK    9  A    between atoms: C7_21  and  N6_22 
REMARK   10  A    between atoms: C8_27  and  N8_28 
ROOT
HETATM    1  N1  UNL     1       3.416   2.248  -1.919  1.00  0.00    -0.195 NA
HETATM    2  C1  UNL     1       3.240   1.429  -1.121  1.00  0.00     0.100 C 
HETATM    3  C2  UNL     1       3.019   0.386  -0.097  1.00  0.00     0.235 C 
ENDROOT
BRANCH   3   4
HETATM    4  N2  UNL     1       4.231   0.178   0.685  1.00  0.00    -0.056 N 
ATOM      5  H23 UNL     1       5.034  -0.035   0.093  1.00  0.00     0.276 HD
ATOM      6  H22 UNL     1       4.572   1.047   1.095  1.00  0.00     0.276 HD
ATOM      7  H21 UNL     1       4.079  -0.542   1.392  1.00  0.00     0.276 HD
ENDBRANCH   3   4
BRANCH   3   8
HETATM    8  C3  UNL     1       2.687  -0.902  -0.784  1.00  0.00     0.283 C 
BRANCH   8   9
HETATM    9  N3  UNL     1       3.816  -1.245  -1.635  1.00  0.00    -0.076 N 
ATOM     10  H33 UNL     1       4.065  -0.500  -2.285  1.00  0.00     0.274 HD
ATOM     11  H32 UNL     1       4.700  -1.281  -1.128  1.00  0.00     0.274 HD
ATOM     12  H31 UNL     1       3.590  -2.123  -2.103  1.00  0.00     0.274 HD
ENDBRANCH   8   9
ENDBRANCH   3   8
BRANCH   3  13
HETATM   13  C4  UNL     1       1.954   0.849   0.863  1.00  0.00     0.085 C 
BRANCH  13  14
HETATM   14  C5  UNL     1       0.676   1.093   0.092  1.00  0.00     0.205 C 
BRANCH  14  15
HETATM   15  O1  UNL     1      -0.289   1.529   1.062  1.00  0.00    -0.266 OA
BRANCH  15  16
HETATM   16  N4  UNL     1      -1.539   1.810   0.573  1.00  0.00    -0.095 N 
ATOM     17  H4  UNL     1      -1.771   2.756   0.272  1.00  0.00     0.213 HD
BRANCH  16  18
HETATM   18  C6  UNL     1      -2.411   0.879   0.497  1.00  0.00     0.731 A 
HETATM   19  N5  UNL     1      -3.635   1.132   0.022  1.00  0.00    -0.020 N 
HETATM   20  C7  UNL     1      -4.536   0.139  -0.049  1.00  0.00     0.705 A 
ATOM     21  H5  UNL     1      -3.883   2.073  -0.284  1.00  0.00     0.203 HD
HETATM   22  N7  UNL     1      -4.222  -1.105   0.350  1.00  0.00    -0.022 N 
HETATM   23  C8  UNL     1      -3.001  -1.377   0.827  1.00  0.00     0.705 A 
ATOM     24  H7  UNL     1      -4.919  -1.847   0.289  1.00  0.00     0.203 HD
HETATM   25  N9  UNL     1      -2.101  -0.361   0.893  1.00  0.00    -0.020 N 
ATOM     26  H9  UNL     1      -1.165  -0.548   1.254  1.00  0.00     0.203 HD
BRANCH  20  27
HETATM   27  N6  UNL     1      -5.745   0.364  -0.511  1.00  0.00    -0.234 N 
ATOM     28  H62 UNL     1      -5.983   1.308  -0.814  1.00  0.00     0.174 HD
ATOM     29  H61 UNL     1      -6.429  -0.390  -0.565  1.00  0.00     0.174 HD
ENDBRANCH  20  27
BRANCH  23  30
HETATM   30  N8  UNL     1      -2.615  -2.527   1.228  1.00  0.00    -0.234 N 
ATOM     31  H82 UNL     1      -3.291  -3.290   1.178  1.00  0.00     0.174 HD
ATOM     32  H81 UNL     1      -1.685  -2.734   1.591  1.00  0.00     0.174 HD
ENDBRANCH  23  30
ENDBRANCH  16  18
ENDBRANCH  15  16
ENDBRANCH  14  15
ENDBRANCH  13  14
ENDBRANCH   3  13
TORSDOF 10
