REMARK  11 active torsions:
REMARK  status: ('A' for Active; 'I' for Inactive)
REMARK    1  A    between atoms: N1_1  and  C1_4 
REMARK    2  A    between atoms: C2_9  and  C3_10 
REMARK    3  A    between atoms: C3_10  and  N4_11 
REMARK    4  A    between atoms: N4_11  and  C4_12 
REMARK    5  A    between atoms: N4_11  and  C6_16 
REMARK    6  A    between atoms: C4_12  and  C5_13 
REMARK    7  A    between atoms: C5_13  and  O1_14 
REMARK    8  A    between atoms: C6_16  and  C7_17 
REMARK    9  A    between atoms: C7_17  and  O2_18 
REMARK   10  A    between atoms: C8_20  and  N5_21 
REMARK   11  A    between atoms: N5_21  and  N6_23 
ROOT
HETATM    1  C1  UNL     1       3.613  -1.173   0.029  1.00  0.00     0.692 A 
HETATM    2  N2  UNL     1       2.696  -2.082   0.097  1.00  0.00    -0.132 N 
ATOM      3  H2  UNL     1       2.944  -3.071   0.077  1.00  0.00     0.205 HD
HETATM    4  N3  UNL     1       1.390  -1.695   0.196  1.00  0.00    -0.281 N 
ATOM      5  H3  UNL     1       0.686  -2.432   0.239  1.00  0.00     0.187 HD
HETATM    6  C2  UNL     1       0.975  -0.484   0.239  1.00  0.00     0.109 A 
HETATM    7  C8  UNL     1       2.029   0.531   0.189  1.00  0.00     0.164 A 
HETATM    8  N7  UNL     1       3.267   0.128   0.084  1.00  0.00    -0.172 N 
ATOM      9  H7  UNL     1       4.006   0.830   0.042  1.00  0.00     0.186 HD
ENDROOT
BRANCH   6  10
HETATM   10  C3  UNL     1      -0.291   0.137   0.642  1.00  0.00     0.120 C 
BRANCH  10  11
HETATM   11  N4  UNL     1      -1.423   0.028  -0.132  1.00  0.00    -0.384 N 
BRANCH  11  12
HETATM   12  C4  UNL     1      -1.360  -0.816  -1.266  1.00  0.00     0.148 C 
BRANCH  12  13
HETATM   13  C5  UNL     1      -2.615  -0.887  -2.060  1.00  0.00     0.183 C 
BRANCH  13  14
HETATM   14  O1  UNL     1      -2.999   0.371  -2.559  1.00  0.00    -0.399 OA
ATOM     15  H1  UNL     1      -3.801   0.326  -3.066  1.00  0.00     0.209 HD
ENDBRANCH  13  14
ENDBRANCH  12  13
ENDBRANCH  11  12
BRANCH  11  16
HETATM   16  C6  UNL     1      -2.622  -0.063   0.614  1.00  0.00     0.148 C 
BRANCH  16  17
HETATM   17  C7  UNL     1      -2.886   1.123   1.533  1.00  0.00     0.183 C 
BRANCH  17  18
HETATM   18  O2  UNL     1      -1.930   1.195   2.549  1.00  0.00    -0.399 OA
ATOM     19  H2  UNL     1      -2.095   1.935   3.122  1.00  0.00     0.209 HD
ENDBRANCH  17  18
ENDBRANCH  16  17
ENDBRANCH  11  16
ENDBRANCH  10  11
ENDBRANCH   6  10
BRANCH   7  20
HETATM   20  N5  UNL     1       1.649   1.750   0.029  1.00  0.00    -0.290 N 
ATOM     21  H5  UNL     1       0.694   2.078  -0.113  1.00  0.00     0.188 HD
BRANCH  20  22
HETATM   22  N6  UNL     1       2.884   2.592   0.092  1.00  0.00    -0.344 N 
ATOM     23  H62 UNL     1       3.835   2.252   0.235  1.00  0.00     0.176 HD
ATOM     24  H61 UNL     1       2.583   3.558  -0.035  1.00  0.00     0.176 HD
ENDBRANCH  20  22
ENDBRANCH   7  20
BRANCH   1  25
HETATM   25  N1  UNL     1       4.891  -1.393  -0.013  1.00  0.00    -0.233 N 
ATOM     26  H12 UNL     1       5.153  -2.378  -0.055  1.00  0.00     0.174 HD
ATOM     27  H11 UNL     1       5.614  -0.676  -0.067  1.00  0.00     0.174 HD
ENDBRANCH   1  25
TORSDOF 11
