REMARK  10 active torsions:
REMARK  status: ('A' for Active; 'I' for Inactive)
REMARK    1  A    between atoms: N1_1  and  C1_4 
REMARK    2  A    between atoms: C2_9  and  C3_10 
REMARK    3  A    between atoms: C3_10  and  C4_11 
REMARK    4  A    between atoms: C4_11  and  N4_12 
REMARK    5  A    between atoms: N4_12  and  C5_13 
REMARK    6  A    between atoms: N4_12  and  N5_17 
REMARK    7  A    between atoms: C5_13  and  C6_14 
REMARK    8  A    between atoms: C6_14  and  O1_15 
REMARK       I    between atoms: C7_19  and  N7_21 
REMARK    9  A    between atoms: N7_21  and  N8_23 
REMARK   10  A    between atoms: N9_26  and  N10_27 
ROOT
HETATM    1  C4  UNL     1       0.174   0.061  -0.647  1.00  0.00     0.150 C 
ENDROOT
BRANCH   1   2
HETATM    2  C3  UNL     1       1.341  -0.651   0.005  1.00  0.00     0.102 C 
BRANCH   2   3
HETATM    3  C2  UNL     1       2.559   0.189  -0.167  1.00  0.00     0.137 A 
HETATM    4  N3  UNL     1       2.628   1.379  -0.795  1.00  0.00    -0.273 N 
HETATM    5  N2  UNL     1       3.842   1.870  -0.778  1.00  0.00    -0.129 N 
ATOM      6  H3  UNL     1       1.831   1.842  -1.231  1.00  0.00     0.189 HD
HETATM    7  C1  UNL     1       4.589   0.975  -0.119  1.00  0.00     0.712 A 
ATOM      8  H2  UNL     1       4.154   2.752  -1.183  1.00  0.00     0.205 HD
HETATM    9  N9  UNL     1       3.812  -0.057   0.258  1.00  0.00    -0.078 N 
BRANCH   7  10
HETATM   10  N1  UNL     1       5.854   1.076   0.122  1.00  0.00    -0.232 N 
ATOM     11  H12 UNL     1       6.443   1.858  -0.164  1.00  0.00     0.174 HD
ATOM     12  H11 UNL     1       6.423   0.394   0.624  1.00  0.00     0.174 HD
ENDBRANCH   7  10
BRANCH   9  13
HETATM   13  N10 UNL     1       4.178  -1.192   0.958  1.00  0.00    -0.323 N 
ATOM     14 2H10 UNL     1       5.128  -1.378   1.280  1.00  0.00     0.178 HD
ATOM     15 1H10 UNL     1       3.589  -1.974   1.244  1.00  0.00     0.178 HD
ENDBRANCH   9  13
ENDBRANCH   2   3
ENDBRANCH   1   2
BRANCH   1  16
HETATM   16  N4  UNL     1      -1.055  -0.665  -0.537  1.00  0.00    -0.323 N 
BRANCH  16  17
HETATM   17  C5  UNL     1      -1.221  -1.917  -1.257  1.00  0.00     0.168 C 
BRANCH  17  18
HETATM   18  C6  UNL     1      -2.605  -2.473  -0.966  1.00  0.00     0.185 C 
BRANCH  18  19
HETATM   19  O1  UNL     1      -2.756  -2.704   0.403  1.00  0.00    -0.399 OA
ATOM     20  H1  UNL     1      -3.621  -3.052   0.585  1.00  0.00     0.209 HD
ENDBRANCH  18  19
ENDBRANCH  17  18
ENDBRANCH  16  17
BRANCH  16  21
HETATM   21  N5  UNL     1      -2.070  -0.140   0.269  1.00  0.00    -0.275 N 
HETATM   22  C7  UNL     1      -2.617   1.002   0.083  1.00  0.00     0.221 C 
HETATM   23  N6  UNL     1      -2.232   1.873  -1.000  1.00  0.00    -0.061 NA
HETATM   24  N7  UNL     1      -3.636   1.475   0.935  1.00  0.00    -0.279 N 
ATOM     25  H7  UNL     1      -3.535   1.384   1.946  1.00  0.00     0.189 HD
ATOM     26  H5  UNL     1      -2.395  -0.703   1.055  1.00  0.00     0.189 HD
BRANCH  24  27
HETATM   27  N8  UNL     1      -4.777   2.064   0.406  1.00  0.00    -0.343 N 
ATOM     28  H82 UNL     1      -4.863   2.147  -0.607  1.00  0.00     0.176 HD
ATOM     29  H81 UNL     1      -5.514   2.406   1.022  1.00  0.00     0.176 HD
ENDBRANCH  24  27
ENDBRANCH  16  21
ENDBRANCH   1  16
TORSDOF 10
