REMARK  14 active torsions:
REMARK  status: ('A' for Active; 'I' for Inactive)
REMARK    1  A    between atoms: C4_7  and  N3_8 
REMARK    2  A    between atoms: N3_8  and  O1_10 
REMARK    3  A    between atoms: C6_13  and  N4_14 
REMARK    4  A    between atoms: C6_13  and  C16_41 
REMARK    5  A    between atoms: N4_14  and  N5_16 
REMARK    6  A    between atoms: N5_16  and  C7_18 
REMARK       I    between atoms: N9_25  and  C9_26 
REMARK    7  A    between atoms: C9_26  and  C10_28 
REMARK    8  A    between atoms: C10_28  and  N10_29 
REMARK    9  A    between atoms: C10_28  and  C11_33 
REMARK   10  A    between atoms: C11_33  and  C12_34 
REMARK   11  A    between atoms: C13_37  and  C14_38 
REMARK   12  A    between atoms: C18_47  and  C19_48 
REMARK   13  A    between atoms: C19_48  and  O7_50 
REMARK   14  A    between atoms: O7_50  and  C20_51 
ROOT
HETATM    1  N4  UNL     1      -1.073  -0.800  -0.480  1.00  0.00    -0.296 N 
ATOM      2  H4  UNL     1      -0.902  -0.393   0.440  1.00  0.00     0.187 HD
ENDROOT
BRANCH   1   3
HETATM    3  C6  UNL     1      -2.420  -1.011  -0.972  1.00  0.00     0.093 C 
HETATM    4  C5  UNL     1      -3.076  -2.026  -0.488  1.00  0.00     0.069 A 
HETATM    5  C2  UNL     1      -4.337  -2.526  -0.709  1.00  0.00     0.055 A 
HETATM    6  C4  UNL     1      -2.534  -2.919   0.472  1.00  0.00     0.156 A 
HETATM    7  C1  UNL     1      -5.279  -2.086  -1.509  1.00  0.00     0.045 C 
HETATM    8  N1  UNL     1      -4.486  -3.634   0.085  1.00  0.00    -0.297 N 
HETATM    9  N2  UNL     1      -3.413  -3.868   0.788  1.00  0.00    -0.279 N 
ATOM     10  H1  UNL     1      -5.331  -4.204   0.121  1.00  0.00     0.187 HD
HETATM   11  C3  UNL     1      -3.200  -4.965   1.750  1.00  0.00     0.179 C 
BRANCH   6  12
HETATM   12  N3  UNL     1      -1.357  -2.862   0.997  1.00  0.00    -0.251 N 
ATOM     13  H3  UNL     1      -0.739  -2.105   0.704  1.00  0.00     0.196 HD
BRANCH  12  14
HETATM   14  O1  UNL     1      -0.890  -3.748   1.916  1.00  0.00    -0.288 OA
ATOM     15  H1  UNL     1      -0.023  -3.706   2.303  1.00  0.00     0.244 HD
ENDBRANCH  12  14
ENDBRANCH   6  12
BRANCH   3  16
HETATM   16  C16 UNL     1      -2.847  -0.054  -1.943  1.00  0.00     0.095 A 
HETATM   17  N11 UNL     1      -2.755  -0.120  -3.306  1.00  0.00    -0.348 N 
HETATM   18  C17 UNL     1      -3.228   0.982  -3.876  1.00  0.00     0.181 A 
ATOM     19  H11 UNL     1      -2.372  -0.914  -3.819  1.00  0.00     0.167 HD
HETATM   20  N12 UNL     1      -3.629   1.767  -2.861  1.00  0.00    -0.346 N 
HETATM   21  C18 UNL     1      -3.421   1.188  -1.678  1.00  0.00     0.138 A 
ATOM     22  H12 UNL     1      -4.042   2.692  -2.981  1.00  0.00     0.167 HD
BRANCH  21  23
HETATM   23  C19 UNL     1      -3.734   1.747  -0.351  1.00  0.00     0.312 C 
HETATM   24  O6  UNL     1      -3.486   1.100   0.672  1.00  0.00    -0.258 OA
BRANCH  23  25
HETATM   25  O7  UNL     1      -4.302   2.989  -0.247  1.00  0.00    -0.317 OA
BRANCH  25  26
HETATM   26  C20 UNL     1      -4.638   3.607   0.981  1.00  0.00     0.175 C 
HETATM   27  C21 UNL     1      -3.389   3.762   1.798  1.00  0.00     0.034 C 
ENDBRANCH  25  26
ENDBRANCH  23  25
ENDBRANCH  21  23
ENDBRANCH   3  16
ENDBRANCH   1   3
BRANCH   1  28
HETATM   28  N5  UNL     1      -0.018  -1.176  -1.316  1.00  0.00    -0.286 N 
ATOM     29  H5  UNL     1      -0.204  -1.567  -2.240  1.00  0.00     0.188 HD
BRANCH  28  30
HETATM   30  C7  UNL     1       1.342  -1.003  -0.853  1.00  0.00     0.131 C 
HETATM   31  N6  UNL     1       2.173  -1.930  -1.070  1.00  0.00    -0.316 N 
HETATM   32  C8  UNL     1       3.526  -1.884  -0.662  1.00  0.00     0.208 C 
ATOM     33  H6  UNL     1       1.849  -2.759  -1.568  1.00  0.00     0.170 HD
HETATM   34  N7  UNL     1       4.373  -2.969  -0.965  1.00  0.00    -0.062 NA
HETATM   35  N8  UNL     1       3.874  -0.823  -0.032  1.00  0.00    -0.267 N 
HETATM   36  N9  UNL     1       3.046   0.234   0.267  1.00  0.00    -0.237 N 
ATOM     37  H8  UNL     1       4.845  -0.757   0.273  1.00  0.00     0.190 HD
HETATM   38  C9  UNL     1       3.482   1.346   1.084  1.00  0.00     0.270 C 
HETATM   39  C13 UNL     1       1.702   0.267  -0.207  1.00  0.00     0.249 C 
HETATM   40  O2  UNL     1       2.654   2.271   1.323  1.00  0.00    -0.269 OA
BRANCH  38  41
HETATM   41  C10 UNL     1       4.827   1.452   1.646  1.00  0.00     0.286 C 
BRANCH  41  42
HETATM   42  N10 UNL     1       4.872   2.639   2.497  1.00  0.00    -0.066 N 
ATOM     43 3H10 UNL     1       4.582   3.486   2.008  1.00  0.00     0.275 HD
ATOM     44 2H10 UNL     1       4.145   2.638   3.213  1.00  0.00     0.275 HD
ATOM     45 1H10 UNL     1       5.811   2.713   2.889  1.00  0.00     0.275 HD
ENDBRANCH  41  42
BRANCH  41  46
HETATM   46  C11 UNL     1       5.949   1.465   0.638  1.00  0.00     0.155 C 
BRANCH  46  47
HETATM   47  C12 UNL     1       7.215   1.585   1.437  1.00  0.00     0.175 C 
HETATM   48  O3  UNL     1       7.285   2.608   2.204  1.00  0.00    -0.648 OA
HETATM   49  O4  UNL     1       8.241   0.675   1.370  1.00  0.00    -0.648 OA
ENDBRANCH  46  47
ENDBRANCH  41  46
ENDBRANCH  38  41
BRANCH  39  50
HETATM   50  C14 UNL     1       1.514   1.339  -1.263  1.00  0.00     0.155 C 
HETATM   51  C15 UNL     1       2.691   2.064  -1.761  1.00  0.00     0.093 C 
HETATM   52  O5  UNL     1       0.417   1.601  -1.699  1.00  0.00    -0.296 OA
ENDBRANCH  39  50
ENDBRANCH  28  30
ENDBRANCH   1  28
TORSDOF 14
