REMARK  14 active torsions:
REMARK  status: ('A' for Active; 'I' for Inactive)
REMARK    1  A    between atoms: C3_6  and  C4_7 
REMARK    2  A    between atoms: C4_7  and  O2_8 
REMARK    3  A    between atoms: C4_7  and  C5_10 
REMARK       I    between atoms: C5_10  and  N2_12 
REMARK    4  A    between atoms: N2_12  and  C6_14 
REMARK    5  A    between atoms: C6_14  and  C7_15 
REMARK    6  A    between atoms: C7_15  and  O4_16 
REMARK    7  A    between atoms: C7_15  and  C8_18 
REMARK    8  A    between atoms: C8_18  and  C9_19 
REMARK    9  A    between atoms: C10_23  and  O7_24 
REMARK   10  A    between atoms: O7_24  and  C11_25 
REMARK   11  A    between atoms: C16_31  and  N4_32 
REMARK   12  A    between atoms: C17_36  and  C18_37 
REMARK       I    between atoms: C18_37  and  N5_39 
REMARK   13  A    between atoms: N5_39  and  N6_41 
REMARK   14  A    between atoms: C19_44  and  O12_45 
ROOT
HETATM    1  C8  UNL     1      -0.409   0.997   0.441  1.00  0.00     0.199 C 
HETATM    2  O6  UNL     1      -1.110  -0.013   1.169  1.00  0.00    -0.312 OA
HETATM    3  C10 UNL     1      -2.280  -0.403   0.558  1.00  0.00     0.421 C 
HETATM    4  O10 UNL     1      -2.272  -0.204  -0.833  1.00  0.00    -0.321 OA
HETATM    5  C17 UNL     1      -2.371   1.179  -1.019  1.00  0.00     0.252 C 
HETATM    6  C19 UNL     1      -1.415   1.930  -0.121  1.00  0.00     0.203 C 
ENDROOT
BRANCH   1   7
HETATM    7  C7  UNL     1       0.471   1.608   1.504  1.00  0.00     0.182 C 
BRANCH   7   8
HETATM    8  C6  UNL     1       1.256   2.803   1.180  1.00  0.00     0.158 C 
BRANCH   8   9
HETATM    9  N2  UNL     1       2.368   2.706   0.298  1.00  0.00    -0.356 N 
HETATM   10  C5  UNL     1       3.536   1.901   0.595  1.00  0.00     0.252 C 
HETATM   11  O3  UNL     1       3.546   1.277   1.668  1.00  0.00    -0.270 OA
ATOM     12  H2  UNL     1       2.342   3.225  -0.580  1.00  0.00     0.162 HD
BRANCH  10  13
HETATM   13  C4  UNL     1       4.657   1.839  -0.352  1.00  0.00     0.263 C 
BRANCH  13  14
HETATM   14  C3  UNL     1       4.803   0.517  -0.993  1.00  0.00     0.097 A 
HETATM   15  N1  UNL     1       4.950   0.344  -2.355  1.00  0.00    -0.260 N 
HETATM   16  O1  UNL     1       5.043  -0.895  -2.637  1.00  0.00    -0.241 OA
ATOM     17  H1  UNL     1       4.980   1.101  -3.038  1.00  0.00     0.194 HD
HETATM   18  C2  UNL     1       4.974  -1.645  -1.571  1.00  0.00     0.098 A 
HETATM   19  C1  UNL     1       5.042  -3.125  -1.483  1.00  0.00     0.081 C 
HETATM   20  C20 UNL     1       4.821  -0.754  -0.507  1.00  0.00     0.105 A 
HETATM   21  N7  UNL     1       4.722  -1.180   0.844  1.00  0.00    -0.098 NA
ENDBRANCH  13  14
BRANCH  13  22
HETATM   22  O2  UNL     1       4.464   2.789  -1.393  1.00  0.00    -0.380 OA
ATOM     23  H2  UNL     1       4.370   3.640  -0.981  1.00  0.00     0.211 HD
ENDBRANCH  13  22
ENDBRANCH  10  13
ENDBRANCH   8   9
ENDBRANCH   7   8
BRANCH   7  24
HETATM   24  O4  UNL     1      -0.468   2.090   2.509  1.00  0.00    -0.390 OA
ATOM     25  H4  UNL     1      -0.977   1.316   2.719  1.00  0.00     0.210 HD
ENDBRANCH   7  24
ENDBRANCH   1   7
BRANCH   1  26
HETATM   26  C9  UNL     1       0.385   0.286  -0.560  1.00  0.00     0.271 C 
HETATM   27  N3  UNL     1       0.546  -1.122  -0.482  1.00  0.00    -0.059 NA
HETATM   28  O5  UNL     1       0.960   0.847  -1.526  1.00  0.00    -0.273 OA
ENDBRANCH   1  26
BRANCH   6  29
HETATM   29  O12 UNL     1      -2.163   2.482   0.920  1.00  0.00    -0.389 OA
ATOM     30  H12 UNL     1      -2.808   3.080   0.560  1.00  0.00     0.210 HD
ENDBRANCH   6  29
BRANCH   3  31
HETATM   31  O7  UNL     1      -2.591  -1.741   0.794  1.00  0.00    -0.294 OA
BRANCH  31  32
HETATM   32  C11 UNL     1      -3.707  -2.274   1.366  1.00  0.00     0.110 A 
HETATM   33  C12 UNL     1      -4.745  -1.507   1.811  1.00  0.00     0.040 A 
HETATM   34  C13 UNL     1      -5.852  -2.148   2.385  1.00  0.00     0.006 A 
HETATM   35  C14 UNL     1      -5.911  -3.506   2.507  1.00  0.00     0.045 A 
HETATM   36  C15 UNL     1      -4.865  -4.274   2.059  1.00  0.00     0.152 A 
HETATM   37  F1  UNL     1      -4.941  -5.612   2.188  1.00  0.00    -0.203 F 
HETATM   38  C16 UNL     1      -3.771  -3.666   1.493  1.00  0.00     0.174 A 
BRANCH  38  39
HETATM   39  N4  UNL     1      -2.668  -4.432   1.017  1.00  0.00    -0.110 N 
HETATM   40  O8  UNL     1      -2.437  -4.608  -0.206  1.00  0.00    -0.532 OA
HETATM   41  O9  UNL     1      -1.828  -4.998   1.935  1.00  0.00    -0.532 OA
ENDBRANCH  38  39
ENDBRANCH  31  32
ENDBRANCH   3  31
BRANCH   5  42
HETATM   42  C18 UNL     1      -2.216   1.546  -2.445  1.00  0.00     0.267 C 
HETATM   43  O11 UNL     1      -2.020   0.650  -3.297  1.00  0.00    -0.269 OA
HETATM   44  N5  UNL     1      -2.280   2.887  -2.892  1.00  0.00    -0.274 N 
ATOM     45  H5  UNL     1      -2.440   3.617  -2.197  1.00  0.00     0.189 HD
BRANCH  44  46
HETATM   46  N6  UNL     1      -2.139   3.269  -4.216  1.00  0.00    -0.343 N 
ATOM     47  H62 UNL     1      -1.980   2.526  -4.897  1.00  0.00     0.176 HD
ATOM     48  H61 UNL     1      -2.185   4.236  -4.538  1.00  0.00     0.176 HD
ENDBRANCH  44  46
ENDBRANCH   5  42
TORSDOF 14
