REMARK  13 active torsions:
REMARK  status: ('A' for Active; 'I' for Inactive)
REMARK    1  A    between atoms: C2_3  and  N2_4 
REMARK    2  A    between atoms: C3_9  and  S1_10 
REMARK    3  A    between atoms: S1_10  and  C4_13 
REMARK    4  A    between atoms: C4_13  and  N5_14 
REMARK    5  A    between atoms: N5_14  and  C5_17 
REMARK    6  A    between atoms: C5_17  and  C6_18 
REMARK    7  A    between atoms: C6_18  and  N6_19 
REMARK       I    between atoms: N6_19  and  C7_21 
REMARK    8  A    between atoms: C7_21  and  C8_23 
REMARK    9  A    between atoms: C12_30  and  N8_31 
REMARK   10  A    between atoms: C13_34  and  N9_35 
REMARK   11  A    between atoms: N9_35  and  C14_37 
REMARK   12  A    between atoms: C17_44  and  O4_45 
REMARK   13  A    between atoms: C18_47  and  O5_48 
ROOT
HETATM    1  N1  UNL     1      10.626  -1.939  -1.948  1.00  0.00    -0.195 NA
HETATM    2  C1  UNL     1      10.349  -0.856  -2.201  1.00  0.00     0.082 C 
HETATM    3  C2  UNL     1       9.982   0.522  -2.524  1.00  0.00     0.294 C 
ENDROOT
BRANCH   3   4
HETATM    4  N2  UNL     1       8.595   0.727  -2.106  1.00  0.00    -0.204 N 
HETATM    5  N3  UNL     1       7.543   0.515  -2.852  1.00  0.00    -0.223 N 
HETATM    6  N4  UNL     1       6.449   0.807  -2.138  1.00  0.00    -0.259 N 
ATOM      7  H3  UNL     1       7.554   0.183  -3.816  1.00  0.00     0.210 HD
HETATM    8  C3  UNL     1       6.826   1.212  -0.914  1.00  0.00     0.236 A 
ATOM      9  H4  UNL     1       5.487   0.734  -2.469  1.00  0.00     0.191 HD
HETATM   10  N12 UNL     1       8.167   1.157  -0.909  1.00  0.00    -0.256 N 
ATOM     11  H12 UNL     1       8.766   1.403  -0.121  1.00  0.00     0.191 HD
BRANCH   8  12
HETATM   12  S1  UNL     1       5.734   1.688   0.363  1.00  0.00     0.234 S 
HETATM   13  O1  UNL     1       6.352   2.734   1.253  1.00  0.00    -0.218 OA
HETATM   14  O2  UNL     1       4.463   2.268  -0.182  1.00  0.00    -0.218 OA
BRANCH  12  15
HETATM   15  C4  UNL     1       5.297   0.296   1.383  1.00  0.00     0.380 C 
BRANCH  15  16
HETATM   16  N5  UNL     1       4.402   0.767   2.406  1.00  0.00    -0.060 N 
ATOM     17  H52 UNL     1       4.809   1.551   2.916  1.00  0.00     0.278 HD
ATOM     18  H51 UNL     1       3.595   1.238   1.998  1.00  0.00     0.278 HD
BRANCH  16  19
HETATM   19  C5  UNL     1       3.988  -0.282   3.310  1.00  0.00     0.253 C 
BRANCH  19  20
HETATM   20  C6  UNL     1       3.107  -1.319   2.705  1.00  0.00     0.150 C 
BRANCH  20  21
HETATM   21  N6  UNL     1       1.846  -0.756   2.187  1.00  0.00    -0.355 N 
HETATM   22  C7  UNL     1       0.932  -1.630   1.597  1.00  0.00     0.257 C 
HETATM   23  O3  UNL     1       1.191  -2.888   1.524  1.00  0.00    -0.267 OA
ATOM     24  H6  UNL     1       1.648   0.242   2.258  1.00  0.00     0.162 HD
BRANCH  22  25
HETATM   25  C8  UNL     1      -0.341  -1.253   1.038  1.00  0.00     0.097 A 
HETATM   26  C9  UNL     1      -0.625  -0.004   0.571  1.00  0.00     0.061 A 
HETATM   27 CL1  UNL     1       0.590   1.287   0.447  1.00  0.00    -0.082 Cl
HETATM   28  C10 UNL     1      -1.917   0.255   0.118  1.00  0.00    -0.008 A 
HETATM   29  C11 UNL     1      -2.891  -0.700   0.131  1.00  0.00     0.044 A 
HETATM   30  C19 UNL     1      -2.160   1.637  -0.380  1.00  0.00     0.076 C 
HETATM   31  N7  UNL     1      -2.614  -1.924   0.586  1.00  0.00    -0.343 N 
HETATM   32  C13 UNL     1      -4.216  -0.278  -0.374  1.00  0.00     0.166 C 
HETATM   33  C12 UNL     1      -1.386  -2.205   1.027  1.00  0.00     0.116 A 
ATOM     34  H7  UNL     1      -3.338  -2.642   0.597  1.00  0.00     0.167 HD
HETATM   35  C17 UNL     1      -4.506   1.060   0.277  1.00  0.00     0.175 C 
HETATM   36  C18 UNL     1      -3.586   2.054  -0.398  1.00  0.00     0.153 C 
BRANCH  33  37
HETATM   37  N8  UNL     1      -1.126  -3.382   1.462  1.00  0.00    -0.385 N 
ATOM     38  H82 UNL     1      -0.188  -3.597   1.799  1.00  0.00     0.157 HD
ATOM     39  H81 UNL     1      -1.880  -4.069   1.454  1.00  0.00     0.157 HD
ENDBRANCH  33  37
BRANCH  32  40
HETATM   40  N9  UNL     1      -5.272  -1.212  -0.235  1.00  0.00    -0.350 N 
ATOM     41  H9  UNL     1      -5.127  -2.102   0.241  1.00  0.00     0.163 HD
BRANCH  40  42
HETATM   42  C14 UNL     1      -6.564  -0.865  -0.789  1.00  0.00     0.171 C 
HETATM   43  N10 UNL     1      -6.824  -0.565  -2.003  1.00  0.00    -0.361 N 
HETATM   44  C15 UNL     1      -8.190  -0.265  -2.267  1.00  0.00     0.142 C 
ATOM     45  H10 UNL     1      -6.107  -0.542  -2.728  1.00  0.00     0.162 HD
HETATM   46  C16 UNL     1      -8.877  -0.674  -0.996  1.00  0.00     0.142 C 
HETATM   47  N11 UNL     1      -7.775  -0.800  -0.058  1.00  0.00    -0.361 N 
ATOM     48  H11 UNL     1      -7.859  -0.836   0.958  1.00  0.00     0.162 HD
ENDBRANCH  40  42
ENDBRANCH  32  40
BRANCH  35  49
HETATM   49  O4  UNL     1      -5.806   1.474   0.038  1.00  0.00    -0.391 OA
ATOM     50  H4  UNL     1      -5.988   2.312   0.446  1.00  0.00     0.210 HD
ENDBRANCH  35  49
BRANCH  36  51
HETATM   51  O5  UNL     1      -3.832   3.325   0.086  1.00  0.00    -0.393 OA
ATOM     52  H5  UNL     1      -3.254   3.949  -0.338  1.00  0.00     0.210 HD
ENDBRANCH  36  51
ENDBRANCH  22  25
ENDBRANCH  20  21
ENDBRANCH  19  20
ENDBRANCH  16  19
ENDBRANCH  15  16
ENDBRANCH  12  15
ENDBRANCH   8  12
ENDBRANCH   3   4
TORSDOF 13
