REMARK  12 active torsions:
REMARK  status: ('A' for Active; 'I' for Inactive)
REMARK       I    between atoms: N2_3  and  C2_5 
REMARK    1  A    between atoms: C2_5  and  C3_7 
REMARK    2  A    between atoms: C3_7  and  N3_8 
REMARK    3  A    between atoms: C4_12  and  N4_13 
REMARK       I    between atoms: N4_13  and  C5_14 
REMARK    4  A    between atoms: C5_14  and  C6_16 
REMARK    5  A    between atoms: C6_16  and  N5_17 
REMARK    6  A    between atoms: C6_16  and  C7_21 
REMARK    7  A    between atoms: C7_21  and  N6_22 
REMARK    8  A    between atoms: C10_27  and  N8_28 
REMARK    9  A    between atoms: C14_41  and  O3_42 
REMARK   10  A    between atoms: O3_42  and  C15_43 
REMARK   11  A    between atoms: C15_43  and  C16_44 
REMARK   12  A    between atoms: C21_50  and  C22_51 
ROOT
HETATM    1  N1  UNL     1      -0.459  -1.694   4.428  1.00  0.00    -0.172 NA
HETATM    2  C1  UNL     1      -0.581  -1.687   3.268  1.00  0.00     0.184 C 
HETATM    3  N2  UNL     1      -0.702  -1.690   1.895  1.00  0.00    -0.261 N 
ATOM      4  H2  UNL     1      -0.561  -2.576   1.410  1.00  0.00     0.181 HD
HETATM    5  C2  UNL     1      -1.011  -0.543   1.103  1.00  0.00     0.274 C 
HETATM    6  O1  UNL     1      -1.178   0.524   1.729  1.00  0.00    -0.269 OA
ENDROOT
BRANCH   5   7
HETATM    7  C3  UNL     1      -1.104  -0.703  -0.358  1.00  0.00     0.287 C 
HETATM    8  C4  UNL     1       0.098  -0.201  -1.122  1.00  0.00     0.242 C 
HETATM    9  C13 UNL     1      -0.513   0.695  -2.219  1.00  0.00     0.278 C 
HETATM   10  N11 UNL     1      -1.867   0.193  -2.374  1.00  0.00    -0.043 N 
HETATM   11  C14 UNL     1      -2.280  -0.023  -0.976  1.00  0.00     0.370 C 
ATOM     12 2H11 UNL     1      -2.488   0.790  -2.920  1.00  0.00     0.280 HD
ATOM     13 1H11 UNL     1      -1.958  -0.622  -2.981  1.00  0.00     0.280 HD
BRANCH   7  14
HETATM   14  N3  UNL     1      -1.193  -2.159  -0.640  1.00  0.00    -0.054 N 
ATOM     15  H33 UNL     1      -0.427  -2.692  -0.229  1.00  0.00     0.276 HD
ATOM     16  H32 UNL     1      -1.956  -2.616  -0.140  1.00  0.00     0.276 HD
ATOM     17  H31 UNL     1      -1.257  -2.270  -1.652  1.00  0.00     0.276 HD
ENDBRANCH   7  14
BRANCH   8  18
HETATM   18  N4  UNL     1       1.085   0.452  -0.494  1.00  0.00    -0.403 NA
HETATM   19  C5  UNL     1       2.122   1.138   0.166  1.00  0.00     0.319 C 
HETATM   20  O2  UNL     1       1.998   2.166   0.834  1.00  0.00    -0.255 OA
BRANCH  19  21
HETATM   21  C6  UNL     1       3.521   0.580   0.053  1.00  0.00     0.307 C 
BRANCH  21  22
HETATM   22  N5  UNL     1       3.551  -0.738  -0.509  1.00  0.00    -0.064 N 
ATOM     23  H53 UNL     1       2.947  -1.372   0.014  1.00  0.00     0.275 HD
ATOM     24  H52 UNL     1       3.075  -0.761  -1.411  1.00  0.00     0.275 HD
ATOM     25  H51 UNL     1       4.496  -1.115  -0.585  1.00  0.00     0.275 HD
ENDBRANCH  21  22
BRANCH  21  26
HETATM   26  C7  UNL     1       4.277   0.604   1.335  1.00  0.00     0.175 C 
BRANCH  26  27
HETATM   27  N6  UNL     1       5.621   0.039   1.125  1.00  0.00    -0.325 N 
HETATM   28  C8  UNL     1       5.983  -1.243   1.257  1.00  0.00     0.185 A 
HETATM   29  N7  UNL     1       7.299  -1.386   0.965  1.00  0.00    -0.346 N 
HETATM   30  C9  UNL     1       7.760  -0.165   0.647  1.00  0.00     0.122 A 
ATOM     31  H7  UNL     1       7.836  -2.253   0.983  1.00  0.00     0.167 HD
HETATM   32  C10 UNL     1       9.016   0.264   0.264  1.00  0.00     0.131 A 
HETATM   33  C12 UNL     1       6.695   0.714   0.752  1.00  0.00     0.140 A 
HETATM   34  N9  UNL     1       9.205   1.551  -0.008  1.00  0.00    -0.337 N 
HETATM   35  C11 UNL     1       8.190   2.421   0.088  1.00  0.00     0.183 A 
ATOM     36  H9  UNL     1      10.128   1.879  -0.292  1.00  0.00     0.168 HD
HETATM   37  N10 UNL     1       6.957   2.019   0.459  1.00  0.00    -0.336 N 
ATOM     38  H10 UNL     1       6.205   2.706   0.522  1.00  0.00     0.168 HD
BRANCH  32  39
HETATM   39  N8  UNL     1       9.986  -0.594   0.167  1.00  0.00    -0.383 N 
ATOM     40  H82 UNL     1       9.841  -1.582   0.376  1.00  0.00     0.157 HD
ATOM     41  H81 UNL     1      10.913  -0.277  -0.116  1.00  0.00     0.157 HD
ENDBRANCH  32  39
ENDBRANCH  26  27
ENDBRANCH  21  26
ENDBRANCH  19  21
ENDBRANCH   8  18
BRANCH  11  42
HETATM   42  O3  UNL     1      -3.471  -0.671  -0.889  1.00  0.00    -0.352 OA
BRANCH  42  43
HETATM   43  C15 UNL     1      -4.478   0.184  -0.351  1.00  0.00     0.210 C 
BRANCH  43  44
HETATM   44  C16 UNL     1      -5.745  -0.551  -0.222  1.00  0.00    -0.018 A 
HETATM   45  C17 UNL     1      -5.760  -1.901  -0.583  1.00  0.00     0.052 A 
HETATM   46  C18 UNL     1      -6.931  -2.604  -0.439  1.00  0.00     0.117 A 
HETATM   47  F1  UNL     1      -7.028  -3.922  -0.759  1.00  0.00    -0.206 F 
HETATM   48  C19 UNL     1      -8.096  -2.022   0.050  1.00  0.00     0.043 A 
HETATM   49  C20 UNL     1      -8.046  -0.689   0.396  1.00  0.00     0.019 A 
HETATM   50  C21 UNL     1      -6.869   0.056   0.263  1.00  0.00     0.019 A 
BRANCH  50  51
HETATM   51  C22 UNL     1      -6.835   1.457   0.634  1.00  0.00     0.148 A 
HETATM   52  N12 UNL     1      -7.917   2.096   1.166  1.00  0.00    -0.268 N 
HETATM   53  N13 UNL     1      -7.604   3.354   1.386  1.00  0.00    -0.227 N 
ATOM     54  H12 UNL     1      -8.822   1.667   1.361  1.00  0.00     0.190 HD
HETATM   55  N14 UNL     1      -6.353   3.531   1.009  1.00  0.00    -0.227 N 
ATOM     56  H13 UNL     1      -8.220   4.066   1.779  1.00  0.00     0.210 HD
HETATM   57  N15 UNL     1      -5.894   2.393   0.559  1.00  0.00    -0.268 N 
ATOM     58  H14 UNL     1      -5.832   4.407   1.060  1.00  0.00     0.210 HD
ATOM     59  H15 UNL     1      -4.950   2.245   0.202  1.00  0.00     0.190 HD
ENDBRANCH  50  51
ENDBRANCH  43  44
ENDBRANCH  42  43
ENDBRANCH  11  42
ENDBRANCH   5   7
TORSDOF 12
