REMARK  9 active torsions:
REMARK  status: ('A' for Active; 'I' for Inactive)
REMARK    1  A    between atoms: C2_2  and  C3_3 
REMARK    2  A    between atoms: C3_3  and  C4_4 
REMARK    3  A    between atoms: C5_9  and  S1_10 
REMARK    4  A    between atoms: S1_10  and  C6_11 
REMARK    5  A    between atoms: C6_11  and  C7_12 
REMARK    6  A    between atoms: C7_12  and  N3_13 
REMARK    7  A    between atoms: C8_18  and  C9_19 
REMARK    8  A    between atoms: C9_19  and  O1_20 
REMARK    9  A    between atoms: C11_22  and  N6_23 
ROOT
HETATM    1  C7  UNL     1       1.416   0.552  -0.141  1.00  0.00     0.163 C 
ENDROOT
BRANCH   1   2
HETATM    2  C6  UNL     1       0.942   0.820   1.266  1.00  0.00     0.103 C 
BRANCH   2   3
HETATM    3  S1  UNL     1      -0.761   1.314   1.401  1.00  0.00    -0.109 SA
BRANCH   3   4
HETATM    4  C5  UNL     1      -1.898   0.024   0.942  1.00  0.00     0.092 A 
HETATM    5  N2  UNL     1      -1.689  -1.224   0.520  1.00  0.00    -0.293 N 
HETATM    6  N1  UNL     1      -2.827  -1.842   0.296  1.00  0.00    -0.303 N 
ATOM      7  H2  UNL     1      -0.768  -1.643   0.389  1.00  0.00     0.187 HD
HETATM    8  C4  UNL     1      -3.888  -1.001   0.568  1.00  0.00     0.034 A 
ATOM      9  H1  UNL     1      -2.914  -2.804  -0.032  1.00  0.00     0.186 HD
HETATM   10  C12 UNL     1      -3.293   0.163   0.972  1.00  0.00    -0.003 A 
HETATM   11  C13 UNL     1      -3.992   1.389   1.415  1.00  0.00     0.053 C 
BRANCH   8  12
HETATM   12  C3  UNL     1      -5.299  -1.392   0.387  1.00  0.00     0.059 C 
BRANCH  12  13
HETATM   13  C2  UNL     1      -5.956  -1.030  -0.880  1.00  0.00     0.002 C 
HETATM   14  C1  UNL     1      -6.033   0.441  -1.172  1.00  0.00     0.005 C 
ENDBRANCH  12  13
ENDBRANCH   8  12
ENDBRANCH   3   4
ENDBRANCH   2   3
ENDBRANCH   1   2
BRANCH   1  15
HETATM   15  N3  UNL     1       2.831   0.158  -0.058  1.00  0.00    -0.260 N 
HETATM   16  N4  UNL     1       3.294  -1.072   0.079  1.00  0.00    -0.239 N 
HETATM   17  N5  UNL     1       4.605  -1.067   0.119  1.00  0.00    -0.284 N 
ATOM     18  H4  UNL     1       2.713  -1.908   0.144  1.00  0.00     0.208 HD
HETATM   19  C8  UNL     1       5.018   0.175   0.008  1.00  0.00     0.095 A 
ATOM     20  H5  UNL     1       5.202  -1.888   0.219  1.00  0.00     0.188 HD
HETATM   21  C11 UNL     1       3.871   0.976  -0.107  1.00  0.00     0.143 A 
BRANCH  19  22
HETATM   22  C9  UNL     1       6.384   0.692   0.030  1.00  0.00     0.229 C 
BRANCH  22  23
HETATM   23  O1  UNL     1       7.370  -0.224   0.118  1.00  0.00    -0.390 OA
HETATM   24  C10 UNL     1       7.495  -1.039  -0.955  1.00  0.00     0.201 C 
ENDBRANCH  22  23
ENDBRANCH  19  22
BRANCH  21  25
HETATM   25  N6  UNL     1       3.861   2.256  -0.236  1.00  0.00    -0.383 N 
ATOM     26  H62 UNL     1       3.028   2.838  -0.320  1.00  0.00     0.157 HD
ATOM     27  H61 UNL     1       4.662   2.886  -0.274  1.00  0.00     0.157 HD
ENDBRANCH  21  25
ENDBRANCH   1  15
TORSDOF 9
