REMARK  3 active torsions:
REMARK  status: ('A' for Active; 'I' for Inactive)
REMARK    1  A    between atoms: C2_2  and  N1_4 
REMARK    2  A    between atoms: C5_6  and  C6_7 
REMARK    3  A    between atoms: C10_13  and  N3_14 
ROOT
HETATM    1  C6  UNL     1      -0.449  -0.102  -0.088  1.00  0.00    -0.021 A 
HETATM    2  C7  UNL     1      -0.765  -1.306  -0.691  1.00  0.00     0.014 A 
HETATM    3  C8  UNL     1      -2.086  -1.590  -0.934  1.00  0.00     0.033 A 
HETATM    4  C9  UNL     1      -3.113  -0.733  -0.606  1.00  0.00     0.060 A 
HETATM    5  N2  UNL     1      -4.417  -0.986  -0.833  1.00  0.00    -0.339 N 
ATOM      6  H2  UNL     1      -4.667  -1.870  -1.276  1.00  0.00     0.167 HD
HETATM    7  C10 UNL     1      -5.408  -0.136  -0.507  1.00  0.00     0.137 A 
HETATM    8  C11 UNL     1      -5.066   1.064   0.096  1.00  0.00     0.158 A 
HETATM    9  C12 UNL     1      -6.110   1.978   0.447  1.00  0.00     0.121 C 
HETATM   10  N4  UNL     1      -6.968   2.703   0.724  1.00  0.00    -0.190 NA
HETATM   11  N5  UNL     1      -3.751   1.341   0.335  1.00  0.00    -0.343 N 
ATOM     12  H5  UNL     1      -3.503   2.225   0.779  1.00  0.00     0.167 HD
HETATM   13  C13 UNL     1      -2.775   0.481   0.002  1.00  0.00     0.061 A 
HETATM   14  C14 UNL     1      -1.473   0.779   0.251  1.00  0.00     0.044 A 
ENDROOT
BRANCH   7  15
HETATM   15  N3  UNL     1      -6.644  -0.420  -0.742  1.00  0.00    -0.383 N 
ATOM     16  H32 UNL     1      -6.896  -1.303  -1.186  1.00  0.00     0.157 HD
ATOM     17  H31 UNL     1      -7.395   0.224  -0.495  1.00  0.00     0.157 HD
ENDBRANCH   7  15
BRANCH   1  18
HETATM   18  C5  UNL     1       0.934   0.272   0.200  1.00  0.00     0.008 A 
HETATM   19  C4  UNL     1       2.074  -0.063  -0.519  1.00  0.00     0.124 A 
HETATM   20  N1  UNL     1       3.158   0.468   0.066  1.00  0.00    -0.299 N 
HETATM   21  N6  UNL     1       2.732   1.126   1.130  1.00  0.00    -0.309 N 
HETATM   22  C15 UNL     1       1.398   1.034   1.249  1.00  0.00     0.121 A 
ATOM     23  H6  UNL     1       3.336   1.636   1.775  1.00  0.00     0.186 HD
BRANCH  20  24
HETATM   24  C2  UNL     1       4.548   0.342  -0.395  1.00  0.00     0.099 C 
HETATM   25  C1  UNL     1       4.729  -1.038  -0.935  1.00  0.00     0.034 C 
HETATM   26  C3  UNL     1       5.492   0.683   0.717  1.00  0.00     0.034 C 
ENDBRANCH  20  24
ENDBRANCH   1  18
TORSDOF 3
