REMARK  3 active torsions:
REMARK  status: ('A' for Active; 'I' for Inactive)
REMARK    1  A    between atoms: C4_9  and  N3_10 
REMARK    2  A    between atoms: N3_10  and  C5_12 
REMARK    3  A    between atoms: C5_12  and  C6_13 
ROOT
HETATM    1  C6  UNL     1       2.771   0.115   0.082  1.00  0.00    -0.038 A 
HETATM    2  C7  UNL     1       3.212   1.286  -0.504  1.00  0.00     0.009 A 
HETATM    3  C8  UNL     1       4.565   1.501  -0.657  1.00  0.00     0.002 A 
HETATM    4  C9  UNL     1       5.495   0.564  -0.233  1.00  0.00     0.022 A 
HETATM    5  C10 UNL     1       5.057  -0.619   0.359  1.00  0.00     0.045 A 
HETATM    6  C11 UNL     1       5.996  -1.613   0.810  1.00  0.00     0.099 C 
HETATM    7  N4  UNL     1       6.747  -2.436   1.170  1.00  0.00    -0.191 NA
HETATM    8  C12 UNL     1       3.693  -0.827   0.508  1.00  0.00     0.031 A 
ENDROOT
BRANCH   1   9
HETATM    9  C5  UNL     1       1.344  -0.200   0.286  1.00  0.00     0.176 C 
BRANCH   9  10
HETATM   10  N3  UNL     1       0.477   0.840  -0.192  1.00  0.00    -0.222 N 
ATOM     11  H3  UNL     1       0.866   1.721  -0.527  1.00  0.00     0.178 HD
BRANCH  10  12
HETATM   12  C4  UNL     1      -0.799   0.649  -0.193  1.00  0.00     0.682 A 
HETATM   13  N2  UNL     1      -1.661   1.595  -0.631  1.00  0.00    -0.167 N 
HETATM   14  C3  UNL     1      -2.995   1.432  -0.647  1.00  0.00     0.200 A 
ATOM     15  H2  UNL     1      -1.278   2.479  -0.967  1.00  0.00     0.186 HD
HETATM   16  O1  UNL     1      -4.028   2.146  -1.002  1.00  0.00    -0.218 OA
HETATM   17  C14 UNL     1      -3.493   0.241  -0.193  1.00  0.00     0.086 A 
HETATM   18  N1  UNL     1      -5.139   1.504  -0.809  1.00  0.00    -0.263 N 
HETATM   19  C2  UNL     1      -4.862   0.291  -0.298  1.00  0.00     0.047 A 
ATOM     20  H1  UNL     1      -6.072   1.862  -1.012  1.00  0.00     0.194 HD
HETATM   21  C1  UNL     1      -5.865  -0.750   0.064  1.00  0.00     0.071 C 
HETATM   22  C13 UNL     1      -2.649  -0.741   0.259  1.00  0.00     0.131 A 
HETATM   23  N5  UNL     1      -1.326  -0.505   0.245  1.00  0.00    -0.176 N 
HETATM   24  N6  UNL     1      -3.167  -1.841   0.675  1.00  0.00    -0.384 N 
ATOM     25  H5  UNL     1      -0.696  -1.233   0.581  1.00  0.00     0.186 HD
ATOM     26  H62 UNL     1      -2.539  -2.571   1.011  1.00  0.00     0.157 HD
ATOM     27  H61 UNL     1      -4.171  -2.020   0.686  1.00  0.00     0.157 HD
ENDBRANCH  10  12
ENDBRANCH   9  10
ENDBRANCH   1   9
TORSDOF 3
