REMARK  4 active torsions:
REMARK  status: ('A' for Active; 'I' for Inactive)
REMARK    1  A    between atoms: C6_7  and  C7_8 
REMARK    2  A    between atoms: C9_10  and  N2_11 
REMARK    3  A    between atoms: N2_11  and  C10_13 
REMARK    4  A    between atoms: C13_16  and  N3_17 
ROOT
HETATM    1  N1  UNL     1       7.267  -2.438   0.200  1.00  0.00    -0.190 NA
HETATM    2  C1  UNL     1       6.470  -1.605   0.155  1.00  0.00     0.117 C 
HETATM    3  C2  UNL     1       5.449  -0.571   0.095  1.00  0.00     0.114 A 
HETATM    4  C3  UNL     1       5.886   0.738   0.059  1.00  0.00     0.041 A 
HETATM    5  C4  UNL     1       4.928   1.734   0.001  1.00  0.00     0.005 A 
HETATM    6  C5  UNL     1       3.582   1.371  -0.018  1.00  0.00     0.032 A 
HETATM    7  C6  UNL     1       3.166   0.063   0.018  1.00  0.00     0.060 A 
HETATM    8  N7  UNL     1       4.155  -0.865   0.074  1.00  0.00    -0.346 N 
ATOM      9  H7  UNL     1       3.887  -1.849   0.102  1.00  0.00     0.167 HD
ENDROOT
BRANCH   7  10
HETATM   10  C7  UNL     1       1.774  -0.354  -0.000  1.00  0.00     0.063 A 
HETATM   11  C8  UNL     1       0.736   0.532  -0.056  1.00  0.00     0.080 A 
HETATM   12  C9  UNL     1      -0.594   0.108  -0.073  1.00  0.00     0.108 A 
HETATM   13  N5  UNL     1      -0.812  -1.217  -0.031  1.00  0.00    -0.339 N 
HETATM   14  C15 UNL     1       0.208  -2.101   0.025  1.00  0.00     0.182 A 
ATOM     15  H5  UNL     1      -1.771  -1.564  -0.042  1.00  0.00     0.168 HD
HETATM   16  N6  UNL     1       1.485  -1.679   0.040  1.00  0.00    -0.350 N 
ATOM     17  H6  UNL     1       2.242  -2.361   0.082  1.00  0.00     0.166 HD
BRANCH  12  18
HETATM   18  N2  UNL     1      -1.534   0.981  -0.126  1.00  0.00    -0.341 N 
ATOM     19  H2  UNL     1      -1.268   1.965  -0.155  1.00  0.00     0.167 HD
BRANCH  18  20
HETATM   20  C10 UNL     1      -2.906   0.672  -0.147  1.00  0.00     0.049 A 
HETATM   21  C11 UNL     1      -3.705   0.821  -1.253  1.00  0.00     0.035 A 
HETATM   22  C12 UNL     1      -5.028   0.507  -1.222  1.00  0.00     0.050 A 
HETATM   23  C13 UNL     1      -5.546   0.027  -0.024  1.00  0.00     0.098 A 
HETATM   24  N4  UNL     1      -4.767  -0.120   1.058  1.00  0.00    -0.351 N 
HETATM   25  C14 UNL     1      -3.481   0.192   1.006  1.00  0.00     0.119 A 
ATOM     26  H4  UNL     1      -5.168  -0.474   1.926  1.00  0.00     0.166 HD
BRANCH  23  27
HETATM   27  N3  UNL     1      -6.790  -0.285   0.061  1.00  0.00    -0.385 N 
ATOM     28  H32 UNL     1      -7.382  -0.173  -0.762  1.00  0.00     0.157 HD
ATOM     29  H31 UNL     1      -7.170  -0.637   0.940  1.00  0.00     0.157 HD
ENDBRANCH  23  27
ENDBRANCH  18  20
ENDBRANCH  12  18
ENDBRANCH   7  10
TORSDOF 4
