REMARK  3 active torsions:
REMARK  status: ('A' for Active; 'I' for Inactive)
REMARK    1  A    between atoms: O1_1  and  C1_3 
REMARK    2  A    between atoms: C1_3  and  C2_4 
REMARK    3  A    between atoms: C2_4  and  N1_5 
ROOT
HETATM    1  N1  UNL     1       2.357  -0.395   0.212  1.00  0.00    -0.292 N 
HETATM    2  C3  UNL     1       1.279  -1.078  -0.465  1.00  0.00     0.149 C 
HETATM    3  C4  UNL     1       1.193  -2.503   0.090  1.00  0.00     0.022 C 
HETATM    4  C5  UNL     1      -0.134  -3.073  -0.338  1.00  0.00     0.002 C 
HETATM    5  C6  UNL     1      -1.142  -2.735   0.733  1.00  0.00     0.000 C 
HETATM    6  C7  UNL     1      -2.559  -2.933   0.270  1.00  0.00     0.000 C 
HETATM    7  C8  UNL     1      -2.931  -1.993  -0.839  1.00  0.00     0.002 C 
HETATM    8  C9  UNL     1      -3.785  -0.863  -0.269  1.00  0.00     0.027 C 
HETATM    9  C10 UNL     1      -2.939   0.379  -0.305  1.00  0.00     0.232 C 
HETATM   10  N2  UNL     1      -3.525   1.470   0.453  1.00  0.00    -0.074 N 
ATOM     11  H21 UNL     1      -3.443   1.356   1.463  1.00  0.00     0.277 HD
ATOM     12  H22 UNL     1      -4.544   1.493   0.415  1.00  0.00     0.277 HD
HETATM   13  C11 UNL     1      -2.891   2.692  -0.054  1.00  0.00     0.259 C 
HETATM   14  C12 UNL     1      -1.490   2.720   0.466  1.00  0.00     0.259 C 
HETATM   15  N3  UNL     1      -0.482   2.458  -0.537  1.00  0.00    -0.073 N 
ATOM     16  H31 UNL     1      -0.914   2.255  -1.438  1.00  0.00     0.277 HD
ATOM     17  H32 UNL     1      -0.024   1.564  -0.363  1.00  0.00     0.277 HD
HETATM   18  C13 UNL     1       0.486   3.506  -0.665  1.00  0.00     0.234 C 
HETATM   19  C14 UNL     1       1.894   3.102  -0.346  1.00  0.00     0.056 C 
HETATM   20  C15 UNL     1       2.207   1.670  -0.786  1.00  0.00     0.202 C 
HETATM   21  O2  UNL     1       2.214   0.901   0.352  1.00  0.00    -0.283 OA
ENDROOT
BRANCH   1  22
HETATM   22  C2  UNL     1       3.613  -0.903  -0.206  1.00  0.00     0.175 C 
BRANCH  22  23
HETATM   23  C1  UNL     1       4.783  -0.313   0.523  1.00  0.00     0.185 C 
BRANCH  23  24
HETATM   24  O1  UNL     1       5.964  -0.872   0.052  1.00  0.00    -0.399 OA
ATOM     25  H1  UNL     1       6.705  -0.498   0.514  1.00  0.00     0.209 HD
ENDBRANCH  23  24
ENDBRANCH  22  23
ENDBRANCH   1  22
TORSDOF 3
