REMARK  2 active torsions:
REMARK  status: ('A' for Active; 'I' for Inactive)
REMARK    1  A    between atoms: C2_2  and  N1_3 
REMARK       I    between atoms: C3_5  and  N2_6 
REMARK       I    between atoms: C3_5  and  N3_9 
REMARK    2  A    between atoms: C8_13  and  N4_14 
REMARK       I    between atoms: N4_14  and  C9_16 
REMARK       I    between atoms: N6_18  and  C10_20 
ROOT
HETATM    1  N1  UNL     1      -2.984   0.961   0.560  1.00  0.00    -0.227 N 
ATOM      2  H1  UNL     1      -3.779   1.183   1.160  1.00  0.00     0.177 HD
HETATM    3  C3  UNL     1      -2.242  -0.046   0.820  1.00  0.00     0.673 C 
HETATM    4  N2  UNL     1      -2.569  -0.836   1.970  1.00  0.00    -0.231 N 
ATOM      5  H2  UNL     1      -2.110  -0.637   2.859  1.00  0.00     0.177 HD
HETATM    6  C4  UNL     1      -3.537  -1.911   1.898  1.00  0.00     0.165 C 
HETATM    7  N3  UNL     1      -1.112  -0.460   0.067  1.00  0.00    -0.197 N 
HETATM    8  C5  UNL     1      -0.990  -0.862  -1.323  1.00  0.00     0.143 C 
HETATM    9  C6  UNL     1       0.179  -1.824  -1.386  1.00  0.00     0.024 C 
HETATM   10  C7  UNL     1       0.581  -1.977   0.063  1.00  0.00     0.049 C 
HETATM   11  C8  UNL     1       0.248  -0.571   0.581  1.00  0.00     0.204 C 
ENDROOT
BRANCH  11  12
HETATM   12  N4  UNL     1       1.042   0.429  -0.083  1.00  0.00    -0.343 N 
HETATM   13  C9  UNL     1       2.462   0.458  -0.050  1.00  0.00     0.192 C 
HETATM   14  N5  UNL     1       3.170   0.723  -1.256  1.00  0.00    -0.063 NA
HETATM   15  N6  UNL     1       3.132   0.255   1.017  1.00  0.00    -0.305 N 
HETATM   16  C10 UNL     1       4.532   0.284   1.047  1.00  0.00     0.188 C 
ATOM     17  H6  UNL     1       2.628   0.064   1.883  1.00  0.00     0.171 HD
HETATM   18  N7  UNL     1       5.294  -0.728   0.761  1.00  0.00    -0.373 N 
HETATM   19  N8  UNL     1       5.189   1.492   1.412  1.00  0.00    -0.064 NA
ATOM     20  H72 UNL     1       4.823  -1.594   0.499  1.00  0.00     0.158 HD
ATOM     21  H71 UNL     1       6.314  -0.707   0.783  1.00  0.00     0.158 HD
ATOM     22  H4  UNL     1       0.558   1.158  -0.607  1.00  0.00     0.164 HD
ENDBRANCH  11  12
BRANCH   1  23
HETATM   23  C2  UNL     1      -2.690   1.776  -0.581  1.00  0.00     0.133 C 
HETATM   24  C1  UNL     1      -3.617   2.966  -0.694  1.00  0.00     0.027 C 
ENDBRANCH   1  23
TORSDOF 2
