REMARK  2 active torsions:
REMARK  status: ('A' for Active; 'I' for Inactive)
REMARK    1  A    between atoms: N3_4  and  C2_6 
REMARK    2  A    between atoms: C6_10  and  N4_11 
REMARK       I    between atoms: C7_13  and  N6_15 
ROOT
HETATM    1  C2  UNL     1       2.413   0.654   0.395  1.00  0.00     0.088 A 
HETATM    2  C3  UNL     1       2.695  -0.815   0.405  1.00  0.00     0.030 A 
HETATM    3  C4  UNL     1       1.976  -0.967  -0.912  1.00  0.00    -0.004 A 
HETATM    4  C5  UNL     1       0.606  -1.600  -0.811  1.00  0.00     0.030 C 
HETATM    5  C6  UNL     1      -0.246  -0.581  -0.055  1.00  0.00     0.085 C 
HETATM    6  C11 UNL     1       0.220   0.698  -0.766  1.00  0.00     0.032 C 
HETATM    7  C12 UNL     1       1.714   0.502  -0.940  1.00  0.00     0.014 A 
ENDROOT
BRANCH   5   8
HETATM    8  N4  UNL     1      -1.656  -0.816  -0.273  1.00  0.00    -0.360 N 
HETATM    9  C7  UNL     1      -2.491  -0.387   0.614  1.00  0.00     0.186 C 
HETATM   10  N5  UNL     1      -2.047   0.300   1.779  1.00  0.00    -0.064 NA
HETATM   11  N6  UNL     1      -3.888  -0.572   0.483  1.00  0.00    -0.356 N 
HETATM   12  C8  UNL     1      -4.839  -0.399  -0.569  1.00  0.00     0.127 C 
HETATM   13  C10 UNL     1      -4.952  -1.016   1.355  1.00  0.00     0.127 C 
HETATM   14  C9  UNL     1      -5.989  -0.418   0.432  1.00  0.00     0.040 C 
ATOM     15  H4  UNL     1      -1.982  -1.307  -1.105  1.00  0.00     0.162 HD
ENDBRANCH   5   8
BRANCH   1  16
HETATM   16  N3  UNL     1       3.491   1.565   0.422  1.00  0.00    -0.362 N 
HETATM   17  C1  UNL     1       4.548   1.552  -0.253  1.00  0.00     0.197 C 
HETATM   18  N1  UNL     1       4.846   0.569  -1.201  1.00  0.00    -0.067 NA
HETATM   19  N2  UNL     1       5.503   2.602  -0.044  1.00  0.00    -0.067 NA
ATOM     20  H3  UNL     1       3.398   2.339   1.080  1.00  0.00     0.162 HD
ENDBRANCH   1  16
TORSDOF 2
