REMARK  2 active torsions:
REMARK  status: ('A' for Active; 'I' for Inactive)
REMARK    1  A    between atoms: C2_2  and  N1_3 
REMARK    2  A    between atoms: N1_3  and  C5_6 
REMARK       I    between atoms: N2_8  and  C7_9 
REMARK       I    between atoms: N5_17  and  C11_18 
ROOT
HETATM    1  C5  UNL     1       0.341   0.332   0.703  1.00  0.00     0.310 C 
HETATM    2  C6  UNL     1      -0.685  -0.675   1.053  1.00  0.00     0.180 C 
HETATM    3  N2  UNL     1      -1.949  -0.606   0.399  1.00  0.00    -0.352 N 
HETATM    4  C7  UNL     1      -2.714  -1.807   0.232  1.00  0.00     0.184 C 
HETATM    5  N3  UNL     1      -2.501  -2.681  -0.672  1.00  0.00    -0.374 N 
ATOM      6  H31 UNL     1      -3.045  -3.535  -0.791  1.00  0.00     0.158 HD
ATOM      7  H32 UNL     1      -1.735  -2.524  -1.327  1.00  0.00     0.158 HD
HETATM    8  N4  UNL     1      -3.780  -2.025   1.144  1.00  0.00    -0.064 NA
HETATM    9  C8  UNL     1      -2.652   0.538  -0.167  1.00  0.00     0.127 C 
HETATM   10  C9  UNL     1      -1.979   0.652  -1.535  1.00  0.00     0.040 C 
HETATM   11  C10 UNL     1      -0.829   1.573  -1.348  1.00  0.00     0.129 C 
HETATM   12  N5  UNL     1       0.000   1.366  -0.203  1.00  0.00    -0.326 N 
HETATM   13  C11 UNL     1       0.660   2.592   0.067  1.00  0.00     0.185 C 
HETATM   14  N6  UNL     1       1.277   3.205  -0.860  1.00  0.00    -0.374 N 
ATOM     15  H61 UNL     1       1.752   4.087  -0.666  1.00  0.00     0.158 HD
ATOM     16  H62 UNL     1       1.283   2.789  -1.791  1.00  0.00     0.158 HD
HETATM   17  N7  UNL     1       0.652   3.165   1.348  1.00  0.00    -0.064 NA
ENDROOT
BRANCH   1  18
HETATM   18  N1  UNL     1       1.546  -0.426   0.386  1.00  0.00    -0.052 N 
HETATM   19  C3  UNL     1       1.872  -1.125   1.650  1.00  0.00     0.274 C 
HETATM   20  C4  UNL     1       2.705   0.343   0.068  1.00  0.00     0.274 C 
BRANCH  18  21
HETATM   21  C2  UNL     1       1.289  -1.446  -0.579  1.00  0.00     0.234 C 
HETATM   22  C1  UNL     1       2.231  -1.392  -1.768  1.00  0.00     0.035 C 
ENDBRANCH  18  21
ENDBRANCH   1  18
TORSDOF 2
