REMARK  2 active torsions:
REMARK  status: ('A' for Active; 'I' for Inactive)
REMARK    1  A    between atoms: C9_17  and  C10_18 
REMARK    2  A    between atoms: C10_18  and  C11_19 
ROOT
HETATM    1  C1  UNL     1      -1.099   3.104   2.012  1.00  0.00     0.012 C 
HETATM    2  C2  UNL     1      -0.438   2.181   1.609  1.00  0.00    -0.111 C 
HETATM    3  C3  UNL     1       0.397   1.054   1.131  1.00  0.00     0.087 C 
HETATM    4  C4  UNL     1       1.736   1.520   0.637  1.00  0.00     0.139 C 
HETATM    5  N1  UNL     1       1.964   1.400  -0.762  1.00  0.00    -0.366 N 
ATOM      6  H1  UNL     1       1.279   1.824  -1.388  1.00  0.00     0.161 HD
HETATM    7  C5  UNL     1       3.076   0.733  -1.357  1.00  0.00     0.167 C 
HETATM    8  S1  UNL     1       3.419   1.124  -2.936  1.00  0.00    -0.041 SA
HETATM    9  N2  UNL     1       3.888  -0.221  -0.687  1.00  0.00    -0.366 N 
ATOM     10  H2  UNL     1       4.896  -0.117  -0.800  1.00  0.00     0.161 HD
HETATM   11  C6  UNL     1       3.449  -1.310   0.128  1.00  0.00     0.149 C 
HETATM   12  C7  UNL     1       2.055  -1.752  -0.135  1.00  0.00     0.251 C 
HETATM   13  N3  UNL     1       1.217  -1.279   0.968  1.00  0.00    -0.073 N 
ATOM     14  H31 UNL     1       1.542  -0.393   1.354  1.00  0.00     0.277 HD
ATOM     15  H32 UNL     1       1.322  -1.845   1.810  1.00  0.00     0.277 HD
HETATM   16  C8  UNL     1      -0.171  -1.214   0.503  1.00  0.00     0.238 C 
HETATM   17  C9  UNL     1      -0.385   0.244   0.108  1.00  0.00     0.029 C 
ENDROOT
BRANCH  17  18
HETATM   18  C10 UNL     1      -1.823   0.560   0.108  1.00  0.00     0.011 C 
BRANCH  18  19
HETATM   19  C11 UNL     1      -2.704  -0.130  -0.870  1.00  0.00    -0.022 C 
HETATM   20  C12 UNL     1      -4.126   0.431  -0.641  1.00  0.00     0.009 C 
HETATM   21  C13 UNL     1      -2.784  -1.609  -0.840  1.00  0.00     0.009 C 
ENDBRANCH  18  19
ENDBRANCH  17  18
TORSDOF 2
