REMARK  5 active torsions:
REMARK  status: ('A' for Active; 'I' for Inactive)
REMARK    1  A    between atoms: C3_3  and  N1_4 
REMARK    2  A    between atoms: N1_4  and  C4_6 
REMARK    3  A    between atoms: C4_6  and  N2_8 
REMARK    4  A    between atoms: N2_8  and  N3_10 
REMARK       I    between atoms: N3_10  and  C5_12 
REMARK       I    between atoms: C5_12  and  N4_14 
REMARK    5  A    between atoms: N4_14  and  C6_16 
ROOT
HETATM    1  C1  UNL     1       6.465   1.832   0.233  1.00  0.00     0.014 C 
HETATM    2  C2  UNL     1       5.976   0.749   0.005  1.00  0.00    -0.098 C 
HETATM    3  C3  UNL     1       5.391  -0.577  -0.259  1.00  0.00     0.215 C 
ENDROOT
BRANCH   3   4
HETATM    4  N1  UNL     1       4.387  -0.781   0.749  1.00  0.00    -0.356 N 
ATOM      5  H1  UNL     1       4.521  -1.492   1.468  1.00  0.00     0.162 HD
BRANCH   4   6
HETATM    6  C4  UNL     1       3.209   0.009   0.741  1.00  0.00     0.187 C 
HETATM    7  S1  UNL     1       3.023   1.135  -0.417  1.00  0.00    -0.040 SA
BRANCH   6   8
HETATM    8  N2  UNL     1       2.188  -0.162   1.725  1.00  0.00    -0.272 N 
ATOM      9  H2  UNL     1       2.299  -0.867   2.454  1.00  0.00     0.189 HD
BRANCH   8  10
HETATM   10  N3  UNL     1       1.046   0.625   1.695  1.00  0.00    -0.249 N 
HETATM   11  C5  UNL     1      -0.078   0.228   0.939  1.00  0.00     0.335 C 
HETATM   12  O1  UNL     1      -0.015  -0.862   0.289  1.00  0.00    -0.246 OA
HETATM   13  N4  UNL     1      -1.226   1.052   0.933  1.00  0.00    -0.337 N 
ATOM     14  H4  UNL     1      -1.235   1.919   1.471  1.00  0.00     0.164 HD
ATOM     15  H3  UNL     1       1.018   1.497   2.223  1.00  0.00     0.192 HD
BRANCH  13  16
HETATM   16  C6  UNL     1      -2.380   0.668   0.169  1.00  0.00     0.086 C 
HETATM   17  C7  UNL     1      -3.012  -0.534   0.815  1.00  0.00     0.025 C 
HETATM   18  C8  UNL     1      -4.245  -1.004   0.085  1.00  0.00     0.002 C 
HETATM   19  C9  UNL     1      -4.263  -0.484  -1.327  1.00  0.00     0.000 C 
HETATM   20  C10 UNL     1      -2.845  -0.663  -1.882  1.00  0.00     0.002 C 
HETATM   21  C11 UNL     1      -2.032   0.476  -1.269  1.00  0.00     0.025 C 
ENDBRANCH  13  16
ENDBRANCH   8  10
ENDBRANCH   6   8
ENDBRANCH   4   6
ENDBRANCH   3   4
TORSDOF 5
