REMARK  5 active torsions:
REMARK  status: ('A' for Active; 'I' for Inactive)
REMARK       I    between atoms: N1_3  and  C4_5 
REMARK       I    between atoms: C4_5  and  N2_7 
REMARK    1  A    between atoms: N2_7  and  N3_9 
REMARK    2  A    between atoms: N3_9  and  N4_10 
REMARK    3  A    between atoms: N4_10  and  C5_12 
REMARK    4  A    between atoms: C5_12  and  N5_14 
REMARK    5  A    between atoms: N5_14  and  C6_16 
ROOT
HETATM    1  C1  UNL     1       7.136   0.331   1.182  1.00  0.00     0.037 C 
HETATM    2  C2  UNL     1       6.077   0.148   0.619  1.00  0.00     0.005 C 
HETATM    3  N1  UNL     1       4.842  -0.082  -0.017  1.00  0.00    -0.262 N 
HETATM    4  C3  UNL     1       4.862  -1.031  -1.118  1.00  0.00     0.172 C 
HETATM    5  C4  UNL     1       3.663   0.586   0.408  1.00  0.00     0.346 C 
HETATM    6  O1  UNL     1       3.741   1.392   1.365  1.00  0.00    -0.245 OA
HETATM    7  N2  UNL     1       2.449   0.326  -0.252  1.00  0.00    -0.234 N 
ATOM      8  H2  UNL     1       2.420  -0.337  -1.027  1.00  0.00     0.189 HD
ENDROOT
BRANCH   7   9
HETATM    9  N3  UNL     1       1.293   0.971   0.151  1.00  0.00    -0.016 NA
BRANCH   9  10
HETATM   10  N4  UNL     1       0.485   1.338  -0.898  1.00  0.00    -0.260 N 
ATOM     11  H4  UNL     1       0.946   1.728  -1.720  1.00  0.00     0.186 HD
BRANCH  10  12
HETATM   12  C5  UNL     1      -0.922   1.227  -0.947  1.00  0.00     0.185 C 
HETATM   13  S1  UNL     1      -1.728   1.707  -2.270  1.00  0.00    -0.040 SA
BRANCH  12  14
HETATM   14  N5  UNL     1      -1.631   0.699   0.150  1.00  0.00    -0.362 N 
ATOM     15  H5  UNL     1      -1.114   0.403   0.978  1.00  0.00     0.162 HD
BRANCH  14  16
HETATM   16  C6  UNL     1      -3.086   0.563   0.134  1.00  0.00     0.083 C 
HETATM   17  C7  UNL     1      -3.587   0.015   1.455  1.00  0.00     0.025 C 
HETATM   18  C8  UNL     1      -4.912  -0.615   1.000  1.00  0.00     0.002 C 
HETATM   19  C9  UNL     1      -4.361  -1.499  -0.127  1.00  0.00     0.002 C 
HETATM   20  C10 UNL     1      -3.500  -0.514  -0.872  1.00  0.00     0.025 C 
ENDBRANCH  14  16
ENDBRANCH  12  14
ENDBRANCH  10  12
ENDBRANCH   9  10
ENDBRANCH   7   9
TORSDOF 5
