REMARK  3 active torsions:
REMARK  status: ('A' for Active; 'I' for Inactive)
REMARK    1  A    between atoms: C2_2  and  N1_3 
REMARK       I    between atoms: N1_3  and  C3_5 
REMARK       I    between atoms: C3_5  and  N2_7 
REMARK    2  A    between atoms: N2_7  and  N3_9 
REMARK       I    between atoms: N3_9  and  C4_11 
REMARK       I    between atoms: C4_11  and  N4_13 
REMARK    3  A    between atoms: N4_13  and  C5_15 
ROOT
HETATM    1  N3  UNL     1       1.589  -0.326   0.872  1.00  0.00    -0.248 N 
ATOM      2  H3  UNL     1       1.392   0.362   1.599  1.00  0.00     0.192 HD
HETATM    3  C4  UNL     1       0.539  -0.731   0.006  1.00  0.00     0.335 C 
HETATM    4  O2  UNL     1       0.837  -1.583  -0.877  1.00  0.00    -0.246 OA
HETATM    5  N4  UNL     1      -0.741  -0.187   0.156  1.00  0.00    -0.335 N 
ATOM      6  H4  UNL     1      -0.915   0.500   0.890  1.00  0.00     0.164 HD
ENDROOT
BRANCH   1   7
HETATM    7  N2  UNL     1       2.881  -0.840   0.760  1.00  0.00    -0.248 N 
HETATM    8  C3  UNL     1       3.979   0.056   0.769  1.00  0.00     0.334 C 
HETATM    9  N1  UNL     1       5.291  -0.461   0.656  1.00  0.00    -0.342 N 
HETATM   10  O1  UNL     1       3.751   1.296   0.878  1.00  0.00    -0.246 OA
ATOM     11  H1  UNL     1       5.438  -1.467   0.570  1.00  0.00     0.164 HD
ATOM     12  H2  UNL     1       3.033  -1.845   0.673  1.00  0.00     0.192 HD
BRANCH   9  13
HETATM   13  C2  UNL     1       6.415   0.432   0.662  1.00  0.00     0.120 C 
HETATM   14  C1  UNL     1       6.326   1.410  -0.488  1.00  0.00     0.026 C 
ENDBRANCH   9  13
ENDBRANCH   1   7
BRANCH   5  15
HETATM   15  C5  UNL     1      -1.824  -0.589  -0.721  1.00  0.00     0.118 C 
HETATM   16  C6  UNL     1      -2.440   0.588  -1.417  1.00  0.00     0.297 C 
HETATM   17  N5  UNL     1      -3.856   0.503  -1.582  1.00  0.00     0.086 N 
HETATM   18  C7  UNL     1      -4.335   1.722  -2.197  1.00  0.00     0.310 C 
HETATM   19  C8  UNL     1      -4.596   0.289  -0.379  1.00  0.00     0.272 C 
HETATM   20  C9  UNL     1      -3.719  -0.211   0.750  1.00  0.00     0.036 C 
HETATM   21  C10 UNL     1      -2.844  -1.300   0.162  1.00  0.00     0.008 C 
HETATM   22  C11 UNL     1      -2.151  -2.111   1.213  1.00  0.00     0.012 C 
ENDBRANCH   5  15
TORSDOF 3
