REMARK  5 active torsions:
REMARK  status: ('A' for Active; 'I' for Inactive)
REMARK    1  A    between atoms: C2_2  and  N1_3 
REMARK       I    between atoms: N1_3  and  C3_5 
REMARK       I    between atoms: C3_5  and  N2_7 
REMARK    2  A    between atoms: N2_7  and  N3_9 
REMARK    3  A    between atoms: N3_9  and  C4_11 
REMARK    4  A    between atoms: C4_11  and  N4_13 
REMARK    5  A    between atoms: N4_13  and  C5_15 
ROOT
HETATM    1  C4  UNL     1      -0.427  -0.929   0.047  1.00  0.00     0.186 C 
HETATM    2  S1  UNL     1      -0.777  -0.062   1.382  1.00  0.00    -0.040 SA
ENDROOT
BRANCH   1   3
HETATM    3  N3  UNL     1      -1.572  -1.566  -0.569  1.00  0.00    -0.272 N 
ATOM      4  H3  UNL     1      -1.431  -2.139  -1.401  1.00  0.00     0.189 HD
BRANCH   3   5
HETATM    5  N2  UNL     1      -2.869  -1.419  -0.055  1.00  0.00    -0.249 N 
HETATM    6  C3  UNL     1      -3.615  -0.234  -0.326  1.00  0.00     0.334 C 
HETATM    7  N1  UNL     1      -4.914  -0.034   0.177  1.00  0.00    -0.342 N 
HETATM    8  O1  UNL     1      -3.081   0.646  -1.033  1.00  0.00    -0.246 OA
ATOM      9  H1  UNL     1      -5.361  -0.743   0.758  1.00  0.00     0.164 HD
ATOM     10  H2  UNL     1      -3.279  -2.160   0.513  1.00  0.00     0.192 HD
BRANCH   7  11
HETATM   11  C2  UNL     1      -5.612   1.209  -0.149  1.00  0.00     0.120 C 
HETATM   12  C1  UNL     1      -6.962   1.225   0.497  1.00  0.00     0.026 C 
ENDBRANCH   7  11
ENDBRANCH   3   5
ENDBRANCH   1   3
BRANCH   1  13
HETATM   13  N4  UNL     1       0.857  -1.086  -0.510  1.00  0.00    -0.361 N 
ATOM     14  H4  UNL     1       0.916  -1.664  -1.348  1.00  0.00     0.162 HD
BRANCH  13  15
HETATM   15  C5  UNL     1       2.068  -0.540  -0.048  1.00  0.00     0.087 C 
HETATM   16  C6  UNL     1       2.091   0.966   0.155  1.00  0.00     0.044 C 
HETATM   17  C7  UNL     1       3.557   1.308   0.480  1.00  0.00     0.118 C 
HETATM   18  N5  UNL     1       4.414   0.219   0.192  1.00  0.00    -0.416 N 
HETATM   19  C8  UNL     1       5.653   0.461  -0.414  1.00  0.00     0.143 C 
HETATM   20  C9  UNL     1       4.246  -0.956   0.976  1.00  0.00     0.118 C 
HETATM   21  C10 UNL     1       2.723  -1.165   1.137  1.00  0.00     0.044 C 
ENDBRANCH  13  15
ENDBRANCH   1  13
TORSDOF 5
