REMARK  3 active torsions:
REMARK  status: ('A' for Active; 'I' for Inactive)
REMARK    1  A    between atoms: C2_4  and  N2_6 
REMARK    2  A    between atoms: C6_9  and  N3_10 
REMARK       I    between atoms: N3_10  and  C7_12 
REMARK       I    between atoms: C7_12  and  N5_16 
REMARK    3  A    between atoms: N5_16  and  C8_18 
ROOT
HETATM    1  N3  UNL     1      -0.453  -0.726  -0.387  1.00  0.00    -0.221 N 
ATOM      2  H3  UNL     1      -0.368  -1.703  -0.108  1.00  0.00     0.178 HD
HETATM    3  C7  UNL     1      -1.706  -0.184  -0.729  1.00  0.00     0.668 C 
HETATM    4  N4  UNL     1      -2.074  -0.148  -1.946  1.00  0.00    -0.235 N 
ATOM      5  H41 UNL     1      -2.982   0.245  -2.194  1.00  0.00     0.174 HD
ATOM      6  H42 UNL     1      -1.458  -0.513  -2.673  1.00  0.00     0.174 HD
HETATM    7  N5  UNL     1      -2.556   0.320   0.274  1.00  0.00    -0.221 N 
ATOM      8  H5  UNL     1      -2.405   1.252   0.661  1.00  0.00     0.178 HD
ENDROOT
BRANCH   1   9
HETATM    9  C6  UNL     1       0.705   0.125  -0.439  1.00  0.00     0.118 C 
HETATM   10  C5  UNL     1       0.981   0.699  -1.791  1.00  0.00     0.047 C 
HETATM   11  C4  UNL     1       2.449   1.076  -1.710  1.00  0.00     0.126 C 
HETATM   12  N2  UNL     1       2.982   0.337  -0.582  1.00  0.00    -0.369 N 
HETATM   13  C12 UNL     1       1.991  -0.624  -0.155  1.00  0.00     0.149 C 
BRANCH  12  14
HETATM   14  C2  UNL     1       4.253   0.502   0.026  1.00  0.00     0.070 C 
HETATM   15  N1  UNL     1       4.673  -0.289   0.937  1.00  0.00    -0.385 N 
HETATM   16  C1  UNL     1       5.956  -0.127   1.556  1.00  0.00     0.147 C 
ATOM     17  H1  UNL     1       4.076  -1.061   1.234  1.00  0.00     0.160 HD
HETATM   18  C3  UNL     1       5.118   1.638  -0.419  1.00  0.00     0.088 C 
ENDBRANCH  12  14
ENDBRANCH   1   9
BRANCH   7  19
HETATM   19  C8  UNL     1      -3.635  -0.494   0.743  1.00  0.00     0.126 C 
HETATM   20  C9  UNL     1      -4.446   0.220   1.834  1.00  0.00     0.055 C 
HETATM   21  C10 UNL     1      -5.756  -0.574   1.731  1.00  0.00     0.234 C 
HETATM   22  N6  UNL     1      -5.974  -0.545   0.300  1.00  0.00    -0.073 N 
HETATM   23  C11 UNL     1      -4.688  -0.778  -0.288  1.00  0.00     0.257 C 
ATOM     24  H62 UNL     1      -6.694  -1.194  -0.018  1.00  0.00     0.277 HD
ATOM     25  H61 UNL     1      -6.427   0.308  -0.029  1.00  0.00     0.277 HD
ENDBRANCH   7  19
TORSDOF 3
