REMARK  1 active torsions:
REMARK  status: ('A' for Active; 'I' for Inactive)
REMARK       I    between atoms: N1_2  and  C2_4 
REMARK       I    between atoms: C2_4  and  N3_8 
REMARK    1  A    between atoms: N3_8  and  C3_10 
REMARK       I    between atoms: N5_21  and  C11_22 
ROOT
HETATM    1  C3  UNL     1       0.624  -0.599  -0.729  1.00  0.00     0.153 C 
HETATM    2  C4  UNL     1       0.092  -1.810   0.008  1.00  0.00     0.215 C 
HETATM    3  N4  UNL     1      -1.006  -2.417  -0.699  1.00  0.00    -0.067 N 
ATOM      4  H41 UNL     1      -1.198  -3.348  -0.329  1.00  0.00     0.277 HD
ATOM      5  H42 UNL     1      -0.727  -2.662  -1.649  1.00  0.00     0.277 HD
HETATM    6  C5  UNL     1      -2.198  -1.630  -0.715  1.00  0.00     0.258 C 
HETATM    7  C6  UNL     1      -2.220  -0.542   0.330  1.00  0.00     0.113 C 
HETATM    8  C7  UNL     1      -1.728  -1.199   1.624  1.00  0.00     0.034 C 
HETATM    9  C8  UNL     1      -0.223  -1.389   1.400  1.00  0.00     0.022 C 
HETATM   10  C9  UNL     1       0.336   0.039   1.505  1.00  0.00     0.034 C 
HETATM   11  C10 UNL     1       0.030   0.538   0.099  1.00  0.00     0.113 C 
HETATM   12  N5  UNL     1      -1.401   0.593  -0.026  1.00  0.00    -0.339 N 
HETATM   13  C11 UNL     1      -2.026   1.776  -0.507  1.00  0.00     0.216 C 
HETATM   14  C12 UNL     1      -3.508   1.854  -0.644  1.00  0.00     0.117 C 
HETATM   15  O1  UNL     1      -1.325   2.785  -0.825  1.00  0.00    -0.274 OA
ENDROOT
BRANCH   1  16
HETATM   16  N3  UNL     1       2.056  -0.589  -0.566  1.00  0.00    -0.218 N 
HETATM   17  C2  UNL     1       2.903   0.401  -1.120  1.00  0.00     0.667 C 
HETATM   18  N1  UNL     1       3.107   1.584  -0.385  1.00  0.00    -0.231 N 
HETATM   19  N2  UNL     1       3.485   0.266  -2.252  1.00  0.00    -0.235 N 
HETATM   20  C1  UNL     1       3.983   1.569   0.757  1.00  0.00     0.165 C 
ATOM     21  H1  UNL     1       2.637   2.446  -0.660  1.00  0.00     0.177 HD
ATOM     22  H22 UNL     1       4.095   0.979  -2.651  1.00  0.00     0.174 HD
ATOM     23  H21 UNL     1       3.337  -0.591  -2.785  1.00  0.00     0.174 HD
ATOM     24  H3  UNL     1       2.483  -1.338  -0.021  1.00  0.00     0.178 HD
ENDBRANCH   1  16
TORSDOF 1
