REMARK  3 active torsions:
REMARK  status: ('A' for Active; 'I' for Inactive)
REMARK       I    between atoms: N1_6  and  C6_7 
REMARK    1  A    between atoms: C7_12  and  C8_13 
REMARK    2  A    between atoms: C8_13  and  N4_16 
REMARK    3  A    between atoms: N4_16  and  C11_18 
ROOT
HETATM    1  C1  UNL     1       0.787  -3.551   1.104  1.00  0.00     0.012 C 
HETATM    2  C2  UNL     1       0.147  -2.535   1.181  1.00  0.00    -0.110 C 
HETATM    3  C3  UNL     1      -0.612  -1.337   1.304  1.00  0.00     0.091 C 
HETATM    4  C4  UNL     1      -2.011  -1.459   0.733  1.00  0.00     0.039 C 
HETATM    5  C5  UNL     1      -2.337   0.033   0.598  1.00  0.00     0.127 C 
HETATM    6  N1  UNL     1      -1.122   0.557   0.031  1.00  0.00    -0.347 N 
HETATM    7  C6  UNL     1      -1.171   1.610  -0.922  1.00  0.00     0.184 C 
HETATM    8  N2  UNL     1      -1.475   1.330  -2.133  1.00  0.00    -0.374 N 
ATOM      9  H21 UNL     1      -1.510   2.086  -2.817  1.00  0.00     0.158 HD
ATOM     10  H22 UNL     1      -1.667   0.357  -2.371  1.00  0.00     0.158 HD
HETATM   11  N3  UNL     1      -0.906   2.952  -0.594  1.00  0.00    -0.064 NA
HETATM   12  C7  UNL     1      -0.018  -0.152   0.596  1.00  0.00     0.137 C 
ENDROOT
BRANCH  12  13
HETATM   13  C8  UNL     1       1.048  -0.500  -0.385  1.00  0.00     0.186 C 
HETATM   14  C9  UNL     1       0.606  -1.345  -1.466  1.00  0.00    -0.090 C 
HETATM   15  C10 UNL     1       0.247  -2.036  -2.391  1.00  0.00     0.014 C 
BRANCH  13  16
HETATM   16  N4  UNL     1       1.716   0.708  -0.816  1.00  0.00    -0.352 N 
ATOM     17  H4  UNL     1       1.567   0.994  -1.784  1.00  0.00     0.163 HD
BRANCH  16  18
HETATM   18  C11 UNL     1       2.549   1.527  -0.038  1.00  0.00     0.182 C 
HETATM   19  N5  UNL     1       2.824   1.207   1.313  1.00  0.00    -0.070 NA
HETATM   20  S1  UNL     1       3.191   2.862  -0.748  1.00  0.00    -0.044 SA
ENDBRANCH  16  18
ENDBRANCH  13  16
ENDBRANCH  12  13
TORSDOF 3
