REMARK  3 active torsions:
REMARK  status: ('A' for Active; 'I' for Inactive)
REMARK    1  A    between atoms: C2_2  and  N1_3 
REMARK       I    between atoms: N1_3  and  C3_5 
REMARK       I    between atoms: C3_5  and  N2_7 
REMARK    2  A    between atoms: N2_7  and  C4_9 
REMARK    3  A    between atoms: C8_13  and  O2_14 
ROOT
HETATM    1  C4  UNL     1       0.253  -0.137  -0.476  1.00  0.00     0.092 C 
HETATM    2  C5  UNL     1      -0.306   1.108  -1.090  1.00  0.00     0.061 C 
HETATM    3  C6  UNL     1      -1.643   1.533  -0.646  1.00  0.00     0.229 C 
HETATM    4  C7  UNL     1      -1.691   1.812   0.863  1.00  0.00     0.076 C 
HETATM    5  C8  UNL     1      -2.401   0.524   1.304  1.00  0.00     0.091 C 
HETATM    6  C9  UNL     1      -1.440  -0.575   1.356  1.00  0.00     0.046 C 
HETATM    7  C10 UNL     1      -0.789  -1.044   0.130  1.00  0.00     0.013 C 
HETATM    8  C11 UNL     1      -1.699  -1.455  -0.990  1.00  0.00     0.042 C 
HETATM    9  C12 UNL     1      -2.803  -0.533  -1.273  1.00  0.00     0.226 C 
HETATM   10  C13 UNL     1      -3.900  -0.821  -0.234  1.00  0.00     0.075 C 
HETATM   11  C14 UNL     1      -3.486   0.478   0.314  1.00  0.00     0.260 C 
HETATM   12  N3  UNL     1      -2.767   0.783  -0.928  1.00  0.00     0.105 N 
ENDROOT
BRANCH   1  13
HETATM   13  N2  UNL     1       1.373   0.090   0.383  1.00  0.00    -0.338 N 
HETATM   14  C3  UNL     1       2.652  -0.396   0.056  1.00  0.00     0.316 C 
HETATM   15  N1  UNL     1       3.801  -0.201   0.870  1.00  0.00    -0.343 N 
HETATM   16  O1  UNL     1       2.814  -1.046  -1.015  1.00  0.00    -0.247 OA
ATOM     17  H1  UNL     1       3.691   0.321   1.739  1.00  0.00     0.164 HD
ATOM     18  H2  UNL     1       1.242   0.614   1.248  1.00  0.00     0.164 HD
BRANCH  15  19
HETATM   19  C2  UNL     1       5.103  -0.695   0.541  1.00  0.00     0.120 C 
HETATM   20  C1  UNL     1       5.622  -0.145  -0.769  1.00  0.00     0.026 C 
ENDBRANCH  15  19
ENDBRANCH   1  13
BRANCH   5  21
HETATM   21  O2  UNL     1      -2.938   0.736   2.569  1.00  0.00    -0.388 OA
ATOM     22  H2  UNL     1      -3.377  -0.061   2.842  1.00  0.00     0.210 HD
ENDBRANCH   5  21
TORSDOF 3
