REMARK  7 active torsions:
REMARK  status: ('A' for Active; 'I' for Inactive)
REMARK       I    between atoms: C1_2  and  N1_3 
REMARK    1  A    between atoms: C1_2  and  C7_18 
REMARK    2  A    between atoms: N1_3  and  N2_5 
REMARK    3  A    between atoms: N2_5  and  C2_7 
REMARK    4  A    between atoms: C2_7  and  N3_9 
REMARK    5  A    between atoms: N3_9  and  C3_11 
REMARK    6  A    between atoms: C3_11  and  N4_13 
REMARK    7  A    between atoms: N4_13  and  C4_15 
ROOT
HETATM    1  C2  UNL     1       0.181   0.952   0.483  1.00  0.00     0.192 C 
HETATM    2  S1  UNL     1       1.115   2.151   1.234  1.00  0.00    -0.039 SA
ENDROOT
BRANCH   1   3
HETATM    3  N2  UNL     1       0.874  -0.127  -0.097  1.00  0.00    -0.273 N 
ATOM      4  H2  UNL     1       0.357  -0.877  -0.556  1.00  0.00     0.189 HD
BRANCH   3   5
HETATM    5  N1  UNL     1       2.291  -0.172  -0.044  1.00  0.00    -0.268 N 
HETATM    6  C1  UNL     1       3.142   0.722  -0.718  1.00  0.00     0.240 C 
HETATM    7  O1  UNL     1       2.617   1.635  -1.424  1.00  0.00    -0.271 OA
ATOM      8  H1  UNL     1       2.722  -0.903   0.522  1.00  0.00     0.190 HD
BRANCH   6   9
HETATM    9  C7  UNL     1       4.618   0.631  -0.627  1.00  0.00     0.080 A 
HETATM   10  C8  UNL     1       5.139  -0.803  -0.893  1.00  0.00     0.015 A 
HETATM   11  C9  UNL     1       5.324  -0.097   0.428  1.00  0.00     0.015 A 
ENDBRANCH   6   9
ENDBRANCH   3   5
ENDBRANCH   1   3
BRANCH   1  12
HETATM   12  N3  UNL     1      -1.176   1.172   0.541  1.00  0.00    -0.309 N 
ATOM     13  H3  UNL     1      -1.475   2.033   0.998  1.00  0.00     0.170 HD
BRANCH  12  14
HETATM   14  C3  UNL     1      -2.191   0.350   0.045  1.00  0.00     0.174 C 
HETATM   15  S2  UNL     1      -2.010  -1.063  -0.708  1.00  0.00    -0.041 SA
BRANCH  14  16
HETATM   16  N4  UNL     1      -3.567   0.789   0.218  1.00  0.00    -0.362 N 
ATOM     17  H4  UNL     1      -3.784   1.672   0.680  1.00  0.00     0.162 HD
BRANCH  16  18
HETATM   18  C4  UNL     1      -4.610  -0.061  -0.283  1.00  0.00     0.084 A 
HETATM   19  C5  UNL     1      -4.660  -1.468   0.350  1.00  0.00     0.027 A 
HETATM   20  C6  UNL     1      -5.757  -0.468   0.534  1.00  0.00     0.027 A 
ENDBRANCH  16  18
ENDBRANCH  14  16
ENDBRANCH  12  14
ENDBRANCH   1  12
TORSDOF 7
