REMARK  5 active torsions:
REMARK  status: ('A' for Active; 'I' for Inactive)
REMARK    1  A    between atoms: C2_2  and  C3_4 
REMARK    2  A    between atoms: C3_4  and  N1_5 
REMARK    3  A    between atoms: N1_5  and  C4_7 
REMARK    4  A    between atoms: C4_7  and  N2_9 
REMARK    5  A    between atoms: N2_9  and  C5_11 
ROOT
HETATM    1  C5  UNL     1      -0.878  -0.778   0.288  1.00  0.00     0.090 C 
HETATM    2  C6  UNL     1      -1.612   0.250   1.132  1.00  0.00     0.030 C 
HETATM    3  C7  UNL     1      -2.546   0.974   0.191  1.00  0.00    -0.010 C 
HETATM    4  C8  UNL     1      -3.864   0.296   0.018  1.00  0.00     0.040 C 
HETATM    5  C9  UNL     1      -3.863  -0.851  -0.929  1.00  0.00     0.217 A 
HETATM    6  N3  UNL     1      -3.335  -2.104  -0.431  1.00  0.00    -0.062 N 
ATOM      7  H31 UNL     1      -3.683  -3.060  -0.353  1.00  0.00     0.278 HD
ATOM      8  H32 UNL     1      -3.112  -2.484   0.489  1.00  0.00     0.278 HD
HETATM    9  C10 UNL     1      -2.632  -1.360  -1.416  1.00  0.00     0.222 A 
HETATM   10  C11 UNL     1      -1.381  -0.599  -1.098  1.00  0.00     0.041 C 
HETATM   11  C12 UNL     1      -1.757   0.889  -1.119  1.00  0.00     0.013 C 
ENDROOT
BRANCH   1  12
HETATM   12  N2  UNL     1       0.552  -0.423   0.291  1.00  0.00    -0.362 N 
ATOM     13  H2  UNL     1       1.014  -0.217  -0.595  1.00  0.00     0.162 HD
BRANCH  12  14
HETATM   14  C4  UNL     1       1.298  -0.360   1.483  1.00  0.00     0.168 C 
HETATM   15  S1  UNL     1       0.648  -0.674   2.952  1.00  0.00    -0.041 SA
BRANCH  14  16
HETATM   16  N1  UNL     1       2.671  -0.013   1.419  1.00  0.00    -0.360 N 
ATOM     17  H1  UNL     1       3.222   0.034   2.276  1.00  0.00     0.162 HD
BRANCH  16  18
HETATM   18  C3  UNL     1       3.293   0.273   0.152  1.00  0.00     0.199 C 
BRANCH  18  19
HETATM   19  C2  UNL     1       4.730   0.615   0.303  1.00  0.00     0.140 C 
HETATM   20  C1  UNL     1       5.562   0.943  -0.876  1.00  0.00     0.092 C 
HETATM   21  O1  UNL     1       5.211   0.621   1.405  1.00  0.00    -0.297 OA
ENDBRANCH  18  19
ENDBRANCH  16  18
ENDBRANCH  14  16
ENDBRANCH  12  14
ENDBRANCH   1  12
TORSDOF 5
