REMARK  3 active torsions:
REMARK  status: ('A' for Active; 'I' for Inactive)
REMARK    1  A    between atoms: C7_10  and  N2_11 
REMARK       I    between atoms: N2_11  and  C8_13 
REMARK       I    between atoms: C8_13  and  N3_15 
REMARK    2  A    between atoms: N3_15  and  N4_17 
REMARK       I    between atoms: N4_17  and  C9_19 
REMARK    3  A    between atoms: C9_19  and  C10_21 
ROOT
HETATM    1  N2  UNL     1      -0.740  -0.264  -0.345  1.00  0.00    -0.336 N 
ATOM      2  H2  UNL     1      -0.738  -0.228  -1.364  1.00  0.00     0.164 HD
HETATM    3  C8  UNL     1       0.471  -0.493   0.375  1.00  0.00     0.335 C 
HETATM    4  O1  UNL     1       0.473  -0.536   1.639  1.00  0.00    -0.246 OA
HETATM    5  N3  UNL     1       1.717  -0.680  -0.286  1.00  0.00    -0.249 N 
ATOM      6  H3  UNL     1       1.719  -0.651  -1.306  1.00  0.00     0.192 HD
ENDROOT
BRANCH   1   7
HETATM    7  C7  UNL     1      -1.946  -0.087   0.381  1.00  0.00     0.097 C 
HETATM    8  C2  UNL     1      -3.044  -1.080   0.083  1.00  0.00     0.035 C 
HETATM    9  C1  UNL     1      -3.048  -1.517  -1.343  1.00  0.00     0.014 C 
HETATM   10  C3  UNL     1      -4.269  -0.164   0.260  1.00  0.00     0.192 C 
HETATM   11  C4  UNL     1      -3.772   1.004  -0.610  1.00  0.00     0.041 C 
HETATM   12  N1  UNL     1      -4.270   0.419   1.558  1.00  0.00    -0.070 N 
HETATM   13  C5  UNL     1      -2.553   1.290   0.273  1.00  0.00     0.036 C 
HETATM   14  C6  UNL     1      -3.310   1.535   1.564  1.00  0.00     0.239 C 
ATOM     15  H12 UNL     1      -5.202   0.701   1.861  1.00  0.00     0.277 HD
ATOM     16  H11 UNL     1      -4.085  -0.262   2.295  1.00  0.00     0.277 HD
ENDBRANCH   1   7
BRANCH   5  17
HETATM   17  N4  UNL     1       2.925  -0.898   0.348  1.00  0.00    -0.266 N 
HETATM   18  C9  UNL     1       4.034  -0.086   0.002  1.00  0.00     0.240 C 
HETATM   19  O2  UNL     1       3.950   0.830  -0.871  1.00  0.00    -0.271 OA
ATOM     20  H4  UNL     1       3.017  -1.630   1.052  1.00  0.00     0.190 HD
BRANCH  18  21
HETATM   21  C10 UNL     1       5.353  -0.275   0.652  1.00  0.00     0.080 A 
HETATM   22  C11 UNL     1       6.607  -0.142  -0.129  1.00  0.00     0.015 A 
HETATM   23  C12 UNL     1       6.226   0.919   0.881  1.00  0.00     0.015 A 
ENDBRANCH  18  21
ENDBRANCH   5  17
TORSDOF 3
