REMARK  5 active torsions:
REMARK  status: ('A' for Active; 'I' for Inactive)
REMARK       I    between atoms: N1_2  and  C2_4 
REMARK    1  A    between atoms: C2_4  and  C3_6 
REMARK    2  A    between atoms: C3_6  and  N2_7 
REMARK    3  A    between atoms: N2_7  and  C4_9 
REMARK    4  A    between atoms: C4_9  and  N3_11 
REMARK    5  A    between atoms: N3_11  and  N4_13 
REMARK       I    between atoms: N4_13  and  C5_15 
REMARK       I    between atoms: C5_15  and  N5_17 
ROOT
HETATM    1  N3  UNL     1       0.341   0.811   0.466  1.00  0.00    -0.272 N 
ATOM      2  H3  UNL     1       0.740   1.287   1.275  1.00  0.00     0.189 HD
ENDROOT
BRANCH   1   3
HETATM    3  C4  UNL     1       1.170   0.087  -0.411  1.00  0.00     0.186 C 
HETATM    4  S1  UNL     1       0.570  -0.683  -1.686  1.00  0.00    -0.040 SA
BRANCH   3   5
HETATM    5  N2  UNL     1       2.571   0.048  -0.143  1.00  0.00    -0.357 N 
ATOM      6  H2  UNL     1       2.968   0.531   0.663  1.00  0.00     0.162 HD
BRANCH   5   7
HETATM    7  C3  UNL     1       3.405  -0.697  -1.049  1.00  0.00     0.224 C 
BRANCH   7   8
HETATM    8  C2  UNL     1       4.805  -0.617  -0.680  1.00  0.00     0.234 C 
HETATM    9  N1  UNL     1       5.352   0.082   0.425  1.00  0.00    -0.364 N 
HETATM   10  C1  UNL     1       6.813   0.040   0.629  1.00  0.00     0.149 C 
ATOM     11  H1  UNL     1       4.750   0.602   1.064  1.00  0.00     0.161 HD
HETATM   12  O1  UNL     1       5.651  -1.237  -1.414  1.00  0.00    -0.272 OA
ENDBRANCH   7   8
ENDBRANCH   5   7
ENDBRANCH   3   5
ENDBRANCH   1   3
BRANCH   1  13
HETATM   13  N4  UNL     1      -1.025   0.872   0.220  1.00  0.00    -0.249 N 
HETATM   14  C5  UNL     1      -1.836  -0.257   0.325  1.00  0.00     0.337 C 
HETATM   15  O2  UNL     1      -1.410  -1.424   0.638  1.00  0.00    -0.245 OA
HETATM   16  N5  UNL     1      -3.253  -0.127   0.072  1.00  0.00    -0.333 N 
HETATM   17  C6  UNL     1      -3.881   1.132  -0.280  1.00  0.00     0.127 C 
HETATM   18  C9  UNL     1      -4.191  -1.209   0.143  1.00  0.00     0.127 C 
HETATM   19  C7  UNL     1      -5.316   0.913   0.161  1.00  0.00     0.022 C 
HETATM   20  C8  UNL     1      -5.541  -0.582   0.034  1.00  0.00     0.022 C 
ATOM     21  H4  UNL     1      -1.444   1.764  -0.044  1.00  0.00     0.192 HD
ENDBRANCH   1  13
TORSDOF 5
