REMARK  5 active torsions:
REMARK  status: ('A' for Active; 'I' for Inactive)
REMARK    1  A    between atoms: N1_2  and  C2_3 
REMARK    2  A    between atoms: C2_3  and  C3_4 
REMARK    3  A    between atoms: C4_5  and  C5_6 
REMARK    4  A    between atoms: C6_7  and  C7_8 
REMARK    5  A    between atoms: C7_8  and  N2_9 
ROOT
HETATM    1  C2  UNL     1       3.583  -0.428  -1.444  1.00  0.00     0.388 C 
ENDROOT
BRANCH   1   2
HETATM    2  N1  UNL     1       4.636  -0.112  -0.501  1.00  0.00     0.110 N 
HETATM    3  C1  UNL     1       4.641  -0.913   0.697  1.00  0.00     0.335 C 
HETATM    4  N3  UNL     1       5.872  -0.216  -1.145  1.00  0.00    -0.164 N 
HETATM    5  C13 UNL     1       6.252   1.003  -0.559  1.00  0.00     0.222 C 
ATOM      6  H3  UNL     1       6.311  -0.890  -1.773  1.00  0.00     0.199 HD
HETATM    7  N4  UNL     1       7.338   1.641  -0.362  1.00  0.00    -0.369 N 
HETATM    8  N5  UNL     1       4.883   1.217  -0.279  1.00  0.00    -0.164 N 
ATOM      9  H42 UNL     1       8.326   1.487  -0.564  1.00  0.00     0.159 HD
ATOM     10  H41 UNL     1       7.614   2.526   0.063  1.00  0.00     0.159 HD
ATOM     11  H5  UNL     1       4.316   2.024  -0.020  1.00  0.00     0.199 HD
ENDBRANCH   1   2
BRANCH   1  12
HETATM   12  C3  UNL     1       2.304  -0.321  -0.745  1.00  0.00    -0.060 C 
HETATM   13  C4  UNL     1       1.237  -0.251  -0.162  1.00  0.00    -0.013 C 
BRANCH  13  14
HETATM   14  C5  UNL     1      -0.001  -0.196   0.523  1.00  0.00    -0.013 C 
HETATM   15  C6  UNL     1      -1.061  -0.163   1.127  1.00  0.00    -0.073 C 
BRANCH  15  16
HETATM   16  C7  UNL     1      -2.324  -0.139   1.863  1.00  0.00     0.212 C 
BRANCH  16  17
HETATM   17  N2  UNL     1      -3.433  -0.157   0.967  1.00  0.00    -0.402 N 
HETATM   18  C8  UNL     1      -3.573  -1.391   0.258  1.00  0.00     0.117 C 
HETATM   19  C9  UNL     1      -5.029  -1.515  -0.147  1.00  0.00     0.019 C 
HETATM   20  C10 UNL     1      -5.787  -0.254   0.104  1.00  0.00     0.003 C 
HETATM   21  C11 UNL     1      -5.006   0.918  -0.459  1.00  0.00     0.019 C 
HETATM   22  C12 UNL     1      -3.626   1.020   0.184  1.00  0.00     0.117 C 
ENDBRANCH  16  17
ENDBRANCH  15  16
ENDBRANCH  13  14
ENDBRANCH   1  12
TORSDOF 5
