REMARK  2 active torsions:
REMARK  status: ('A' for Active; 'I' for Inactive)
REMARK       I    between atoms: N1_2  and  C2_4 
REMARK       I    between atoms: C2_4  and  N3_8 
REMARK       I    between atoms: C3_10  and  N4_11 
REMARK       I    between atoms: C3_10  and  N5_20 
REMARK    1  A    between atoms: N4_11  and  C4_13 
REMARK    2  A    between atoms: N5_20  and  C10_22 
ROOT
HETATM    1  C1  UNL     1       2.330   0.836   4.264  1.00  0.00     0.165 C 
HETATM    2  N1  UNL     1       1.882   0.323   2.963  1.00  0.00    -0.230 N 
ATOM      3  H1  UNL     1       1.507  -0.624   2.903  1.00  0.00     0.177 HD
HETATM    4  C2  UNL     1       1.959   1.115   1.788  1.00  0.00     0.685 C 
HETATM    5  N2  UNL     1       2.994   1.905   1.703  1.00  0.00    -0.234 N 
ATOM      6  H21 UNL     1       3.049   2.474   0.858  1.00  0.00     0.174 HD
ATOM      7  H22 UNL     1       3.717   1.959   2.420  1.00  0.00     0.174 HD
HETATM    8  N3  UNL     1       0.973   1.042   0.810  1.00  0.00    -0.023 N 
ATOM      9  H3  UNL     1       0.354   1.852   0.787  1.00  0.00     0.203 HD
HETATM   10  C3  UNL     1       0.700   0.168  -0.050  1.00  0.00     0.689 C 
HETATM   11  N4  UNL     1       1.441  -1.027  -0.173  1.00  0.00    -0.221 N 
ATOM     12  H4  UNL     1       0.918  -1.903  -0.191  1.00  0.00     0.178 HD
HETATM   13  N5  UNL     1      -0.393   0.377  -0.943  1.00  0.00    -0.216 N 
ATOM     14  H5  UNL     1      -0.203   0.263  -1.939  1.00  0.00     0.178 HD
ENDROOT
BRANCH  11  15
HETATM   15  C4  UNL     1       2.882  -1.110  -0.275  1.00  0.00     0.102 C 
HETATM   16  C5  UNL     1       3.380  -0.276  -1.421  1.00  0.00     0.026 C 
HETATM   17  C6  UNL     1       4.344  -0.933  -2.336  1.00  0.00     0.005 C 
HETATM   18  C7  UNL     1       5.355  -1.824  -1.681  1.00  0.00     0.037 C 
HETATM   19  C8  UNL     1       4.811  -2.566  -0.490  1.00  0.00     0.172 C 
HETATM   20  F1  UNL     1       5.337  -3.825  -0.360  1.00  0.00    -0.249 F 
HETATM   21  C9  UNL     1       3.299  -2.558  -0.609  1.00  0.00     0.062 C 
ENDBRANCH  11  15
BRANCH  13  22
HETATM   22  C10 UNL     1      -1.729   0.731  -0.578  1.00  0.00     0.055 C 
HETATM   23  C11 UNL     1      -2.520   0.808  -1.896  1.00  0.00     0.037 C 
HETATM   24  C12 UNL     1      -3.966   1.100  -1.693  1.00  0.00    -0.012 C 
HETATM   25  C13 UNL     1      -4.084   2.443  -1.006  1.00  0.00     0.009 C 
HETATM   26  C17 UNL     1      -4.613   0.028  -0.874  1.00  0.00     0.010 C 
HETATM   27  C14 UNL     1      -3.343   2.359   0.311  1.00  0.00    -0.012 C 
HETATM   28  C15 UNL     1      -3.998   1.279   1.123  1.00  0.00     0.010 C 
HETATM   29  C21 UNL     1      -1.880   2.087   0.052  1.00  0.00     0.037 C 
HETATM   30  C16 UNL     1      -3.876  -0.059   0.428  1.00  0.00    -0.004 C 
HETATM   31  C18 UNL     1      -2.406  -0.352   0.245  1.00  0.00    -0.018 C 
HETATM   32  C19 UNL     1      -1.832  -0.466   1.640  1.00  0.00     0.018 C 
HETATM   33  C20 UNL     1      -2.188  -1.682  -0.447  1.00  0.00     0.018 C 
ENDBRANCH  13  22
TORSDOF 2
