REMARK  8 active torsions:
REMARK  status: ('A' for Active; 'I' for Inactive)
REMARK    1  A    between atoms: C6_6  and  C7_7 
REMARK    2  A    between atoms: C7_7  and  N1_8 
REMARK    3  A    between atoms: N1_8  and  C8_10 
REMARK    4  A    between atoms: C8_10  and  N2_12 
REMARK    5  A    between atoms: N2_12  and  N3_14 
REMARK    6  A    between atoms: N3_14  and  C9_16 
REMARK    7  A    between atoms: C9_16  and  N4_18 
REMARK    8  A    between atoms: N4_18  and  C10_20 
ROOT
HETATM    1  C8  UNL     1       0.507   1.759   2.158  1.00  0.00     0.186 C 
HETATM    2  S1  UNL     1       0.300   3.251   2.738  1.00  0.00    -0.040 SA
ENDROOT
BRANCH   1   3
HETATM    3  N1  UNL     1       1.530   1.476   1.223  1.00  0.00    -0.362 N 
ATOM      4  H1  UNL     1       2.144   2.229   0.912  1.00  0.00     0.162 HD
BRANCH   3   5
HETATM    5  C7  UNL     1       1.725   0.144   0.698  1.00  0.00     0.161 C 
BRANCH   5   6
HETATM    6  C6  UNL     1       2.811  -0.024  -0.252  1.00  0.00    -0.032 A 
HETATM    7  C4  UNL     1       2.996  -1.318  -0.761  1.00  0.00    -0.053 A 
HETATM    8  C3  UNL     1       3.992  -1.607  -1.667  1.00  0.00     0.017 A 
HETATM    9  C5  UNL     1       2.104  -2.392  -0.316  1.00  0.00     0.049 C 
HETATM   10  C2  UNL     1       4.854  -0.619  -2.110  1.00  0.00    -0.023 A 
HETATM   11  C1  UNL     1       5.944  -0.843  -3.074  1.00  0.00     0.051 C 
HETATM   12  C17 UNL     1       4.688   0.670  -1.618  1.00  0.00     0.122 A 
HETATM   13  C16 UNL     1       3.676   0.938  -0.704  1.00  0.00     0.052 A 
HETATM   14  F1  UNL     1       5.477   1.690  -1.991  1.00  0.00    -0.206 F 
ENDBRANCH   5   6
ENDBRANCH   3   5
ENDBRANCH   1   3
BRANCH   1  15
HETATM   15  N2  UNL     1      -0.347   0.710   2.587  1.00  0.00    -0.274 N 
ATOM     16  H2  UNL     1      -0.223  -0.235   2.225  1.00  0.00     0.189 HD
BRANCH  15  17
HETATM   17  N3  UNL     1      -1.357   0.983   3.508  1.00  0.00    -0.274 N 
ATOM     18  H3  UNL     1      -1.055   1.029   4.481  1.00  0.00     0.189 HD
BRANCH  17  19
HETATM   19  C9  UNL     1      -2.698   1.200   3.303  1.00  0.00     0.186 C 
HETATM   20  S2  UNL     1      -3.596   1.515   4.694  1.00  0.00    -0.040 SA
BRANCH  19  21
HETATM   21  N4  UNL     1      -3.427   1.199   2.133  1.00  0.00    -0.361 N 
ATOM     22  H4  UNL     1      -4.420   1.404   2.240  1.00  0.00     0.162 HD
BRANCH  21  23
HETATM   23  C10 UNL     1      -2.995   0.952   0.784  1.00  0.00     0.083 C 
HETATM   24  C11 UNL     1      -2.633  -0.458   0.484  1.00  0.00     0.025 C 
HETATM   25  C12 UNL     1      -3.577  -1.228  -0.364  1.00  0.00     0.002 C 
HETATM   26  C13 UNL     1      -4.091  -0.535  -1.578  1.00  0.00     0.000 C 
HETATM   27  C14 UNL     1      -3.806   0.948  -1.581  1.00  0.00     0.002 C 
HETATM   28  C15 UNL     1      -4.026   1.507  -0.192  1.00  0.00     0.025 C 
ENDBRANCH  21  23
ENDBRANCH  19  21
ENDBRANCH  17  19
ENDBRANCH  15  17
ENDBRANCH   1  15
TORSDOF 8
