REMARK  5 active torsions:
REMARK  status: ('A' for Active; 'I' for Inactive)
REMARK    1  A    between atoms: C10_10  and  C11_11 
REMARK    2  A    between atoms: C11_11  and  N1_12 
REMARK    3  A    between atoms: N1_12  and  C12_14 
REMARK    4  A    between atoms: C12_14  and  N2_16 
REMARK       I    between atoms: N2_16  and  C13_18 
REMARK       I    between atoms: C13_18  and  N4_22 
REMARK    5  A    between atoms: N4_22  and  C14_24 
ROOT
HETATM    1  C12 UNL     1       0.023  -0.222  -2.146  1.00  0.00     0.190 C 
HETATM    2  S1  UNL     1      -0.149  -1.829  -1.961  1.00  0.00    -0.040 SA
ENDROOT
BRANCH   1   3
HETATM    3  N1  UNL     1      -0.968   0.711  -1.789  1.00  0.00    -0.345 N 
ATOM      4  H1  UNL     1      -0.774   1.669  -2.082  1.00  0.00     0.167 HD
BRANCH   3   5
HETATM    5  C11 UNL     1      -2.187   0.544  -1.093  1.00  0.00     0.074 C 
BRANCH   5   6
HETATM    6  C10 UNL     1      -2.131   0.546   0.346  1.00  0.00     0.004 C 
HETATM    7  C2  UNL     1      -3.477   0.323   1.031  1.00  0.00    -0.027 C 
HETATM    8  C1  UNL     1      -4.656   0.880   0.415  1.00  0.00     0.016 C 
HETATM    9  C3  UNL     1      -3.413  -1.215   1.064  1.00  0.00     0.015 C 
HETATM   10  C6  UNL     1      -3.160   0.772   2.435  1.00  0.00    -0.001 C 
HETATM   11  C4  UNL     1      -2.156  -1.249   1.961  1.00  0.00    -0.008 C 
HETATM   12  C5  UNL     1      -2.768  -0.533   3.143  1.00  0.00     0.011 C 
HETATM   13  C9  UNL     1      -1.254  -0.308   1.166  1.00  0.00     0.004 C 
HETATM   14  C8  UNL     1      -0.694   0.665   2.251  1.00  0.00     0.011 C 
HETATM   15  C7  UNL     1      -1.891   1.577   2.350  1.00  0.00    -0.008 C 
HETATM   16  C19 UNL     1      -1.932   2.003   0.900  1.00  0.00     0.021 C 
ENDBRANCH   5   6
ENDBRANCH   3   5
ENDBRANCH   1   3
BRANCH   1  17
HETATM   17  N2  UNL     1       1.231   0.186  -2.812  1.00  0.00    -0.167 N 
HETATM   18  C13 UNL     1       2.254  -0.720  -3.189  1.00  0.00     0.674 C 
HETATM   19  N3  UNL     1       2.568  -0.922  -4.431  1.00  0.00    -0.235 N 
HETATM   20  N4  UNL     1       2.943  -1.413  -2.180  1.00  0.00    -0.219 N 
ATOM     21  H32 UNL     1       2.068  -0.419  -5.164  1.00  0.00     0.174 HD
ATOM     22  H31 UNL     1       3.304  -1.574  -4.702  1.00  0.00     0.174 HD
ATOM     23  H4  UNL     1       2.744  -2.402  -2.030  1.00  0.00     0.178 HD
ATOM     24  H2  UNL     1       1.358   1.176  -3.023  1.00  0.00     0.186 HD
BRANCH  20  25
HETATM   25  C14 UNL     1       3.919  -0.762  -1.357  1.00  0.00     0.133 C 
HETATM   26  C15 UNL     1       3.374   0.390  -0.561  1.00  0.00     0.029 C 
HETATM   27  C16 UNL     1       4.458   0.617   0.470  1.00  0.00     0.005 C 
HETATM   28  C17 UNL     1       5.228  -0.685   0.587  1.00  0.00     0.039 C 
HETATM   29  C18 UNL     1       4.455  -1.653  -0.275  1.00  0.00     0.193 C 
HETATM   30  F1  UNL     1       5.197  -2.710  -0.712  1.00  0.00    -0.247 F 
ENDBRANCH  20  25
ENDBRANCH   1  17
TORSDOF 5
