REMARK  3 active torsions:
REMARK  status: ('A' for Active; 'I' for Inactive)
REMARK    1  A    between atoms: C2_2  and  N1_3 
REMARK       I    between atoms: N1_3  and  C3_5 
REMARK       I    between atoms: C3_5  and  N2_7 
REMARK    2  A    between atoms: N2_7  and  C4_9 
REMARK    3  A    between atoms: C4_9  and  C5_10 
ROOT
HETATM    1  C5  UNL     1       0.453   0.469   0.949  1.00  0.00     0.087 C 
HETATM    2  C6  UNL     1       0.509  -0.892   1.500  1.00  0.00    -0.100 C 
HETATM    3  C7  UNL     1       0.502  -1.913   1.866  1.00  0.00    -0.106 C 
HETATM    4  C8  UNL     1       0.434  -3.220   2.292  1.00  0.00     0.094 C 
HETATM    5  C9  UNL     1      -0.591  -4.130   1.679  1.00  0.00     0.014 C 
HETATM    6  C10 UNL     1      -1.906  -3.628   1.266  1.00  0.00     0.020 C 
HETATM    7  C11 UNL     1      -2.197  -3.263  -0.121  1.00  0.00     0.114 C 
HETATM    8  N3  UNL     1      -2.952  -2.021  -0.363  1.00  0.00    -0.417 N 
ATOM      9  H3  UNL     1      -3.965  -1.932  -0.287  1.00  0.00     0.153 HD
HETATM   10  C12 UNL     1      -2.116  -1.019  -0.699  1.00  0.00     0.081 C 
HETATM   11  C13 UNL     1      -2.244   0.133  -1.604  1.00  0.00     0.030 C 
HETATM   12  C14 UNL     1      -1.070   1.084  -1.165  1.00  0.00    -0.002 C 
HETATM   13  C15 UNL     1      -1.478   2.349  -0.626  1.00  0.00    -0.003 C 
HETATM   14  C16 UNL     1      -1.820   3.531  -1.397  1.00  0.00     0.042 C 
HETATM   15  C17 UNL     1      -2.514   4.386  -0.317  1.00  0.00     0.171 C 
HETATM   16  F1  UNL     1      -3.734   4.822  -0.746  1.00  0.00    -0.249 F 
HETATM   17  C18 UNL     1      -2.779   3.428   0.861  1.00  0.00     0.042 C 
HETATM   18  C19 UNL     1      -2.826   2.111   0.066  1.00  0.00    -0.007 C 
HETATM   19  C20 UNL     1      -2.764   0.878   0.791  1.00  0.00     0.012 C 
HETATM   20  C21 UNL     1      -1.762  -0.182   0.531  1.00  0.00     0.014 C 
HETATM   21  C22 UNL     1      -0.457   0.289  -0.140  1.00  0.00     0.013 C 
ENDROOT
BRANCH   1  22
HETATM   22  C4  UNL     1       1.831   0.970   0.686  1.00  0.00     0.142 C 
BRANCH  22  23
HETATM   23  N2  UNL     1       2.537   0.132  -0.259  1.00  0.00    -0.342 N 
HETATM   24  C3  UNL     1       3.866   0.473  -0.620  1.00  0.00     0.316 C 
HETATM   25  N1  UNL     1       4.534  -0.372  -1.552  1.00  0.00    -0.344 N 
HETATM   26  O1  UNL     1       4.425   1.484  -0.131  1.00  0.00    -0.247 OA
ATOM     27  H1  UNL     1       4.055  -1.188  -1.933  1.00  0.00     0.164 HD
ATOM     28  H2  UNL     1       2.086  -0.691  -0.659  1.00  0.00     0.164 HD
BRANCH  25  29
HETATM   29  C2  UNL     1       5.888  -0.077  -1.959  1.00  0.00     0.120 C 
HETATM   30  C1  UNL     1       6.835  -0.077  -0.766  1.00  0.00     0.026 C 
ENDBRANCH  25  29
ENDBRANCH  22  23
ENDBRANCH   1  22
TORSDOF 3
