REMARK  2 active torsions:
REMARK  status: ('A' for Active; 'I' for Inactive)
REMARK    1  A    between atoms: C2_2  and  N1_3 
REMARK       I    between atoms: N4_13  and  C7_15 
REMARK       I    between atoms: C7_15  and  N6_19 
REMARK    2  A    between atoms: N6_19  and  C8_21 
ROOT
HETATM    1  N1  UNL     1       2.883   0.461  -0.488  1.00  0.00    -0.364 N 
HETATM    2  C3  UNL     1       4.043  -0.169  -0.748  1.00  0.00     0.112 A 
HETATM    3  C4  UNL     1       4.286  -1.465  -0.347  1.00  0.00     0.055 A 
HETATM    4 BR1  UNL     1       5.946  -2.314  -0.739  1.00  0.00    -0.047 Br
HETATM    5  C5  UNL     1       3.324  -2.169   0.348  1.00  0.00     0.082 A 
HETATM    6  N2  UNL     1       3.248  -3.406   0.866  1.00  0.00    -0.297 N 
ATOM      7  H2  UNL     1       3.993  -4.101   0.814  1.00  0.00     0.187 HD
HETATM    8  N3  UNL     1       2.088  -3.602   1.448  1.00  0.00    -0.284 N 
ATOM      9  H3  UNL     1       1.780  -4.455   1.915  1.00  0.00     0.188 HD
HETATM   10  C6  UNL     1       1.369  -2.444   1.309  1.00  0.00     0.149 A 
HETATM   11  N4  UNL     1       0.214  -2.328   1.768  1.00  0.00    -0.175 N 
ATOM     12  H4  UNL     1      -0.117  -3.169   2.242  1.00  0.00     0.186 HD
HETATM   13  C7  UNL     1      -0.717  -1.295   1.770  1.00  0.00     0.673 C 
HETATM   14  N5  UNL     1      -0.799  -0.420   2.725  1.00  0.00    -0.235 N 
ATOM     15  H51 UNL     1      -1.482   0.338   2.726  1.00  0.00     0.174 HD
ATOM     16  H52 UNL     1      -0.144  -0.486   3.504  1.00  0.00     0.174 HD
HETATM   17  N6  UNL     1      -1.632  -1.203   0.682  1.00  0.00    -0.222 N 
ATOM     18  H6  UNL     1      -1.491  -1.846  -0.098  1.00  0.00     0.178 HD
HETATM   19  C14 UNL     1       2.131  -1.534   0.621  1.00  0.00     0.055 A 
HETATM   20  C15 UNL     1       1.947  -0.226   0.189  1.00  0.00     0.108 A 
ENDROOT
BRANCH  17  21
HETATM   21  C8  UNL     1      -2.731  -0.291   0.583  1.00  0.00     0.099 C 
HETATM   22  C9  UNL     1      -3.551  -0.605  -0.682  1.00  0.00     0.026 C 
HETATM   23  C10 UNL     1      -4.662   0.389  -0.778  1.00  0.00     0.002 C 
HETATM   24  C11 UNL     1      -4.039   1.711  -1.237  1.00  0.00     0.000 C 
HETATM   25  C12 UNL     1      -2.567   1.732  -0.912  1.00  0.00     0.002 C 
HETATM   26  C13 UNL     1      -2.253   1.143   0.427  1.00  0.00     0.026 C 
ENDBRANCH  17  21
BRANCH   1  27
HETATM   27  C2  UNL     1       2.672   1.833  -0.933  1.00  0.00     0.123 C 
HETATM   28  C1  UNL     1       3.118   2.836   0.102  1.00  0.00     0.027 C 
ENDBRANCH   1  27
TORSDOF 2
