REMARK  9 active torsions:
REMARK  status: ('A' for Active; 'I' for Inactive)
REMARK    1  A    between atoms: C2_2  and  N1_3 
REMARK    2  A    between atoms: C2_2  and  C15_20 
REMARK    3  A    between atoms: N1_3  and  C3_5 
REMARK    4  A    between atoms: C3_5  and  N2_7 
REMARK    5  A    between atoms: N2_7  and  C4_9 
REMARK    6  A    between atoms: C15_20  and  O1_21 
REMARK    7  A    between atoms: C15_20  and  N3_23 
REMARK    8  A    between atoms: N3_23  and  C16_25 
REMARK    9  A    between atoms: C16_25  and  O2_27 
ROOT
HETATM    1  C3  UNL     1       1.185  -0.410   0.017  1.00  0.00     0.168 C 
HETATM    2  S1  UNL     1       1.179   0.761  -1.119  1.00  0.00    -0.041 SA
ENDROOT
BRANCH   1   3
HETATM    3  N1  UNL     1       2.391  -1.018   0.450  1.00  0.00    -0.356 N 
ATOM      4  H1  UNL     1       2.374  -1.752   1.158  1.00  0.00     0.162 HD
BRANCH   3   5
HETATM    5  C2  UNL     1       3.652  -0.582  -0.127  1.00  0.00     0.154 C 
HETATM    6  C1  UNL     1       3.795   0.872   0.313  1.00  0.00     0.041 C 
BRANCH   5   7
HETATM    7  C15 UNL     1       4.706  -1.425   0.438  1.00  0.00     0.141 C 
BRANCH   7   8
HETATM    8  O1  UNL     1       4.419  -2.240   1.413  1.00  0.00    -0.348 OA
ATOM      9  H1  UNL     1       5.103  -2.787   1.780  1.00  0.00     0.219 HD
ENDBRANCH   7   8
BRANCH   7  10
HETATM   10  N3  UNL     1       6.031  -1.452   0.031  1.00  0.00    -0.307 N 
ATOM     11  H3  UNL     1       6.669  -2.039   0.568  1.00  0.00     0.170 HD
BRANCH  10  12
HETATM   12  C16 UNL     1       6.573  -0.745  -1.052  1.00  0.00     0.231 C 
HETATM   13  N4  UNL     1       5.882   0.117  -1.926  1.00  0.00    -0.056 NA
BRANCH  12  14
HETATM   14  O2  UNL     1       7.845  -0.904  -1.272  1.00  0.00    -0.335 OA
ATOM     15  H2  UNL     1       8.212  -0.425  -2.006  1.00  0.00     0.220 HD
ENDBRANCH  12  14
ENDBRANCH  10  12
ENDBRANCH   7  10
ENDBRANCH   5   7
ENDBRANCH   3   5
ENDBRANCH   1   3
BRANCH   1  16
HETATM   16  N2  UNL     1      -0.023  -0.841   0.589  1.00  0.00    -0.358 N 
ATOM     17  H2  UNL     1       0.061  -1.575   1.292  1.00  0.00     0.162 HD
BRANCH  16  18
HETATM   18  C4  UNL     1      -1.349  -0.395   0.323  1.00  0.00     0.034 C 
HETATM   19  C5  UNL     1      -1.730  -0.695  -1.085  1.00  0.00     0.035 C 
HETATM   20  C6  UNL     1      -3.210  -0.461  -1.316  1.00  0.00    -0.011 C 
HETATM   21  C7  UNL     1      -4.033  -1.242  -0.345  1.00  0.00     0.009 C 
HETATM   22  C12 UNL     1      -3.423   1.032  -1.132  1.00  0.00     0.014 C 
HETATM   23  C8  UNL     1      -3.686  -0.813   1.069  1.00  0.00    -0.011 C 
HETATM   24  C9  UNL     1      -3.957   0.651   1.206  1.00  0.00     0.014 C 
HETATM   25  C14 UNL     1      -2.255  -1.140   1.315  1.00  0.00     0.035 C 
HETATM   26  C10 UNL     1      -3.019   1.390   0.261  1.00  0.00    -0.041 C 
HETATM   27  C11 UNL     1      -3.208   2.887   0.453  1.00  0.00     0.015 C 
HETATM   28  C13 UNL     1      -1.592   1.070   0.603  1.00  0.00     0.040 C 
ENDBRANCH  16  18
ENDBRANCH   1  16
TORSDOF 9
