REMARK  19 active torsions:
REMARK  status: ('A' for Active; 'I' for Inactive)
REMARK       I    between atoms: N1_2  and  C2_4 
REMARK    1  A    between atoms: N3_6  and  C3_8 
REMARK    2  A    between atoms: C3_8  and  C4_9 
REMARK    3  A    between atoms: C4_9  and  C5_10 
REMARK    4  A    between atoms: C5_10  and  C6_11 
REMARK    5  A    between atoms: C6_11  and  N4_12 
REMARK       I    between atoms: N4_12  and  C7_14 
REMARK    6  A    between atoms: C7_14  and  C8_16 
REMARK    7  A    between atoms: C8_16  and  N5_17 
REMARK       I    between atoms: N5_17  and  C9_19 
REMARK    8  A    between atoms: C9_19  and  C10_21 
REMARK    9  A    between atoms: N6_25  and  C14_26 
REMARK   10  A    between atoms: C14_26  and  C15_27 
REMARK   11  A    between atoms: C15_27  and  C16_28 
REMARK   12  A    between atoms: C16_28  and  C17_29 
REMARK   13  A    between atoms: C17_29  and  C18_30 
REMARK   14  A    between atoms: C18_30  and  N7_31 
REMARK   15  A    between atoms: N7_31  and  C19_32 
REMARK       I    between atoms: N7_31  and  C26_44 
REMARK   16  A    between atoms: C19_32  and  C20_33 
REMARK   17  A    between atoms: C20_33  and  N8_34 
REMARK       I    between atoms: N8_34  and  C21_36 
REMARK   18  A    between atoms: C21_36  and  C22_38 
REMARK       I    between atoms: C26_44  and  N10_46 
REMARK   19  A    between atoms: N10_46  and  N11_48 
ROOT
HETATM    1  C10 UNL     1      -1.843  -2.831   2.099  1.00  0.00     0.047 A 
HETATM    2  C11 UNL     1      -1.863  -4.156   1.633  1.00  0.00     0.020 A 
HETATM    3  C12 UNL     1      -0.685  -4.814   1.367  1.00  0.00     0.018 A 
HETATM    4  C13 UNL     1       0.540  -4.206   1.543  1.00  0.00     0.090 A 
HETATM    5  N6  UNL     1       0.569  -2.948   1.984  1.00  0.00    -0.365 N 
HETATM    6  C27 UNL     1      -0.598  -2.283   2.254  1.00  0.00     0.107 A 
ENDROOT
BRANCH   5   7
HETATM    7  C14 UNL     1       1.779  -2.173   2.200  1.00  0.00     0.128 C 
BRANCH   7   8
HETATM    8  C15 UNL     1       2.111  -1.393   0.963  1.00  0.00     0.020 C 
BRANCH   8   9
HETATM    9  C16 UNL     1       2.403  -2.200  -0.245  1.00  0.00     0.003 C 
BRANCH   9  10
HETATM   10  C17 UNL     1       3.598  -3.105  -0.146  1.00  0.00     0.015 C 
BRANCH  10  11
HETATM   11  C18 UNL     1       4.820  -2.195   0.116  1.00  0.00     0.100 C 
BRANCH  11  12
HETATM   12  N7  UNL     1       4.994  -1.264  -0.946  1.00  0.00    -0.232 NA
HETATM   13  C26 UNL     1       5.824  -1.771  -1.990  1.00  0.00     0.314 C 
HETATM   14  O4  UNL     1       6.298  -2.924  -1.857  1.00  0.00    -0.252 OA
HETATM   15  N10 UNL     1       6.128  -1.034  -3.153  1.00  0.00    -0.263 N 
ATOM     16  H10 UNL     1       5.750  -0.095  -3.277  1.00  0.00     0.190 HD
BRANCH  12  17
HETATM   17  C19 UNL     1       5.455   0.040  -0.542  1.00  0.00     0.120 C 
BRANCH  17  18
HETATM   18  C20 UNL     1       6.479   0.029   0.553  1.00  0.00     0.138 C 
BRANCH  18  19
HETATM   19  N8  UNL     1       6.919   1.354   0.920  1.00  0.00    -0.356 N 
HETATM   20  C21 UNL     1       7.568   2.245   0.063  1.00  0.00     0.253 C 
HETATM   21  O3  UNL     1       7.818   1.922  -1.120  1.00  0.00    -0.268 OA
ATOM     22  H8  UNL     1       6.743   1.662   1.876  1.00  0.00     0.162 HD
BRANCH  20  23
HETATM   23  C22 UNL     1       7.962   3.560   0.535  1.00  0.00     0.048 A 
HETATM   24  C23 UNL     1       7.519   4.219   1.683  1.00  0.00     0.035 A 
HETATM   25  C24 UNL     1       8.197   5.425   1.686  1.00  0.00     0.088 A 
HETATM   26  N9  UNL     1       9.008   5.510   0.613  1.00  0.00    -0.374 N 
HETATM   27  C25 UNL     1       8.869   4.380  -0.089  1.00  0.00     0.104 A 
ATOM     28  H9  UNL     1       9.617   6.294   0.379  1.00  0.00     0.164 HD
ENDBRANCH  20  23
ENDBRANCH  18  19
ENDBRANCH  17  18
ENDBRANCH  12  17
BRANCH  15  29
HETATM   29  N11 UNL     1       6.943  -1.591  -4.127  1.00  0.00    -0.342 N 
ATOM     30 2H11 UNL     1       7.313  -2.531  -3.987  1.00  0.00     0.176 HD
ATOM     31 1H11 UNL     1       7.163  -1.058  -4.968  1.00  0.00     0.176 HD
ENDBRANCH  15  29
ENDBRANCH  11  12
ENDBRANCH  10  11
ENDBRANCH   9  10
ENDBRANCH   8   9
ENDBRANCH   7   8
ENDBRANCH   5   7
BRANCH   1  32
HETATM   32  C9  UNL     1      -3.079  -2.128   2.368  1.00  0.00     0.253 C 
HETATM   33  N5  UNL     1      -3.075  -0.943   3.151  1.00  0.00    -0.348 N 
ATOM     34  H5  UNL     1      -2.181  -0.618   3.521  1.00  0.00     0.163 HD
HETATM   35  O2  UNL     1      -4.144  -2.572   1.908  1.00  0.00    -0.268 OA
BRANCH  33  36
HETATM   36  C8  UNL     1      -4.236  -0.180   3.453  1.00  0.00     0.225 C 
BRANCH  36  37
HETATM   37  C7  UNL     1      -4.829   0.451   2.233  1.00  0.00     0.235 C 
HETATM   38  N4  UNL     1      -4.229   0.395   0.996  1.00  0.00    -0.360 N 
ATOM     39  H4  UNL     1      -3.329  -0.085   0.979  1.00  0.00     0.162 HD
HETATM   40  O1  UNL     1      -5.940   1.031   2.519  1.00  0.00    -0.272 OA
BRANCH  38  41
HETATM   41  C6  UNL     1      -4.658   0.895  -0.258  1.00  0.00     0.122 C 
BRANCH  41  42
HETATM   42  C5  UNL     1      -5.844   0.290  -0.854  1.00  0.00     0.021 C 
BRANCH  42  43
HETATM   43  C4  UNL     1      -7.197   0.408  -0.320  1.00  0.00     0.021 C 
BRANCH  43  44
HETATM   44  C3  UNL     1      -7.717   1.852  -0.325  1.00  0.00     0.122 C 
BRANCH  44  45
HETATM   45  N3  UNL     1      -7.732   2.334  -1.710  1.00  0.00    -0.365 N 
HETATM   46  C2  UNL     1      -8.826   2.762  -2.266  1.00  0.00     0.183 C 
HETATM   47  N1  UNL     1     -10.006   2.750  -1.492  1.00  0.00    -0.369 N 
HETATM   48  N2  UNL     1      -8.810   3.226  -3.622  1.00  0.00    -0.064 NA
HETATM   49  C1  UNL     1     -10.971   1.700  -1.652  1.00  0.00     0.148 C 
ATOM     50  H1  UNL     1     -10.174   3.493  -0.814  1.00  0.00     0.161 HD
ATOM     51  H3  UNL     1      -6.866   2.333  -2.248  1.00  0.00     0.162 HD
ENDBRANCH  44  45
ENDBRANCH  43  44
ENDBRANCH  42  43
ENDBRANCH  41  42
ENDBRANCH  38  41
ENDBRANCH  36  37
ENDBRANCH  33  36
ENDBRANCH   1  32
TORSDOF 19
