REMARK  19 active torsions:
REMARK  status: ('A' for Active; 'I' for Inactive)
REMARK    1  A    between atoms: C2_2  and  C3_3 
REMARK    2  A    between atoms: C3_3  and  C4_4 
REMARK    3  A    between atoms: C4_4  and  C5_5 
REMARK    4  A    between atoms: C4_4  and  C9_14 
REMARK    5  A    between atoms: C4_4  and  N8_27 
REMARK       I    between atoms: C5_5  and  N1_7 
REMARK       I    between atoms: C6_9  and  N3_11 
REMARK       I    between atoms: C9_14  and  N4_16 
REMARK    6  A    between atoms: N4_16  and  C10_18 
REMARK    7  A    between atoms: C10_18  and  C11_19 
REMARK    8  A    between atoms: C11_19  and  N5_20 
REMARK       I    between atoms: N5_20  and  C12_22 
REMARK    9  A    between atoms: N8_27  and  C13_28 
REMARK   10  A    between atoms: N8_27  and  C23_47 
REMARK   11  A    between atoms: C13_28  and  C14_29 
REMARK   12  A    between atoms: C14_29  and  N9_30 
REMARK       I    between atoms: N9_30  and  C15_32 
REMARK       I    between atoms: C15_32  and  N10_34 
REMARK   13  A    between atoms: N10_34  and  C16_36 
REMARK   14  A    between atoms: C16_36  and  C17_37 
REMARK   15  A    between atoms: C17_37  and  C18_38 
REMARK   16  A    between atoms: C18_38  and  N11_39 
REMARK   17  A    between atoms: N11_39  and  C19_42 
REMARK   18  A    between atoms: C19_42  and  N12_43 
REMARK   19  A    between atoms: C23_47  and  C24_48 
ROOT
HETATM    1  N8  UNL     1      -1.454  -0.982   1.251  1.00  0.00    -0.361 N 
ENDROOT
BRANCH   1   2
HETATM    2  C4  UNL     1      -2.317  -0.472   0.299  1.00  0.00     0.195 C 
BRANCH   2   3
HETATM    3  C3  UNL     1      -1.621   0.502  -0.648  1.00  0.00     0.051 C 
BRANCH   3   4
HETATM    4  C2  UNL     1      -2.493   1.387  -1.462  1.00  0.00    -0.001 C 
HETATM    5  C1  UNL     1      -1.569   2.313  -2.315  1.00  0.00     0.005 C 
ENDBRANCH   3   4
ENDBRANCH   2   3
BRANCH   2   6
HETATM    6  C5  UNL     1      -3.142  -1.407  -0.402  1.00  0.00     0.262 C 
HETATM    7  O1  UNL     1      -3.275  -2.608   0.034  1.00  0.00    -0.270 OA
HETATM    8  N1  UNL     1      -3.895  -1.208  -1.589  1.00  0.00    -0.299 N 
HETATM    9  C6  UNL     1      -4.161  -2.017  -2.508  1.00  0.00     0.192 C 
ATOM     10  H1  UNL     1      -4.275  -0.269  -1.712  1.00  0.00     0.171 HD
HETATM   11  N2  UNL     1      -4.963  -1.499  -3.596  1.00  0.00    -0.063 NA
HETATM   12  N3  UNL     1      -3.780  -3.359  -2.610  1.00  0.00    -0.364 N 
HETATM   13  C7  UNL     1      -4.565  -4.440  -2.068  1.00  0.00     0.151 C 
HETATM   14  C8  UNL     1      -2.543  -3.689  -3.296  1.00  0.00     0.151 C 
ENDBRANCH   2   6
BRANCH   2  15
HETATM   15  C9  UNL     1      -3.343   0.501   0.970  1.00  0.00     0.256 C 
HETATM   16  O2  UNL     1      -4.565   0.370   0.772  1.00  0.00    -0.270 OA
HETATM   17  N4  UNL     1      -2.884   1.542   1.800  1.00  0.00    -0.357 N 
ATOM     18  H4  UNL     1      -1.882   1.655   1.951  1.00  0.00     0.162 HD
BRANCH  17  19
HETATM   19  C10 UNL     1      -3.797   2.448   2.439  1.00  0.00     0.142 C 
BRANCH  19  20
HETATM   20  C11 UNL     1      -3.059   3.465   3.245  1.00  0.00     0.142 C 
BRANCH  20  21
HETATM   21  N5  UNL     1      -2.200   4.206   2.340  1.00  0.00    -0.363 N 
HETATM   22  C12 UNL     1      -2.773   5.064   1.370  1.00  0.00     0.181 C 
HETATM   23  N6  UNL     1      -2.071   5.469   0.361  1.00  0.00    -0.374 N 
HETATM   24  N7  UNL     1      -4.128   5.492   1.492  1.00  0.00    -0.064 NA
ATOM     25  H62 UNL     1      -1.102   5.163   0.274  1.00  0.00     0.158 HD
ATOM     26  H61 UNL     1      -2.484   6.087  -0.338  1.00  0.00     0.158 HD
ATOM     27  H5  UNL     1      -1.187   4.109   2.402  1.00  0.00     0.162 HD
ENDBRANCH  20  21
ENDBRANCH  19  20
ENDBRANCH  17  19
ENDBRANCH   2  15
ENDBRANCH   1   2
BRANCH   1  28
HETATM   28  C13 UNL     1      -0.232  -1.597   0.844  1.00  0.00     0.143 C 
BRANCH  28  29
HETATM   29  C14 UNL     1      -0.228  -2.862   0.102  1.00  0.00     0.144 C 
BRANCH  29  30
HETATM   30  N9  UNL     1       1.140  -3.311  -0.167  1.00  0.00    -0.342 N 
HETATM   31  C15 UNL     1       1.993  -2.539  -0.981  1.00  0.00     0.316 C 
HETATM   32  O3  UNL     1       1.555  -1.470  -1.486  1.00  0.00    -0.247 OA
HETATM   33  N10 UNL     1       3.313  -3.001  -1.193  1.00  0.00    -0.343 N 
ATOM     34  H10 UNL     1       3.606  -3.882  -0.770  1.00  0.00     0.164 HD
ATOM     35  H9  UNL     1       1.476  -4.185   0.236  1.00  0.00     0.164 HD
BRANCH  33  36
HETATM   36  C16 UNL     1       4.244  -2.264  -1.984  1.00  0.00     0.126 C 
BRANCH  36  37
HETATM   37  C17 UNL     1       4.513  -0.921  -1.347  1.00  0.00     0.047 C 
BRANCH  37  38
HETATM   38  C18 UNL     1       5.514  -0.154  -2.183  1.00  0.00     0.236 C 
BRANCH  38  39
HETATM   39  N11 UNL     1       5.764   1.126  -1.591  1.00  0.00    -0.051 N 
ATOM     40 2H11 UNL     1       6.248   1.753  -2.233  1.00  0.00     0.279 HD
ATOM     41 1H11 UNL     1       4.905   1.664  -1.473  1.00  0.00     0.279 HD
BRANCH  39  42
HETATM   42  C19 UNL     1       6.475   0.975  -0.353  1.00  0.00     0.466 C 
BRANCH  42  43
HETATM   43  N12 UNL     1       6.745   2.294   0.202  1.00  0.00    -0.055 N 
HETATM   44  C20 UNL     1       6.534   2.293   1.636  1.00  0.00     0.273 C 
HETATM   45  C21 UNL     1       8.121   2.635  -0.067  1.00  0.00     0.273 C 
HETATM   46  C22 UNL     1       5.828   3.249  -0.392  1.00  0.00     0.273 C 
ENDBRANCH  42  43
ENDBRANCH  39  42
ENDBRANCH  38  39
ENDBRANCH  37  38
ENDBRANCH  36  37
ENDBRANCH  33  36
ENDBRANCH  29  30
ENDBRANCH  28  29
ENDBRANCH   1  28
BRANCH   1  47
HETATM   47  C23 UNL     1      -1.702  -1.151   2.605  1.00  0.00     0.118 C 
BRANCH  47  48
HETATM   48  C24 UNL     1      -2.703  -2.137   3.083  1.00  0.00     0.064 A 
HETATM   49  C25 UNL     1      -3.983  -1.903   3.479  1.00  0.00     0.119 A 
HETATM   50  N13 UNL     1      -4.551  -3.040   3.867  1.00  0.00    -0.360 N 
HETATM   51  C26 UNL     1      -3.615  -3.988   3.712  1.00  0.00     0.180 A 
ATOM     52  H13 UNL     1      -5.503  -3.166   4.212  1.00  0.00     0.166 HD
HETATM   53  N14 UNL     1      -2.485  -3.460   3.236  1.00  0.00    -0.350 N 
ATOM     54  H14 UNL     1      -1.621  -3.961   3.028  1.00  0.00     0.166 HD
ENDBRANCH  47  48
ENDBRANCH   1  47
TORSDOF 19
