REMARK  19 active torsions:
REMARK  status: ('A' for Active; 'I' for Inactive)
REMARK       I    between atoms: N1_4  and  C4_6 
REMARK    1  A    between atoms: C4_6  and  C5_8 
REMARK    2  A    between atoms: C5_8  and  C6_9 
REMARK    3  A    between atoms: C5_8  and  N6_25 
REMARK    4  A    between atoms: C6_9  and  C7_10 
REMARK    5  A    between atoms: N4_17  and  C10_19 
REMARK    6  A    between atoms: C10_19  and  C11_20 
REMARK    7  A    between atoms: C11_20  and  N5_21 
REMARK    8  A    between atoms: N5_21  and  C12_23 
REMARK    9  A    between atoms: C13_27  and  O3_28 
REMARK   10  A    between atoms: C13_27  and  C14_30 
REMARK   11  A    between atoms: C14_30  and  C15_31 
REMARK   12  A    between atoms: C15_31  and  C16_32 
REMARK   13  A    between atoms: C16_32  and  C17_33 
REMARK   14  A    between atoms: C17_33  and  C18_34 
REMARK   15  A    between atoms: C20_36  and  O4_37 
REMARK   16  A    between atoms: C22_41  and  C23_42 
REMARK   17  A    between atoms: C23_42  and  C24_43 
REMARK   18  A    between atoms: C24_43  and  C25_44 
REMARK   19  A    between atoms: C25_44  and  N8_45 
REMARK       I    between atoms: N8_45  and  C26_47 
REMARK       I    between atoms: C26_47  and  N10_51 
ROOT
HETATM    1  C1  UNL     1      -2.021  -5.418  -2.539  1.00  0.00     0.103 C 
HETATM    2  C2  UNL     1      -2.414  -4.136  -2.137  1.00  0.00    -0.143 C 
HETATM    3  C3  UNL     1      -2.803  -2.960  -1.790  1.00  0.00     0.142 C 
HETATM    4  N1  UNL     1      -3.185  -2.209  -0.792  1.00  0.00    -0.325 N 
ATOM      5  H1  UNL     1      -2.663  -1.334  -0.745  1.00  0.00     0.169 HD
HETATM    6  C4  UNL     1      -4.307  -2.332   0.412  1.00  0.00     0.268 C 
HETATM    7  O1  UNL     1      -4.416  -3.443   0.442  1.00  0.00    -0.266 OA
ENDROOT
BRANCH   6   8
HETATM    8  C5  UNL     1      -4.485  -0.898   0.735  1.00  0.00     0.084 C 
BRANCH   8   9
HETATM    9  C6  UNL     1      -5.928  -0.572   1.132  1.00  0.00     0.107 C 
BRANCH   9  10
HETATM   10  C7  UNL     1      -6.726  -1.139  -0.002  1.00  0.00     0.009 A 
HETATM   11  C8  UNL     1      -7.235  -2.479  -0.138  1.00  0.00     0.118 A 
HETATM   12  N2  UNL     1      -7.541  -2.548  -1.345  1.00  0.00    -0.310 N 
HETATM   13  N3  UNL     1      -7.338  -1.498  -2.101  1.00  0.00    -0.286 N 
ATOM     14  H2  UNL     1      -7.940  -3.402  -1.734  1.00  0.00     0.186 HD
HETATM   15  C9  UNL     1      -6.827  -0.539  -1.330  1.00  0.00     0.123 A 
ATOM     16  H3  UNL     1      -7.535  -1.427  -3.099  1.00  0.00     0.188 HD
HETATM   17  N4  UNL     1      -6.539   0.684  -1.310  1.00  0.00    -0.373 N 
ATOM     18  H4  UNL     1      -6.304   1.029  -0.379  1.00  0.00     0.161 HD
BRANCH  17  19
HETATM   19  C10 UNL     1      -6.472   1.695  -2.326  1.00  0.00     0.141 C 
BRANCH  19  20
HETATM   20  C11 UNL     1      -6.532   3.040  -1.317  1.00  0.00     0.141 C 
BRANCH  20  21
HETATM   21  N5  UNL     1      -7.986   2.906  -0.990  1.00  0.00    -0.367 N 
ATOM     22  H5  UNL     1      -8.356   2.533  -0.116  1.00  0.00     0.161 HD
BRANCH  21  23
HETATM   23  C12 UNL     1      -8.801   3.389  -2.110  1.00  0.00     0.348 C 
HETATM   24  O2  UNL     1      -8.220   4.004  -3.017  1.00  0.00    -0.284 OA
ENDBRANCH  21  23
ENDBRANCH  20  21
ENDBRANCH  19  20
ENDBRANCH  17  19
ENDBRANCH   9  10
ENDBRANCH   8   9
BRANCH   8  25
HETATM   25  N6  UNL     1      -3.378  -0.358   1.373  1.00  0.00    -0.339 N 
HETATM   26  C13 UNL     1      -2.348  -0.574   2.153  1.00  0.00     0.115 C 
ATOM     27  H6  UNL     1      -3.357   0.633   1.131  1.00  0.00     0.167 HD
BRANCH  26  28
HETATM   28  O3  UNL     1      -2.133  -1.660   2.867  1.00  0.00    -0.349 OA
ATOM     29  H3  UNL     1      -1.386  -1.817   3.433  1.00  0.00     0.219 HD
ENDBRANCH  26  28
BRANCH  26  30
HETATM   30  C14 UNL     1      -1.230   0.503   2.235  1.00  0.00     0.084 C 
BRANCH  30  31
HETATM   31  C15 UNL     1       0.007  -0.112   2.771  1.00  0.00     0.008 C 
BRANCH  31  32
HETATM   32  C16 UNL     1       0.705  -0.976   1.774  1.00  0.00     0.002 C 
BRANCH  32  33
HETATM   33  C17 UNL     1       1.383  -0.255   0.636  1.00  0.00     0.026 C 
BRANCH  33  34
HETATM   34  C18 UNL     1       2.562   0.567   0.902  1.00  0.00     0.092 C 
HETATM   35  C19 UNL     1       2.454   1.747   1.836  1.00  0.00     0.108 C 
HETATM   36  C20 UNL     1       3.591   2.706   1.645  1.00  0.00     0.116 C 
HETATM   37  N7  UNL     1       4.687   2.773   0.870  1.00  0.00    -0.353 N 
HETATM   38  C21 UNL     1       5.204   4.034   0.477  1.00  0.00     0.152 C 
HETATM   39  C22 UNL     1       5.472   1.596   0.309  1.00  0.00     0.200 C 
HETATM   40  C27 UNL     1       5.116   0.466   1.181  1.00  0.00     0.244 C 
HETATM   41  O5  UNL     1       5.894  -0.068   1.973  1.00  0.00    -0.271 OA
HETATM   42  N11 UNL     1       3.781  -0.139   1.219  1.00  0.00    -0.354 N 
ATOM     43  H11 UNL     1       3.709  -1.121   1.486  1.00  0.00     0.162 HD
BRANCH  36  44
HETATM   44  O4  UNL     1       3.442   3.702   2.471  1.00  0.00    -0.349 OA
ATOM     45  H4  UNL     1       4.162   4.310   2.350  1.00  0.00     0.219 HD
ENDBRANCH  36  44
BRANCH  39  46
HETATM   46  C23 UNL     1       6.823   1.988   0.084  1.00  0.00     0.005 C 
BRANCH  46  47
HETATM   47  C24 UNL     1       7.902   1.146  -0.483  1.00  0.00    -0.008 C 
BRANCH  47  48
HETATM   48  C25 UNL     1       8.435  -0.048   0.180  1.00  0.00     0.165 C 
BRANCH  48  49
HETATM   49  N8  UNL     1       9.572  -0.595  -0.638  1.00  0.00    -0.224 N 
HETATM   50  C26 UNL     1       8.930  -1.413  -1.725  1.00  0.00     0.665 C 
HETATM   51  N9  UNL     1       7.643  -1.448  -1.667  1.00  0.00    -0.235 N 
HETATM   52  N10 UNL     1      10.032  -1.903  -2.382  1.00  0.00    -0.235 N 
ATOM     53  H92 UNL     1       6.825  -1.084  -1.179  1.00  0.00     0.174 HD
ATOM     54  H91 UNL     1       7.208  -2.003  -2.404  1.00  0.00     0.174 HD
ATOM     55 2H10 UNL     1      11.051  -1.875  -2.428  1.00  0.00     0.174 HD
ATOM     56 1H10 UNL     1       9.597  -2.458  -3.119  1.00  0.00     0.174 HD
ATOM     57  H8  UNL     1      10.569  -0.443  -0.487  1.00  0.00     0.178 HD
ENDBRANCH  48  49
ENDBRANCH  47  48
ENDBRANCH  46  47
ENDBRANCH  39  46
ENDBRANCH  33  34
ENDBRANCH  32  33
ENDBRANCH  31  32
ENDBRANCH  30  31
ENDBRANCH  26  30
ENDBRANCH   8  25
ENDBRANCH   6   8
TORSDOF 19
