REMARK  20 active torsions:
REMARK  status: ('A' for Active; 'I' for Inactive)
REMARK    1  A    between atoms: C2_2  and  C3_3 
REMARK    2  A    between atoms: C3_3  and  C4_4 
REMARK    3  A    between atoms: C4_4  and  N1_5 
REMARK       I    between atoms: C5_7  and  N3_9 
REMARK    4  A    between atoms: N3_9  and  N4_11 
REMARK    5  A    between atoms: C6_12  and  C7_13 
REMARK       I    between atoms: C7_13  and  N5_15 
REMARK    6  A    between atoms: N5_15  and  C8_17 
REMARK    7  A    between atoms: C8_17  and  C9_18 
REMARK       I    between atoms: C9_18  and  N6_20 
REMARK    8  A    between atoms: N6_20  and  C10_22 
REMARK    9  A    between atoms: C10_22  and  C11_23 
REMARK   10  A    between atoms: C11_23  and  N7_24 
REMARK   11  A    between atoms: N7_24  and  C14_27 
REMARK   12  A    between atoms: C14_27  and  C15_28 
REMARK   13  A    between atoms: C15_28  and  C16_29 
REMARK   14  A    between atoms: C16_29  and  N8_30 
REMARK       I    between atoms: N8_30  and  C17_32 
REMARK   15  A    between atoms: C17_32  and  C18_34 
REMARK   16  A    between atoms: C18_34  and  N9_35 
REMARK       I    between atoms: N9_35  and  C19_37 
REMARK   17  A    between atoms: C19_37  and  C20_39 
REMARK   18  A    between atoms: C20_39  and  C21_40 
REMARK   19  A    between atoms: C21_40  and  C22_41 
REMARK   20  A    between atoms: C28_49  and  N11_50 
ROOT
HETATM    1  C9  UNL     1       1.994   0.881  -0.608  1.00  0.00     0.235 C 
HETATM    2  O2  UNL     1       2.466  -0.094  -1.204  1.00  0.00    -0.272 OA
HETATM    3  N6  UNL     1       0.703   1.369  -0.908  1.00  0.00    -0.358 N 
ATOM      4  H6  UNL     1       0.338   2.179  -0.406  1.00  0.00     0.162 HD
ENDROOT
BRANCH   3   5
HETATM    5  C10 UNL     1      -0.100   0.733  -1.915  1.00  0.00     0.150 C 
BRANCH   5   6
HETATM    6  C11 UNL     1      -0.425  -0.667  -1.579  1.00  0.00     0.256 C 
BRANCH   6   7
HETATM    7  N7  UNL     1      -1.158  -0.933  -0.379  1.00  0.00    -0.073 N 
HETATM    8  C12 UNL     1      -1.596   0.255   0.258  1.00  0.00     0.272 C 
HETATM    9  C13 UNL     1      -0.282  -1.704   0.521  1.00  0.00     0.272 C 
BRANCH   7  10
HETATM   10  C14 UNL     1      -2.241  -1.826  -0.749  1.00  0.00     0.238 C 
BRANCH  10  11
HETATM   11  C15 UNL     1      -3.534  -1.584  -0.061  1.00  0.00     0.047 C 
BRANCH  11  12
HETATM   12  C16 UNL     1      -4.530  -2.629  -0.575  1.00  0.00     0.124 C 
BRANCH  12  13
HETATM   13  N8  UNL     1      -5.845  -2.457   0.071  1.00  0.00    -0.360 N 
HETATM   14  C17 UNL     1      -6.895  -3.316  -0.271  1.00  0.00     0.235 C 
HETATM   15  O3  UNL     1      -6.661  -4.233  -1.136  1.00  0.00    -0.272 OA
ATOM     16  H8  UNL     1      -5.987  -1.719   0.760  1.00  0.00     0.162 HD
BRANCH  14  17
HETATM   17  C18 UNL     1      -8.235  -3.209   0.322  1.00  0.00     0.225 C 
BRANCH  17  18
HETATM   18  N9  UNL     1      -8.356  -2.088   1.191  1.00  0.00    -0.352 N 
HETATM   19  C19 UNL     1      -8.265  -0.751   0.628  1.00  0.00     0.218 C 
HETATM   20  O4  UNL     1      -8.097  -0.636  -0.596  1.00  0.00    -0.274 OA
ATOM     21  H9  UNL     1      -8.504  -2.221   2.191  1.00  0.00     0.162 HD
BRANCH  19  22
HETATM   22  C20 UNL     1      -8.373   0.407   1.515  1.00  0.00     0.107 C 
BRANCH  22  23
HETATM   23  C21 UNL     1      -8.421   1.722   0.838  1.00  0.00     0.047 C 
BRANCH  23  24
HETATM   24  C22 UNL     1      -9.569   1.899  -0.034  1.00  0.00    -0.058 A 
HETATM   25  C23 UNL     1     -10.799   2.146   0.574  1.00  0.00     0.007 A 
HETATM   26  C24 UNL     1     -11.932   2.383  -0.149  1.00  0.00     0.001 A 
HETATM   27  C25 UNL     1     -11.844   2.377  -1.532  1.00  0.00     0.000 A 
HETATM   28  C26 UNL     1     -10.649   2.138  -2.161  1.00  0.00     0.001 A 
HETATM   29  C27 UNL     1      -9.501   1.898  -1.386  1.00  0.00     0.007 A 
ENDBRANCH  23  24
ENDBRANCH  22  23
ENDBRANCH  19  22
ENDBRANCH  17  18
ENDBRANCH  14  17
ENDBRANCH  12  13
ENDBRANCH  11  12
ENDBRANCH  10  11
ENDBRANCH   7  10
ENDBRANCH   6   7
ENDBRANCH   5   6
ENDBRANCH   3   5
BRANCH   1  30
HETATM   30  C8  UNL     1       2.790   1.571   0.453  1.00  0.00     0.225 C 
BRANCH  30  31
HETATM   31  N5  UNL     1       4.069   0.988   0.691  1.00  0.00    -0.346 N 
HETATM   32  C7  UNL     1       4.236  -0.325   1.142  1.00  0.00     0.287 C 
HETATM   33  O1  UNL     1       3.231  -1.040   1.359  1.00  0.00    -0.264 OA
ATOM     34  H5  UNL     1       4.901   1.555   0.525  1.00  0.00     0.163 HD
BRANCH  32  35
HETATM   35  C6  UNL     1       5.593  -0.892   1.369  1.00  0.00     0.194 A 
HETATM   36  N4  UNL     1       6.772  -0.468   1.253  1.00  0.00    -0.220 N 
HETATM   37  C28 UNL     1       7.341  -1.690   1.678  1.00  0.00     0.411 A 
HETATM   38  N10 UNL     1       6.026  -2.143   1.812  1.00  0.00    -0.326 N 
ATOM     39  H10 UNL     1       5.577  -3.011   2.106  1.00  0.00     0.165 HD
BRANCH  36  40
HETATM   40  N3  UNL     1       7.324   0.778   0.842  1.00  0.00    -0.266 N 
HETATM   41  C5  UNL     1       8.040   0.867  -0.374  1.00  0.00     0.203 C 
HETATM   42  N1  UNL     1       9.097   1.579  -0.438  1.00  0.00    -0.363 N 
HETATM   43  N2  UNL     1       7.590   0.170  -1.516  1.00  0.00    -0.062 NA
ATOM     44  H1  UNL     1       9.427   2.085   0.384  1.00  0.00     0.162 HD
ATOM     45  H3  UNL     1       7.203   1.606   1.425  1.00  0.00     0.190 HD
BRANCH  42  46
HETATM   46  C4  UNL     1       9.821   1.661  -1.683  1.00  0.00     0.122 C 
BRANCH  46  47
HETATM   47  C3  UNL     1      11.183   2.241  -1.490  1.00  0.00     0.019 C 
BRANCH  47  48
HETATM   48  C2  UNL     1      12.032   1.440  -0.562  1.00  0.00    -0.003 C 
HETATM   49  C1  UNL     1      11.514   1.293   0.826  1.00  0.00     0.005 C 
ENDBRANCH  47  48
ENDBRANCH  46  47
ENDBRANCH  42  46
ENDBRANCH  36  40
BRANCH  37  50
HETATM   50  N11 UNL     1       8.120  -1.573   2.913  1.00  0.00    -0.039 N 
ATOM     51 3H11 UNL     1       8.837  -0.853   2.821  1.00  0.00     0.279 HD
ATOM     52 2H11 UNL     1       7.558  -1.158   3.656  1.00  0.00     0.279 HD
ATOM     53 1H11 UNL     1       8.531  -2.455   3.220  1.00  0.00     0.279 HD
ENDBRANCH  37  50
ENDBRANCH  32  35
ENDBRANCH  30  31
ENDBRANCH   1  30
TORSDOF 20
