REMARK  21 active torsions:
REMARK  status: ('A' for Active; 'I' for Inactive)
REMARK    1  A    between atoms: N1_2  and  C4_5 
REMARK    2  A    between atoms: C4_5  and  C5_6 
REMARK    3  A    between atoms: C5_6  and  C6_7 
REMARK    4  A    between atoms: C6_7  and  C7_8 
REMARK    5  A    between atoms: C7_8  and  C8_9 
REMARK    6  A    between atoms: C8_9  and  C9_10 
REMARK    7  A    between atoms: C12_13  and  C13_14 
REMARK    8  A    between atoms: C13_14  and  C14_15 
REMARK    9  A    between atoms: C16_20  and  C17_21 
REMARK   10  A    between atoms: C17_21  and  C18_22 
REMARK   11  A    between atoms: C18_22  and  O2_23 
REMARK   12  A    between atoms: C18_22  and  N3_25 
REMARK   13  A    between atoms: N3_25  and  C19_27 
REMARK   14  A    between atoms: C19_27  and  C20_28 
REMARK   15  A    between atoms: C20_28  and  C21_29 
REMARK   16  A    between atoms: C21_29  and  C22_30 
REMARK   17  A    between atoms: C22_30  and  C23_31 
REMARK       I    between atoms: C23_31  and  N4_33 
REMARK   18  A    between atoms: N4_33  and  C24_35 
REMARK   19  A    between atoms: C24_35  and  C25_36 
REMARK   20  A    between atoms: C25_36  and  N5_37 
REMARK       I    between atoms: N5_37  and  C26_39 
REMARK   21  A    between atoms: N8_45  and  N9_47 
ROOT
HETATM    1  C14 UNL     1      -0.719  -2.283   0.028  1.00  0.00     0.159 C 
HETATM    2  N2  UNL     1      -0.510  -0.847   0.144  1.00  0.00    -0.347 N 
ATOM      3  H2  UNL     1      -0.559  -0.273  -0.698  1.00  0.00     0.163 HD
HETATM    4  C15 UNL     1      -0.241  -0.218   1.385  1.00  0.00     0.241 C 
HETATM    5  O1  UNL     1      -0.615   0.957   1.578  1.00  0.00    -0.271 OA
HETATM    6  C16 UNL     1       0.485  -1.007   2.412  1.00  0.00     0.179 C 
HETATM    7  N7  UNL     1      -0.265  -2.266   2.529  1.00  0.00    -0.363 N 
ATOM      8  H7  UNL     1      -0.610  -2.609   3.426  1.00  0.00     0.161 HD
HETATM    9  C27 UNL     1      -0.484  -2.990   1.295  1.00  0.00     0.117 C 
HETATM   10  N8  UNL     1      -0.457  -4.270   1.319  1.00  0.00    -0.273 N 
ATOM     11  H8  UNL     1      -0.292  -4.722   2.218  1.00  0.00     0.190 HD
ENDROOT
BRANCH   6  12
HETATM   12  C17 UNL     1       1.864  -1.313   1.903  1.00  0.00     0.088 C 
BRANCH  12  13
HETATM   13  C18 UNL     1       2.712  -0.122   1.597  1.00  0.00     0.215 C 
BRANCH  13  14
HETATM   14  O2  UNL     1       2.057   0.650   0.613  1.00  0.00    -0.377 OA
ATOM     15  H2  UNL     1       2.596   1.407   0.418  1.00  0.00     0.212 HD
ENDBRANCH  13  14
BRANCH  13  16
HETATM   16  N3  UNL     1       3.919  -0.599   0.955  1.00  0.00    -0.397 N 
ATOM     17  H3  UNL     1       4.163  -0.352  -0.004  1.00  0.00     0.155 HD
BRANCH  16  18
HETATM   18  C19 UNL     1       4.746  -1.444   1.765  1.00  0.00     0.116 C 
BRANCH  18  19
HETATM   19  C20 UNL     1       5.918  -1.895   0.898  1.00  0.00     0.020 C 
BRANCH  19  20
HETATM   20  C21 UNL     1       6.743  -0.756   0.376  1.00  0.00     0.011 C 
BRANCH  20  21
HETATM   21  C22 UNL     1       7.843  -1.327  -0.471  1.00  0.00     0.103 C 
BRANCH  21  22
HETATM   22  C23 UNL     1       8.695  -0.198  -1.015  1.00  0.00     0.217 C 
HETATM   23  O3  UNL     1       8.348   0.927  -0.596  1.00  0.00    -0.274 OA
HETATM   24  N4  UNL     1       9.710  -0.550  -1.876  1.00  0.00    -0.360 N 
ATOM     25  H4  UNL     1       9.785  -1.551  -2.059  1.00  0.00     0.162 HD
BRANCH  24  26
HETATM   26  C24 UNL     1      10.667   0.248  -2.549  1.00  0.00     0.142 C 
BRANCH  26  27
HETATM   27  C25 UNL     1      10.167   1.267  -3.499  1.00  0.00     0.143 C 
BRANCH  27  28
HETATM   28  N5  UNL     1       9.488   2.380  -2.931  1.00  0.00    -0.344 N 
HETATM   29  C26 UNL     1      10.172   3.340  -2.095  1.00  0.00     0.328 C 
HETATM   30  N6  UNL     1       9.507   4.452  -1.516  1.00  0.00    -0.040 NA
HETATM   31  O4  UNL     1      11.386   3.176  -1.881  1.00  0.00    -0.251 OA
ATOM     32  H5  UNL     1       8.493   2.504  -3.118  1.00  0.00     0.163 HD
ENDBRANCH  27  28
ENDBRANCH  26  27
ENDBRANCH  24  26
ENDBRANCH  21  22
ENDBRANCH  20  21
ENDBRANCH  19  20
ENDBRANCH  18  19
ENDBRANCH  16  18
ENDBRANCH  13  16
ENDBRANCH  12  13
ENDBRANCH   6  12
BRANCH   1  33
HETATM   33  C13 UNL     1      -2.151  -2.461  -0.401  1.00  0.00     0.098 C 
BRANCH  33  34
HETATM   34  C12 UNL     1      -3.029  -1.866   0.634  1.00  0.00     0.055 A 
HETATM   35  C11 UNL     1      -3.535  -2.528   1.730  1.00  0.00     0.035 A 
HETATM   36  C10 UNL     1      -4.289  -1.598   2.408  1.00  0.00     0.035 A 
HETATM   37  C9  UNL     1      -4.208  -0.412   1.693  1.00  0.00     0.053 A 
HETATM   38  O5  UNL     1      -3.450  -0.631   0.656  1.00  0.00    -0.319 OA
BRANCH  37  39
HETATM   39  C8  UNL     1      -4.873   0.872   2.058  1.00  0.00     0.065 C 
BRANCH  39  40
HETATM   40  C7  UNL     1      -6.257   0.956   1.416  1.00  0.00     0.006 C 
BRANCH  40  41
HETATM   41  C6  UNL     1      -6.143   0.891  -0.093  1.00  0.00     0.002 C 
BRANCH  41  42
HETATM   42  C5  UNL     1      -7.492   0.970  -0.760  1.00  0.00     0.028 C 
BRANCH  42  43
HETATM   43  C4  UNL     1      -8.218   2.246  -0.434  1.00  0.00     0.236 C 
BRANCH  43  44
HETATM   44  N1  UNL     1      -9.505   2.344  -1.054  1.00  0.00    -0.079 N 
HETATM   45  C1  UNL     1      -9.643   1.447  -2.195  1.00  0.00     0.271 C 
HETATM   46  C2  UNL     1     -10.596   2.040  -0.152  1.00  0.00     0.271 C 
HETATM   47  C3  UNL     1      -9.761   3.686  -1.554  1.00  0.00     0.271 C 
ENDBRANCH  43  44
ENDBRANCH  42  43
ENDBRANCH  41  42
ENDBRANCH  40  41
ENDBRANCH  39  40
ENDBRANCH  37  39
ENDBRANCH  33  34
ENDBRANCH   1  33
BRANCH  10  48
HETATM   48  N9  UNL     1      -0.634  -5.083   0.219  1.00  0.00    -0.248 N 
HETATM   49  N10 UNL     1       0.259  -5.224  -0.667  1.00  0.00    -0.331 N 
ATOM     50 2H10 UNL     1       1.133  -4.712  -0.548  1.00  0.00     0.178 HD
ATOM     51 1H10 UNL     1       0.128  -5.825  -1.480  1.00  0.00     0.178 HD
ATOM     52  H9  UNL     1      -1.514  -5.588   0.116  1.00  0.00     0.207 HD
ENDBRANCH  10  48
TORSDOF 21
