REMARK  19 active torsions:
REMARK  status: ('A' for Active; 'I' for Inactive)
REMARK       I    between atoms: C1_4  and  N2_5 
REMARK       I    between atoms: C1_4  and  N5_10 
REMARK    1  A    between atoms: N5_10  and  C3_12 
REMARK    2  A    between atoms: C3_12  and  C4_13 
REMARK    3  A    between atoms: C4_13  and  C5_14 
REMARK    4  A    between atoms: C5_14  and  N6_15 
REMARK       I    between atoms: C6_17  and  N7_18 
REMARK       I    between atoms: C6_17  and  N10_34 
REMARK    5  A    between atoms: N7_18  and  C7_20 
REMARK    6  A    between atoms: C7_20  and  C8_21 
REMARK    7  A    between atoms: C8_21  and  C9_22 
REMARK    8  A    between atoms: C9_22  and  N8_23 
REMARK    9  A    between atoms: N8_23  and  C10_26 
REMARK   10  A    between atoms: C10_26  and  C11_27 
REMARK   11  A    between atoms: C11_27  and  N9_28 
REMARK   12  A    between atoms: N9_28  and  C12_30 
REMARK   13  A    between atoms: C12_30  and  C13_31 
REMARK   14  A    between atoms: C13_31  and  O1_32 
REMARK       I    between atoms: N11_37  and  C16_38 
REMARK   15  A    between atoms: C16_38  and  C17_40 
REMARK   16  A    between atoms: C17_40  and  C18_41 
REMARK   17  A    between atoms: C18_41  and  N12_42 
REMARK       I    between atoms: N12_42  and  C19_44 
REMARK   18  A    between atoms: C19_44  and  C20_46 
REMARK   19  A    between atoms: C21_47  and  C22_48 
ROOT
HETATM    1  N6  UNL     1      -2.454   0.969  -0.707  1.00  0.00    -0.206 N 
ATOM      2  H6  UNL     1      -3.302   0.421  -0.850  1.00  0.00     0.183 HD
HETATM    3  C6  UNL     1      -1.644   0.402   0.049  1.00  0.00     0.675 C 
HETATM    4  N7  UNL     1      -1.967  -0.875   0.604  1.00  0.00    -0.226 N 
ATOM      5  H7  UNL     1      -1.573  -1.724   0.197  1.00  0.00     0.177 HD
HETATM    6  N10 UNL     1      -0.392   0.989   0.390  1.00  0.00    -0.215 N 
HETATM    7  C14 UNL     1       0.591   1.361  -0.596  1.00  0.00     0.161 C 
HETATM    8  C15 UNL     1       1.997   0.961  -0.282  1.00  0.00     0.146 C 
HETATM    9  N11 UNL     1       2.283   1.064   1.126  1.00  0.00    -0.349 N 
HETATM   10  C16 UNL     1       3.414   0.499   1.734  1.00  0.00     0.221 C 
HETATM   11  O2  UNL     1       3.587   0.617   2.963  1.00  0.00    -0.273 OA
HETATM   12  C26 UNL     1       1.330   1.795   1.928  1.00  0.00     0.146 C 
HETATM   13  C27 UNL     1      -0.056   1.238   1.799  1.00  0.00     0.161 C 
ENDROOT
BRANCH   1  14
HETATM   14  C5  UNL     1      -2.476   2.185  -1.410  1.00  0.00     0.080 C 
BRANCH  14  15
HETATM   15  C4  UNL     1      -2.623   3.372  -0.462  1.00  0.00     0.065 C 
BRANCH  15  16
HETATM   16  C3  UNL     1      -2.657   4.669  -1.240  1.00  0.00     0.143 C 
BRANCH  16  17
HETATM   17  N5  UNL     1      -2.789   5.773  -0.335  1.00  0.00    -0.226 N 
HETATM   18  C1  UNL     1      -2.857   7.095  -0.845  1.00  0.00     0.673 C 
HETATM   19  N1  UNL     1      -1.964   7.563  -1.662  1.00  0.00    -0.235 N 
HETATM   20  N2  UNL     1      -3.909   7.989  -0.494  1.00  0.00    -0.166 N 
ATOM     21  H12 UNL     1      -2.013   8.514  -2.029  1.00  0.00     0.174 HD
ATOM     22  H11 UNL     1      -1.211   6.923  -1.913  1.00  0.00     0.174 HD
HETATM   23  C2  UNL     1      -4.187   8.359   0.700  1.00  0.00     0.215 C 
ATOM     24  H2  UNL     1      -4.483   8.362  -1.250  1.00  0.00     0.186 HD
HETATM   25  N3  UNL     1      -3.471   7.919   1.848  1.00  0.00    -0.066 NA
HETATM   26  N4  UNL     1      -5.280   9.262   0.874  1.00  0.00    -0.066 NA
ATOM     27  H5  UNL     1      -2.834   5.609   0.671  1.00  0.00     0.177 HD
ENDBRANCH  16  17
ENDBRANCH  15  16
ENDBRANCH  14  15
ENDBRANCH   1  14
BRANCH   4  28
HETATM   28  C7  UNL     1      -2.852  -0.961   1.742  1.00  0.00     0.139 C 
BRANCH  28  29
HETATM   29  C8  UNL     1      -4.271  -0.580   1.431  1.00  0.00     0.048 C 
BRANCH  29  30
HETATM   30  C9  UNL     1      -4.944  -1.423   0.406  1.00  0.00     0.234 C 
BRANCH  30  31
HETATM   31  N8  UNL     1      -5.044  -2.821   0.776  1.00  0.00    -0.074 N 
ATOM     32  H82 UNL     1      -4.140  -3.229   1.015  1.00  0.00     0.277 HD
ATOM     33  H81 UNL     1      -5.501  -2.956   1.678  1.00  0.00     0.277 HD
BRANCH  31  34
HETATM   34  C10 UNL     1      -5.712  -3.534  -0.302  1.00  0.00     0.251 C 
BRANCH  34  35
HETATM   35  C11 UNL     1      -5.821  -5.003   0.140  1.00  0.00     0.141 C 
BRANCH  35  36
HETATM   36  N9  UNL     1      -6.452  -5.800  -0.845  1.00  0.00    -0.418 N 
ATOM     37  H9  UNL     1      -6.708  -5.434  -1.762  1.00  0.00     0.153 HD
BRANCH  36  38
HETATM   38  C12 UNL     1      -6.704  -7.145  -0.467  1.00  0.00     0.139 C 
BRANCH  38  39
HETATM   39  C13 UNL     1      -5.507  -8.018  -0.300  1.00  0.00     0.183 C 
BRANCH  39  40
HETATM   40  O1  UNL     1      -4.661  -7.585   0.699  1.00  0.00    -0.399 OA
ATOM     41  H1  UNL     1      -3.898  -8.141   0.805  1.00  0.00     0.209 HD
ENDBRANCH  39  40
ENDBRANCH  38  39
ENDBRANCH  36  38
ENDBRANCH  35  36
ENDBRANCH  34  35
ENDBRANCH  31  34
ENDBRANCH  30  31
ENDBRANCH  29  30
ENDBRANCH  28  29
ENDBRANCH   4  28
BRANCH  10  42
HETATM   42  C17 UNL     1       4.416  -0.241   0.939  1.00  0.00     0.122 C 
BRANCH  42  43
HETATM   43  C18 UNL     1       5.415  -0.903   1.842  1.00  0.00     0.132 C 
BRANCH  43  44
HETATM   44  N12 UNL     1       6.428  -1.634   1.159  1.00  0.00    -0.357 N 
HETATM   45  C19 UNL     1       7.348  -1.083   0.235  1.00  0.00     0.241 C 
HETATM   46  O3  UNL     1       7.339   0.129  -0.057  1.00  0.00    -0.269 OA
ATOM     47  H12 UNL     1       6.496  -2.634   1.351  1.00  0.00     0.162 HD
BRANCH  45  48
HETATM   48  C20 UNL     1       8.341  -1.931  -0.405  1.00  0.00     0.076 C 
HETATM   49  C21 UNL     1       9.223  -1.501  -1.261  1.00  0.00     0.035 C 
BRANCH  49  50
HETATM   50  C22 UNL     1      10.180  -2.416  -1.853  1.00  0.00     0.032 A 
HETATM   51  C23 UNL     1      10.242  -3.757  -1.591  1.00  0.00     0.031 A 
HETATM   52  C24 UNL     1      11.282  -4.258  -2.349  1.00  0.00     0.019 A 
HETATM   53  C25 UNL     1      11.853  -3.229  -3.070  1.00  0.00     0.088 A 
HETATM   54  N13 UNL     1      11.160  -2.142  -2.742  1.00  0.00    -0.366 N 
ATOM     55  H13 UNL     1      11.346  -1.212  -3.117  1.00  0.00     0.165 HD
ENDBRANCH  49  50
ENDBRANCH  45  48
ENDBRANCH  43  44
ENDBRANCH  42  43
ENDBRANCH  10  42
TORSDOF 19
