REMARK  23 active torsions:
REMARK  status: ('A' for Active; 'I' for Inactive)
REMARK    1  A    between atoms: C2_2  and  N1_3 
REMARK    2  A    between atoms: N1_3  and  C3_4 
REMARK    3  A    between atoms: N1_3  and  C5_6 
REMARK    4  A    between atoms: C5_6  and  C6_7 
REMARK    5  A    between atoms: C6_7  and  C7_8 
REMARK    6  A    between atoms: C7_8  and  N2_9 
REMARK    7  A    between atoms: N2_9  and  C8_10 
REMARK    8  A    between atoms: C8_10  and  O1_11 
REMARK    9  A    between atoms: C8_10  and  C9_13 
REMARK   10  A    between atoms: C11_17  and  N4_18 
REMARK   11  A    between atoms: N4_18  and  C12_20 
REMARK   12  A    between atoms: C12_20  and  C13_21 
REMARK   13  A    between atoms: C12_20  and  C18_32 
REMARK   14  A    between atoms: C13_21  and  C14_22 
REMARK   15  A    between atoms: C14_22  and  C15_23 
REMARK   16  A    between atoms: C15_23  and  C16_24 
REMARK   17  A    between atoms: C16_24  and  N5_25 
REMARK       I    between atoms: N5_25  and  C17_27 
REMARK   18  A    between atoms: C18_32  and  C19_33 
REMARK   19  A    between atoms: C18_32  and  N9_40 
REMARK   20  A    between atoms: C20_34  and  C21_35 
REMARK   21  A    between atoms: C21_35  and  N8_36 
REMARK   22  A    between atoms: N9_40  and  S1_42 
REMARK   23  A    between atoms: S1_42  and  N10_43 
ROOT
HETATM    1  C12 UNL     1      -2.088  -1.076  -0.211  1.00  0.00     0.126 C 
ENDROOT
BRANCH   1   2
HETATM    2  N4  UNL     1      -1.075  -1.209  -1.196  1.00  0.00    -0.219 N 
ATOM      3  H4  UNL     1      -1.283  -1.935  -1.882  1.00  0.00     0.178 HD
BRANCH   2   4
HETATM    4  C11 UNL     1       0.024  -0.631  -1.413  1.00  0.00     0.681 A 
HETATM    5  N3  UNL     1       0.749  -1.056  -2.509  1.00  0.00    -0.201 N 
HETATM    6  C10 UNL     1       1.899  -0.465  -2.841  1.00  0.00     0.129 A 
ATOM      7  H3  UNL     1       0.401  -1.832  -3.072  1.00  0.00     0.183 HD
HETATM    8  C9  UNL     1       2.459   0.607  -2.136  1.00  0.00     0.113 A 
HETATM    9  C25 UNL     1       1.727   1.001  -1.067  1.00  0.00     0.276 A 
HETATM   10  N11 UNL     1       0.546   0.387  -0.729  1.00  0.00    -0.155 N 
HETATM   11  O4  UNL     1       2.127   1.958  -0.347  1.00  0.00    -0.267 OA
ATOM     12  H11 UNL     1       0.041   0.728   0.089  1.00  0.00     0.187 HD
BRANCH   8  13
HETATM   13  C8  UNL     1       3.704   1.164  -2.623  1.00  0.00     0.230 C 
BRANCH  13  14
HETATM   14  N2  UNL     1       4.669   1.952  -1.965  1.00  0.00    -0.396 NA
BRANCH  14  15
HETATM   15  C7  UNL     1       5.585   2.693  -1.356  1.00  0.00     0.159 C 
BRANCH  15  16
HETATM   16  C6  UNL     1       5.418   2.974   0.111  1.00  0.00     0.079 C 
BRANCH  16  17
HETATM   17  C5  UNL     1       5.452   1.812   1.025  1.00  0.00     0.133 C 
BRANCH  17  18
HETATM   18  N1  UNL     1       6.650   1.040   0.994  1.00  0.00    -0.374 N 
BRANCH  18  19
HETATM   19  C2  UNL     1       7.827   1.636   1.420  1.00  0.00     0.058 C 
HETATM   20  C1  UNL     1       8.587   0.778   2.402  1.00  0.00     0.055 C 
ENDBRANCH  18  19
BRANCH  18  21
HETATM   21  C3  UNL     1       6.616  -0.082   0.173  1.00  0.00     0.058 C 
HETATM   22  C4  UNL     1       7.128  -1.371   0.779  1.00  0.00     0.055 C 
ENDBRANCH  18  21
ENDBRANCH  17  18
ENDBRANCH  16  17
ENDBRANCH  15  16
ENDBRANCH  14  15
ENDBRANCH  13  14
BRANCH  13  23
HETATM   23  O1  UNL     1       3.939   0.865  -3.890  1.00  0.00    -0.335 OA
ATOM     24  H1  UNL     1       3.288   0.334  -4.334  1.00  0.00     0.220 HD
ENDBRANCH  13  23
ENDBRANCH   8  13
ENDBRANCH   2   4
ENDBRANCH   1   2
BRANCH   1  25
HETATM   25  C13 UNL     1      -1.971  -2.155   0.796  1.00  0.00     0.028 C 
BRANCH  25  26
HETATM   26  C14 UNL     1      -2.038  -3.564   0.363  1.00  0.00     0.004 C 
BRANCH  26  27
HETATM   27  C15 UNL     1      -1.811  -4.559   1.509  1.00  0.00     0.020 C 
BRANCH  27  28
HETATM   28  C16 UNL     1      -2.841  -4.311   2.569  1.00  0.00     0.122 C 
BRANCH  28  29
HETATM   29  N5  UNL     1      -4.159  -4.488   2.004  1.00  0.00    -0.365 N 
HETATM   30  C17 UNL     1      -5.294  -4.215   2.832  1.00  0.00     0.181 C 
HETATM   31  N6  UNL     1      -6.494  -4.498   2.473  1.00  0.00    -0.374 N 
HETATM   32  N7  UNL     1      -5.101  -3.618   4.101  1.00  0.00    -0.064 NA
ATOM     33  H62 UNL     1      -6.633  -4.928   1.559  1.00  0.00     0.158 HD
ATOM     34  H61 UNL     1      -7.303  -4.303   3.063  1.00  0.00     0.158 HD
ATOM     35  H5  UNL     1      -4.277  -4.799   1.040  1.00  0.00     0.162 HD
ENDBRANCH  28  29
ENDBRANCH  27  28
ENDBRANCH  26  27
ENDBRANCH  25  26
ENDBRANCH   1  25
BRANCH   1  36
HETATM   36  C18 UNL     1      -3.403  -0.926  -0.838  1.00  0.00     0.140 C 
BRANCH  36  37
HETATM   37  C19 UNL     1      -3.619   0.332  -1.680  1.00  0.00    -0.002 C 
HETATM   38  C20 UNL     1      -3.638   1.644  -1.109  1.00  0.00    -0.001 C 
BRANCH  38  39
HETATM   39  C21 UNL     1      -2.590   2.330  -0.379  1.00  0.00     0.263 C 
BRANCH  39  40
HETATM   40  N8  UNL     1      -3.066   3.698  -0.014  1.00  0.00    -0.075 N 
HETATM   41  C22 UNL     1      -2.146   4.234   1.003  1.00  0.00     0.272 C 
HETATM   42  C23 UNL     1      -3.081   4.586  -1.125  1.00  0.00     0.272 C 
HETATM   43  C24 UNL     1      -4.371   3.642   0.596  1.00  0.00     0.272 C 
ENDBRANCH  39  40
ENDBRANCH  38  39
ENDBRANCH  36  37
BRANCH  36  44
HETATM   44  N9  UNL     1      -3.594  -2.028  -1.809  1.00  0.00    -0.293 N 
ATOM     45  H9  UNL     1      -2.856  -2.363  -2.428  1.00  0.00     0.174 HD
BRANCH  44  46
HETATM   46  S1  UNL     1      -5.167  -2.682  -1.790  1.00  0.00     0.313 S 
HETATM   47  O2  UNL     1      -5.078  -4.164  -2.022  1.00  0.00    -0.183 OA
HETATM   48  O3  UNL     1      -5.836  -2.392  -0.485  1.00  0.00    -0.183 OA
BRANCH  46  49
HETATM   49  N10 UNL     1      -6.165  -2.044  -3.040  1.00  0.00    -0.312 N 
ATOM     50 2H10 UNL     1      -5.835  -1.350  -3.711  1.00  0.00     0.170 HD
ATOM     51 1H10 UNL     1      -7.107  -2.436  -3.029  1.00  0.00     0.170 HD
ENDBRANCH  46  49
ENDBRANCH  44  46
ENDBRANCH  36  44
ENDBRANCH   1  36
TORSDOF 23
