REMARK  19 active torsions:
REMARK  status: ('A' for Active; 'I' for Inactive)
REMARK    1  A    between atoms: N2_4  and  N3_6 
REMARK       I    between atoms: N3_6  and  C1_8 
REMARK       I    between atoms: C1_8  and  N5_12 
REMARK    2  A    between atoms: N5_12  and  C2_14 
REMARK    3  A    between atoms: C2_14  and  C3_15 
REMARK    4  A    between atoms: C3_15  and  C4_16 
REMARK    5  A    between atoms: C4_16  and  C5_17 
REMARK    6  A    between atoms: C5_17  and  C6_18 
REMARK    7  A    between atoms: C6_18  and  C7_20 
REMARK    8  A    between atoms: C7_20  and  C8_21 
REMARK    9  A    between atoms: C7_20  and  N9_29 
REMARK   10  A    between atoms: C8_21  and  C9_22 
REMARK   11  A    between atoms: N9_29  and  C12_30 
REMARK   12  A    between atoms: C12_30  and  C13_31 
REMARK   13  A    between atoms: C13_31  and  N10_32 
REMARK       I    between atoms: N10_32  and  C14_34 
REMARK   14  A    between atoms: C14_34  and  C15_36 
REMARK   15  A    between atoms: C15_36  and  N11_37 
REMARK       I    between atoms: N11_37  and  C16_39 
REMARK   16  A    between atoms: C16_39  and  C17_41 
REMARK   17  A    between atoms: C17_41  and  N12_42 
REMARK       I    between atoms: N12_42  and  C18_43 
REMARK   18  A    between atoms: C18_43  and  C19_45 
REMARK   19  A    between atoms: C19_45  and  C20_46 
ROOT
HETATM    1  C7  UNL     1      -2.678  -0.249  -0.721  1.00  0.00     0.144 C 
ENDROOT
BRANCH   1   2
HETATM    2  C6  UNL     1      -3.516  -1.426  -0.459  1.00  0.00     0.077 C 
HETATM    3  N6  UNL     1      -4.219  -1.953  -1.609  1.00  0.00    -0.100 NA
BRANCH   2   4
HETATM    4  C5  UNL     1      -4.209  -1.582   0.796  1.00  0.00     0.024 C 
BRANCH   4   5
HETATM    5  C4  UNL     1      -5.483  -1.479   1.056  1.00  0.00    -0.023 C 
BRANCH   5   6
HETATM    6  C3  UNL     1      -6.524  -1.170   0.100  1.00  0.00     0.047 C 
BRANCH   6   7
HETATM    7  C2  UNL     1      -7.308   0.070   0.564  1.00  0.00     0.142 C 
BRANCH   7   8
HETATM    8  N5  UNL     1      -7.933  -0.287   1.818  1.00  0.00    -0.225 N 
HETATM    9  C1  UNL     1      -8.877   0.596   2.397  1.00  0.00     0.687 C 
HETATM   10  N3  UNL     1      -9.825   1.191   1.538  1.00  0.00    -0.119 N 
HETATM   11  N4  UNL     1      -8.846   0.809   3.654  1.00  0.00    -0.234 N 
ATOM     12  H3  UNL     1      -9.912   2.206   1.498  1.00  0.00     0.207 HD
ATOM     13  H42 UNL     1      -9.526   1.445   4.071  1.00  0.00     0.174 HD
ATOM     14  H41 UNL     1      -8.161   0.379   4.275  1.00  0.00     0.174 HD
ATOM     15  H5  UNL     1      -7.697  -1.165   2.280  1.00  0.00     0.177 HD
BRANCH  10  16
HETATM   16  N2  UNL     1     -10.641   0.388   0.745  1.00  0.00    -0.235 N 
HETATM   17  N1  UNL     1     -11.629   0.830   0.120  1.00  0.00    -0.330 N 
ATOM     18  H12 UNL     1     -11.833   1.826   0.205  1.00  0.00     0.178 HD
ATOM     19  H11 UNL     1     -12.227   0.242  -0.461  1.00  0.00     0.178 HD
ATOM     20  H2  UNL     1     -10.423  -0.606   0.671  1.00  0.00     0.208 HD
ENDBRANCH  10  16
ENDBRANCH   7   8
ENDBRANCH   6   7
ENDBRANCH   5   6
ENDBRANCH   4   5
ENDBRANCH   2   4
ENDBRANCH   1   2
BRANCH   1  21
HETATM   21  C8  UNL     1      -3.261   1.103  -0.629  1.00  0.00     0.126 C 
BRANCH  21  22
HETATM   22  C9  UNL     1      -4.326   1.453  -1.575  1.00  0.00     0.031 A 
HETATM   23  C10 UNL     1      -5.168   2.575  -1.514  1.00  0.00     0.114 A 
HETATM   24  N7  UNL     1      -5.965   2.562  -2.584  1.00  0.00    -0.360 N 
HETATM   25  C11 UNL     1      -5.682   1.476  -3.348  1.00  0.00     0.180 A 
ATOM     26  H7  UNL     1      -6.677   3.261  -2.795  1.00  0.00     0.166 HD
HETATM   27  N8  UNL     1      -4.705   0.851  -2.705  1.00  0.00    -0.354 N 
ATOM     28  H8  UNL     1      -4.281  -0.013  -3.043  1.00  0.00     0.166 HD
ENDBRANCH  21  22
ENDBRANCH   1  21
BRANCH   1  29
HETATM   29  N9  UNL     1      -1.274  -0.311  -0.266  1.00  0.00    -0.037 N 
HETATM   30  C26 UNL     1      -0.563  -1.401  -0.787  1.00  0.00     0.245 A 
HETATM   31  C27 UNL     1       0.175  -0.553  -1.789  1.00  0.00     0.057 A 
HETATM   32  C28 UNL     1      -0.528   0.597  -1.157  1.00  0.00     0.245 A 
BRANCH  29  33
HETATM   33  C12 UNL     1      -1.193   0.067   1.098  1.00  0.00     0.263 C 
BRANCH  33  34
HETATM   34  C13 UNL     1      -0.236  -0.567   2.007  1.00  0.00     0.151 C 
BRANCH  34  35
HETATM   35  N10 UNL     1       1.168  -0.384   1.703  1.00  0.00    -0.355 N 
HETATM   36  C14 UNL     1       2.195  -0.915   2.504  1.00  0.00     0.256 C 
HETATM   37  O1  UNL     1       1.857  -1.578   3.532  1.00  0.00    -0.267 OA
ATOM     38  H10 UNL     1       1.423   0.152   0.874  1.00  0.00     0.162 HD
BRANCH  36  39
HETATM   39  C15 UNL     1       3.605  -0.743   2.227  1.00  0.00     0.165 C 
BRANCH  39  40
HETATM   40  N11 UNL     1       3.933  -0.027   1.017  1.00  0.00    -0.326 N 
HETATM   41  C16 UNL     1       5.331   0.193   0.794  1.00  0.00     0.274 C 
HETATM   42  O2  UNL     1       6.146  -0.195   1.615  1.00  0.00    -0.266 OA
ATOM     43  H11 UNL     1       3.219   0.300   0.366  1.00  0.00     0.168 HD
BRANCH  41  44
HETATM   44  C17 UNL     1       5.694   0.909  -0.491  1.00  0.00     0.260 C 
BRANCH  44  45
HETATM   45  N12 UNL     1       7.042   1.143  -0.654  1.00  0.00    -0.378 NA
HETATM   46  C18 UNL     1       8.360   1.374  -0.817  1.00  0.00     0.295 C 
HETATM   47  O3  UNL     1       8.965   1.865  -1.794  1.00  0.00    -0.257 OA
BRANCH  46  48
HETATM   48  C19 UNL     1       9.298   0.994   0.322  1.00  0.00     0.157 C 
BRANCH  48  49
HETATM   49  C20 UNL     1      10.523   0.354  -0.202  1.00  0.00    -0.048 A 
HETATM   50  C21 UNL     1      11.747   0.679   0.325  1.00  0.00     0.007 A 
HETATM   51  C22 UNL     1      12.847   0.056  -0.190  1.00  0.00     0.001 A 
HETATM   52  C23 UNL     1      12.756  -0.878  -1.216  1.00  0.00     0.000 A 
HETATM   53  C24 UNL     1      11.517  -1.193  -1.730  1.00  0.00     0.001 A 
HETATM   54  C25 UNL     1      10.394  -0.576  -1.227  1.00  0.00     0.007 A 
ENDBRANCH  48  49
ENDBRANCH  46  48
ENDBRANCH  44  45
ENDBRANCH  41  44
ENDBRANCH  39  40
ENDBRANCH  36  39
ENDBRANCH  34  35
ENDBRANCH  33  34
ENDBRANCH  29  33
ENDBRANCH   1  29
TORSDOF 19
