REMARK  19 active torsions:
REMARK  status: ('A' for Active; 'I' for Inactive)
REMARK       I    between atoms: C1_4  and  N3_6 
REMARK    1  A    between atoms: N3_6  and  C2_7 
REMARK    2  A    between atoms: C2_7  and  C3_8 
REMARK       I    between atoms: C3_8  and  N4_10 
REMARK    3  A    between atoms: N4_10  and  C4_12 
REMARK    4  A    between atoms: C4_12  and  C5_13 
REMARK    5  A    between atoms: C5_13  and  C6_14 
REMARK    6  A    between atoms: C5_13  and  N7_22 
REMARK    7  A    between atoms: C6_14  and  C7_15 
REMARK    8  A    between atoms: C7_15  and  C8_16 
REMARK    9  A    between atoms: C8_16  and  N5_17 
REMARK       I    between atoms: N5_17  and  C9_19 
REMARK   10  A    between atoms: N7_22  and  S1_24 
REMARK   11  A    between atoms: S1_24  and  C10_27 
REMARK   12  A    between atoms: C10_27  and  C11_28 
REMARK   13  A    between atoms: C11_28  and  C12_29 
REMARK   14  A    between atoms: C12_29  and  C13_30 
REMARK   15  A    between atoms: C13_30  and  C14_31 
REMARK   16  A    between atoms: C14_31  and  C15_32 
REMARK   17  A    between atoms: C15_32  and  N8_33 
REMARK       I    between atoms: N8_33  and  C16_35 
REMARK   18  A    between atoms: C16_35  and  C17_37 
REMARK   19  A    between atoms: C17_37  and  C18_38 
ROOT
HETATM    1  C5  UNL     1      -3.190  -1.130  -0.493  1.00  0.00     0.154 C 
ENDROOT
BRANCH   1   2
HETATM    2  C4  UNL     1      -4.394  -0.563  -1.189  1.00  0.00     0.093 C 
BRANCH   2   3
HETATM    3  N4  UNL     1      -4.886   0.717  -0.871  1.00  0.00    -0.337 N 
HETATM    4  C3  UNL     1      -5.486   1.350   0.195  1.00  0.00     0.250 C 
HETATM    5  O1  UNL     1      -5.747   0.699   1.268  1.00  0.00    -0.271 OA
ATOM      6  H4  UNL     1      -4.763   1.359  -1.654  1.00  0.00     0.168 HD
BRANCH   4   7
HETATM    7  C2  UNL     1      -5.885   2.795   0.231  1.00  0.00     0.378 C 
BRANCH   7   8
HETATM    8  N3  UNL     1      -5.608   3.582  -0.906  1.00  0.00     0.091 N 
HETATM    9  C1  UNL     1      -6.435   3.368  -2.052  1.00  0.00     0.312 C 
HETATM   10  N1  UNL     1      -7.510   2.685  -1.954  1.00  0.00    -0.365 N 
HETATM   11  N2  UNL     1      -6.060   3.923  -3.310  1.00  0.00    -0.055 NA
ATOM     12  H12 UNL     1      -8.100   2.532  -2.772  1.00  0.00     0.158 HD
ATOM     13  H11 UNL     1      -7.778   2.288  -1.054  1.00  0.00     0.158 HD
HETATM   14  C24 UNL     1      -4.251   3.915  -1.202  1.00  0.00     0.379 C 
HETATM   15  C25 UNL     1      -4.592   5.353  -1.183  1.00  0.00     0.271 C 
HETATM   16  O6  UNL     1      -3.980   6.376  -1.580  1.00  0.00    -0.270 OA
HETATM   17  N9  UNL     1      -5.792   4.977  -0.570  1.00  0.00    -0.175 N 
ATOM     18  H9  UNL     1      -6.520   5.491  -0.074  1.00  0.00     0.197 HD
ENDBRANCH   7   8
ENDBRANCH   4   7
ENDBRANCH   2   3
ENDBRANCH   1   2
BRANCH   1  19
HETATM   19  C6  UNL     1      -3.177  -1.424   0.917  1.00  0.00     0.005 C 
BRANCH  19  20
HETATM   20  C7  UNL     1      -4.103  -2.362   1.522  1.00  0.00     0.015 C 
BRANCH  20  21
HETATM   21  C8  UNL     1      -4.227  -3.790   1.258  1.00  0.00     0.092 C 
BRANCH  21  22
HETATM   22  N5  UNL     1      -3.261  -4.742   1.597  1.00  0.00    -0.321 N 
HETATM   23  C9  UNL     1      -1.962  -4.921   1.150  1.00  0.00     0.332 C 
HETATM   24  N6  UNL     1      -1.120  -5.993   1.663  1.00  0.00    -0.040 NA
HETATM   25  O2  UNL     1      -1.428  -4.198   0.296  1.00  0.00    -0.251 OA
ATOM     26  H5  UNL     1      -3.565  -5.422   2.294  1.00  0.00     0.169 HD
ENDBRANCH  21  22
ENDBRANCH  20  21
ENDBRANCH  19  20
ENDBRANCH   1  19
BRANCH   1  27
HETATM   27  N7  UNL     1      -2.223   0.003  -0.742  1.00  0.00    -0.306 N 
ATOM     28  H7  UNL     1      -2.209   0.848  -0.171  1.00  0.00     0.173 HD
BRANCH  27  29
HETATM   29  S1  UNL     1      -1.177  -0.234  -2.025  1.00  0.00     0.227 S 
HETATM   30  O3  UNL     1      -0.371   1.029  -2.303  1.00  0.00    -0.206 OA
HETATM   31  O4  UNL     1      -1.951  -0.429  -3.342  1.00  0.00    -0.206 OA
BRANCH  29  32
HETATM   32  C10 UNL     1      -0.099  -1.593  -1.840  1.00  0.00     0.163 C 
BRANCH  32  33
HETATM   33  C11 UNL     1       0.807  -1.535  -0.662  1.00  0.00     0.017 C 
BRANCH  33  34
HETATM   34  C12 UNL     1       1.735  -0.370  -0.649  1.00  0.00     0.001 C 
BRANCH  34  35
HETATM   35  C13 UNL     1       2.694  -0.315   0.497  1.00  0.00     0.002 C 
BRANCH  35  36
HETATM   36  C14 UNL     1       3.625  -1.490   0.598  1.00  0.00     0.020 C 
BRANCH  36  37
HETATM   37  C15 UNL     1       4.551  -1.250   1.798  1.00  0.00     0.122 C 
BRANCH  37  38
HETATM   38  N8  UNL     1       5.307  -0.025   1.592  1.00  0.00    -0.361 N 
HETATM   39  C16 UNL     1       6.206   0.137   0.523  1.00  0.00     0.221 C 
HETATM   40  O5  UNL     1       6.445  -0.763  -0.339  1.00  0.00    -0.273 OA
ATOM     41  H8  UNL     1       5.180   0.746   2.248  1.00  0.00     0.162 HD
BRANCH  39  42
HETATM   42  C17 UNL     1       6.939   1.414   0.353  1.00  0.00     0.141 C 
BRANCH  42  43
HETATM   43  C18 UNL     1       8.399   1.178   0.535  1.00  0.00    -0.050 A 
HETATM   44  C19 UNL     1       8.975   1.405   1.781  1.00  0.00     0.007 A 
HETATM   45  C20 UNL     1      10.308   1.196   1.989  1.00  0.00     0.001 A 
HETATM   46  C21 UNL     1      11.138   0.756   0.985  1.00  0.00     0.000 A 
HETATM   47  C22 UNL     1      10.594   0.523  -0.260  1.00  0.00     0.001 A 
HETATM   48  C23 UNL     1       9.234   0.736  -0.470  1.00  0.00     0.007 A 
ENDBRANCH  42  43
ENDBRANCH  39  42
ENDBRANCH  37  38
ENDBRANCH  36  37
ENDBRANCH  35  36
ENDBRANCH  34  35
ENDBRANCH  33  34
ENDBRANCH  32  33
ENDBRANCH  29  32
ENDBRANCH  27  29
ENDBRANCH   1  27
TORSDOF 19
