REMARK  17 active torsions:
REMARK  status: ('A' for Active; 'I' for Inactive)
REMARK    1  A    between atoms: N1_1  and  C1_4 
REMARK    2  A    between atoms: N4_13  and  C5_14 
REMARK    3  A    between atoms: C6_16  and  C7_17 
REMARK    4  A    between atoms: C7_17  and  N5_18 
REMARK    5  A    between atoms: C7_17  and  C8_22 
REMARK    6  A    between atoms: C8_22  and  O4_24 
REMARK    7  A    between atoms: O4_24  and  C9_25 
REMARK    8  A    between atoms: C9_25  and  C10_26 
REMARK    9  A    between atoms: C12_29  and  O6_30 
REMARK   10  A    between atoms: C19_41  and  O10_42 
REMARK   11  A    between atoms: O10_42  and  C20_43 
REMARK   12  A    between atoms: C20_43  and  O11_44 
REMARK   13  A    between atoms: C21_46  and  O12_47 
REMARK   14  A    between atoms: C22_49  and  O13_50 
REMARK   15  A    between atoms: C23_52  and  O14_53 
REMARK   16  A    between atoms: C24_55  and  O15_56 
REMARK   17  A    between atoms: C25_58  and  O16_59 
ROOT
HETATM    1  C8  UNL     1       1.199   0.353  -1.179  1.00  0.00     0.292 C 
HETATM    2  O3  UNL     1       1.127  -0.609  -1.964  1.00  0.00    -0.263 OA
ENDROOT
BRANCH   1   3
HETATM    3  C7  UNL     1       2.519   0.991  -0.945  1.00  0.00     0.313 C 
BRANCH   3   4
HETATM    4  C6  UNL     1       3.569   0.002  -0.477  1.00  0.00     0.196 C 
HETATM    5  O2  UNL     1       4.801   0.651  -0.394  1.00  0.00    -0.353 OA
HETATM    6  C5  UNL     1       5.670  -0.403  -0.194  1.00  0.00     0.262 C 
HETATM    7  C25 UNL     1       5.256  -1.493  -1.159  1.00  0.00     0.198 C 
HETATM    8  C24 UNL     1       3.837  -1.056  -1.522  1.00  0.00     0.182 C 
BRANCH   6   9
HETATM    9  N4  UNL     1       7.029   0.032  -0.392  1.00  0.00    -0.297 N 
HETATM   10  C4  UNL     1       7.532   0.610  -1.485  1.00  0.00     0.188 A 
HETATM   11  N3  UNL     1       8.840   0.870  -1.285  1.00  0.00    -0.345 N 
HETATM   12  C3  UNL     1       9.188   0.458  -0.054  1.00  0.00     0.147 A 
ATOM     13  H3  UNL     1       9.466   1.309  -1.960  1.00  0.00     0.167 HD
HETATM   14  C2  UNL     1      10.384   0.481   0.653  1.00  0.00     0.290 A 
HETATM   15  C26 UNL     1       8.036  -0.067   0.494  1.00  0.00     0.159 A 
HETATM   16  N2  UNL     1      10.343  -0.037   1.895  1.00  0.00    -0.154 N 
HETATM   17  O1  UNL     1      11.437   0.957   0.158  1.00  0.00    -0.265 OA
HETATM   18  C1  UNL     1       9.231  -0.549   2.439  1.00  0.00     0.680 A 
ATOM     19  H2  UNL     1      11.200  -0.040   2.448  1.00  0.00     0.187 HD
HETATM   20  N6  UNL     1       8.074  -0.563   1.733  1.00  0.00    -0.174 N 
ATOM     21  H6  UNL     1       7.229  -0.954   2.150  1.00  0.00     0.186 HD
BRANCH  18  22
HETATM   22  N1  UNL     1       9.202  -1.041   3.625  1.00  0.00    -0.234 N 
ATOM     23  H12 UNL     1      10.073  -1.030   4.156  1.00  0.00     0.174 HD
ATOM     24  H11 UNL     1       8.355  -1.431   4.039  1.00  0.00     0.174 HD
ENDBRANCH  18  22
ENDBRANCH   6   9
BRANCH   7  25
HETATM   25  O16 UNL     1       6.063  -1.536  -2.281  1.00  0.00    -0.388 OA
ATOM     26  H16 UNL     1       5.803  -2.220  -2.887  1.00  0.00     0.210 HD
ENDBRANCH   7  25
BRANCH   8  27
HETATM   27  O15 UNL     1       3.889  -0.535  -2.804  1.00  0.00    -0.390 OA
ATOM     28  H15 UNL     1       4.057  -1.200  -3.461  1.00  0.00     0.210 HD
ENDBRANCH   8  27
ENDBRANCH   3   4
BRANCH   3  29
HETATM   29  N5  UNL     1       2.407   2.108  -0.020  1.00  0.00    -0.063 N 
ATOM     30  H53 UNL     1       2.227   1.791   0.933  1.00  0.00     0.275 HD
ATOM     31  H52 UNL     1       3.308   2.561   0.135  1.00  0.00     0.275 HD
ATOM     32  H51 UNL     1       1.701   2.773  -0.335  1.00  0.00     0.275 HD
ENDBRANCH   3  29
ENDBRANCH   1   3
BRANCH   1  33
HETATM   33  O4  UNL     1       0.042   0.788  -0.555  1.00  0.00    -0.317 OA
BRANCH  33  34
HETATM   34  C9  UNL     1      -1.225   0.136  -0.812  1.00  0.00     0.212 C 
BRANCH  34  35
HETATM   35  C10 UNL     1      -2.229   0.840   0.001  1.00  0.00     0.167 C 
HETATM   36  O5  UNL     1      -2.337   2.185  -0.346  1.00  0.00    -0.379 OA
HETATM   37  C11 UNL     1      -3.569   2.633   0.120  1.00  0.00     0.210 C 
HETATM   38  C12 UNL     1      -4.235   1.491   0.848  1.00  0.00     0.128 C 
HETATM   39  C13 UNL     1      -5.699   1.349   0.556  1.00  0.00     0.209 C 
HETATM   40  C18 UNL     1      -3.595   0.301   0.127  1.00  0.00     0.113 C 
HETATM   41  O7  UNL     1      -6.358   1.168   1.780  1.00  0.00    -0.309 OA
HETATM   42  C21 UNL     1      -5.884   0.306  -0.452  1.00  0.00     0.143 C 
HETATM   43  C14 UNL     1      -6.265   0.084   2.628  1.00  0.00     0.266 C 
HETATM   44  O8  UNL     1      -6.627   0.329   3.807  1.00  0.00    -0.265 OA
HETATM   45  C15 UNL     1      -5.793  -1.270   2.257  1.00  0.00     0.124 C 
HETATM   46  C16 UNL     1      -4.311  -1.392   2.197  1.00  0.00     0.097 C 
HETATM   47  C23 UNL     1      -6.530  -1.701   1.043  1.00  0.00     0.164 C 
HETATM   48  C17 UNL     1      -3.701  -0.930   0.940  1.00  0.00     0.145 C 
HETATM   49  O9  UNL     1      -3.099  -1.840   0.403  1.00  0.00    -0.297 OA
HETATM   50  C22 UNL     1      -6.514  -0.969  -0.192  1.00  0.00     0.187 C 
HETATM   51  C19 UNL     1      -4.454   0.177  -1.055  1.00  0.00     0.185 C 
BRANCH  38  52
HETATM   52  O6  UNL     1      -3.911   1.561   2.171  1.00  0.00    -0.383 OA
ATOM     53  H6  UNL     1      -4.330   0.842   2.629  1.00  0.00     0.210 HD
ENDBRANCH  38  52
BRANCH  47  54
HETATM   54  O14 UNL     1      -7.868  -1.882   1.497  1.00  0.00    -0.392 OA
ATOM     55  H14 UNL     1      -8.340  -2.158   0.720  1.00  0.00     0.210 HD
ENDBRANCH  47  54
BRANCH  50  56
HETATM   56  O13 UNL     1      -6.069  -1.854  -1.226  1.00  0.00    -0.390 OA
ATOM     57  H13 UNL     1      -6.483  -2.692  -1.055  1.00  0.00     0.210 HD
ENDBRANCH  50  56
BRANCH  42  58
HETATM   58  O12 UNL     1      -6.588   0.934  -1.526  1.00  0.00    -0.382 OA
ATOM     59  H12 UNL     1      -6.708   0.256  -2.181  1.00  0.00     0.211 HD
ENDBRANCH  42  58
BRANCH  51  60
HETATM   60  O10 UNL     1      -4.285   1.085  -2.072  1.00  0.00    -0.357 OA
BRANCH  60  61
HETATM   61  C20 UNL     1      -4.125   0.446  -3.300  1.00  0.00     0.335 C 
BRANCH  61  62
HETATM   62  O11 UNL     1      -3.953   1.352  -4.338  1.00  0.00    -0.377 OA
ATOM     63  H11 UNL     1      -3.844   0.916  -5.175  1.00  0.00     0.212 HD
ENDBRANCH  61  62
ENDBRANCH  60  61
ENDBRANCH  51  60
ENDBRANCH  34  35
ENDBRANCH  33  34
ENDBRANCH   1  33
TORSDOF 17
