REMARK  15 active torsions:
REMARK  status: ('A' for Active; 'I' for Inactive)
REMARK    1  A    between atoms: N5_13  and  C5_14 
REMARK    2  A    between atoms: N6_17  and  N7_18 
REMARK    3  A    between atoms: C8_22  and  N8_23 
REMARK    4  A    between atoms: C9_27  and  O3_28 
REMARK    5  A    between atoms: C10_30  and  N9_31 
REMARK    6  A    between atoms: C11_32  and  C12_33 
REMARK    7  A    between atoms: C12_33  and  C13_34 
REMARK    8  A    between atoms: C13_34  and  N10_35 
REMARK    9  A    between atoms: N10_35  and  C14_38 
REMARK   10  A    between atoms: C15_40  and  C16_41 
REMARK   11  A    between atoms: C17_44  and  O7_45 
REMARK   12  A    between atoms: C18_47  and  O8_48 
REMARK   13  A    between atoms: C19_50  and  O9_51 
REMARK   14  A    between atoms: C21_56  and  O10_57 
REMARK   15  A    between atoms: C22_61  and  N13_62 
ROOT
HETATM    1  N9  UNL     1      -0.306  -1.780  -1.052  1.00  0.00    -0.287 N 
HETATM    2  C11 UNL     1       0.522  -1.029  -1.822  1.00  0.00     0.091 A 
HETATM    3  N11 UNL     1       1.019  -1.836  -2.805  1.00  0.00    -0.339 N 
ATOM      4  H11 UNL     1       1.670  -1.555  -3.538  1.00  0.00     0.167 HD
HETATM    5  C20 UNL     1       0.502  -3.065  -2.639  1.00  0.00     0.131 A 
HETATM    6  C21 UNL     1       0.614  -4.279  -3.291  1.00  0.00     0.186 A 
HETATM    7  N12 UNL     1      -0.056  -5.364  -2.869  1.00  0.00    -0.168 N 
ATOM      8  H12 UNL     1       0.041  -6.250  -3.365  1.00  0.00     0.186 HD
HETATM    9  C22 UNL     1      -0.855  -5.278  -1.790  1.00  0.00     0.679 A 
HETATM   10  N14 UNL     1      -0.973  -4.107  -1.148  1.00  0.00    -0.174 N 
ATOM     11  H14 UNL     1      -1.582  -4.053  -0.331  1.00  0.00     0.186 HD
HETATM   12  C23 UNL     1      -0.325  -3.013  -1.537  1.00  0.00     0.160 A 
ENDROOT
BRANCH   1  13
HETATM   13  C10 UNL     1      -1.017  -1.228   0.087  1.00  0.00     0.062 C 
HETATM   14  C5  UNL     1      -2.282  -0.605  -0.455  1.00  0.00     0.254 C 
HETATM   15  C6  UNL     1      -3.376  -1.547  -0.649  1.00  0.00     0.268 C 
HETATM   16  O2  UNL     1      -3.955  -1.657  -1.760  1.00  0.00    -0.269 OA
HETATM   17  N6  UNL     1      -3.912  -2.425   0.330  1.00  0.00    -0.264 N 
HETATM   18  C7  UNL     1      -3.490  -2.545   1.679  1.00  0.00     0.187 C 
HETATM   19  C8  UNL     1      -2.056  -2.732   1.937  1.00  0.00     0.237 C 
HETATM   20  C9  UNL     1      -1.013  -1.953   1.318  1.00  0.00     0.199 C 
BRANCH  14  21
HETATM   21  N5  UNL     1      -2.636   0.628   0.222  1.00  0.00    -0.240 N 
HETATM   22  C3  UNL     1      -3.197   1.677  -0.416  1.00  0.00     0.163 A 
HETATM   23  N2  UNL     1      -3.551   1.872  -1.722  1.00  0.00    -0.291 N 
HETATM   24  C4  UNL     1      -3.401   2.664   0.508  1.00  0.00     0.164 A 
HETATM   25  C2  UNL     1      -4.090   3.027  -2.067  1.00  0.00     0.330 A 
ATOM     26  H2  UNL     1      -3.402   1.140  -2.416  1.00  0.00     0.172 HD
HETATM   27  N1  UNL     1      -4.299   4.010  -1.173  1.00  0.00    -0.269 N 
HETATM   28  O1  UNL     1      -4.415   3.197  -3.280  1.00  0.00    -0.246 OA
HETATM   29  C1  UNL     1      -4.895   5.250  -1.617  1.00  0.00     0.164 C 
HETATM   30  C24 UNL     1      -3.969   3.869   0.123  1.00  0.00     0.283 A 
HETATM   31  O11 UNL     1      -4.155   4.776   0.985  1.00  0.00    -0.265 OA
HETATM   32  N3  UNL     1      -2.953   2.169   1.673  1.00  0.00    -0.278 N 
HETATM   33  N4  UNL     1      -2.504   0.963   1.483  1.00  0.00    -0.237 N 
ATOM     34  H3  UNL     1      -2.963   2.661   2.566  1.00  0.00     0.189 HD
ATOM     35  H4  UNL     1      -2.107   0.366   2.208  1.00  0.00     0.208 HD
ENDBRANCH  14  21
BRANCH  17  36
HETATM   36  N7  UNL     1      -4.960  -3.267  -0.044  1.00  0.00    -0.340 N 
ATOM     37  H72 UNL     1      -5.263  -3.181  -1.014  1.00  0.00     0.177 HD
ATOM     38  H71 UNL     1      -5.345  -3.898   0.659  1.00  0.00     0.177 HD
ENDBRANCH  17  36
BRANCH  19  39
HETATM   39  N8  UNL     1      -1.923  -2.828   3.419  1.00  0.00    -0.071 N 
ATOM     40  H83 UNL     1      -2.329  -2.036   3.918  1.00  0.00     0.274 HD
ATOM     41  H82 UNL     1      -2.511  -3.549   3.837  1.00  0.00     0.274 HD
ATOM     42  H81 UNL     1      -0.927  -2.958   3.598  1.00  0.00     0.274 HD
ENDBRANCH  19  39
BRANCH  20  43
HETATM   43  O3  UNL     1      -0.554  -1.114   2.405  1.00  0.00    -0.388 OA
ATOM     44  H3  UNL     1       0.133  -0.601   1.997  1.00  0.00     0.210 HD
ENDBRANCH  20  43
ENDBRANCH   1  13
BRANCH   2  45
HETATM   45  C12 UNL     1       0.899   0.402  -1.715  1.00  0.00     0.104 C 
BRANCH  45  46
HETATM   46  C13 UNL     1       2.130   0.573  -0.864  1.00  0.00     0.243 C 
BRANCH  46  47
HETATM   47  N10 UNL     1       2.539   1.934  -0.726  1.00  0.00    -0.046 N 
ATOM     48 2H10 UNL     1       2.678   2.394  -1.626  1.00  0.00     0.280 HD
ATOM     49 1H10 UNL     1       1.792   2.534  -0.376  1.00  0.00     0.280 HD
BRANCH  47  50
HETATM   50  C14 UNL     1       3.728   1.977   0.112  1.00  0.00     0.353 C 
HETATM   51  O4  UNL     1       3.418   1.433   1.347  1.00  0.00    -0.338 OA
HETATM   52  C15 UNL     1       4.490   1.220   2.171  1.00  0.00     0.256 C 
HETATM   53  C17 UNL     1       5.643   2.153   1.884  1.00  0.00     0.189 C 
HETATM   54  C18 UNL     1       5.181   3.523   1.430  1.00  0.00     0.182 C 
HETATM   55  C19 UNL     1       4.222   3.410   0.258  1.00  0.00     0.205 C 
BRANCH  52  56
HETATM   56  C16 UNL     1       4.943  -0.186   2.221  1.00  0.00     0.206 C 
HETATM   57  O5  UNL     1       5.919  -0.483   2.943  1.00  0.00    -0.646 OA
HETATM   58  O6  UNL     1       4.304  -1.161   1.486  1.00  0.00    -0.646 OA
ENDBRANCH  52  56
BRANCH  53  59
HETATM   59  O7  UNL     1       6.387   2.348   3.045  1.00  0.00    -0.390 OA
ATOM     60  H7  UNL     1       7.112   2.935   2.865  1.00  0.00     0.210 HD
ENDBRANCH  53  59
BRANCH  54  61
HETATM   61  O8  UNL     1       6.290   4.261   1.072  1.00  0.00    -0.390 OA
ATOM     62  H8  UNL     1       6.000   5.120   0.787  1.00  0.00     0.210 HD
ENDBRANCH  54  61
BRANCH  55  63
HETATM   63  O9  UNL     1       3.112   4.208   0.498  1.00  0.00    -0.388 OA
ATOM     64  H9  UNL     1       3.420   5.102   0.589  1.00  0.00     0.210 HD
ENDBRANCH  55  63
ENDBRANCH  47  50
ENDBRANCH  46  47
ENDBRANCH  45  46
ENDBRANCH   2  45
BRANCH   6  65
HETATM   65  O10 UNL     1       1.448  -4.319  -4.397  1.00  0.00    -0.344 OA
ATOM     66  H10 UNL     1       1.525  -5.153  -4.845  1.00  0.00     0.219 HD
ENDBRANCH   6  65
BRANCH   9  67
HETATM   67  N13 UNL     1      -1.513  -6.297  -1.356  1.00  0.00    -0.234 N 
ATOM     68 2H13 UNL     1      -1.423  -7.188  -1.844  1.00  0.00     0.174 HD
ATOM     69 1H13 UNL     1      -2.119  -6.232  -0.538  1.00  0.00     0.174 HD
ENDBRANCH   9  67
TORSDOF 15
