REMARK  15 active torsions:
REMARK  status: ('A' for Active; 'I' for Inactive)
REMARK    1  A    between atoms: C3_6  and  C4_7 
REMARK       I    between atoms: C4_7  and  N2_9 
REMARK    2  A    between atoms: N2_9  and  C5_11 
REMARK    3  A    between atoms: C6_12  and  N3_13 
REMARK    4  A    between atoms: C7_14  and  C8_15 
REMARK    5  A    between atoms: N4_17  and  C10_18 
REMARK    6  A    between atoms: C11_20  and  C12_21 
REMARK    7  A    between atoms: C12_21  and  O3_22 
REMARK    8  A    between atoms: C12_21  and  C13_24 
REMARK    9  A    between atoms: C13_24  and  O4_25 
REMARK   10  A    between atoms: C14_27  and  O5_28 
REMARK   11  A    between atoms: C15_30  and  O6_31 
REMARK   12  A    between atoms: N10_51  and  N11_52 
REMARK   13  A    between atoms: C22_55  and  N12_56 
REMARK   14  A    between atoms: C24_61  and  O9_62 
REMARK   15  A    between atoms: C25_64  and  O10_65 
ROOT
HETATM    1  N3  UNL     1       0.637  -1.886   0.246  1.00  0.00    -0.284 N 
HETATM    2  C7  UNL     1       1.946  -1.485   0.173  1.00  0.00     0.142 A 
HETATM    3  N7  UNL     1       2.614  -2.350   0.951  1.00  0.00    -0.333 N 
ATOM      4  H7  UNL     1       3.622  -2.311   1.100  1.00  0.00     0.168 HD
HETATM    5  C16 UNL     1       1.825  -3.263   1.507  1.00  0.00     0.147 A 
HETATM    6  C17 UNL     1       2.023  -4.340   2.360  1.00  0.00     0.277 A 
HETATM    7  O7  UNL     1       3.193  -4.561   2.738  1.00  0.00    -0.266 OA
HETATM    8  N8  UNL     1       1.011  -5.115   2.768  1.00  0.00    -0.318 N 
ATOM      9  H8  UNL     1       1.168  -5.903   3.396  1.00  0.00     0.169 HD
HETATM   10  C18 UNL     1      -0.220  -4.815   2.319  1.00  0.00     0.185 A 
HETATM   11  N9  UNL     1      -0.417  -3.777   1.497  1.00  0.00    -0.336 N 
ATOM     12  H9  UNL     1      -1.372  -3.594   1.188  1.00  0.00     0.168 HD
HETATM   13  C19 UNL     1       0.550  -2.957   1.048  1.00  0.00     0.145 A 
ENDROOT
BRANCH   1  14
HETATM   14  C6  UNL     1      -0.394  -1.199  -0.454  1.00  0.00     0.272 C 
HETATM   15  C5  UNL     1      -1.803  -1.502  -0.165  1.00  0.00     0.231 C 
HETATM   16  N10 UNL     1      -2.328  -2.126  -1.398  1.00  0.00    -0.181 NA
HETATM   17  C20 UNL     1      -1.065  -2.573  -2.007  1.00  0.00     0.215 C 
HETATM   18  O8  UNL     1      -0.300  -1.428  -1.845  1.00  0.00    -0.341 OA
HETATM   19  C21 UNL     1      -1.343  -2.823  -3.491  1.00  0.00     0.058 C 
BRANCH  15  20
HETATM   20  N2  UNL     1      -2.567  -0.254   0.062  1.00  0.00    -0.337 N 
HETATM   21  C4  UNL     1      -3.418  -0.091   1.175  1.00  0.00     0.252 C 
HETATM   22  O1  UNL     1      -3.482  -1.092   1.969  1.00  0.00    -0.271 OA
ATOM     23  H2  UNL     1      -2.475   0.511  -0.607  1.00  0.00     0.164 HD
BRANCH  21  24
HETATM   24  C3  UNL     1      -4.214   1.113   1.484  1.00  0.00     0.302 C 
HETATM   25  N1  UNL     1      -4.928   0.889   2.733  1.00  0.00    -0.054 N 
HETATM   26  C2  UNL     1      -6.326   0.647   2.563  1.00  0.00     0.214 C 
ATOM     27  H12 UNL     1      -4.773   1.663   3.379  1.00  0.00     0.278 HD
ATOM     28  H11 UNL     1      -4.495   0.134   3.264  1.00  0.00     0.278 HD
HETATM   29  C1  UNL     1      -6.801  -0.115   3.797  1.00  0.00     0.043 C 
HETATM   30  C25 UNL     1      -6.662  -0.232   1.382  1.00  0.00     0.179 C 
HETATM   31  C24 UNL     1      -6.019   0.245   0.103  1.00  0.00     0.174 C 
HETATM   32  C22 UNL     1      -5.203   1.462   0.394  1.00  0.00     0.155 C 
BRANCH  30  33
HETATM   33  O10 UNL     1      -8.055  -0.242   1.239  1.00  0.00    -0.391 OA
ATOM     34  H10 UNL     1      -8.266  -0.795   0.496  1.00  0.00     0.210 HD
ENDBRANCH  30  33
BRANCH  31  35
HETATM   35  O9  UNL     1      -7.020   0.535  -0.832  1.00  0.00    -0.391 OA
ATOM     36  H9  UNL     1      -7.539  -0.239  -1.017  1.00  0.00     0.210 HD
ENDBRANCH  31  35
BRANCH  32  37
HETATM   37  N12 UNL     1      -4.536   1.958  -0.770  1.00  0.00    -0.357 N 
HETATM   38  C23 UNL     1      -4.713   3.145  -1.191  1.00  0.00     0.197 C 
HETATM   39  N13 UNL     1      -5.599   4.002  -0.485  1.00  0.00    -0.067 NA
HETATM   40  N14 UNL     1      -4.061   3.647  -2.336  1.00  0.00    -0.067 NA
ATOM     41  H12 UNL     1      -3.900   1.342  -1.277  1.00  0.00     0.162 HD
ENDBRANCH  32  37
ENDBRANCH  21  24
ENDBRANCH  15  20
BRANCH  16  42
HETATM   42  N11 UNL     1      -2.803  -1.126  -2.250  1.00  0.00    -0.359 NA
ATOM     43 2H11 UNL     1      -3.678  -0.816  -1.828  1.00  0.00     0.171 HD
ATOM     44 1H11 UNL     1      -3.165  -1.557  -3.101  1.00  0.00     0.171 HD
ENDBRANCH  16  42
ENDBRANCH   1  14
BRANCH   2  45
HETATM   45  C8  UNL     1       2.480  -0.370  -0.592  1.00  0.00     0.111 A 
HETATM   46  C9  UNL     1       3.840  -0.043  -0.609  1.00  0.00     0.149 A 
HETATM   47  N4  UNL     1       4.034   1.042  -1.410  1.00  0.00    -0.255 N 
HETATM   48  N5  UNL     1       2.846   1.368  -1.866  1.00  0.00    -0.238 N 
HETATM   49  N6  UNL     1       1.922   0.539  -1.388  1.00  0.00    -0.281 N 
ATOM     50  H5  UNL     1       2.659   2.147  -2.497  1.00  0.00     0.208 HD
ATOM     51  H6  UNL     1       0.926   0.592  -1.601  1.00  0.00     0.188 HD
BRANCH  47  52
HETATM   52  C10 UNL     1       5.259   1.706  -1.707  1.00  0.00     0.276 C 
HETATM   53  O2  UNL     1       5.807   2.366  -0.612  1.00  0.00    -0.352 OA
HETATM   54  C11 UNL     1       6.995   1.719  -0.303  1.00  0.00     0.186 C 
HETATM   55  C14 UNL     1       7.563   1.382  -1.679  1.00  0.00     0.182 C 
HETATM   56  C15 UNL     1       6.303   0.843  -2.329  1.00  0.00     0.200 C 
BRANCH  54  57
HETATM   57  C12 UNL     1       7.932   2.554   0.505  1.00  0.00     0.173 C 
BRANCH  57  58
HETATM   58  O3  UNL     1       8.321   3.719  -0.106  1.00  0.00    -0.391 OA
ATOM     59  H3  UNL     1       8.917   4.250   0.408  1.00  0.00     0.210 HD
ENDBRANCH  57  58
BRANCH  57  60
HETATM   60  C13 UNL     1       9.074   1.700   0.996  1.00  0.00     0.198 C 
BRANCH  60  61
HETATM   61  O4  UNL     1       8.485   0.563   1.585  1.00  0.00    -0.398 OA
ATOM     62  H4  UNL     1       9.204   0.025   1.894  1.00  0.00     0.209 HD
ENDBRANCH  60  61
ENDBRANCH  57  60
ENDBRANCH  54  57
BRANCH  55  63
HETATM   63  O5  UNL     1       7.974   2.560  -2.301  1.00  0.00    -0.390 OA
ATOM     64  H5  UNL     1       8.328   2.350  -3.157  1.00  0.00     0.210 HD
ENDBRANCH  55  63
BRANCH  56  65
HETATM   65  O6  UNL     1       6.222  -0.507  -1.945  1.00  0.00    -0.388 OA
ATOM     66  H6  UNL     1       6.887  -1.057  -2.341  1.00  0.00     0.210 HD
ENDBRANCH  56  65
ENDBRANCH  47  52
ENDBRANCH   2  45
TORSDOF 15
