REMARK  18 active torsions:
REMARK  status: ('A' for Active; 'I' for Inactive)
REMARK    1  A    between atoms: C2_5  and  C3_6 
REMARK       I    between atoms: C3_6  and  N3_8 
REMARK    2  A    between atoms: N3_8  and  N4_10 
REMARK    3  A    between atoms: C4_15  and  N6_16 
REMARK       I    between atoms: N6_16  and  C5_18 
REMARK    4  A    between atoms: C5_18  and  C6_20 
REMARK    5  A    between atoms: C6_20  and  O3_21 
REMARK    6  A    between atoms: C10_29  and  C11_30 
REMARK       I    between atoms: C11_30  and  N9_32 
REMARK    7  A    between atoms: N9_32  and  C12_34 
REMARK    8  A    between atoms: C12_34  and  C13_35 
REMARK    9  A    between atoms: C13_35  and  O5_36 
REMARK   10  A    between atoms: C14_38  and  O6_39 
REMARK   11  A    between atoms: C17_45  and  C18_46 
REMARK   12  A    between atoms: C18_46  and  O9_47 
REMARK   13  A    between atoms: C18_46  and  O10_49 
REMARK   14  A    between atoms: O10_49  and  C19_50 
REMARK   15  A    between atoms: C21_53  and  O12_54 
REMARK   16  A    between atoms: C22_56  and  O13_57 
REMARK   17  A    between atoms: C23_59  and  O14_60 
REMARK   18  A    between atoms: C24_62  and  O15_63 
ROOT
HETATM    1  C6  UNL     1      -0.467   0.241  -0.424  1.00  0.00     0.198 C 
HETATM    2  C7  UNL     1      -0.677   1.601  -0.967  1.00  0.00     0.055 A 
HETATM    3  C8  UNL     1      -0.165   2.216  -2.087  1.00  0.00     0.122 A 
HETATM    4  N7  UNL     1      -0.539   3.456  -2.401  1.00  0.00    -0.338 N 
ATOM      5  H7  UNL     1      -0.151   3.899  -3.234  1.00  0.00     0.167 HD
HETATM    6  C9  UNL     1      -1.414   4.134  -1.645  1.00  0.00     0.135 A 
HETATM    7  N8  UNL     1      -1.791   5.467  -2.023  1.00  0.00    -0.082 NA
HETATM    8  C10 UNL     1      -1.956   3.542  -0.497  1.00  0.00     0.106 A 
HETATM    9  C14 UNL     1      -1.590   2.230  -0.124  1.00  0.00     0.097 A 
HETATM   10  C15 UNL     1       0.800   1.847  -3.125  1.00  0.00     0.310 C 
HETATM   11  O7  UNL     1       0.623   2.532  -4.157  1.00  0.00    -0.258 OA
HETATM   12  O8  UNL     1       1.817   0.909  -3.132  1.00  0.00    -0.316 OA
HETATM   13  C16 UNL     1       2.696   0.430  -2.142  1.00  0.00     0.191 C 
HETATM   14  C17 UNL     1       1.993  -0.272  -0.996  1.00  0.00     0.098 C 
HETATM   15  C24 UNL     1       0.581  -0.547  -1.174  1.00  0.00     0.178 C 
ENDROOT
BRANCH   1  16
HETATM   16  C5  UNL     1      -1.738  -0.513  -0.798  1.00  0.00     0.278 C 
HETATM   17  N6  UNL     1      -2.441  -1.335   0.090  1.00  0.00    -0.155 N 
ATOM     18  H6  UNL     1      -2.485  -1.068   1.073  1.00  0.00     0.187 HD
HETATM   19  O2  UNL     1      -2.087  -0.311  -2.016  1.00  0.00    -0.269 OA
BRANCH  17  20
HETATM   20  C4  UNL     1      -3.028  -2.402  -0.279  1.00  0.00     0.703 A 
HETATM   21  N1  UNL     1      -3.735  -3.267   0.495  1.00  0.00    -0.126 N 
HETATM   22  C1  UNL     1      -3.955  -3.137   1.922  1.00  0.00     0.197 C 
HETATM   23  N2  UNL     1      -4.201  -4.261  -0.239  1.00  0.00    -0.264 N 
HETATM   24  C2  UNL     1      -3.821  -4.083  -1.500  1.00  0.00     0.206 A 
ATOM     25  H2  UNL     1      -4.762  -5.040   0.106  1.00  0.00     0.189 HD
HETATM   26  N5  UNL     1      -3.094  -2.928  -1.513  1.00  0.00    -0.168 N 
ATOM     27  H5  UNL     1      -2.662  -2.522  -2.343  1.00  0.00     0.186 HD
BRANCH  24  28
HETATM   28  C3  UNL     1      -4.125  -4.948  -2.634  1.00  0.00     0.305 C 
HETATM   29  O1  UNL     1      -3.711  -4.695  -3.797  1.00  0.00    -0.263 OA
HETATM   30  N3  UNL     1      -4.906  -6.120  -2.472  1.00  0.00    -0.270 N 
ATOM     31  H3  UNL     1      -5.251  -6.343  -1.538  1.00  0.00     0.189 HD
BRANCH  30  32
HETATM   32  N4  UNL     1      -5.227  -6.979  -3.511  1.00  0.00    -0.342 N 
ATOM     33  H42 UNL     1      -4.874  -6.740  -4.438  1.00  0.00     0.176 HD
ATOM     34  H41 UNL     1      -5.789  -7.822  -3.394  1.00  0.00     0.176 HD
ENDBRANCH  30  32
ENDBRANCH  24  28
ENDBRANCH  17  20
ENDBRANCH   1  16
BRANCH   1  35
HETATM   35  O3  UNL     1      -0.337   0.131   0.920  1.00  0.00    -0.373 OA
ATOM     36  H3  UNL     1       0.455   0.601   1.153  1.00  0.00     0.211 HD
ENDBRANCH   1  35
BRANCH  15  37
HETATM   37  O15 UNL     1       0.278  -1.894  -0.783  1.00  0.00    -0.391 OA
ATOM     38  H15 UNL     1       0.937  -2.390  -1.255  1.00  0.00     0.210 HD
ENDBRANCH  15  37
BRANCH   9  39
HETATM   39  O6  UNL     1      -2.082   1.670   0.942  1.00  0.00    -0.359 OA
ATOM     40  H6  UNL     1      -2.705   2.099   1.517  1.00  0.00     0.217 HD
ENDBRANCH   9  39
BRANCH  14  41
HETATM   41  C18 UNL     1       2.480   0.286   0.305  1.00  0.00     0.268 C 
BRANCH  41  42
HETATM   42  O9  UNL     1       2.270   1.642   0.487  1.00  0.00    -0.371 OA
ATOM     43  H9  UNL     1       2.579   1.996   1.313  1.00  0.00     0.212 HD
ENDBRANCH  41  42
BRANCH  41  44
HETATM   44  O10 UNL     1       3.896   0.185   0.252  1.00  0.00    -0.329 OA
BRANCH  44  45
HETATM   45  C19 UNL     1       4.430  -0.561   1.272  1.00  0.00     0.294 C 
HETATM   46  O11 UNL     1       5.308   0.140   2.076  1.00  0.00    -0.356 OA
HETATM   47  C20 UNL     1       6.633  -0.184   1.940  1.00  0.00     0.205 C 
HETATM   48  C21 UNL     1       6.950  -1.630   2.204  1.00  0.00     0.173 C 
HETATM   49  C22 UNL     1       5.905  -2.548   1.654  1.00  0.00     0.182 C 
HETATM   50  C23 UNL     1       5.062  -1.790   0.656  1.00  0.00     0.204 C 
BRANCH  48  51
HETATM   51  O12 UNL     1       7.064  -1.885   3.583  1.00  0.00    -0.391 OA
ATOM     52  H12 UNL     1       7.264  -2.799   3.750  1.00  0.00     0.210 HD
ENDBRANCH  48  51
BRANCH  49  53
HETATM   53  O13 UNL     1       6.548  -3.564   0.951  1.00  0.00    -0.390 OA
ATOM     54  H13 UNL     1       5.884  -4.147   0.602  1.00  0.00     0.210 HD
ENDBRANCH  49  53
BRANCH  50  55
HETATM   55  O14 UNL     1       5.862  -1.388  -0.387  1.00  0.00    -0.388 OA
ATOM     56  H14 UNL     1       6.259  -2.160  -0.774  1.00  0.00     0.210 HD
ENDBRANCH  50  55
ENDBRANCH  44  45
ENDBRANCH  41  44
ENDBRANCH  14  41
BRANCH   8  57
HETATM   57  C11 UNL     1      -2.896   4.358   0.248  1.00  0.00     0.257 C 
HETATM   58  O4  UNL     1      -3.120   5.542  -0.232  1.00  0.00    -0.267 OA
HETATM   59  N9  UNL     1      -3.600   4.051   1.416  1.00  0.00    -0.355 N 
ATOM     60  H9  UNL     1      -3.446   3.117   1.796  1.00  0.00     0.162 HD
BRANCH  59  61
HETATM   61  C12 UNL     1      -4.510   4.880   2.148  1.00  0.00     0.148 C 
BRANCH  61  62
HETATM   62  C13 UNL     1      -3.959   6.096   2.796  1.00  0.00     0.183 C 
BRANCH  62  63
HETATM   63  O5  UNL     1      -3.392   6.996   1.949  1.00  0.00    -0.399 OA
ATOM     64  H5  UNL     1      -3.039   7.774   2.364  1.00  0.00     0.209 HD
ENDBRANCH  62  63
ENDBRANCH  61  62
ENDBRANCH  59  61
ENDBRANCH   8  57
TORSDOF 18
