REMARK  2 active torsions:
REMARK  status: ('A' for Active; 'I' for Inactive)
REMARK    1  A    between atoms: C2_2  and  C5_5 
REMARK    2  A    between atoms: C5_5  and  N1_6 
REMARK       I    between atoms: N2_9  and  C6_11 
REMARK       I    between atoms: C6_11  and  N3_13 
ROOT
HETATM    1  C5  UNL     1      -2.835  -0.228   1.246  1.00  0.00     0.086 C 
HETATM    2  N2  UNL     1      -1.663  -0.105   0.634  1.00  0.00    -0.298 N 
ATOM      3  H2  UNL     1      -1.632   0.015  -0.378  1.00  0.00     0.172 HD
HETATM    4  C6  UNL     1      -0.398  -0.141   1.409  1.00  0.00     0.323 C 
HETATM    5  O1  UNL     1      -0.555  -0.296   2.645  1.00  0.00    -0.247 OA
HETATM    6  N3  UNL     1       0.855  -0.011   0.795  1.00  0.00    -0.331 N 
HETATM    7  C7  UNL     1       1.041   0.175  -0.620  1.00  0.00     0.155 C 
HETATM    8  C8  UNL     1       2.424   0.727  -0.930  1.00  0.00     0.256 C 
HETATM    9  N4  UNL     1       3.484   0.020  -0.278  1.00  0.00    -0.072 N 
HETATM   10  C9  UNL     1       4.399   0.974   0.337  1.00  0.00     0.272 C 
HETATM   11  C10 UNL     1       4.290  -0.790  -1.184  1.00  0.00     0.272 C 
HETATM   12  C11 UNL     1       3.040  -0.874   0.771  1.00  0.00     0.256 C 
HETATM   13  C12 UNL     1       2.040  -0.065   1.614  1.00  0.00     0.155 C 
ENDROOT
BRANCH   1  14
HETATM   14  C2  UNL     1      -3.766  -0.031  -0.318  1.00  0.00     0.007 C 
HETATM   15  C1  UNL     1      -5.140  -0.062   0.146  1.00  0.00     0.022 C 
HETATM   16  C3  UNL     1      -3.276   1.330  -0.613  1.00  0.00     0.022 C 
HETATM   17  C4  UNL     1      -3.214  -1.180  -1.010  1.00  0.00     0.022 C 
ENDBRANCH   1  14
BRANCH   1  18
HETATM   18  N1  UNL     1      -3.919  -0.341   1.812  1.00  0.00    -0.388 N 
ATOM     19  H12 UNL     1      -4.819  -0.435   2.282  1.00  0.00     0.157 HD
ATOM     20  H11 UNL     1      -3.400  -0.451   2.683  1.00  0.00     0.157 HD
ENDBRANCH   1  18
TORSDOF 2
