REMARK  2 active torsions:
REMARK  status: ('A' for Active; 'I' for Inactive)
REMARK    1  A    between atoms: N1_2  and  C2_4 
REMARK    2  A    between atoms: C2_4  and  N2_6 
REMARK       I    between atoms: C3_8  and  N4_10 
ROOT
HETATM    1  N2  UNL     1       2.526  -0.189   1.002  1.00  0.00    -0.307 N 
ATOM      2  H2  UNL     1       2.364  -1.065   1.499  1.00  0.00     0.171 HD
HETATM    3  C3  UNL     1       1.550   0.553   0.666  1.00  0.00     0.192 C 
HETATM    4  N3  UNL     1       1.751   1.771  -0.023  1.00  0.00    -0.063 NA
HETATM    5  N4  UNL     1       0.186   0.211   0.959  1.00  0.00    -0.355 N 
HETATM    6  C4  UNL     1      -0.057  -1.271   1.001  1.00  0.00     0.125 C 
HETATM    7  C5  UNL     1      -1.411  -1.321   0.507  1.00  0.00     0.020 C 
HETATM    8  C6  UNL     1      -2.383  -2.316   0.182  1.00  0.00     0.002 C 
HETATM    9  C7  UNL     1      -3.616  -1.447  -0.181  1.00  0.00     0.000 C 
HETATM   10  C8  UNL     1      -3.356  -0.133  -0.818  1.00  0.00     0.000 C 
HETATM   11  C9  UNL     1      -3.115   1.080  -0.010  1.00  0.00     0.002 C 
HETATM   12  C10 UNL     1      -1.713   1.637   0.082  1.00  0.00     0.020 C 
HETATM   13  C11 UNL     1      -0.834   1.194   1.185  1.00  0.00     0.125 C 
ENDROOT
BRANCH   1  14
HETATM   14  C2  UNL     1       3.860   0.226   0.671  1.00  0.00     0.173 C 
HETATM   15  S1  UNL     1       4.578   1.451   1.456  1.00  0.00    -0.041 SA
BRANCH  14  16
HETATM   16  N1  UNL     1       4.535  -0.466  -0.365  1.00  0.00    -0.371 N 
HETATM   17  C1  UNL     1       5.893  -0.047  -0.707  1.00  0.00     0.148 C 
ATOM     18  H1  UNL     1       4.085  -1.236  -0.859  1.00  0.00     0.161 HD
ENDBRANCH  14  16
ENDBRANCH   1  14
TORSDOF 2
