REMARK  2 active torsions:
REMARK  status: ('A' for Active; 'I' for Inactive)
REMARK    1  A    between atoms: C3_3  and  C4_4 
REMARK    2  A    between atoms: C4_4  and  O1_5 
ROOT
HETATM    1  C1  UNL     1       3.296   1.091   2.326  1.00  0.00     0.012 C 
HETATM    2  C2  UNL     1       3.427   0.735   1.168  1.00  0.00    -0.114 C 
HETATM    3  C3  UNL     1       3.598   0.301  -0.201  1.00  0.00     0.144 C 
ENDROOT
BRANCH   3   4
HETATM    4  C4  UNL     1       2.299  -0.197  -0.813  1.00  0.00     0.131 C 
HETATM    5  C5  UNL     1       1.298   0.812  -0.866  1.00  0.00    -0.063 C 
HETATM    6  C6  UNL     1       0.491   1.586  -0.892  1.00  0.00    -0.075 C 
HETATM    7  C7  UNL     1      -0.545   2.531  -0.903  1.00  0.00     0.064 C 
HETATM    8  C8  UNL     1      -1.184   2.746   0.426  1.00  0.00     0.007 C 
HETATM    9  C9  UNL     1      -2.207   2.107   0.933  1.00  0.00     0.006 C 
HETATM   10  C10 UNL     1      -3.011   1.012   0.352  1.00  0.00     0.211 A 
HETATM   11  C11 UNL     1      -3.047  -0.173   1.334  1.00  0.00     0.070 A 
HETATM   12  N1  UNL     1      -2.377   0.184  -0.601  1.00  0.00    -0.063 N 
HETATM   13  C12 UNL     1      -2.487  -0.975   0.220  1.00  0.00     0.189 A 
HETATM   14  C13 UNL     1      -1.135  -1.624   0.538  1.00  0.00     0.033 C 
HETATM   15  C14 UNL     1      -0.501  -1.983  -0.753  1.00  0.00     0.002 C 
HETATM   16  C15 UNL     1       0.944  -2.321  -0.738  1.00  0.00     0.004 C 
HETATM   17  C16 UNL     1       1.847  -1.413   0.009  1.00  0.00     0.052 C 
ATOM     18  H12 UNL     1      -2.754   0.151  -1.548  1.00  0.00     0.278 HD
ATOM     19  H11 UNL     1      -1.456   0.453  -0.948  1.00  0.00     0.278 HD
BRANCH   4  20
HETATM   20  O1  UNL     1       2.612  -0.580  -2.126  1.00  0.00    -0.377 OA
ATOM     21  H1  UNL     1       1.800  -0.891  -2.509  1.00  0.00     0.211 HD
ENDBRANCH   4  20
ENDBRANCH   3   4
TORSDOF 2
