REMARK  3 active torsions:
REMARK  status: ('A' for Active; 'I' for Inactive)
REMARK    1  A    between atoms: C2_2  and  N1_3 
REMARK       I    between atoms: N1_3  and  C3_5 
REMARK    2  A    between atoms: N3_7  and  C4_9 
REMARK    3  A    between atoms: C4_9  and  N4_11 
ROOT
HETATM    1  C4  UNL     1       0.436   0.666  -1.102  1.00  0.00     0.176 C 
HETATM    2  S1  UNL     1       0.505   1.462  -2.551  1.00  0.00    -0.041 SA
ENDROOT
BRANCH   1   3
HETATM    3  N3  UNL     1       1.561   0.677  -0.304  1.00  0.00    -0.307 N 
HETATM    4  C3  UNL     1       2.604  -0.061  -0.344  1.00  0.00     0.190 C 
HETATM    5  N1  UNL     1       3.643   0.176   0.625  1.00  0.00    -0.365 N 
HETATM    6  N2  UNL     1       2.739  -1.085  -1.324  1.00  0.00    -0.063 NA
ATOM      7  H1  UNL     1       3.548   0.939   1.296  1.00  0.00     0.162 HD
ATOM      8  H3  UNL     1       1.561   1.383   0.432  1.00  0.00     0.171 HD
BRANCH   5   9
HETATM    9  C2  UNL     1       4.804  -0.652   0.650  1.00  0.00     0.118 C 
HETATM   10  C1  UNL     1       5.868  -0.112   1.605  1.00  0.00     0.026 C 
ENDBRANCH   5   9
ENDBRANCH   1   3
BRANCH   1  11
HETATM   11  N4  UNL     1      -0.791   0.027  -0.794  1.00  0.00    -0.357 N 
HETATM   12  C5  UNL     1      -0.973  -0.730   0.435  1.00  0.00     0.129 C 
HETATM   13  C6  UNL     1      -2.490  -0.746   0.657  1.00  0.00    -0.000 C 
HETATM   14  C7  UNL     1      -2.809  -1.331   2.019  1.00  0.00     0.011 C 
HETATM   15  C8  UNL     1      -2.938   0.683   0.538  1.00  0.00     0.011 C 
HETATM   16  C9  UNL     1      -3.027   0.972  -0.957  1.00  0.00    -0.000 C 
HETATM   17  C10 UNL     1      -4.408   0.660  -1.441  1.00  0.00     0.011 C 
HETATM   18  C11 UNL     1      -1.954   0.130  -1.656  1.00  0.00     0.129 C 
ENDBRANCH   1  11
TORSDOF 3
