REMARK  3 active torsions:
REMARK  status: ('A' for Active; 'I' for Inactive)
REMARK       I    between atoms: C2_5  and  N4_7 
REMARK    1  A    between atoms: N4_7  and  C3_9 
REMARK    2  A    between atoms: C5_11  and  C6_12 
REMARK    3  A    between atoms: C7_13  and  C8_14 
ROOT
HETATM    1  N1  UNL     1      -4.773  -0.881  -2.992  1.00  0.00    -0.172 NA
HETATM    2  C1  UNL     1      -4.573  -0.045  -2.197  1.00  0.00     0.184 C 
HETATM    3  N2  UNL     1      -4.340   0.966  -1.265  1.00  0.00    -0.267 N 
ATOM      4  H2  UNL     1      -4.351   1.938  -1.574  1.00  0.00     0.180 HD
HETATM    5  C2  UNL     1      -4.111   0.707  -0.026  1.00  0.00     0.203 C 
HETATM    6  N3  UNL     1      -3.871   1.719   0.940  1.00  0.00    -0.062 NA
HETATM    7  N4  UNL     1      -4.101  -0.651   0.384  1.00  0.00    -0.316 N 
ATOM      8  H4  UNL     1      -4.983  -1.141   0.532  1.00  0.00     0.170 HD
ENDROOT
BRANCH   7   9
HETATM    9  C3  UNL     1      -2.972  -1.280   0.574  1.00  0.00     0.108 A 
HETATM   10  C4  UNL     1      -1.793  -0.592   0.368  1.00  0.00     0.069 A 
HETATM   11  C5  UNL     1      -0.580  -1.210   0.556  1.00  0.00     0.022 A 
HETATM   12  C14 UNL     1      -0.590  -2.539   0.957  1.00  0.00     0.038 A 
HETATM   13  C15 UNL     1      -1.789  -3.177   1.148  1.00  0.00     0.091 A 
HETATM   14  N5  UNL     1      -2.980  -2.569   0.963  1.00  0.00    -0.352 N 
ATOM     15  H5  UNL     1      -3.856  -3.069   1.113  1.00  0.00     0.166 HD
BRANCH  11  16
HETATM   16  C6  UNL     1       0.681  -0.520   0.349  1.00  0.00    -0.061 C 
HETATM   17  C7  UNL     1       1.738   0.036   0.175  1.00  0.00    -0.061 C 
BRANCH  17  18
HETATM   18  C8  UNL     1       3.008   0.676  -0.022  1.00  0.00     0.018 A 
HETATM   19  C9  UNL     1       4.136   0.366   0.709  1.00  0.00     0.020 A 
HETATM   20  C10 UNL     1       5.344   0.981   0.515  1.00  0.00     0.001 A 
HETATM   21  C11 UNL     1       5.435   1.954  -0.454  1.00  0.00     0.000 A 
HETATM   22  C12 UNL     1       4.330   2.287  -1.200  1.00  0.00     0.001 A 
HETATM   23  C13 UNL     1       3.133   1.653  -0.983  1.00  0.00     0.020 A 
ENDBRANCH  17  18
ENDBRANCH  11  16
ENDBRANCH   7   9
TORSDOF 3
