REMARK  2 active torsions:
REMARK  status: ('A' for Active; 'I' for Inactive)
REMARK       I    between atoms: N1_3  and  C3_5 
REMARK       I    between atoms: C3_5  and  N3_11 
REMARK    1  A    between atoms: N2_6  and  C4_8 
REMARK       I    between atoms: N3_11  and  C6_13 
REMARK       I    between atoms: C6_13  and  N4_15 
REMARK    2  A    between atoms: N4_15  and  C7_17 
ROOT
HETATM    1  C1  UNL     1      -3.891   3.717   0.185  1.00  0.00     0.037 C 
HETATM    2  C2  UNL     1      -3.138   2.901  -0.285  1.00  0.00     0.015 C 
HETATM    3  N1  UNL     1      -2.263   1.942  -0.856  1.00  0.00    -0.149 N 
ATOM      4  H1  UNL     1      -1.856   2.076  -1.782  1.00  0.00     0.195 HD
HETATM    5  C3  UNL     1      -1.979   0.786  -0.079  1.00  0.00     0.694 C 
HETATM    6  N2  UNL     1      -2.927  -0.036   0.122  1.00  0.00    -0.185 N 
ATOM      7  H2  UNL     1      -3.829   0.199  -0.293  1.00  0.00     0.185 HD
HETATM    8  N3  UNL     1      -0.657   0.633   0.416  1.00  0.00    -0.140 N 
ATOM      9  H3  UNL     1      -0.444  -0.193   0.975  1.00  0.00     0.189 HD
HETATM   10  C6  UNL     1       0.377   1.559   0.178  1.00  0.00     0.340 C 
HETATM   11  O1  UNL     1       0.184   2.613  -0.509  1.00  0.00    -0.246 OA
HETATM   12  N4  UNL     1       1.664   1.308   0.721  1.00  0.00    -0.294 N 
ATOM     13  H4  UNL     1       1.982   1.860   1.518  1.00  0.00     0.172 HD
ENDROOT
BRANCH   6  14
HETATM   14  C4  UNL     1      -2.867  -1.225   0.849  1.00  0.00     0.090 C 
HETATM   15  C5  UNL     1      -3.121  -2.513   0.156  1.00  0.00     0.082 C 
HETATM   16  S1  UNL     1      -2.529  -1.288   2.444  1.00  0.00    -0.065 SA
ENDBRANCH   6  14
BRANCH  12  17
HETATM   17  C7  UNL     1       2.450   0.394   0.231  1.00  0.00     0.108 A 
HETATM   18  C8  UNL     1       3.686   0.161   0.761  1.00  0.00     0.049 A 
HETATM   19  C9  UNL     1       4.530  -0.805   0.252  1.00  0.00     0.005 A 
HETATM   20  C10 UNL     1       4.091  -1.541  -0.821  1.00  0.00     0.017 A 
HETATM   21  C11 UNL     1       2.844  -1.305  -1.356  1.00  0.00     0.089 A 
HETATM   22  N5  UNL     1       2.058  -0.344  -0.815  1.00  0.00    -0.352 N 
ATOM     23  H5  UNL     1       1.136  -0.177  -1.218  1.00  0.00     0.166 HD
ENDBRANCH  12  17
TORSDOF 2
