REMARK  5 active torsions:
REMARK  status: ('A' for Active; 'I' for Inactive)
REMARK    1  A    between atoms: C1_1  and  C2_2 
REMARK    2  A    between atoms: C1_1  and  C6_12 
REMARK    3  A    between atoms: C2_2  and  N1_3 
REMARK    4  A    between atoms: N1_3  and  C3_5 
REMARK    5  A    between atoms: C6_12  and  N4_13 
ROOT
HETATM    1  C2  UNL     1       0.722   0.336  -0.417  1.00  0.00     0.124 C 
ENDROOT
BRANCH   1   2
HETATM    2  C1  UNL     1      -0.561   0.963   0.139  1.00  0.00     0.050 C 
BRANCH   2   3
HETATM    3  C6  UNL     1      -1.706   0.399  -0.642  1.00  0.00     0.276 C 
BRANCH   3   4
HETATM    4  N4  UNL     1      -3.009   0.850  -0.214  1.00  0.00     0.115 N 
HETATM    5  C7  UNL     1      -3.958   0.317  -1.184  1.00  0.00     0.302 C 
HETATM    6  C8  UNL     1      -4.276  -1.036  -0.666  1.00  0.00     0.264 C 
HETATM    7  N5  UNL     1      -4.362  -0.794   0.760  1.00  0.00    -0.047 N 
HETATM    8  C9  UNL     1      -3.409   0.243   1.037  1.00  0.00     0.502 C 
ATOM      9  H52 UNL     1      -5.306  -0.578   1.082  1.00  0.00     0.279 HD
ATOM     10  H51 UNL     1      -4.229  -1.632   1.325  1.00  0.00     0.279 HD
ENDBRANCH   3   4
ENDBRANCH   2   3
ENDBRANCH   1   2
BRANCH   1  11
HETATM   11  N1  UNL     1       1.882   0.867   0.286  1.00  0.00    -0.362 N 
ATOM     12  H1  UNL     1       1.772   1.695   0.871  1.00  0.00     0.162 HD
BRANCH  11  13
HETATM   13  C3  UNL     1       3.161   0.263   0.178  1.00  0.00     0.171 C 
HETATM   14  N2  UNL     1       3.654  -0.340   1.242  1.00  0.00    -0.361 N 
HETATM   15  C4  UNL     1       4.951  -0.898   0.956  1.00  0.00     0.142 C 
ATOM     16  H2  UNL     1       3.182  -0.403   2.144  1.00  0.00     0.162 HD
HETATM   17  C5  UNL     1       5.394  -0.126  -0.267  1.00  0.00     0.142 C 
HETATM   18  N3  UNL     1       4.090   0.160  -0.879  1.00  0.00    -0.361 N 
ATOM     19  H3  UNL     1       3.894   0.264  -1.875  1.00  0.00     0.162 HD
ENDBRANCH  11  13
ENDBRANCH   1  11
TORSDOF 5
