REMARK  7 active torsions:
REMARK  status: ('A' for Active; 'I' for Inactive)
REMARK    1  A    between atoms: O1_2  and  C2_3 
REMARK    2  A    between atoms: C2_3  and  O2_4 
REMARK    3  A    between atoms: O2_4  and  C3_5 
REMARK    4  A    between atoms: C3_5  and  C4_6 
REMARK    5  A    between atoms: C4_6  and  N1_7 
REMARK    6  A    between atoms: N1_7  and  C5_9 
REMARK    7  A    between atoms: C8_14  and  N3_15 
ROOT
HETATM    1  C5  UNL     1      -1.737  -0.332   0.607  1.00  0.00     0.118 A 
HETATM    2  C6  UNL     1      -2.645  -1.238   1.116  1.00  0.00     0.066 A 
HETATM    3  C7  UNL     1      -3.988  -1.090   0.770  1.00  0.00     0.110 A 
HETATM    4  N2  UNL     1      -4.392  -0.087  -0.041  1.00  0.00    -0.202 N 
ATOM      5  H2  UNL     1      -5.378   0.008  -0.283  1.00  0.00     0.183 HD
HETATM    6  C8  UNL     1      -3.492   0.786  -0.528  1.00  0.00     0.677 A 
HETATM    7  N4  UNL     1      -2.188   0.633  -0.185  1.00  0.00    -0.177 N 
ATOM      8  H4  UNL     1      -1.513   1.300  -0.559  1.00  0.00     0.185 HD
ENDROOT
BRANCH   1   9
HETATM    9  N1  UNL     1      -0.508  -0.467   0.923  1.00  0.00    -0.374 N 
ATOM     10  H1  UNL     1      -0.260  -1.241   1.539  1.00  0.00     0.161 HD
BRANCH   9  11
HETATM   11  C4  UNL     1       0.555   0.397   0.472  1.00  0.00     0.147 C 
BRANCH  11  12
HETATM   12  C3  UNL     1       1.003  -0.135  -0.867  1.00  0.00     0.190 C 
BRANCH  12  13
HETATM   13  O2  UNL     1       2.016   0.589  -1.435  1.00  0.00    -0.365 OA
BRANCH  13  14
HETATM   14  C2  UNL     1       3.128   0.582  -0.612  1.00  0.00     0.337 C 
BRANCH  14  15
HETATM   15  O1  UNL     1       3.567  -0.727  -0.405  1.00  0.00    -0.372 OA
HETATM   16  C1  UNL     1       4.683  -0.769   0.417  1.00  0.00     0.204 C 
ENDBRANCH  14  15
ENDBRANCH  13  14
ENDBRANCH  12  13
ENDBRANCH  11  12
ENDBRANCH   9  11
ENDBRANCH   1   9
BRANCH   6  17
HETATM   17  N3  UNL     1      -3.856   1.759  -1.311  1.00  0.00    -0.234 N 
ATOM     18  H32 UNL     1      -4.836   1.874  -1.569  1.00  0.00     0.174 HD
ATOM     19  H31 UNL     1      -3.174   2.421  -1.680  1.00  0.00     0.174 HD
ENDBRANCH   6  17
TORSDOF 7
