REMARK  7 active torsions:
REMARK  status: ('A' for Active; 'I' for Inactive)
REMARK    1  A    between atoms: N1_2  and  C2_5 
REMARK    2  A    between atoms: C2_5  and  C3_6 
REMARK    3  A    between atoms: C3_6  and  C4_7 
REMARK    4  A    between atoms: C5_14  and  N5_15 
REMARK    5  A    between atoms: N5_15  and  C6_17 
REMARK    6  A    between atoms: C6_17  and  C7_18 
REMARK    7  A    between atoms: C7_18  and  N6_19 
ROOT
HETATM    1  C4  UNL     1       0.714  -1.392  -0.299  1.00  0.00     0.073 A 
HETATM    2  N2  UNL     1       1.216  -2.570   0.147  1.00  0.00    -0.287 N 
ATOM      3  H2  UNL     1       2.202  -2.832   0.139  1.00  0.00     0.188 HD
HETATM    4  N3  UNL     1       0.230  -3.324   0.593  1.00  0.00    -0.241 N 
ATOM      5  H3  UNL     1       0.331  -4.260   0.985  1.00  0.00     0.208 HD
HETATM    6  N4  UNL     1      -0.918  -2.667   0.450  1.00  0.00    -0.270 N 
ATOM      7  H4  UNL     1      -1.842  -3.011   0.711  1.00  0.00     0.190 HD
HETATM    8  C5  UNL     1      -0.647  -1.471  -0.099  1.00  0.00     0.141 A 
ENDROOT
BRANCH   8   9
HETATM    9  N5  UNL     1      -1.442  -0.509  -0.419  1.00  0.00    -0.372 N 
ATOM     10  H5  UNL     1      -1.026   0.326  -0.831  1.00  0.00     0.161 HD
BRANCH   9  11
HETATM   11  C6  UNL     1      -2.861  -0.518  -0.243  1.00  0.00     0.148 C 
BRANCH  11  12
HETATM   12  C7  UNL     1      -3.247   0.711   0.555  1.00  0.00     0.249 C 
BRANCH  12  13
HETATM   13  N6  UNL     1      -2.832   1.891  -0.173  1.00  0.00    -0.078 N 
ATOM     14  H63 UNL     1      -1.839   1.875  -0.407  1.00  0.00     0.274 HD
ATOM     15  H62 UNL     1      -3.202   1.912  -1.123  1.00  0.00     0.274 HD
ATOM     16  H61 UNL     1      -3.092   2.718   0.364  1.00  0.00     0.274 HD
ENDBRANCH  12  13
ENDBRANCH  11  12
ENDBRANCH   9  11
ENDBRANCH   8   9
BRANCH   1  17
HETATM   17  C3  UNL     1       1.512  -0.258  -0.880  1.00  0.00     0.090 C 
BRANCH  17  18
HETATM   18  C2  UNL     1       1.676   0.826   0.128  1.00  0.00     0.238 C 
BRANCH  18  19
HETATM   19  N1  UNL     1       2.427   1.957  -0.363  1.00  0.00    -0.079 N 
HETATM   20  C1  UNL     1       3.806   1.656  -0.612  1.00  0.00     0.267 C 
ATOM     21  H12 UNL     1       2.338   2.753   0.269  1.00  0.00     0.276 HD
ATOM     22  H11 UNL     1       1.986   2.352  -1.194  1.00  0.00     0.276 HD
ENDBRANCH  18  19
ENDBRANCH  17  18
ENDBRANCH   1  17
TORSDOF 7
