REMARK  7 active torsions:
REMARK  status: ('A' for Active; 'I' for Inactive)
REMARK    1  A    between atoms: C2_2  and  C3_3 
REMARK    2  A    between atoms: C3_3  and  N1_4 
REMARK    3  A    between atoms: C4_7  and  N3_8 
REMARK    4  A    between atoms: N3_8  and  C5_10 
REMARK    5  A    between atoms: C5_10  and  C6_11 
REMARK    6  A    between atoms: C6_11  and  C7_12 
REMARK    7  A    between atoms: C7_12  and  N4_13 
ROOT
HETATM    1  N1  UNL     1       2.121   0.028  -0.376  1.00  0.00    -0.106 N 
HETATM    2  N2  UNL     1       0.863  -0.405  -0.227  1.00  0.00    -0.115 N 
ATOM      3  H2  UNL     1       0.588  -1.374  -0.064  1.00  0.00     0.206 HD
HETATM    4  C4  UNL     1       0.021   0.632  -0.326  1.00  0.00     0.707 A 
HETATM    5  N5  UNL     1       0.807   1.708  -0.539  1.00  0.00    -0.020 N 
ATOM      6  H5  UNL     1       0.465   2.662  -0.659  1.00  0.00     0.203 HD
HETATM    7  C8  UNL     1       2.103   1.350  -0.572  1.00  0.00     0.708 A 
HETATM    8  N6  UNL     1       3.154   2.075  -0.751  1.00  0.00    -0.233 N 
ATOM      9  H61 UNL     1       3.140   3.084  -0.901  1.00  0.00     0.174 HD
ATOM     10  H62 UNL     1       4.137   1.803  -0.776  1.00  0.00     0.174 HD
ENDROOT
BRANCH   4  11
HETATM   11  N3  UNL     1      -1.262   0.577  -0.231  1.00  0.00    -0.224 N 
ATOM     12  H3  UNL     1      -1.823   1.424  -0.319  1.00  0.00     0.177 HD
BRANCH  11  13
HETATM   13  C5  UNL     1      -1.892  -0.692   0.001  1.00  0.00     0.140 C 
BRANCH  13  14
HETATM   14  C6  UNL     1      -3.310  -0.542   0.511  1.00  0.00     0.047 C 
BRANCH  14  15
HETATM   15  C7  UNL     1      -4.159   0.205  -0.478  1.00  0.00     0.231 C 
BRANCH  15  16
HETATM   16  N4  UNL     1      -5.500   0.302   0.094  1.00  0.00    -0.079 N 
ATOM     17  H43 UNL     1      -5.891  -0.604   0.353  1.00  0.00     0.274 HD
ATOM     18  H42 UNL     1      -5.509   0.719   1.025  1.00  0.00     0.274 HD
ATOM     19  H41 UNL     1      -6.076   0.809  -0.577  1.00  0.00     0.274 HD
ENDBRANCH  15  16
ENDBRANCH  14  15
ENDBRANCH  13  14
ENDBRANCH  11  13
ENDBRANCH   4  11
BRANCH   1  20
HETATM   20  C3  UNL     1       3.302  -0.838  -0.326  1.00  0.00     0.195 C 
BRANCH  20  21
HETATM   21  C2  UNL     1       3.736  -0.878   1.089  1.00  0.00    -0.015 C 
HETATM   22  C1  UNL     1       4.949  -0.451   1.390  1.00  0.00     0.008 C 
ENDBRANCH  20  21
ENDBRANCH   1  20
TORSDOF 7
