REMARK  0 active torsions:
REMARK  status: ('A' for Active; 'I' for Inactive)
ROOT
HETATM    1  C1  UNL     1      -0.669   1.324   0.449  1.00  0.00    -0.030 C 
HETATM    2  C2  UNL     1      -0.014   1.299  -0.701  1.00  0.00    -0.030 C 
HETATM    3  C3  UNL     1       0.840   0.164  -1.130  1.00  0.00     0.026 C 
HETATM    4  C4  UNL     1       0.707  -1.076  -0.304  1.00  0.00     0.004 C 
HETATM    5  C5  UNL     1      -0.641  -1.050   0.384  1.00  0.00     0.004 C 
HETATM    6  C6  UNL     1      -0.529   0.145   1.343  1.00  0.00     0.026 C 
ENDROOT
TORSDOF 0
