REMARK  5 active torsions:
REMARK  status: ('A' for Active; 'I' for Inactive)
REMARK    1  A    between atoms: C2_2  and  C3_3 
REMARK    2  A    between atoms: C3_3  and  C4_4 
REMARK    3  A    between atoms: C4_4  and  O1_5 
REMARK    4  A    between atoms: C4_4  and  C7_8 
REMARK    5  A    between atoms: O1_5  and  C5_6 
ROOT
HETATM    1  C4  UNL     1       0.157   0.379   0.297  1.00  0.00     0.120 C 
ENDROOT
BRANCH   1   2
HETATM    2  C3  UNL     1       0.066   1.506   0.981  1.00  0.00    -0.092 C 
BRANCH   2   3
HETATM    3  C2  UNL     1      -0.027   2.662   1.682  1.00  0.00     0.048 C 
HETATM    4  C1  UNL     1       0.904   2.869   2.667  1.00  0.00     0.020 C 
ENDBRANCH   2   3
ENDBRANCH   1   2
BRANCH   1   5
HETATM    5  O1  UNL     1       1.166  -0.454   0.680  1.00  0.00    -0.343 OA
BRANCH   5   6
HETATM    6  C5  UNL     1       1.784  -1.613   0.666  1.00  0.00     0.172 C 
HETATM    7  C6  UNL     1       3.048  -1.606   1.570  1.00  0.00     0.034 C 
ENDBRANCH   5   6
ENDBRANCH   1   5
BRANCH   1   8
HETATM    8  C7  UNL     1      -0.732   0.004  -0.803  1.00  0.00    -0.020 C 
HETATM    9  C8  UNL     1      -0.558  -1.142  -1.496  1.00  0.00    -0.016 C 
HETATM   10  C9  UNL     1      -1.589  -1.263  -2.561  1.00  0.00     0.028 C 
HETATM   11  C10 UNL     1      -2.730  -0.519  -1.915  1.00  0.00     0.009 C 
HETATM   12  C11 UNL     1      -1.928   0.671  -1.361  1.00  0.00     0.042 C 
ENDBRANCH   1   8
TORSDOF 5
