REMARK  5 active torsions:
REMARK  status: ('A' for Active; 'I' for Inactive)
REMARK    1  A    between atoms: C2_2  and  C4_4 
REMARK    2  A    between atoms: C4_4  and  C7_7 
REMARK    3  A    between atoms: C7_7  and  C8_8 
REMARK    4  A    between atoms: C8_8  and  C9_9 
REMARK    5  A    between atoms: C9_9  and  C10_11 
ROOT
HETATM    1  C4  UNL     1      -1.115  -0.597   0.266  1.00  0.00    -0.057 C 
HETATM    2  C5  UNL     1      -1.826  -0.004   1.154  1.00  0.00    -0.023 C 
HETATM    3  C6  UNL     1      -3.047  -0.418   1.853  1.00  0.00     0.036 C 
ENDROOT
BRANCH   1   4
HETATM    4  C2  UNL     1      -1.376  -1.895  -0.288  1.00  0.00    -0.065 C 
HETATM    5  C1  UNL     1      -0.525  -2.385  -1.216  1.00  0.00     0.019 C 
HETATM    6  C3  UNL     1      -2.514  -2.775   0.047  1.00  0.00     0.048 C 
ENDBRANCH   1   4
BRANCH   1   7
HETATM    7  C7  UNL     1       0.124   0.089  -0.258  1.00  0.00     0.046 C 
BRANCH   7   8
HETATM    8  C8  UNL     1       0.376   1.415   0.372  1.00  0.00     0.082 C 
BRANCH   8   9
HETATM    9  C9  UNL     1       1.619   1.965  -0.236  1.00  0.00     0.126 C 
HETATM   10  O1  UNL     1       1.556   2.785  -1.128  1.00  0.00    -0.298 OA
BRANCH   9  11
HETATM   11  C10 UNL     1       2.976   1.539   0.218  1.00  0.00     0.074 C 
HETATM   12  C11 UNL     1       4.061   2.301  -0.499  1.00  0.00     0.013 C 
ENDBRANCH   9  11
ENDBRANCH   8   9
ENDBRANCH   7   8
ENDBRANCH   1   7
TORSDOF 5
