REMARK  6 active torsions:
REMARK  status: ('A' for Active; 'I' for Inactive)
REMARK    1  A    between atoms: C2_2  and  C3_3 
REMARK    2  A    between atoms: C3_3  and  O1_6 
REMARK    3  A    between atoms: O1_6  and  C6_7 
REMARK    4  A    between atoms: C6_7  and  C7_8 
REMARK    5  A    between atoms: C7_8  and  C8_9 
REMARK    6  A    between atoms: C8_9  and  C9_10 
ROOT
HETATM    1  O1  UNL     1       1.383   0.146   0.830  1.00  0.00    -0.351 OA
ENDROOT
BRANCH   1   2
HETATM    2  C3  UNL     1       2.564  -0.081   0.184  1.00  0.00     0.063 C 
HETATM    3  C4  UNL     1       3.097   0.825  -0.620  1.00  0.00     0.006 C 
HETATM    4  C5  UNL     1       4.366   0.631  -1.339  1.00  0.00     0.038 C 
BRANCH   2   5
HETATM    5  C2  UNL     1       3.294  -1.344   0.355  1.00  0.00     0.026 C 
HETATM    6  C1  UNL     1       2.782  -2.263   1.151  1.00  0.00     0.014 C 
ENDBRANCH   2   5
ENDBRANCH   1   2
BRANCH   1   7
HETATM    7  C6  UNL     1       0.122  -0.320   0.357  1.00  0.00     0.175 C 
BRANCH   7   8
HETATM    8  C7  UNL     1      -0.912   0.138   1.349  1.00  0.00     0.027 C 
BRANCH   8   9
HETATM    9  C8  UNL     1      -2.307  -0.286   0.977  1.00  0.00     0.006 C 
BRANCH   9  10
HETATM   10  C9  UNL     1      -2.744   0.261  -0.361  1.00  0.00    -0.023 C 
HETATM   11  C10 UNL     1      -2.733   1.769  -0.384  1.00  0.00     0.009 C 
HETATM   12  C11 UNL     1      -4.177  -0.191  -0.570  1.00  0.00     0.009 C 
ENDBRANCH   9  10
ENDBRANCH   8   9
ENDBRANCH   7   8
ENDBRANCH   1   7
TORSDOF 6
