REMARK  16 active torsions:
REMARK  status: ('A' for Active; 'I' for Inactive)
REMARK    1  A    between atoms: C1_4  and  N2_5 
REMARK    2  A    between atoms: C1_4  and  C21_51 
REMARK    3  A    between atoms: N2_5  and  C2_7 
REMARK    4  A    between atoms: C4_9  and  N3_10 
REMARK    5  A    between atoms: C5_14  and  O1_15 
REMARK    6  A    between atoms: O1_15  and  C6_16 
REMARK    7  A    between atoms: C8_18  and  N4_19 
REMARK    8  A    between atoms: C10_24  and  N5_25 
REMARK    9  A    between atoms: C11_29  and  O2_30 
REMARK   10  A    between atoms: O2_30  and  C12_31 
REMARK   11  A    between atoms: C14_33  and  C15_34 
REMARK   12  A    between atoms: C15_34  and  N6_35 
REMARK   13  A    between atoms: C18_41  and  N7_42 
REMARK   14  A    between atoms: C19_47  and  C20_48 
REMARK   15  A    between atoms: C20_48  and  O4_49 
REMARK   16  A    between atoms: C24_54  and  O5_55 
ROOT
HETATM    1  C6  UNL     1      -0.228  -1.551   1.418  1.00  0.00     0.157 C 
HETATM    2  C7  UNL     1       0.073  -1.156   2.858  1.00  0.00     0.067 C 
HETATM    3  C8  UNL     1      -0.507  -2.110   3.851  1.00  0.00     0.188 C 
HETATM    4  C9  UNL     1      -1.925  -2.532   3.551  1.00  0.00     0.068 C 
HETATM    5  C10 UNL     1      -2.121  -2.866   2.100  1.00  0.00     0.216 C 
HETATM    6  C11 UNL     1      -1.703  -1.745   1.172  1.00  0.00     0.181 C 
ENDROOT
BRANCH   1   7
HETATM    7  O1  UNL     1       0.426  -0.712   0.563  1.00  0.00    -0.351 OA
BRANCH   7   8
HETATM    8  C5  UNL     1       1.477  -1.341  -0.160  1.00  0.00     0.291 C 
HETATM    9  C4  UNL     1       2.804  -0.865   0.338  1.00  0.00     0.240 C 
HETATM   10  C3  UNL     1       3.783  -0.866  -0.822  1.00  0.00     0.065 C 
HETATM   11  C2  UNL     1       3.256   0.146  -1.848  1.00  0.00     0.116 C 
HETATM   12  C19 UNL     1       1.824  -0.120  -2.144  1.00  0.00     0.170 C 
HETATM   13  O3  UNL     1       1.279  -1.167  -1.466  1.00  0.00    -0.350 OA
BRANCH   9  14
HETATM   14  N3  UNL     1       2.685   0.492   0.838  1.00  0.00    -0.070 N 
ATOM     15  H33 UNL     1       3.587   0.898   1.086  1.00  0.00     0.274 HD
ATOM     16  H32 UNL     1       2.429   1.157   0.108  1.00  0.00     0.274 HD
ATOM     17  H31 UNL     1       2.027   0.493   1.617  1.00  0.00     0.274 HD
ENDBRANCH   9  14
BRANCH  11  18
HETATM   18  N2  UNL     1       4.149   0.154  -2.944  1.00  0.00    -0.367 N 
ATOM     19  H2  UNL     1       3.809  -0.067  -3.880  1.00  0.00     0.161 HD
BRANCH  18  20
HETATM   20  C1  UNL     1       5.518   0.469  -2.744  1.00  0.00     0.129 C 
HETATM   21  N1  UNL     1       6.412  -0.448  -2.546  1.00  0.00    -0.383 N 
ATOM     22  H12 UNL     1       6.121  -1.426  -2.534  1.00  0.00     0.157 HD
ATOM     23  H11 UNL     1       7.396  -0.222  -2.402  1.00  0.00     0.157 HD
BRANCH  20  24
HETATM   24  C21 UNL     1       5.934   1.869  -2.761  1.00  0.00     0.121 A 
HETATM   25  C22 UNL     1       5.074   2.923  -2.963  1.00  0.00     0.046 A 
HETATM   26  C23 UNL     1       5.839   4.066  -2.909  1.00  0.00     0.067 A 
HETATM   27  C24 UNL     1       7.121   3.608  -2.675  1.00  0.00     0.183 A 
HETATM   28  O6  UNL     1       7.166   2.313  -2.590  1.00  0.00    -0.284 OA
BRANCH  27  29
HETATM   29  O5  UNL     1       8.252   4.413  -2.542  1.00  0.00    -0.341 OA
ATOM     30  H5  UNL     1       9.134   4.098  -2.381  1.00  0.00     0.220 HD
ENDBRANCH  27  29
ENDBRANCH  20  24
ENDBRANCH  18  20
ENDBRANCH  11  18
BRANCH  12  31
HETATM   31  C20 UNL     1       1.457  -0.123  -3.617  1.00  0.00     0.198 C 
BRANCH  31  32
HETATM   32  O4  UNL     1       1.827  -1.268  -4.289  1.00  0.00    -0.398 OA
ATOM     33  H4  UNL     1       1.597  -1.270  -5.211  1.00  0.00     0.209 HD
ENDBRANCH  31  32
ENDBRANCH  12  31
ENDBRANCH   7   8
ENDBRANCH   1   7
BRANCH   6  34
HETATM   34  O2  UNL     1      -2.461  -0.656   1.105  1.00  0.00    -0.374 OA
BRANCH  34  35
HETATM   35  C12 UNL     1      -3.183  -0.308   0.035  1.00  0.00     0.152 C 
HETATM   36  C13 UNL     1      -4.644  -0.159   0.457  1.00  0.00     0.040 C 
HETATM   37  C14 UNL     1      -4.807   0.855   1.558  1.00  0.00     0.013 C 
HETATM   38  C16 UNL     1      -4.165   2.176   1.238  1.00  0.00     0.008 C 
HETATM   39  C17 UNL     1      -2.752   1.996   0.711  1.00  0.00     0.036 C 
HETATM   40  C18 UNL     1      -2.843   1.110  -0.482  1.00  0.00     0.212 C 
BRANCH  37  41
HETATM   41  C15 UNL     1      -6.293   1.100   1.722  1.00  0.00     0.234 C 
BRANCH  41  42
HETATM   42  N6  UNL     1      -6.614   2.053   2.747  1.00  0.00    -0.079 N 
ATOM     43  H63 UNL     1      -6.195   1.779   3.636  1.00  0.00     0.274 HD
ATOM     44  H62 UNL     1      -6.121   2.931   2.588  1.00  0.00     0.274 HD
ATOM     45  H61 UNL     1      -7.614   2.218   2.857  1.00  0.00     0.274 HD
ENDBRANCH  41  42
ENDBRANCH  37  41
BRANCH  40  46
HETATM   46  N7  UNL     1      -3.971   1.506  -1.303  1.00  0.00    -0.073 N 
ATOM     47  H73 UNL     1      -4.191   0.841  -2.045  1.00  0.00     0.274 HD
ATOM     48  H72 UNL     1      -4.868   1.450  -0.821  1.00  0.00     0.274 HD
ATOM     49  H71 UNL     1      -3.747   2.441  -1.644  1.00  0.00     0.274 HD
ENDBRANCH  40  46
ENDBRANCH  34  35
ENDBRANCH   6  34
BRANCH   3  50
HETATM   50  N4  UNL     1       0.335  -3.294   3.946  1.00  0.00    -0.075 N 
ATOM     51  H43 UNL     1       0.486  -3.731   3.037  1.00  0.00     0.274 HD
ATOM     52  H42 UNL     1       1.304  -3.059   4.160  1.00  0.00     0.274 HD
ATOM     53  H41 UNL     1      -0.061  -3.945   4.624  1.00  0.00     0.274 HD
ENDBRANCH   3  50
BRANCH   5  54
HETATM   54  N5  UNL     1      -3.381  -3.451   1.844  1.00  0.00    -0.072 N 
ATOM     55  H53 UNL     1      -3.531  -4.270   2.433  1.00  0.00     0.274 HD
ATOM     56  H52 UNL     1      -4.137  -2.860   2.190  1.00  0.00     0.274 HD
ATOM     57  H51 UNL     1      -3.514  -3.678   0.858  1.00  0.00     0.274 HD
ENDBRANCH   5  54
TORSDOF 16
