REMARK  10 active torsions:
REMARK  status: ('A' for Active; 'I' for Inactive)
REMARK    1  A    between atoms: C2_2  and  N1_3 
REMARK    2  A    between atoms: C2_2  and  C3_7 
REMARK    3  A    between atoms: C3_7  and  C4_9 
REMARK    4  A    between atoms: C4_9  and  O2_10 
REMARK    5  A    between atoms: C4_9  and  O3_12 
REMARK    6  A    between atoms: O3_12  and  N2_13 
REMARK    7  A    between atoms: N2_13  and  C5_15 
REMARK    8  A    between atoms: N6_24  and  C7_25 
REMARK    9  A    between atoms: C9_31  and  O5_32 
REMARK   10  A    between atoms: C10_34  and  O6_35 
ROOT
HETATM    1  C5  UNL     1      -1.690  -0.502   1.186  1.00  0.00     0.736 A 
HETATM    2  N3  UNL     1      -3.057  -0.339   1.356  1.00  0.00    -0.018 N 
ATOM      3  H3  UNL     1      -3.534  -0.160   2.239  1.00  0.00     0.203 HD
HETATM    4  C6  UNL     1      -3.638  -0.458   0.161  1.00  0.00     0.705 A 
HETATM    5  N4  UNL     1      -4.915  -0.365  -0.078  1.00  0.00    -0.233 N 
ATOM      6  H41 UNL     1      -5.359  -0.456  -0.992  1.00  0.00     0.174 HD
ATOM      7  H42 UNL     1      -5.623  -0.188   0.634  1.00  0.00     0.174 HD
HETATM    8  N5  UNL     1      -2.712  -0.690  -0.770  1.00  0.00    -0.113 N 
ATOM      9  H5  UNL     1      -2.866  -0.823  -1.769  1.00  0.00     0.206 HD
HETATM   10  N6  UNL     1      -1.539  -0.712  -0.125  1.00  0.00    -0.074 N 
ENDROOT
BRANCH   1  11
HETATM   11  N2  UNL     1      -0.870  -0.441   2.156  1.00  0.00    -0.091 N 
ATOM     12  H2  UNL     1      -1.318  -0.263   3.055  1.00  0.00     0.213 HD
BRANCH  11  13
HETATM   13  O3  UNL     1       0.450  -0.561   2.240  1.00  0.00    -0.225 OA
BRANCH  13  14
HETATM   14  C4  UNL     1       1.246   0.160   3.198  1.00  0.00     0.359 C 
BRANCH  14  15
HETATM   15  C3  UNL     1       2.458   0.646   2.533  1.00  0.00     0.213 C 
HETATM   16  O1  UNL     1       3.548   0.304   2.947  1.00  0.00    -0.290 OA
BRANCH  15  17
HETATM   17  C2  UNL     1       2.367   1.546   1.363  1.00  0.00     0.253 C 
HETATM   18  C1  UNL     1       1.703   2.874   1.666  1.00  0.00     0.048 C 
BRANCH  17  19
HETATM   19  N1  UNL     1       3.725   1.863   0.911  1.00  0.00    -0.069 N 
ATOM     20  H13 UNL     1       3.750   2.517   0.129  1.00  0.00     0.275 HD
ATOM     21  H12 UNL     1       4.249   2.438   1.571  1.00  0.00     0.275 HD
ATOM     22  H11 UNL     1       4.172   0.969   0.707  1.00  0.00     0.275 HD
ENDBRANCH  17  19
ENDBRANCH  15  17
ENDBRANCH  14  15
BRANCH  14  23
HETATM   23  O2  UNL     1       1.597  -0.721   4.246  1.00  0.00    -0.363 OA
ATOM     24  H2  UNL     1       0.811  -1.036   4.677  1.00  0.00     0.213 HD
ENDBRANCH  14  23
ENDBRANCH  13  14
ENDBRANCH  11  13
ENDBRANCH   1  11
BRANCH  10  25
HETATM   25  C7  UNL     1      -0.272  -0.933  -0.819  1.00  0.00     0.305 C 
HETATM   26  O4  UNL     1       0.013   0.275  -1.534  1.00  0.00    -0.293 OA
HETATM   27  C8  UNL     1      -0.479   0.468  -2.829  1.00  0.00     0.231 C 
HETATM   28  N7  UNL     1      -1.092   1.644  -3.291  1.00  0.00    -0.056 NA
HETATM   29  N8  UNL     1      -0.336  -0.545  -3.635  1.00  0.00    -0.330 N 
HETATM   30  C9  UNL     1       0.304  -1.721  -3.088  1.00  0.00     0.253 C 
ATOM     31  H8  UNL     1      -0.659  -0.511  -4.602  1.00  0.00     0.165 HD
HETATM   32  C10 UNL     1      -0.374  -2.102  -1.781  1.00  0.00     0.218 C 
BRANCH  30  33
HETATM   33  O5  UNL     1       0.314  -2.714  -4.026  1.00  0.00    -0.374 OA
ATOM     34  H5  UNL     1       0.734  -3.486  -3.667  1.00  0.00     0.212 HD
ENDBRANCH  30  33
BRANCH  32  35
HETATM   35  O6  UNL     1       0.275  -3.241  -1.312  1.00  0.00    -0.387 OA
ATOM     36  H6  UNL     1       0.211  -3.973  -1.914  1.00  0.00     0.210 HD
ENDBRANCH  32  35
ENDBRANCH  10  25
TORSDOF 10
