REMARK  7 active torsions:
REMARK  status: ('A' for Active; 'I' for Inactive)
REMARK    1  A    between atoms: C3_5  and  C4_6 
REMARK       I    between atoms: C4_6  and  N3_8 
REMARK    2  A    between atoms: N3_8  and  N4_10 
REMARK    3  A    between atoms: N4_10  and  N5_11 
REMARK    4  A    between atoms: N5_11  and  C5_12 
REMARK    5  A    between atoms: C7_15  and  O3_16 
REMARK    6  A    between atoms: C8_18  and  O4_19 
REMARK    7  A    between atoms: C9_21  and  O5_22 
ROOT
HETATM    1  C4  UNL     1      -1.277   0.219   0.832  1.00  0.00     0.277 C 
HETATM    2  O1  UNL     1      -1.020  -0.879   1.429  1.00  0.00    -0.266 OA
HETATM    3  N3  UNL     1      -0.281   1.196   0.864  1.00  0.00    -0.253 N 
ATOM      4  H3  UNL     1      -0.439   2.092   0.403  1.00  0.00     0.187 HD
ENDROOT
BRANCH   3   5
HETATM    5  N4  UNL     1       0.949   0.957   1.531  1.00  0.00    -0.028 NA
BRANCH   5   6
HETATM    6  N5  UNL     1       1.697  -0.005   0.866  1.00  0.00    -0.111 NA
BRANCH   6   7
HETATM    7  C5  UNL     1       3.096   0.223   1.051  1.00  0.00     0.200 C 
HETATM    8  C6  UNL     1       3.446   1.568   0.512  1.00  0.00     0.181 C 
HETATM    9  O2  UNL     1       2.898   2.593   0.863  1.00  0.00    -0.293 OA
HETATM   10  C7  UNL     1       4.544   1.353  -0.478  1.00  0.00     0.220 C 
HETATM   11  C8  UNL     1       4.153  -0.021  -1.029  1.00  0.00     0.185 C 
HETATM   12  C9  UNL     1       3.892  -0.769   0.268  1.00  0.00     0.177 C 
BRANCH  10  13
HETATM   13  O3  UNL     1       5.767   1.297   0.185  1.00  0.00    -0.385 OA
ATOM     14  H3  UNL     1       6.465   1.160  -0.445  1.00  0.00     0.210 HD
ENDBRANCH  10  13
BRANCH  11  15
HETATM   15  O4  UNL     1       2.960   0.147  -1.721  1.00  0.00    -0.390 OA
ATOM     16  H4  UNL     1       2.717  -0.706  -2.063  1.00  0.00     0.210 HD
ENDBRANCH  11  15
BRANCH  12  17
HETATM   17  O5  UNL     1       5.129  -0.917   0.934  1.00  0.00    -0.391 OA
ATOM     18  H5  UNL     1       5.635  -1.548   0.436  1.00  0.00     0.210 HD
ENDBRANCH  12  17
ENDBRANCH   6   7
ENDBRANCH   5   6
ENDBRANCH   3   5
BRANCH   1  19
HETATM   19  C3  UNL     1      -2.561   0.322   0.197  1.00  0.00     0.142 A 
HETATM   20  C2  UNL     1      -3.476  -0.749   0.242  1.00  0.00     0.143 A 
HETATM   21  N1  UNL     1      -4.678  -0.728  -0.318  1.00  0.00    -0.291 N 
HETATM   22  N2  UNL     1      -3.079  -1.926   0.933  1.00  0.00    -0.081 NA
HETATM   23  C1  UNL     1      -5.581  -1.888  -0.227  1.00  0.00     0.162 C 
HETATM   24  C11 UNL     1      -5.069   0.379  -0.977  1.00  0.00     0.330 A 
HETATM   25  N6  UNL     1      -4.255   1.445  -1.066  1.00  0.00    -0.274 N 
HETATM   26  O7  UNL     1      -6.222   0.376  -1.504  1.00  0.00    -0.246 OA
HETATM   27  C10 UNL     1      -3.017   1.418  -0.488  1.00  0.00     0.268 A 
ATOM     28  H6  UNL     1      -4.563   2.278  -1.567  1.00  0.00     0.173 HD
HETATM   29  O6  UNL     1      -2.334   2.458  -0.626  1.00  0.00    -0.267 OA
ENDBRANCH   1  19
TORSDOF 7
