REMARK  9 active torsions:
REMARK  status: ('A' for Active; 'I' for Inactive)
REMARK    1  A    between atoms: C2_2  and  N1_3 
REMARK    2  A    between atoms: C2_2  and  C9_28 
REMARK    3  A    between atoms: C3_5  and  O1_6 
REMARK    4  A    between atoms: C3_5  and  C4_8 
REMARK    5  A    between atoms: C4_8  and  N2_9 
REMARK    6  A    between atoms: C4_8  and  C5_13 
REMARK    7  A    between atoms: N2_9  and  N3_10 
REMARK    8  A    between atoms: C6_16  and  N5_17 
REMARK    9  A    between atoms: C10_31  and  O4_32 
ROOT
HETATM    1  C4  UNL     1      -0.665  -0.209  -1.806  1.00  0.00     0.228 C 
ENDROOT
BRANCH   1   2
HETATM    2  C3  UNL     1       0.471   0.619  -1.383  1.00  0.00     0.143 C 
HETATM    3  N1  UNL     1       1.378   0.454  -0.378  1.00  0.00    -0.343 N 
ATOM      4  H1  UNL     1       2.284   0.734  -0.752  1.00  0.00     0.167 HD
BRANCH   3   5
HETATM    5  C2  UNL     1       1.566   0.114   0.777  1.00  0.00     0.030 C 
HETATM    6  C1  UNL     1       0.548  -0.371   1.726  1.00  0.00     0.068 C 
BRANCH   5   7
HETATM    7  C9  UNL     1       2.961   0.182   1.320  1.00  0.00     0.280 C 
HETATM    8  N8  UNL     1       3.405  -1.132   1.764  1.00  0.00    -0.105 NA
HETATM    9  N9  UNL     1       4.773  -0.888   1.964  1.00  0.00    -0.086 NA
HETATM   10  C10 UNL     1       5.105   0.039   0.898  1.00  0.00     0.376 C 
HETATM   11  O5  UNL     1       3.896   0.480   0.359  1.00  0.00    -0.318 OA
BRANCH  10  12
HETATM   12  O4  UNL     1       5.868  -0.666  -0.027  1.00  0.00    -0.357 OA
ATOM     13  H4  UNL     1       6.085  -0.059  -0.725  1.00  0.00     0.214 HD
ENDBRANCH  10  12
ENDBRANCH   5   7
ENDBRANCH   3   5
BRANCH   2  14
HETATM   14  O1  UNL     1       0.631   1.694  -2.103  1.00  0.00    -0.348 OA
ATOM     15  H1  UNL     1      -0.001   1.809  -2.803  1.00  0.00     0.219 HD
ENDBRANCH   2  14
ENDBRANCH   1   2
BRANCH   1  16
HETATM   16  N2  UNL     1      -1.260   0.304  -3.056  1.00  0.00    -0.129 NA
BRANCH  16  17
HETATM   17  N3  UNL     1      -1.723   1.592  -2.859  1.00  0.00    -0.347 N 
ATOM     18  H32 UNL     1      -1.656   2.098  -1.976  1.00  0.00     0.172 HD
ATOM     19  H31 UNL     1      -2.134   1.946  -3.723  1.00  0.00     0.172 HD
ENDBRANCH  16  17
ENDBRANCH   1  16
BRANCH   1  20
HETATM   20  C5  UNL     1      -1.812  -0.202  -0.856  1.00  0.00     0.123 C 
HETATM   21  N4  UNL     1      -2.228   0.992  -0.372  1.00  0.00    -0.188 N 
HETATM   22  C6  UNL     1      -3.280   1.201   0.429  1.00  0.00     0.680 C 
ATOM     23  H4  UNL     1      -1.687   1.813  -0.644  1.00  0.00     0.184 HD
HETATM   24  N6  UNL     1      -4.335   0.377   0.578  1.00  0.00    -0.141 N 
HETATM   25  C7  UNL     1      -4.487  -0.921   0.295  1.00  0.00     0.341 C 
ATOM     26  H6  UNL     1      -5.163   0.821   0.976  1.00  0.00     0.189 HD
HETATM   27  O2  UNL     1      -5.637  -1.428   0.406  1.00  0.00    -0.246 OA
HETATM   28  N7  UNL     1      -3.543  -1.801  -0.109  1.00  0.00    -0.273 N 
HETATM   29  C8  UNL     1      -2.331  -1.451  -0.599  1.00  0.00     0.274 C 
ATOM     30  H7  UNL     1      -3.759  -2.795  -0.040  1.00  0.00     0.173 HD
HETATM   31  O3  UNL     1      -1.583  -2.429  -0.850  1.00  0.00    -0.266 OA
BRANCH  22  32
HETATM   32  N5  UNL     1      -3.292   2.305   1.134  1.00  0.00    -0.234 N 
ATOM     33  H52 UNL     1      -2.493   2.929   1.021  1.00  0.00     0.174 HD
ATOM     34  H51 UNL     1      -4.094   2.464   1.744  1.00  0.00     0.174 HD
ENDBRANCH  22  32
ENDBRANCH   1  20
TORSDOF 9
