REMARK  5 active torsions:
REMARK  status: ('A' for Active; 'I' for Inactive)
REMARK    1  A    between atoms: C2_2  and  C3_3 
REMARK    2  A    between atoms: C8_8  and  N1_9 
REMARK    3  A    between atoms: N1_9  and  C9_11 
REMARK    4  A    between atoms: C9_11  and  C10_12 
REMARK    5  A    between atoms: C9_11  and  C16_18 
ROOT
HETATM    1  C9  UNL     1      -0.806   0.593   0.646  1.00  0.00     0.148 C 
ENDROOT
BRANCH   1   2
HETATM    2  N1  UNL     1       0.502   0.494   0.087  1.00  0.00    -0.377 N 
ATOM      3  H1  UNL     1       0.650   0.972  -0.802  1.00  0.00     0.160 HD
BRANCH   2   4
HETATM    4  C8  UNL     1       1.618  -0.190   0.623  1.00  0.00     0.035 A 
HETATM    5  C3  UNL     1       2.822  -0.257  -0.091  1.00  0.00    -0.032 A 
HETATM    6  C4  UNL     1       3.883  -0.914   0.469  1.00  0.00     0.009 A 
HETATM    7  C5  UNL     1       3.796  -1.510   1.714  1.00  0.00     0.001 A 
HETATM    8  C6  UNL     1       2.602  -1.434   2.405  1.00  0.00     0.002 A 
HETATM    9  C7  UNL     1       1.504  -0.773   1.865  1.00  0.00     0.029 A 
BRANCH   5  10
HETATM   10  C2  UNL     1       2.858   0.394  -1.411  1.00  0.00     0.036 C 
HETATM   11  C1  UNL     1       4.169   0.279  -2.106  1.00  0.00     0.010 C 
ENDBRANCH   5  10
ENDBRANCH   2   4
ENDBRANCH   1   2
BRANCH   1  12
HETATM   12  C10 UNL     1      -1.646   1.551  -0.170  1.00  0.00    -0.031 A 
HETATM   13  C11 UNL     1      -2.434   2.505   0.424  1.00  0.00     0.009 A 
HETATM   14  C12 UNL     1      -3.194   3.372  -0.322  1.00  0.00     0.001 A 
HETATM   15  C13 UNL     1      -3.186   3.308  -1.701  1.00  0.00     0.000 A 
HETATM   16  C14 UNL     1      -2.388   2.344  -2.296  1.00  0.00     0.001 A 
HETATM   17  C15 UNL     1      -1.632   1.481  -1.541  1.00  0.00     0.009 A 
ENDBRANCH   1  12
BRANCH   1  18
HETATM   18  C16 UNL     1      -1.527  -0.708   0.754  1.00  0.00    -0.031 A 
HETATM   19  C17 UNL     1      -1.421  -1.670  -0.251  1.00  0.00     0.009 A 
HETATM   20  C18 UNL     1      -2.086  -2.852  -0.183  1.00  0.00     0.001 A 
HETATM   21  C19 UNL     1      -2.903  -3.164   0.882  1.00  0.00     0.000 A 
HETATM   22  C20 UNL     1      -3.032  -2.237   1.894  1.00  0.00     0.001 A 
HETATM   23  C21 UNL     1      -2.347  -1.034   1.812  1.00  0.00     0.009 A 
ENDBRANCH   1  18
TORSDOF 5
