REMARK  5 active torsions:
REMARK  status: ('A' for Active; 'I' for Inactive)
REMARK    1  A    between atoms: C2_2  and  C3_3 
REMARK    2  A    between atoms: C3_3  and  C4_4 
REMARK    3  A    between atoms: C4_4  and  C5_5 
REMARK    4  A    between atoms: C5_5  and  C6_6 
REMARK    5  A    between atoms: C8_8  and  C9_9 
ROOT
HETATM    1  C6  UNL     1       0.365  -0.665  -0.517  1.00  0.00    -0.030 A 
HETATM    2  C7  UNL     1      -0.742   0.095  -0.893  1.00  0.00     0.021 A 
HETATM    3  C8  UNL     1      -1.976  -0.178  -0.367  1.00  0.00    -0.023 A 
HETATM    4  C15 UNL     1      -2.127  -1.201   0.530  1.00  0.00     0.026 A 
HETATM    5  C16 UNL     1      -1.046  -1.976   0.923  1.00  0.00    -0.008 A 
HETATM    6  C17 UNL     1      -1.220  -3.005   1.830  1.00  0.00     0.015 A 
HETATM    7  C18 UNL     1      -0.116  -3.747   2.189  1.00  0.00     0.018 A 
HETATM    8  C19 UNL     1       1.091  -3.416   1.621  1.00  0.00     0.088 A 
HETATM    9  N2  UNL     1       1.266  -2.419   0.741  1.00  0.00    -0.365 N 
ATOM     10  H2  UNL     1       2.187  -2.219   0.352  1.00  0.00     0.165 HD
HETATM   11  C20 UNL     1       0.179  -1.681   0.381  1.00  0.00     0.048 A 
ENDROOT
BRANCH   3  12
HETATM   12  C9  UNL     1      -3.134   0.607  -0.766  1.00  0.00    -0.002 A 
HETATM   13  C10 UNL     1      -3.408   0.815  -2.127  1.00  0.00     0.014 A 
HETATM   14  C11 UNL     1      -4.519   1.553  -2.455  1.00  0.00     0.001 A 
HETATM   15  C12 UNL     1      -5.352   2.082  -1.489  1.00  0.00     0.002 A 
HETATM   16  C13 UNL     1      -5.070   1.870  -0.163  1.00  0.00     0.027 A 
HETATM   17  C14 UNL     1      -3.961   1.132   0.213  1.00  0.00     0.057 A 
HETATM   18  N1  UNL     1      -3.662   0.921   1.597  1.00  0.00    -0.102 NA
ENDBRANCH   3  12
BRANCH   1  19
HETATM   19  C5  UNL     1       1.699  -0.383  -1.072  1.00  0.00     0.041 C 
BRANCH  19  20
HETATM   20  C4  UNL     1       2.547   0.334  -0.067  1.00  0.00     0.005 C 
BRANCH  20  21
HETATM   21  C3  UNL     1       3.933   0.630  -0.636  1.00  0.00    -0.000 C 
BRANCH  21  22
HETATM   22  C2  UNL     1       4.710   1.343   0.427  1.00  0.00    -0.005 C 
HETATM   23  C1  UNL     1       6.102   1.701   0.013  1.00  0.00     0.005 C 
ENDBRANCH  21  22
ENDBRANCH  20  21
ENDBRANCH  19  20
ENDBRANCH   1  19
TORSDOF 5
