REMARK  6 active torsions:
REMARK  status: ('A' for Active; 'I' for Inactive)
REMARK    1  A    between atoms: C2_2  and  C3_3 
REMARK    2  A    between atoms: C3_3  and  C4_4 
REMARK    3  A    between atoms: C4_4  and  C5_5 
REMARK    4  A    between atoms: C5_5  and  C6_6 
REMARK    5  A    between atoms: C9_9  and  N1_10 
REMARK    6  A    between atoms: N1_10  and  C10_12 
ROOT
HETATM    1  N1  UNL     1      -1.834  -2.018   0.052  1.00  0.00    -0.343 N 
ATOM      2  H1  UNL     1      -2.247  -2.949   0.002  1.00  0.00     0.167 HD
ENDROOT
BRANCH   1   3
HETATM    3  C9  UNL     1      -0.431  -1.917   0.011  1.00  0.00     0.033 A 
HETATM    4  C8  UNL     1       0.187  -1.503  -1.143  1.00  0.00     0.030 A 
HETATM    5  C7  UNL     1       1.580  -1.391  -1.220  1.00  0.00     0.009 A 
HETATM    6  C6  UNL     1       2.353  -1.700  -0.124  1.00  0.00    -0.058 A 
HETATM    7  C20 UNL     1       1.714  -2.119   1.042  1.00  0.00     0.009 A 
HETATM    8  C19 UNL     1       0.332  -2.227   1.109  1.00  0.00     0.030 A 
BRANCH   6   9
HETATM    9  C5  UNL     1       3.834  -1.602  -0.140  1.00  0.00     0.038 C 
BRANCH   9  10
HETATM   10  C4  UNL     1       4.341  -0.281   0.310  1.00  0.00     0.005 C 
BRANCH  10  11
HETATM   11  C3  UNL     1       3.826   0.808  -0.574  1.00  0.00    -0.000 C 
BRANCH  11  12
HETATM   12  C2  UNL     1       4.367   2.164  -0.106  1.00  0.00    -0.005 C 
HETATM   13  C1  UNL     1       5.892   2.043  -0.201  1.00  0.00     0.005 C 
ENDBRANCH  11  12
ENDBRANCH  10  11
ENDBRANCH   9  10
ENDBRANCH   6   9
ENDBRANCH   1   3
BRANCH   1  14
HETATM   14  C10 UNL     1      -2.629  -1.012   0.149  1.00  0.00     0.106 A 
HETATM   15  C11 UNL     1      -2.148   0.280   0.221  1.00  0.00     0.049 A 
HETATM   16  C12 UNL     1      -3.056   1.336   0.324  1.00  0.00     0.017 A 
HETATM   17  C13 UNL     1      -4.405   1.041   0.351  1.00  0.00    -0.009 A 
HETATM   18  C14 UNL     1      -5.328   2.061   0.452  1.00  0.00     0.013 A 
HETATM   19  C18 UNL     1      -4.830  -0.265   0.276  1.00  0.00     0.043 A 
HETATM   20  C15 UNL     1      -6.694   1.762   0.479  1.00  0.00     0.001 A 
HETATM   21  C16 UNL     1      -7.133   0.450   0.404  1.00  0.00     0.002 A 
HETATM   22  C17 UNL     1      -6.194  -0.552   0.303  1.00  0.00     0.030 A 
HETATM   23  N2  UNL     1      -3.956  -1.282   0.176  1.00  0.00    -0.342 N 
ATOM     24  H2  UNL     1      -4.288  -2.245   0.121  1.00  0.00     0.167 HD
ENDBRANCH   1  14
TORSDOF 6
