REMARK  5 active torsions:
REMARK  status: ('A' for Active; 'I' for Inactive)
REMARK    1  A    between atoms: C2_2  and  C3_3 
REMARK    2  A    between atoms: C3_3  and  C4_4 
REMARK    3  A    between atoms: C4_4  and  C5_5 
REMARK    4  A    between atoms: C5_5  and  C6_6 
REMARK    5  A    between atoms: C12_14  and  C13_15 
ROOT
HETATM    1  C13 UNL     1      -2.393  -0.095  -0.553  1.00  0.00    -0.022 A 
HETATM    2  C14 UNL     1      -2.697   0.062  -1.891  1.00  0.00     0.012 A 
HETATM    3  C15 UNL     1      -3.121   1.289  -2.400  1.00  0.00     0.002 A 
HETATM    4  C16 UNL     1      -3.254   2.393  -1.581  1.00  0.00     0.023 A 
HETATM    5  C17 UNL     1      -2.951   2.239  -0.247  1.00  0.00     0.045 A 
HETATM    6  C18 UNL     1      -3.073   3.357   0.645  1.00  0.00     0.099 C 
HETATM    7  N2  UNL     1      -3.149   4.254   1.364  1.00  0.00    -0.191 NA
HETATM    8  C19 UNL     1      -2.532   1.025   0.248  1.00  0.00     0.035 A 
ENDROOT
BRANCH   1   9
HETATM    9  C12 UNL     1      -2.014  -1.398  -0.038  1.00  0.00     0.003 A 
HETATM   10  C11 UNL     1      -2.954  -2.448  -0.014  1.00  0.00     0.101 A 
HETATM   11  N1  UNL     1      -2.396  -3.485   0.566  1.00  0.00    -0.364 N 
HETATM   12  C10 UNL     1      -1.117  -3.173   0.934  1.00  0.00     0.043 A 
ATOM     13  H1  UNL     1      -2.848  -4.387   0.719  1.00  0.00     0.165 HD
HETATM   14  C9  UNL     1      -0.144  -3.909   1.572  1.00  0.00     0.030 A 
HETATM   15  C20 UNL     1      -0.875  -1.867   0.553  1.00  0.00     0.009 A 
HETATM   16  C8  UNL     1       1.082  -3.370   1.843  1.00  0.00     0.003 A 
HETATM   17  C7  UNL     1       1.316  -2.050   1.453  1.00  0.00     0.008 A 
HETATM   18  C6  UNL     1       0.359  -1.283   0.808  1.00  0.00    -0.045 A 
BRANCH  18  19
HETATM   19  C5  UNL     1       0.622   0.075   0.317  1.00  0.00     0.039 C 
BRANCH  19  20
HETATM   20  C4  UNL     1       2.139   0.236   0.019  1.00  0.00     0.005 C 
BRANCH  20  21
HETATM   21  C3  UNL     1       2.266   1.662  -0.529  1.00  0.00    -0.000 C 
BRANCH  21  22
HETATM   22  C2  UNL     1       3.674   2.027  -0.892  1.00  0.00    -0.005 C 
HETATM   23  C1  UNL     1       4.602   1.950   0.301  1.00  0.00     0.005 C 
ENDBRANCH  21  22
ENDBRANCH  20  21
ENDBRANCH  19  20
ENDBRANCH  18  19
ENDBRANCH   1   9
TORSDOF 5
