REMARK  6 active torsions:
REMARK  status: ('A' for Active; 'I' for Inactive)
REMARK    1  A    between atoms: N1_2  and  N2_3 
REMARK    2  A    between atoms: N2_3  and  C2_4 
REMARK    3  A    between atoms: C2_4  and  C3_5 
REMARK    4  A    between atoms: C3_5  and  N3_6 
REMARK    5  A    between atoms: C10_23  and  O3_24 
REMARK    6  A    between atoms: C11_29  and  O5_30 
ROOT
HETATM    1  C3  UNL     1       1.670  -0.754  -0.162  1.00  0.00     0.186 A 
HETATM    2  C4  UNL     1       0.450  -0.551   0.655  1.00  0.00     0.097 A 
HETATM    3  C5  UNL     1      -0.894  -1.040   0.170  1.00  0.00     0.181 C 
HETATM    4  O1  UNL     1      -1.844  -0.657   1.117  1.00  0.00    -0.356 OA
HETATM    5  C6  UNL     1      -3.024  -0.237   0.581  1.00  0.00     0.224 C 
HETATM    6  C7  UNL     1      -3.035   1.240   0.234  1.00  0.00     0.297 C 
HETATM    7  N4  UNL     1      -1.765   1.781   0.678  1.00  0.00    -0.055 N 
ATOM      8  H41 UNL     1      -1.077   1.038   0.799  1.00  0.00     0.279 HD
ATOM      9  H42 UNL     1      -1.828   2.110   1.641  1.00  0.00     0.279 HD
HETATM   10  C8  UNL     1      -1.256   2.813  -0.181  1.00  0.00     0.357 C 
HETATM   11  N5  UNL     1      -0.405   2.334  -1.251  1.00  0.00    -0.335 N 
ATOM     12  H5  UNL     1      -0.337   2.903  -2.095  1.00  0.00     0.164 HD
HETATM   13  C9  UNL     1       0.343   1.123  -1.205  1.00  0.00     0.256 C 
HETATM   14  O2  UNL     1       0.395   0.475  -2.297  1.00  0.00    -0.270 OA
HETATM   15  C10 UNL     1       1.034   0.585  -0.037  1.00  0.00     0.181 A 
HETATM   16  N6  UNL     1      -4.104  -0.517   1.504  1.00  0.00    -0.073 NA
HETATM   17  N7  UNL     1      -5.157  -1.014   0.757  1.00  0.00     0.018 NA
HETATM   18  O4  UNL     1      -4.864  -0.903  -0.535  1.00  0.00    -0.233 OA
HETATM   19  C11 UNL     1      -3.459  -0.987  -0.650  1.00  0.00     0.337 C 
ENDROOT
BRANCH   1  20
HETATM   20  C2  UNL     1       2.944  -1.053   0.623  1.00  0.00     0.173 C 
BRANCH  20  21
HETATM   21  N2  UNL     1       4.067  -0.747  -0.271  1.00  0.00    -0.146 NA
BRANCH  21  22
HETATM   22  N1  UNL     1       5.253  -1.012   0.421  1.00  0.00    -0.153 NA
HETATM   23  C1  UNL     1       6.139   0.154   0.376  1.00  0.00     0.154 C 
ENDBRANCH  21  22
ENDBRANCH  20  21
ENDBRANCH   1  20
BRANCH   1  24
HETATM   24  N3  UNL     1       1.549  -1.539  -1.360  1.00  0.00    -0.065 N 
ATOM     25  H33 UNL     1       2.374  -1.431  -1.950  1.00  0.00     0.275 HD
ATOM     26  H32 UNL     1       1.622  -2.535  -1.151  1.00  0.00     0.275 HD
ATOM     27  H31 UNL     1       0.697  -1.339  -1.885  1.00  0.00     0.275 HD
ENDBRANCH   1  24
BRANCH  15  28
HETATM   28  O3  UNL     1       1.770   1.472   0.787  1.00  0.00    -0.377 OA
ATOM     29  H3  UNL     1       1.364   2.327   0.867  1.00  0.00     0.211 HD
ENDBRANCH  15  28
BRANCH  19  30
HETATM   30  O5  UNL     1      -3.131  -2.314  -0.645  1.00  0.00    -0.366 OA
ATOM     31  H5  UNL     1      -3.405  -2.787  -1.422  1.00  0.00     0.212 HD
ENDBRANCH  19  30
TORSDOF 6
