REMARK  7 active torsions:
REMARK  status: ('A' for Active; 'I' for Inactive)
REMARK    1  A    between atoms: C1_2  and  C2_4 
REMARK    2  A    between atoms: C3_7  and  N3_8 
REMARK    3  A    between atoms: N3_8  and  N4_10 
REMARK       I    between atoms: N4_10  and  C4_12 
REMARK       I    between atoms: C4_12  and  N5_13 
REMARK       I    between atoms: C4_12  and  N6_17 
REMARK    4  A    between atoms: N8_24  and  C6_26 
REMARK    5  A    between atoms: C8_29  and  O3_30 
REMARK    6  A    between atoms: C9_32  and  O4_33 
REMARK    7  A    between atoms: C10_35  and  N9_36 
ROOT
HETATM    1  C2  UNL     1      -1.629  -1.443   2.936  1.00  0.00     0.201 A 
HETATM    2  N2  UNL     1      -2.627  -1.069   2.132  1.00  0.00    -0.169 N 
ATOM      3  H2  UNL     1      -3.583  -1.107   2.485  1.00  0.00     0.186 HD
HETATM    4  C3  UNL     1      -2.416  -0.642   0.867  1.00  0.00     0.712 A 
HETATM    5  N7  UNL     1      -1.137  -0.608   0.444  1.00  0.00    -0.021 N 
ATOM      6  H7  UNL     1      -0.950  -0.288  -0.506  1.00  0.00     0.203 HD
HETATM    7  C5  UNL     1      -0.094  -0.974   1.211  1.00  0.00     0.696 A 
HETATM    8  N8  UNL     1       1.138  -0.953   0.834  1.00  0.00    -0.197 N 
ATOM      9  H8  UNL     1       1.876  -1.246   1.474  1.00  0.00     0.180 HD
HETATM   10  N10 UNL     1      -0.373  -1.398   2.485  1.00  0.00    -0.170 N 
ATOM     11  H10 UNL     1       0.391  -1.683   3.098  1.00  0.00     0.186 HD
ENDROOT
BRANCH   8  12
HETATM   12  C6  UNL     1       1.468  -0.510  -0.505  1.00  0.00     0.270 C 
HETATM   13  O2  UNL     1       1.250   0.861  -0.571  1.00  0.00    -0.361 OA
HETATM   14  C7  UNL     1       1.980   1.453  -1.573  1.00  0.00     0.205 C 
HETATM   15  C8  UNL     1       3.415   1.570  -1.087  1.00  0.00     0.173 C 
HETATM   16  C9  UNL     1       3.864   0.233  -0.544  1.00  0.00     0.183 C 
HETATM   17  C10 UNL     1       2.896  -0.875  -0.838  1.00  0.00     0.263 C 
BRANCH  15  18
HETATM   18  O3  UNL     1       3.431   2.565  -0.101  1.00  0.00    -0.391 OA
ATOM     19  H3  UNL     1       4.328   2.638   0.203  1.00  0.00     0.210 HD
ENDBRANCH  15  18
BRANCH  16  20
HETATM   20  O4  UNL     1       5.090  -0.061  -1.111  1.00  0.00    -0.391 OA
ATOM     21  H4  UNL     1       5.372  -0.901  -0.770  1.00  0.00     0.210 HD
ENDBRANCH  16  20
BRANCH  17  22
HETATM   22  N9  UNL     1       3.010  -1.387  -2.186  1.00  0.00    -0.068 N 
ATOM     23  H93 UNL     1       2.378  -2.172  -2.342  1.00  0.00     0.275 HD
ATOM     24  H92 UNL     1       2.623  -0.734  -2.868  1.00  0.00     0.275 HD
ATOM     25  H91 UNL     1       3.974  -1.633  -2.411  1.00  0.00     0.275 HD
ENDBRANCH  17  22
ENDBRANCH   8  12
BRANCH   4  26
HETATM   26  N3  UNL     1      -3.393  -0.285   0.106  1.00  0.00    -0.133 N 
ATOM     27  H3  UNL     1      -4.358  -0.314   0.436  1.00  0.00     0.205 HD
BRANCH  26  28
HETATM   28  N4  UNL     1      -3.081   0.145  -1.192  1.00  0.00    -0.270 N 
HETATM   29  C4  UNL     1      -3.623   1.413  -1.607  1.00  0.00     0.495 C 
HETATM   30  N5  UNL     1      -3.208   1.705  -2.962  1.00  0.00    -0.032 N 
HETATM   31  N6  UNL     1      -3.066   2.452  -0.754  1.00  0.00    -0.032 N 
ATOM     32  H53 UNL     1      -2.194   1.668  -3.069  1.00  0.00     0.279 HD
ATOM     33  H52 UNL     1      -3.452   0.954  -3.608  1.00  0.00     0.279 HD
ATOM     34  H51 UNL     1      -3.592   2.603  -3.256  1.00  0.00     0.279 HD
ATOM     35  H63 UNL     1      -3.216   2.267   0.238  1.00  0.00     0.279 HD
ATOM     36  H62 UNL     1      -2.046   2.446  -0.744  1.00  0.00     0.279 HD
ATOM     37  H61 UNL     1      -3.450   3.350  -1.048  1.00  0.00     0.279 HD
ATOM     38  H4  UNL     1      -2.497  -0.415  -1.813  1.00  0.00     0.184 HD
ENDBRANCH  26  28
ENDBRANCH   4  26
BRANCH   1  39
HETATM   39  C1  UNL     1      -1.908  -1.892   4.280  1.00  0.00     0.299 C 
HETATM   40  N1  UNL     1      -3.241  -1.942   4.766  1.00  0.00    -0.054 NA
HETATM   41  O1  UNL     1      -0.960  -2.243   5.031  1.00  0.00    -0.268 OA
ENDBRANCH   1  39
TORSDOF 7
