REMARK  9 active torsions:
REMARK  status: ('A' for Active; 'I' for Inactive)
REMARK    1  A    between atoms: N1_1  and  C1_4 
REMARK    2  A    between atoms: N4_13  and  C5_14 
REMARK    3  A    between atoms: C6_16  and  O3_17 
REMARK    4  A    between atoms: N5_19  and  N6_20 
REMARK    5  A    between atoms: C7_23  and  O4_24 
REMARK    6  A    between atoms: N7_28  and  C9_29 
REMARK    7  A    between atoms: C9_29  and  C10_30 
REMARK    8  A    between atoms: C10_30  and  O6_31 
REMARK    9  A    between atoms: C10_30  and  O7_33 
ROOT
HETATM    1  C1  UNL     1       0.434   3.051  -0.664  1.00  0.00     0.680 A 
HETATM    2  N2  UNL     1       1.731   2.897  -0.938  1.00  0.00    -0.154 N 
ATOM      3  H2  UNL     1       2.297   3.697  -1.219  1.00  0.00     0.187 HD
HETATM    4  C2  UNL     1       2.281   1.678  -0.840  1.00  0.00     0.290 A 
HETATM    5  O1  UNL     1       3.501   1.592  -1.111  1.00  0.00    -0.265 OA
HETATM    6  C3  UNL     1       1.582   0.550  -0.467  1.00  0.00     0.153 A 
HETATM    7  C4  UNL     1       0.228   0.780  -0.194  1.00  0.00     0.162 A 
HETATM    8  N3  UNL     1      -0.303   2.002  -0.298  1.00  0.00    -0.174 N 
ATOM      9  H3  UNL     1      -1.293   2.135  -0.093  1.00  0.00     0.186 HD
HETATM   10  N4  UNL     1      -0.259  -0.445   0.135  1.00  0.00    -0.251 N 
HETATM   11  C8  UNL     1       0.704  -1.376   0.078  1.00  0.00     0.333 A 
HETATM   12  O5  UNL     1       0.529  -2.595   0.334  1.00  0.00    -0.246 OA
HETATM   13  N7  UNL     1       1.851  -0.748  -0.297  1.00  0.00    -0.286 N 
ENDROOT
BRANCH  10  14
HETATM   14  C5  UNL     1      -1.636  -0.689   0.496  1.00  0.00     0.283 C 
HETATM   15  O2  UNL     1      -2.167   0.307   1.312  1.00  0.00    -0.318 OA
HETATM   16  C6  UNL     1      -3.538   0.108   1.156  1.00  0.00     0.364 C 
HETATM   17  N5  UNL     1      -3.700   0.077  -0.284  1.00  0.00    -0.152 NA
HETATM   18  C7  UNL     1      -2.558  -0.717  -0.693  1.00  0.00     0.266 C 
BRANCH  16  19
HETATM   19  O3  UNL     1      -4.274   1.139   1.738  1.00  0.00    -0.357 OA
ATOM     20  H3  UNL     1      -5.208   1.003   1.632  1.00  0.00     0.214 HD
ENDBRANCH  16  19
BRANCH  17  21
HETATM   21  N6  UNL     1      -4.897  -0.589  -0.559  1.00  0.00    -0.357 NA
ATOM     22  H62 UNL     1      -5.700  -0.030  -0.271  1.00  0.00     0.171 HD
ATOM     23  H61 UNL     1      -5.011  -0.611  -1.572  1.00  0.00     0.171 HD
ENDBRANCH  17  21
BRANCH  18  24
HETATM   24  O4  UNL     1      -3.000  -2.045  -0.875  1.00  0.00    -0.375 OA
ATOM     25  H4  UNL     1      -3.582  -2.063  -1.626  1.00  0.00     0.211 HD
ENDBRANCH  18  24
ENDBRANCH  10  14
BRANCH  13  26
HETATM   26  C9  UNL     1       3.121  -1.380  -0.438  1.00  0.00     0.194 C 
BRANCH  26  27
HETATM   27  C10 UNL     1       3.910  -1.548   0.820  1.00  0.00     0.272 C 
BRANCH  27  28
HETATM   28  O6  UNL     1       5.119  -2.182   0.441  1.00  0.00    -0.370 OA
ATOM     29  H6  UNL     1       5.621  -2.289   1.241  1.00  0.00     0.212 HD
ENDBRANCH  27  28
BRANCH  27  30
HETATM   30  O7  UNL     1       4.222  -0.370   1.432  1.00  0.00    -0.370 OA
ATOM     31  H7  UNL     1       4.724  -0.477   2.232  1.00  0.00     0.212 HD
ENDBRANCH  27  30
ENDBRANCH  26  27
ENDBRANCH  13  26
BRANCH   1  32
HETATM   32  N1  UNL     1      -0.095   4.249  -0.763  1.00  0.00    -0.234 N 
ATOM     33  H12 UNL     1       0.469   5.052  -1.043  1.00  0.00     0.174 HD
ATOM     34  H11 UNL     1      -1.086   4.367  -0.554  1.00  0.00     0.174 HD
ENDBRANCH   1  32
TORSDOF 9
