REMARK  1 active torsions:
REMARK  status: ('A' for Active; 'I' for Inactive)
REMARK    1  A    between atoms: N1_1  and  C1_5 
ROOT
HETATM    1  C1  UNL     1       1.061   0.046  -0.430  1.00  0.00     0.188 C 
HETATM    2  C2  UNL     1       0.296  -1.248  -0.677  1.00  0.00     0.037 C 
HETATM    3  C3  UNL     1      -0.982  -1.016   0.121  1.00  0.00    -0.012 C 
HETATM    4  C4  UNL     1      -1.676   0.159  -0.481  1.00  0.00     0.005 C 
HETATM    5  C5  UNL     1      -0.898   1.404  -0.034  1.00  0.00     0.007 C 
HETATM    6  C6  UNL     1       0.297   0.776   0.652  1.00  0.00     0.016 C 
HETATM    7  C7  UNL     1      -0.364  -0.385   1.379  1.00  0.00     0.011 C 
ENDROOT
BRANCH   1   8
HETATM    8  N1  UNL     1       2.409  -0.160  -0.034  1.00  0.00    -0.075 N 
ATOM      9  H13 UNL     1       2.456  -0.769   0.783  1.00  0.00     0.274 HD
ATOM     10  H12 UNL     1       2.899  -0.745  -0.711  1.00  0.00     0.274 HD
ATOM     11  H11 UNL     1       2.921   0.706   0.131  1.00  0.00     0.274 HD
ENDBRANCH   1   8
TORSDOF 1
