REMARK  2 active torsions:
REMARK  status: ('A' for Active; 'I' for Inactive)
REMARK    1  A    between atoms: N1_1  and  C1_5 
REMARK    2  A    between atoms: C5_9  and  C6_10 
ROOT
HETATM    1  C1  UNL     1      -0.934   0.627  -0.529  1.00  0.00     0.188 C 
HETATM    2  C2  UNL     1      -2.015  -0.420  -0.475  1.00  0.00     0.033 C 
HETATM    3  C3  UNL     1      -1.533  -1.539   0.388  1.00  0.00     0.002 C 
HETATM    4  C4  UNL     1      -0.020  -1.294   0.425  1.00  0.00     0.007 C 
HETATM    5  C5  UNL     1       0.014   0.204   0.565  1.00  0.00     0.020 C 
ENDROOT
BRANCH   1   6
HETATM    6  N1  UNL     1      -1.383   1.948  -0.266  1.00  0.00    -0.075 N 
ATOM      7  H13 UNL     1      -2.149   2.195  -0.893  1.00  0.00     0.274 HD
ATOM      8  H12 UNL     1      -1.871   1.986   0.629  1.00  0.00     0.274 HD
ATOM      9  H11 UNL     1      -0.651   2.657  -0.303  1.00  0.00     0.274 HD
ENDBRANCH   1   6
BRANCH   5  10
HETATM   10  C6  UNL     1       1.392   0.785   0.412  1.00  0.00    -0.008 A 
HETATM   11  C7  UNL     1       2.229   0.537  -0.759  1.00  0.00     0.005 A 
HETATM   12  C8  UNL     1       2.550  -0.223   0.477  1.00  0.00     0.005 A 
ENDBRANCH   5  10
TORSDOF 2
