REMARK  4 active torsions:
REMARK  status: ('A' for Active; 'I' for Inactive)
REMARK    1  A    between atoms: C2_2  and  C3_3 
REMARK    2  A    between atoms: C3_3  and  N1_6 
REMARK    3  A    between atoms: N1_6  and  N2_8 
REMARK    4  A    between atoms: N2_8  and  C5_9 
ROOT
HETATM    1  N1  UNL     1       0.297  -0.711   0.133  1.00  0.00    -0.315 N 
ATOM      2  H1  UNL     1       0.069  -1.498  -0.474  1.00  0.00     0.178 HD
ENDROOT
BRANCH   1   3
HETATM    3  C3  UNL     1       1.652  -0.302   0.389  1.00  0.00     0.115 C 
HETATM    4  C4  UNL     1       2.590  -1.206  -0.374  1.00  0.00     0.057 C 
HETATM    5 CL1  UNL     1       2.060  -0.313   2.117  1.00  0.00    -0.095 Cl
BRANCH   3   6
HETATM    6  C2  UNL     1       1.765   1.137  -0.097  1.00  0.00     0.044 C 
HETATM    7  C1  UNL     1       3.149   1.690   0.074  1.00  0.00     0.009 C 
ENDBRANCH   3   6
ENDBRANCH   1   3
BRANCH   1   8
HETATM    8  N2  UNL     1      -0.663   0.031   0.762  1.00  0.00    -0.135 NA
BRANCH   8   9
HETATM    9  C5  UNL     1      -1.924  -0.120   0.053  1.00  0.00     0.039 C 
HETATM   10  C6  UNL     1      -2.371  -1.567   0.025  1.00  0.00     0.035 C 
HETATM   11  C7  UNL     1      -1.772   0.327  -1.379  1.00  0.00     0.035 C 
HETATM   12  C8  UNL     1      -2.985   0.661   0.787  1.00  0.00     0.035 C 
ENDBRANCH   8   9
ENDBRANCH   1   8
TORSDOF 4
