REMARK  2 active torsions:
REMARK  status: ('A' for Active; 'I' for Inactive)
REMARK    1  A    between atoms: C2_2  and  C3_3 
REMARK    2  A    between atoms: C3_3  and  N1_4 
ROOT
HETATM    1  C3  UNL     1       0.205   0.149   0.157  1.00  0.00     0.209 C 
HETATM    2  N2  UNL     1      -0.657  -0.927   0.498  1.00  0.00    -0.381 N 
ATOM      3  H2  UNL     1      -0.516  -1.494   1.334  1.00  0.00     0.156 HD
HETATM    4  C4  UNL     1      -1.738  -1.162  -0.412  1.00  0.00     0.191 C 
HETATM    5  S1  UNL     1      -2.911   0.238  -0.203  1.00  0.00    -0.148 SA
HETATM    6  C5  UNL     1      -1.789   1.655   0.132  1.00  0.00     0.100 C 
HETATM    7  C6  UNL     1      -0.496   1.273  -0.598  1.00  0.00     0.147 C 
HETATM    8 CL1  UNL     1       0.574   2.673  -0.728  1.00  0.00    -0.120 Cl
ENDROOT
BRANCH   1   9
HETATM    9  C2  UNL     1       1.344  -0.310  -0.721  1.00  0.00     0.058 C 
HETATM   10  C1  UNL     1       2.221  -1.331  -0.084  1.00  0.00     0.009 C 
ENDBRANCH   1   9
BRANCH   1  11
HETATM   11  N1  UNL     1       0.689   0.748   1.396  1.00  0.00    -0.051 N 
ATOM     12  H13 UNL     1       1.313   0.115   1.896  1.00  0.00     0.277 HD
ATOM     13  H12 UNL     1       1.346   1.506   1.211  1.00  0.00     0.277 HD
ATOM     14  H11 UNL     1      -0.081   1.058   1.989  1.00  0.00     0.277 HD
ENDBRANCH   1  11
TORSDOF 2
