REMARK  2 active torsions:
REMARK  status: ('A' for Active; 'I' for Inactive)
REMARK    1  A    between atoms: C2_2  and  C3_3 
REMARK    2  A    between atoms: C7_10  and  C8_11 
ROOT
HETATM    1  C3  UNL     1      -0.976  -0.122  -0.066  1.00  0.00     0.190 C 
HETATM    2  C4  UNL     1       0.175  -1.095  -0.162  1.00  0.00     0.065 C 
HETATM    3  C5  UNL     1       1.347  -0.451   0.557  1.00  0.00     0.186 C 
HETATM    4  C6  UNL     1       2.572  -1.335   0.459  1.00  0.00     0.040 C 
HETATM    5  N1  UNL     1       1.657   0.854   0.026  1.00  0.00    -0.041 N 
ATOM      6  H11 UNL     1       2.062   0.803  -0.909  1.00  0.00     0.280 HD
ATOM      7  H12 UNL     1       2.447   1.286   0.505  1.00  0.00     0.280 HD
HETATM    8  C7  UNL     1       0.492   1.674   0.063  1.00  0.00     0.397 C 
HETATM    9  N2  UNL     1      -0.569   1.094  -0.736  1.00  0.00    -0.041 N 
ATOM     10  H21 UNL     1      -1.342   1.737  -0.907  1.00  0.00     0.280 HD
ATOM     11  H22 UNL     1      -0.305   0.948  -1.710  1.00  0.00     0.280 HD
ENDROOT
BRANCH   1  12
HETATM   12  C2  UNL     1      -2.251  -0.695  -0.634  1.00  0.00     0.028 C 
HETATM   13  C1  UNL     1      -2.564  -1.948   0.183  1.00  0.00     0.007 C 
ENDBRANCH   1  12
BRANCH   8  14
HETATM   14  C8  UNL     1       0.755   3.111  -0.306  1.00  0.00     0.177 C 
HETATM   15 CL1  UNL     1       1.908   3.883   0.762  1.00  0.00    -0.127 Cl
ENDBRANCH   8  14
TORSDOF 2
