REMARK  9 active torsions:
REMARK  status: ('A' for Active; 'I' for Inactive)
REMARK    1  A    between atoms: C2_2  and  O1_3 
REMARK    2  A    between atoms: O1_3  and  C3_4 
REMARK    3  A    between atoms: C3_4  and  C4_6 
REMARK    4  A    between atoms: C4_6  and  N1_7 
REMARK    5  A    between atoms: N1_7  and  C5_9 
REMARK    6  A    between atoms: C5_9  and  C7_11 
REMARK    7  A    between atoms: C9_16  and  N4_17 
REMARK    8  A    between atoms: C10_20  and  N6_21 
REMARK    9  A    between atoms: C11_24  and  C12_25 
ROOT
HETATM    1  C7  UNL     1       1.755  -0.850  -1.244  1.00  0.00     0.096 A 
HETATM    2  C8  UNL     1       1.059  -1.783  -0.536  1.00  0.00     0.149 A 
HETATM    3  N2  UNL     1       1.743  -2.819   0.128  1.00  0.00    -0.081 NA
HETATM    4  N3  UNL     1      -0.296  -1.783  -0.422  1.00  0.00    -0.176 N 
ATOM      5  H3  UNL     1      -0.772  -2.504   0.121  1.00  0.00     0.185 HD
HETATM    6  C9  UNL     1      -0.999  -0.811  -1.041  1.00  0.00     0.709 A 
HETATM    7  N11 UNL     1      -0.353   0.130  -1.750  1.00  0.00    -0.153 N 
ATOM      8  H11 UNL     1      -0.895   0.859  -2.213  1.00  0.00     0.187 HD
HETATM    9  C16 UNL     1       0.986   0.140  -1.868  1.00  0.00     0.275 A 
HETATM   10  O4  UNL     1       1.532   1.047  -2.546  1.00  0.00    -0.267 OA
ENDROOT
BRANCH   6  11
HETATM   11  N4  UNL     1      -2.416  -0.794  -0.931  1.00  0.00    -0.069 N 
HETATM   12  N5  UNL     1      -3.227  -1.733  -1.362  1.00  0.00    -0.262 N 
HETATM   13  C10 UNL     1      -4.505  -1.418  -1.100  1.00  0.00     0.132 A 
ATOM     14  H5  UNL     1      -2.926  -2.587  -1.832  1.00  0.00     0.190 HD
HETATM   15  C11 UNL     1      -4.478  -0.210  -0.467  1.00  0.00     0.098 A 
HETATM   16  C15 UNL     1      -3.145   0.173  -0.368  1.00  0.00     0.174 A 
HETATM   17  N10 UNL     1      -2.663   1.387   0.232  1.00  0.00    -0.079 NA
BRANCH  13  18
HETATM   18  N6  UNL     1      -5.548  -2.117  -1.386  1.00  0.00    -0.384 N 
ATOM     19  H62 UNL     1      -5.568  -3.020  -1.859  1.00  0.00     0.157 HD
ATOM     20  H61 UNL     1      -6.519  -1.878  -1.187  1.00  0.00     0.157 HD
ENDBRANCH  13  18
BRANCH  15  21
HETATM   21  C12 UNL     1      -5.597   0.592   0.040  1.00  0.00     0.143 A 
HETATM   22  N7  UNL     1      -6.306   1.533  -0.606  1.00  0.00    -0.280 N 
HETATM   23  N8  UNL     1      -7.245   2.032   0.203  1.00  0.00    -0.250 N 
ATOM     24  H7  UNL     1      -6.150   1.823  -1.571  1.00  0.00     0.188 HD
HETATM   25  C13 UNL     1      -7.106   1.385   1.361  1.00  0.00     0.342 A 
ATOM     26  H8  UNL     1      -7.927   2.757  -0.019  1.00  0.00     0.192 HD
HETATM   27  O3  UNL     1      -7.824   1.593   2.368  1.00  0.00    -0.245 OA
HETATM   28  N9  UNL     1      -6.107   0.506   1.276  1.00  0.00    -0.287 N 
HETATM   29  C14 UNL     1      -5.641  -0.384   2.302  1.00  0.00     0.163 C 
ENDBRANCH  15  21
ENDBRANCH   6  11
BRANCH   1  30
HETATM   30  C5  UNL     1       3.208  -0.806  -1.390  1.00  0.00     0.020 C 
HETATM   31  C6  UNL     1       4.111  -1.784  -0.773  1.00  0.00     0.069 C 
BRANCH  30  32
HETATM   32  N1  UNL     1       3.722   0.143  -2.095  1.00  0.00    -0.383 N 
ATOM     33  H1  UNL     1       3.063   0.803  -2.508  1.00  0.00     0.160 HD
BRANCH  32  34
HETATM   34  C4  UNL     1       5.096   0.380  -2.365  1.00  0.00     0.230 C 
BRANCH  34  35
HETATM   35  C3  UNL     1       5.777   0.976  -1.183  1.00  0.00     0.276 C 
HETATM   36  O2  UNL     1       6.986   1.289  -1.317  1.00  0.00    -0.263 OA
BRANCH  35  37
HETATM   37  O1  UNL     1       5.156   1.193   0.027  1.00  0.00    -0.321 OA
BRANCH  37  38
HETATM   38  C2  UNL     1       5.804   1.759   1.144  1.00  0.00     0.174 C 
HETATM   39  C1  UNL     1       6.254   3.149   0.812  1.00  0.00     0.034 C 
ENDBRANCH  37  38
ENDBRANCH  35  37
ENDBRANCH  34  35
ENDBRANCH  32  34
ENDBRANCH  30  32
ENDBRANCH   1  30
TORSDOF 9
