REMARK  8 active torsions:
REMARK  status: ('A' for Active; 'I' for Inactive)
REMARK    1  A    between atoms: C3_4  and  C4_5 
REMARK    2  A    between atoms: C6_7  and  N2_8 
REMARK    3  A    between atoms: N2_8  and  N3_10 
REMARK    4  A    between atoms: C7_12  and  C9_15 
REMARK    5  A    between atoms: C10_18  and  N6_19 
REMARK       I    between atoms: N7_21  and  C11_23 
REMARK    6  A    between atoms: C11_23  and  C12_25 
REMARK    7  A    between atoms: C12_25  and  O3_26 
REMARK    8  A    between atoms: C14_34  and  O4_35 
ROOT
HETATM    1  C1  UNL     1       2.760   2.679  -1.543  1.00  0.00     0.124 C 
HETATM    2  C2  UNL     1       3.144   1.623  -1.045  1.00  0.00    -0.063 C 
HETATM    3  N1  UNL     1       3.606   0.418  -0.514  1.00  0.00    -0.226 N 
HETATM    4  C3  UNL     1       2.912  -0.602   0.002  1.00  0.00     0.129 A 
HETATM    5  C14 UNL     1       3.856  -1.565   0.325  1.00  0.00     0.177 A 
HETATM    6  N10 UNL     1       5.108  -1.123   0.005  1.00  0.00    -0.281 N 
HETATM    7  C15 UNL     1       6.326  -1.876   0.214  1.00  0.00     0.163 C 
HETATM    8  C16 UNL     1       4.946   0.097  -0.510  1.00  0.00     0.342 A 
HETATM    9  O5  UNL     1       5.869   0.837  -0.925  1.00  0.00    -0.245 OA
ENDROOT
BRANCH   4  10
HETATM   10  C4  UNL     1       1.469  -0.732   0.136  1.00  0.00     0.068 A 
HETATM   11  C5  UNL     1       0.599   0.314   0.310  1.00  0.00     0.065 A 
HETATM   12  C6  UNL     1      -0.779   0.174   0.507  1.00  0.00     0.082 A 
HETATM   13  C10 UNL     1      -1.306  -1.073   0.533  1.00  0.00     0.120 A 
HETATM   14  C13 UNL     1      -0.452  -2.138   0.362  1.00  0.00     0.130 A 
HETATM   15  N8  UNL     1      -0.865  -3.360   0.378  1.00  0.00    -0.384 N 
HETATM   16  N9  UNL     1       0.890  -1.964   0.170  1.00  0.00    -0.339 N 
ATOM     17  H82 UNL     1      -1.867  -3.490   0.521  1.00  0.00     0.157 HD
ATOM     18  H81 UNL     1      -0.232  -4.150   0.251  1.00  0.00     0.157 HD
ATOM     19  H9  UNL     1       1.480  -2.787   0.048  1.00  0.00     0.167 HD
BRANCH  12  20
HETATM   20  N2  UNL     1      -1.598   1.321   0.700  1.00  0.00    -0.297 N 
ATOM     21  H2  UNL     1      -1.952   1.505   1.639  1.00  0.00     0.187 HD
BRANCH  20  22
HETATM   22  N3  UNL     1      -1.945   2.207  -0.317  1.00  0.00    -0.286 N 
HETATM   23  C7  UNL     1      -1.997   3.455   0.001  1.00  0.00     0.194 C 
HETATM   24  C8  UNL     1      -1.713   3.894   1.336  1.00  0.00     0.124 C 
HETATM   25  N4  UNL     1      -1.496   4.240   2.440  1.00  0.00    -0.190 NA
ATOM     26  H3  UNL     1      -2.147   1.885  -1.264  1.00  0.00     0.188 HD
BRANCH  23  27
HETATM   27  C9  UNL     1      -2.338   4.428  -1.023  1.00  0.00     0.293 C 
HETATM   28  N5  UNL     1      -2.397   5.825  -0.673  1.00  0.00    -0.055 NA
HETATM   29  O1  UNL     1      -2.589   4.140  -2.208  1.00  0.00    -0.269 OA
ENDBRANCH  23  27
ENDBRANCH  20  22
ENDBRANCH  12  20
BRANCH  13  30
HETATM   30  N6  UNL     1      -2.718  -1.282   0.734  1.00  0.00    -0.292 N 
HETATM   31  N7  UNL     1      -3.399  -1.447  -0.339  1.00  0.00    -0.268 N 
HETATM   32  C11 UNL     1      -4.802  -1.661  -0.270  1.00  0.00     0.259 C 
ATOM     33  H7  UNL     1      -2.932  -1.425  -1.246  1.00  0.00     0.190 HD
HETATM   34  O2  UNL     1      -5.567  -0.688  -0.505  1.00  0.00    -0.269 OA
ATOM     35  H6  UNL     1      -3.143  -1.297   1.661  1.00  0.00     0.187 HD
BRANCH  32  36
HETATM   36  C12 UNL     1      -5.392  -2.979   0.065  1.00  0.00     0.268 C 
BRANCH  36  37
HETATM   37  O3  UNL     1      -6.793  -2.884   0.065  1.00  0.00    -0.392 OA
ATOM     38  H3  UNL     1      -7.171  -3.729   0.280  1.00  0.00     0.210 HD
ENDBRANCH  36  37
ENDBRANCH  32  36
ENDBRANCH  13  30
ENDBRANCH   4  10
BRANCH   5  39
HETATM   39  O4  UNL     1       3.616  -2.797   0.890  1.00  0.00    -0.344 OA
ATOM     40  H4  UNL     1       4.263  -3.457   1.111  1.00  0.00     0.219 HD
ENDBRANCH   5  39
TORSDOF 8
