REMARK  10 active torsions:
REMARK  status: ('A' for Active; 'I' for Inactive)
REMARK    1  A    between atoms: C2_2  and  O1_3 
REMARK    2  A    between atoms: O1_3  and  N1_4 
REMARK    3  A    between atoms: N2_6  and  N3_8 
REMARK    4  A    between atoms: N3_8  and  C3_10 
REMARK    5  A    between atoms: C3_10  and  N4_11 
REMARK    6  A    between atoms: C3_10  and  C4_15 
REMARK       I    between atoms: C4_15  and  N5_17 
REMARK    7  A    between atoms: C7_21  and  O4_22 
REMARK    8  A    between atoms: C10_26  and  O5_27 
REMARK    9  A    between atoms: C13_31  and  O6_32 
REMARK   10  A    between atoms: O6_32  and  C14_33 
ROOT
HETATM    1  C4  UNL     1       1.118  -0.242   0.114  1.00  0.00     0.278 C 
HETATM    2  O2  UNL     1       0.696   0.745   0.737  1.00  0.00    -0.269 OA
HETATM    3  N5  UNL     1       0.369  -1.337  -0.259  1.00  0.00    -0.287 N 
HETATM    4  C5  UNL     1       0.787  -2.690  -0.688  1.00  0.00     0.310 C 
HETATM    5  O3  UNL     1      -0.104  -3.450   0.185  1.00  0.00    -0.326 OA
HETATM    6  C6  UNL     1      -1.352  -2.791   0.072  1.00  0.00     0.135 A 
HETATM    7  C7  UNL     1      -2.618  -3.272   0.201  1.00  0.00     0.117 A 
HETATM    8  C8  UNL     1      -3.677  -2.385   0.035  1.00  0.00     0.068 A 
HETATM    9  C9  UNL     1      -3.450  -1.044  -0.258  1.00  0.00     0.033 A 
HETATM   10  C10 UNL     1      -2.116  -0.591  -0.384  1.00  0.00     0.108 A 
HETATM   11  C11 UNL     1      -1.074  -1.477  -0.211  1.00  0.00     0.110 A 
HETATM   12  C12 UNL     1      -4.725  -0.333  -0.376  1.00  0.00     0.055 A 
HETATM   13  C13 UNL     1      -4.981   0.925  -0.633  1.00  0.00     0.163 C 
HETATM   14  C15 UNL     1      -5.749  -1.383  -0.126  1.00  0.00     0.235 A 
HETATM   15  O8  UNL     1      -6.991  -1.165  -0.140  1.00  0.00    -0.283 OA
HETATM   16  C16 UNL     1      -5.098  -2.646   0.127  1.00  0.00     0.236 A 
HETATM   17  O9  UNL     1      -5.651  -3.739   0.375  1.00  0.00    -0.283 OA
ENDROOT
BRANCH   1  18
HETATM   18  C3  UNL     1       2.583  -0.179  -0.242  1.00  0.00     0.390 C 
BRANCH  18  19
HETATM   19  N3  UNL     1       3.172   1.088   0.169  1.00  0.00    -0.282 N 
ATOM     20  H3  UNL     1       2.574   1.797   0.593  1.00  0.00     0.184 HD
BRANCH  19  21
HETATM   21  N2  UNL     1       4.520   1.360   0.002  1.00  0.00    -0.225 N 
HETATM   22  N1  UNL     1       5.372   0.893   0.797  1.00  0.00    -0.188 N 
ATOM     23  H1  UNL     1       5.028   0.312   1.561  1.00  0.00     0.218 HD
ATOM     24  H2  UNL     1       4.824   1.946  -0.776  1.00  0.00     0.210 HD
BRANCH  22  25
HETATM   25  O1  UNL     1       6.709   1.095   0.726  1.00  0.00    -0.234 OA
BRANCH  25  26
HETATM   26  C2  UNL     1       7.203   2.391   0.865  1.00  0.00     0.159 C 
HETATM   27  C1  UNL     1       7.803   2.749   1.975  1.00  0.00     0.040 C 
ENDBRANCH  25  26
ENDBRANCH  22  25
ENDBRANCH  19  21
ENDBRANCH  18  19
BRANCH  18  28
HETATM   28  N4  UNL     1       3.285  -1.186   0.523  1.00  0.00    -0.048 N 
ATOM     29  H43 UNL     1       4.299  -1.150   0.420  1.00  0.00     0.277 HD
ATOM     30  H42 UNL     1       3.263  -1.028   1.531  1.00  0.00     0.277 HD
ATOM     31  H41 UNL     1       2.872  -2.073   0.235  1.00  0.00     0.277 HD
ENDBRANCH  18  28
ENDBRANCH   1  18
BRANCH  10  32
HETATM   32  O5  UNL     1      -1.893   0.681  -0.676  1.00  0.00    -0.357 OA
ATOM     33  H5  UNL     1      -0.997   0.985  -0.761  1.00  0.00     0.217 HD
ENDBRANCH  10  32
BRANCH   7  34
HETATM   34  O4  UNL     1      -2.873  -4.596   0.489  1.00  0.00    -0.357 OA
ATOM     35  H4  UNL     1      -3.757  -4.932   0.579  1.00  0.00     0.217 HD
ENDBRANCH   7  34
BRANCH  13  36
HETATM   36  O6  UNL     1      -4.101   1.948  -0.868  1.00  0.00    -0.275 OA
BRANCH  36  37
HETATM   37  C14 UNL     1      -4.465   3.245  -1.130  1.00  0.00     0.377 C 
HETATM   38  N6  UNL     1      -3.517   4.283  -1.369  1.00  0.00    -0.032 NA
HETATM   39  O7  UNL     1      -5.719   3.483  -1.150  1.00  0.00    -0.242 OA
ENDBRANCH  36  37
ENDBRANCH  13  36
TORSDOF 10
