REMARK  10 active torsions:
REMARK  status: ('A' for Active; 'I' for Inactive)
REMARK    1  A    between atoms: C3_5  and  N2_6 
REMARK    2  A    between atoms: N2_6  and  N3_8 
REMARK    3  A    between atoms: C4_10  and  C5_11 
REMARK    4  A    between atoms: C4_10  and  N8_21 
REMARK    5  A    between atoms: C5_11  and  S1_12 
REMARK    6  A    between atoms: S1_12  and  C6_13 
REMARK    7  A    between atoms: N8_21  and  N9_23 
REMARK    8  A    between atoms: C7_25  and  C8_26 
REMARK    9  A    between atoms: C9_27  and  O1_28 
REMARK   10  A    between atoms: C12_38  and  O3_39 
ROOT
HETATM    1  N3  UNL     1       0.142   0.543  -0.705  1.00  0.00    -0.273 N 
ATOM      2  H3  UNL     1      -0.587  -0.004  -1.163  1.00  0.00     0.189 HD
HETATM    3  C4  UNL     1      -0.180   1.398   0.155  1.00  0.00     0.120 C 
ENDROOT
BRANCH   3   4
HETATM    4  C5  UNL     1       0.805   2.227   0.856  1.00  0.00     0.161 C 
BRANCH   4   5
HETATM    5  S1  UNL     1       0.398   3.998   0.722  1.00  0.00    -0.084 SA
BRANCH   5   6
HETATM    6  C6  UNL     1       0.539   4.435  -1.014  1.00  0.00     0.173 A 
HETATM    7  N4  UNL     1      -0.457   4.352  -1.880  1.00  0.00    -0.266 N 
HETATM    8  N5  UNL     1      -0.020   4.743  -3.060  1.00  0.00    -0.224 N 
ATOM      9  H4  UNL     1      -1.404   4.038  -1.670  1.00  0.00     0.190 HD
HETATM   10  N6  UNL     1       1.258   5.070  -2.919  1.00  0.00    -0.005 NA
ATOM     11  H5  UNL     1      -0.564   4.786  -3.922  1.00  0.00     0.205 HD
HETATM   12  N7  UNL     1       1.645   4.890  -1.654  1.00  0.00    -0.261 N 
ATOM     13  H7  UNL     1       2.569   5.058  -1.256  1.00  0.00     0.186 HD
ENDBRANCH   5   6
ENDBRANCH   4   5
ENDBRANCH   3   4
BRANCH   3  14
HETATM   14  N8  UNL     1      -1.572   1.577   0.492  1.00  0.00    -0.288 N 
ATOM     15  H8  UNL     1      -2.025   2.440   0.192  1.00  0.00     0.188 HD
BRANCH  14  16
HETATM   16  N9  UNL     1      -2.309   0.692   1.169  1.00  0.00    -0.308 N 
HETATM   17  C7  UNL     1      -3.247  -0.071   1.008  1.00  0.00     0.141 C 
ATOM     18  H9  UNL     1      -1.981   0.636   2.133  1.00  0.00     0.186 HD
BRANCH  17  19
HETATM   19  C8  UNL     1      -4.051  -0.362  -0.165  1.00  0.00     0.106 A 
HETATM   20  C9  UNL     1      -3.978   0.131  -1.429  1.00  0.00     0.173 A 
HETATM   21  N10 UNL     1      -4.950  -0.437  -2.190  1.00  0.00    -0.287 N 
HETATM   22  C10 UNL     1      -5.613  -1.272  -1.397  1.00  0.00     0.328 A 
ATOM     23  H10 UNL     1      -5.135  -0.257  -3.177  1.00  0.00     0.172 HD
HETATM   24  O2  UNL     1      -6.598  -1.968  -1.822  1.00  0.00    -0.246 OA
HETATM   25  N11 UNL     1      -5.091  -1.248  -0.163  1.00  0.00    -0.299 N 
HETATM   26  C11 UNL     1      -5.557  -2.022   0.966  1.00  0.00     0.161 C 
BRANCH  20  27
HETATM   27  O1  UNL     1      -3.109   1.052  -1.962  1.00  0.00    -0.344 OA
ATOM     28  H1  UNL     1      -3.058   1.397  -2.846  1.00  0.00     0.219 HD
ENDBRANCH  20  27
ENDBRANCH  17  19
ENDBRANCH  14  16
ENDBRANCH   3  14
BRANCH   1  29
HETATM   29  N2  UNL     1       1.467   0.327  -1.045  1.00  0.00    -0.130 N 
ATOM     30  H2  UNL     1       1.870   0.773  -1.869  1.00  0.00     0.205 HD
BRANCH  29  31
HETATM   31  C3  UNL     1       2.186  -0.451  -0.298  1.00  0.00     0.699 A 
HETATM   32  N1  UNL     1       3.491  -0.660  -0.637  1.00  0.00    -0.194 N 
HETATM   33  C2  UNL     1       4.279  -1.450   0.097  1.00  0.00     0.033 A 
ATOM     34  H1  UNL     1       3.872  -0.204  -1.466  1.00  0.00     0.184 HD
HETATM   35  C1  UNL     1       5.685  -1.622  -0.339  1.00  0.00     0.069 C 
HETATM   36  C13 UNL     1       3.800  -2.094   1.238  1.00  0.00     0.012 A 
HETATM   37  C12 UNL     1       2.493  -1.882   1.571  1.00  0.00     0.163 A 
HETATM   38  C14 UNL     1       4.738  -2.949   1.991  1.00  0.00     0.055 C 
HETATM   39  N12 UNL     1       1.734  -1.074   0.800  1.00  0.00    -0.169 N 
ATOM     40  H12 UNL     1       0.761  -0.929   1.068  1.00  0.00     0.186 HD
BRANCH  37  41
HETATM   41  O3  UNL     1       1.971  -2.505   2.701  1.00  0.00    -0.345 OA
ATOM     42  H3  UNL     1       2.505  -3.073   3.243  1.00  0.00     0.219 HD
ENDBRANCH  37  41
ENDBRANCH  29  31
ENDBRANCH   1  29
TORSDOF 10
