REMARK  14 active torsions:
REMARK  status: ('A' for Active; 'I' for Inactive)
REMARK    1  A    between atoms: N1_1  and  C1_4 
REMARK    2  A    between atoms: C2_7  and  N3_8 
REMARK    3  A    between atoms: N6_16  and  C4_17 
REMARK    4  A    between atoms: C5_19  and  C6_20 
REMARK    5  A    between atoms: C6_20  and  O2_21 
REMARK    6  A    between atoms: C6_20  and  C7_23 
REMARK    7  A    between atoms: C7_23  and  O3_24 
REMARK    8  A    between atoms: C7_23  and  C8_26 
REMARK    9  A    between atoms: C8_26  and  O4_27 
REMARK   10  A    between atoms: C9_30  and  O6_31 
REMARK   11  A    between atoms: C9_30  and  C10_33 
REMARK       I    between atoms: C10_33  and  N7_35 
REMARK   12  A    between atoms: N7_35  and  N8_37 
REMARK   13  A    between atoms: C11_40  and  O8_41 
REMARK   14  A    between atoms: C11_40  and  O9_43 
ROOT
HETATM    1  C4  UNL     1       0.547  -0.351   0.715  1.00  0.00     0.319 C 
HETATM    2  O1  UNL     1      -0.189   0.280  -0.235  1.00  0.00    -0.326 OA
HETATM    3  C5  UNL     1      -1.444  -0.141  -0.499  1.00  0.00     0.298 C 
HETATM    4  O5  UNL     1      -1.730  -1.472  -0.327  1.00  0.00    -0.310 OA
HETATM    5  C9  UNL     1      -0.567  -2.221  -0.326  1.00  0.00     0.312 C 
HETATM    6  C11 UNL     1       0.162  -1.790   0.956  1.00  0.00     0.275 C 
ENDROOT
BRANCH   1   7
HETATM    7  N6  UNL     1       1.955  -0.222   0.350  1.00  0.00    -0.224 N 
HETATM    8  N5  UNL     1       2.893  -1.116   0.246  1.00  0.00    -0.236 N 
HETATM    9  N4  UNL     1       4.038  -0.606  -0.108  1.00  0.00    -0.279 N 
ATOM     10  H5  UNL     1       2.748  -2.110   0.423  1.00  0.00     0.208 HD
HETATM   11  C3  UNL     1       3.847   0.716  -0.248  1.00  0.00     0.140 A 
ATOM     12  H4  UNL     1       4.911  -1.113  -0.251  1.00  0.00     0.189 HD
HETATM   13  C2  UNL     1       4.686   1.741  -0.599  1.00  0.00     0.147 A 
HETATM   14  C12 UNL     1       2.520   0.946   0.046  1.00  0.00     0.173 A 
HETATM   15  N2  UNL     1       4.250   2.990  -0.669  1.00  0.00    -0.175 N 
HETATM   16  C1  UNL     1       2.951   3.222  -0.382  1.00  0.00     0.679 A 
ATOM     17  H2  UNL     1       4.875   3.752  -0.931  1.00  0.00     0.186 HD
HETATM   18  N9  UNL     1       2.105   2.235  -0.034  1.00  0.00    -0.173 N 
ATOM     19  H9  UNL     1       1.132   2.461   0.174  1.00  0.00     0.186 HD
BRANCH  13  20
HETATM   20  N3  UNL     1       5.926   1.466  -0.866  1.00  0.00    -0.383 N 
ATOM     21  H32 UNL     1       6.551   2.229  -1.127  1.00  0.00     0.157 HD
ATOM     22  H31 UNL     1       6.262   0.504  -0.812  1.00  0.00     0.157 HD
ENDBRANCH  13  20
BRANCH  16  23
HETATM   23  N1  UNL     1       2.548   4.444  -0.455  1.00  0.00    -0.234 N 
ATOM     24  H12 UNL     1       3.189   5.192  -0.719  1.00  0.00     0.174 HD
ATOM     25  H11 UNL     1       1.567   4.619  -0.238  1.00  0.00     0.174 HD
ENDBRANCH  16  23
ENDBRANCH   1   7
BRANCH   6  26
HETATM   26  O8  UNL     1      -0.790  -1.845   1.972  1.00  0.00    -0.357 OA
ATOM     27  H8  UNL     1      -1.032  -2.751   2.124  1.00  0.00     0.213 HD
ENDBRANCH   6  26
BRANCH   6  28
HETATM   28  O9  UNL     1       1.199  -2.611   1.279  1.00  0.00    -0.357 OA
ATOM     29  H9  UNL     1       0.957  -3.517   1.431  1.00  0.00     0.213 HD
ENDBRANCH   6  28
BRANCH   3  30
HETATM   30  C6  UNL     1      -2.509   0.643   0.283  1.00  0.00     0.204 C 
BRANCH  30  31
HETATM   31  O2  UNL     1      -3.782   0.172  -0.023  1.00  0.00    -0.388 OA
ATOM     32  H2  UNL     1      -4.441   0.657   0.461  1.00  0.00     0.210 HD
ENDBRANCH  30  31
BRANCH  30  33
HETATM   33  C7  UNL     1      -2.413   2.093  -0.151  1.00  0.00     0.175 C 
BRANCH  33  34
HETATM   34  O3  UNL     1      -2.649   2.089  -1.546  1.00  0.00    -0.391 OA
ATOM     35  H3  UNL     1      -2.589   2.997  -1.818  1.00  0.00     0.210 HD
ENDBRANCH  33  34
BRANCH  33  36
HETATM   36  C8  UNL     1      -3.482   2.943   0.461  1.00  0.00     0.198 C 
BRANCH  36  37
HETATM   37  O4  UNL     1      -3.371   4.222  -0.086  1.00  0.00    -0.398 OA
ATOM     38  H4  UNL     1      -4.050   4.762   0.302  1.00  0.00     0.209 HD
ENDBRANCH  36  37
ENDBRANCH  33  36
ENDBRANCH  30  33
ENDBRANCH   3  30
BRANCH   5  39
HETATM   39  O6  UNL     1       0.202  -1.750  -1.408  1.00  0.00    -0.354 OA
ATOM     40  H6  UNL     1       1.001  -2.264  -1.407  1.00  0.00     0.213 HD
ENDBRANCH   5  39
BRANCH   5  41
HETATM   41  C10 UNL     1      -0.765  -3.671  -0.412  1.00  0.00     0.304 C 
HETATM   42  O7  UNL     1      -0.222  -4.280  -1.389  1.00  0.00    -0.265 OA
HETATM   43  N7  UNL     1      -1.523  -4.378   0.539  1.00  0.00    -0.272 N 
ATOM     44  H7  UNL     1      -1.963  -3.898   1.325  1.00  0.00     0.189 HD
BRANCH  43  45
HETATM   45  N8  UNL     1      -1.655  -5.774   0.370  1.00  0.00    -0.342 N 
ATOM     46  H82 UNL     1      -1.209  -6.239  -0.421  1.00  0.00     0.176 HD
ATOM     47  H81 UNL     1      -2.205  -6.287   1.060  1.00  0.00     0.176 HD
ENDBRANCH  43  45
ENDBRANCH   5  41
TORSDOF 14
