REMARK  11 active torsions:
REMARK  status: ('A' for Active; 'I' for Inactive)
REMARK    1  A    between atoms: N1_1  and  O1_4 
REMARK    2  A    between atoms: O1_4  and  C1_5 
REMARK       I    between atoms: C1_5  and  N2_7 
REMARK    3  A    between atoms: N2_7  and  C2_9 
REMARK    4  A    between atoms: N4_12  and  C3_13 
REMARK    5  A    between atoms: C4_17  and  O3_18 
REMARK    6  A    between atoms: N6_22  and  C6_24 
REMARK    7  A    between atoms: C7_27  and  C8_28 
REMARK       I    between atoms: C8_28  and  N9_30 
REMARK    8  A    between atoms: N9_30  and  C9_32 
REMARK    9  A    between atoms: C9_32  and  O6_33 
REMARK   10  A    between atoms: C9_32  and  C10_35 
REMARK   11  A    between atoms: C11_39  and  O10_40 
ROOT
HETATM    1  C2  UNL     1      -2.717   0.721  -0.804  1.00  0.00     0.162 A 
HETATM    2  N3  UNL     1      -3.228   0.223   0.309  1.00  0.00    -0.275 N 
ATOM      3  H3  UNL     1      -4.164   0.448   0.646  1.00  0.00     0.189 HD
HETATM    4  N4  UNL     1      -2.420  -0.581   0.930  1.00  0.00    -0.217 N 
HETATM    5  C5  UNL     1      -1.266  -0.649   0.198  1.00  0.00     0.163 A 
HETATM    6  N6  UNL     1      -0.312  -1.373   0.594  1.00  0.00    -0.332 N 
ATOM      7  H6  UNL     1      -0.514  -1.859   1.468  1.00  0.00     0.165 HD
HETATM    8  C11 UNL     1      -1.426   0.162  -0.898  1.00  0.00     0.157 A 
ENDROOT
BRANCH   4   9
HETATM    9  C3  UNL     1      -2.693  -1.292   2.190  1.00  0.00     0.461 C 
HETATM   10  N5  UNL     1      -2.349  -2.716   2.093  1.00  0.00     0.021 N 
HETATM   11  C4  UNL     1      -3.765  -2.955   1.935  1.00  0.00     0.475 C 
ATOM     12  H52 UNL     1      -1.671  -3.056   1.411  1.00  0.00     0.288 HD
ATOM     13  H51 UNL     1      -1.806  -3.185   2.818  1.00  0.00     0.288 HD
HETATM   14  O4  UNL     1      -4.022  -1.647   2.328  1.00  0.00    -0.287 OA
BRANCH  11  15
HETATM   15  O3  UNL     1      -4.061  -3.189   0.583  1.00  0.00    -0.349 OA
ATOM     16  H3  UNL     1      -4.992  -3.346   0.479  1.00  0.00     0.214 HD
ENDBRANCH  11  15
ENDBRANCH   4   9
BRANCH   6  17
HETATM   17  C6  UNL     1       0.967  -1.653   0.090  1.00  0.00     0.340 C 
HETATM   18  N7  UNL     1       1.635  -2.743   0.803  1.00  0.00    -0.092 NA
HETATM   19  N8  UNL     1       2.991  -2.416   0.863  1.00  0.00    -0.102 NA
HETATM   20  C7  UNL     1       3.082  -1.267  -0.012  1.00  0.00     0.326 C 
HETATM   21  O9  UNL     1       1.888  -0.598   0.303  1.00  0.00    -0.319 OA
BRANCH  20  22
HETATM   22  C8  UNL     1       4.274  -0.494   0.298  1.00  0.00     0.266 C 
HETATM   23  O5  UNL     1       5.047  -0.857   1.212  1.00  0.00    -0.269 OA
HETATM   24  N9  UNL     1       4.574   0.677  -0.430  1.00  0.00    -0.323 N 
ATOM     25  H9  UNL     1       3.947   0.977  -1.176  1.00  0.00     0.165 HD
BRANCH  24  26
HETATM   26  C9  UNL     1       5.753   1.458  -0.137  1.00  0.00     0.323 C 
BRANCH  26  27
HETATM   27  O6  UNL     1       6.610   1.456  -1.248  1.00  0.00    -0.367 OA
ATOM     28  H6  UNL     1       7.386   1.970  -1.055  1.00  0.00     0.212 HD
ENDBRANCH  26  27
BRANCH  26  29
HETATM   29  C10 UNL     1       5.318   2.836   0.161  1.00  0.00     0.224 C 
HETATM   30  O7  UNL     1       4.551   3.043   1.117  1.00  0.00    -0.645 OA
HETATM   31  O8  UNL     1       5.758   3.881  -0.611  1.00  0.00    -0.645 OA
ENDBRANCH  26  29
ENDBRANCH  24  26
ENDBRANCH  20  22
ENDBRANCH   6  17
BRANCH   8  32
HETATM   32  O10 UNL     1      -0.533   0.419  -1.928  1.00  0.00    -0.354 OA
ATOM     33  H10 UNL     1       0.337   0.042  -1.991  1.00  0.00     0.218 HD
ENDBRANCH   8  32
BRANCH   1  34
HETATM   34  N2  UNL     1      -3.267   1.619  -1.750  1.00  0.00    -0.283 N 
HETATM   35  C1  UNL     1      -4.565   2.181  -1.655  1.00  0.00     0.388 C 
HETATM   36  O2  UNL     1      -5.388   1.964  -0.737  1.00  0.00    -0.236 OA
ATOM     37  H2  UNL     1      -2.692   1.878  -2.552  1.00  0.00     0.172 HD
BRANCH  35  38
HETATM   38  O1  UNL     1      -5.032   3.071  -2.650  1.00  0.00    -0.188 OA
BRANCH  38  39
HETATM   39  N1  UNL     1      -6.274   3.632  -2.593  1.00  0.00    -0.301 N 
ATOM     40  H12 UNL     1      -6.872   3.392  -1.802  1.00  0.00     0.184 HD
ATOM     41  H11 UNL     1      -6.611   4.274  -3.311  1.00  0.00     0.184 HD
ENDBRANCH  38  39
ENDBRANCH  35  38
ENDBRANCH   1  34
TORSDOF 11
