REMARK  12 active torsions:
REMARK  status: ('A' for Active; 'I' for Inactive)
REMARK    1  A    between atoms: N1_1  and  C1_4 
REMARK    2  A    between atoms: N5_15  and  C5_16 
REMARK    3  A    between atoms: C6_18  and  O3_19 
REMARK    4  A    between atoms: C6_18  and  C7_21 
REMARK       I    between atoms: C7_21  and  N6_23 
REMARK    5  A    between atoms: N6_23  and  C8_25 
REMARK    6  A    between atoms: C8_25  and  C9_26 
REMARK    7  A    between atoms: C10_29  and  O7_30 
REMARK    8  A    between atoms: C10_29  and  O8_32 
REMARK    9  A    between atoms: O8_32  and  N7_33 
REMARK   10  A    between atoms: N7_33  and  O9_34 
REMARK   11  A    between atoms: C11_36  and  O10_37 
REMARK   12  A    between atoms: C11_36  and  O11_39 
ROOT
HETATM    1  C5  UNL     1      -1.109  -0.514  -0.224  1.00  0.00     0.318 C 
HETATM    2  O2  UNL     1      -0.095   0.236   0.364  1.00  0.00    -0.310 OA
HETATM    3  C6  UNL     1       1.072  -0.295  -0.179  1.00  0.00     0.313 C 
HETATM    4  C10 UNL     1       0.879  -1.782  -0.146  1.00  0.00     0.313 C 
HETATM    5  C11 UNL     1      -0.613  -1.925   0.016  1.00  0.00     0.273 C 
ENDROOT
BRANCH   1   6
HETATM    6  N5  UNL     1      -2.396  -0.306   0.350  1.00  0.00    -0.233 N 
HETATM    7  C3  UNL     1      -3.086   0.831   0.421  1.00  0.00     0.169 A 
HETATM    8  C2  UNL     1      -2.871   2.146   0.014  1.00  0.00     0.292 A 
HETATM    9  C4  UNL     1      -4.275   0.560   1.058  1.00  0.00     0.171 A 
HETATM   10  N2  UNL     1      -3.819   3.073   0.259  1.00  0.00    -0.154 N 
HETATM   11  O1  UNL     1      -1.792   2.385  -0.562  1.00  0.00    -0.265 OA
HETATM   12  C1  UNL     1      -4.957   2.754   0.882  1.00  0.00     0.680 A 
ATOM     13  H2  UNL     1      -3.664   4.037  -0.037  1.00  0.00     0.187 HD
HETATM   14  N8  UNL     1      -5.204   1.484   1.294  1.00  0.00    -0.173 N 
ATOM     15  H8  UNL     1      -6.074   1.245   1.770  1.00  0.00     0.186 HD
HETATM   16  N3  UNL     1      -4.275  -0.749   1.359  1.00  0.00    -0.268 N 
HETATM   17  N4  UNL     1      -3.136  -1.237   0.921  1.00  0.00    -0.236 N 
ATOM     18  H3  UNL     1      -5.015  -1.264   1.835  1.00  0.00     0.190 HD
ATOM     19  H4  UNL     1      -2.859  -2.214   1.011  1.00  0.00     0.208 HD
BRANCH  12  20
HETATM   20  N1  UNL     1      -5.886   3.615   1.133  1.00  0.00    -0.234 N 
ATOM     21  H12 UNL     1      -5.700   4.569   0.824  1.00  0.00     0.174 HD
ATOM     22  H11 UNL     1      -6.755   3.371   1.609  1.00  0.00     0.174 HD
ENDBRANCH  12  20
ENDBRANCH   1   6
BRANCH   5  23
HETATM   23  O10 UNL     1      -0.912  -2.264   1.334  1.00  0.00    -0.358 OA
ATOM     24  H10 UNL     1      -0.601  -3.149   1.485  1.00  0.00     0.213 HD
ENDBRANCH   5  23
BRANCH   5  25
HETATM   25  O11 UNL     1      -1.198  -2.751  -0.911  1.00  0.00    -0.358 OA
ATOM     26  H11 UNL     1      -0.887  -3.636  -0.760  1.00  0.00     0.213 HD
ENDBRANCH   5  25
BRANCH   3  27
HETATM   27  O3  UNL     1       1.170   0.123  -1.515  1.00  0.00    -0.354 OA
ATOM     28  H3  UNL     1       1.966  -0.239  -1.885  1.00  0.00     0.213 HD
ENDBRANCH   3  27
BRANCH   3  29
HETATM   29  C7  UNL     1       2.275   0.141   0.562  1.00  0.00     0.287 C 
HETATM   30  O4  UNL     1       2.398  -0.126   1.776  1.00  0.00    -0.267 OA
HETATM   31  N6  UNL     1       3.306   0.869  -0.094  1.00  0.00    -0.346 N 
ATOM     32  H6  UNL     1       3.204   1.087  -1.085  1.00  0.00     0.163 HD
BRANCH  31  33
HETATM   33  C8  UNL     1       4.492   1.309   0.600  1.00  0.00     0.235 C 
BRANCH  33  34
HETATM   34  C9  UNL     1       5.366   2.028  -0.329  1.00  0.00     0.191 C 
HETATM   35  O5  UNL     1       5.051   2.187  -1.521  1.00  0.00    -0.647 OA
HETATM   36  O6  UNL     1       6.574   2.539   0.147  1.00  0.00    -0.647 OA
ENDBRANCH  33  34
ENDBRANCH  31  33
ENDBRANCH   3  29
BRANCH   4  37
HETATM   37  O7  UNL     1       1.505  -2.319   0.975  1.00  0.00    -0.355 OA
ATOM     38  H7  UNL     1       1.383  -3.261   0.996  1.00  0.00     0.213 HD
ENDBRANCH   4  37
BRANCH   4  39
HETATM   39  O8  UNL     1       1.371  -2.430  -1.261  1.00  0.00    -0.208 OA
BRANCH  39  40
HETATM   40  N7  UNL     1       1.158  -3.736  -1.145  1.00  0.00     0.067 NA
BRANCH  40  41
HETATM   41  O9  UNL     1       1.918  -4.498  -1.950  1.00  0.00    -0.271 OA
ATOM     42  H9  UNL     1       1.766  -5.432  -1.867  1.00  0.00     0.241 HD
ENDBRANCH  40  41
ENDBRANCH  39  40
ENDBRANCH   4  39
TORSDOF 12
