REMARK  10 active torsions:
REMARK  status: ('A' for Active; 'I' for Inactive)
REMARK    1  A    between atoms: C2_2  and  O1_3 
REMARK    2  A    between atoms: C2_2  and  N1_5 
REMARK    3  A    between atoms: N1_5  and  C3_7 
REMARK    4  A    between atoms: C5_9  and  C6_10 
REMARK       I    between atoms: C6_10  and  N2_12 
REMARK    5  A    between atoms: N2_12  and  C7_14 
REMARK    6  A    between atoms: N4_21  and  C11_22 
REMARK    7  A    between atoms: C11_22  and  C12_23 
REMARK    8  A    between atoms: C13_24  and  O3_25 
REMARK    9  A    between atoms: N6_31  and  N7_32 
REMARK   10  A    between atoms: N7_32  and  C15_34 
ROOT
HETATM    1  C3  UNL     1       0.256  -1.865   0.156  1.00  0.00     0.106 A 
HETATM    2  C4  UNL     1       1.577  -1.486   0.377  1.00  0.00     0.067 A 
HETATM    3  C5  UNL     1       1.627  -0.439   1.258  1.00  0.00     0.051 A 
HETATM    4  C10 UNL     1       0.312  -0.182   1.573  1.00  0.00     0.110 A 
HETATM    5  N4  UNL     1      -0.515  -1.052   0.896  1.00  0.00    -0.338 N 
ENDROOT
BRANCH   5   6
HETATM    6  C11 UNL     1      -1.938  -0.957   0.988  1.00  0.00     0.178 C 
BRANCH   6   7
HETATM    7  C12 UNL     1      -2.565   0.193   0.246  1.00  0.00     0.081 A 
HETATM    8  C13 UNL     1      -2.747   0.186  -1.102  1.00  0.00     0.157 A 
HETATM    9  N5  UNL     1      -3.306   1.273  -1.657  1.00  0.00    -0.287 N 
HETATM   10  C14 UNL     1      -3.673   2.332  -0.905  1.00  0.00     0.350 A 
ATOM     11  H5  UNL     1      -3.456   1.299  -2.666  1.00  0.00     0.172 HD
HETATM   12  O4  UNL     1      -4.186   3.292  -1.540  1.00  0.00    -0.244 OA
HETATM   13  N6  UNL     1      -3.528   2.413   0.419  1.00  0.00    -0.165 N 
HETATM   14  C16 UNL     1      -2.956   1.301   0.992  1.00  0.00     0.282 A 
HETATM   15  O6  UNL     1      -2.778   1.269   2.222  1.00  0.00    -0.265 OA
BRANCH   8  16
HETATM   16  O3  UNL     1      -2.385  -0.890  -1.915  1.00  0.00    -0.345 OA
ATOM     17  H3  UNL     1      -2.512  -0.895  -2.856  1.00  0.00     0.219 HD
ENDBRANCH   8  16
BRANCH  13  18
HETATM   18  N7  UNL     1      -3.875   3.465   1.243  1.00  0.00    -0.264 N 
ATOM     19  H7  UNL     1      -3.677   3.298   2.229  1.00  0.00     0.190 HD
BRANCH  18  20
HETATM   20  C15 UNL     1      -4.430   4.681   0.994  1.00  0.00     0.369 C 
HETATM   21  O5  UNL     1      -4.782   5.184  -0.073  1.00  0.00    -0.282 OA
ENDBRANCH  18  20
ENDBRANCH  13  18
ENDBRANCH   6   7
ENDBRANCH   5   6
BRANCH   1  22
HETATM   22  N1  UNL     1      -0.153  -2.961  -0.655  1.00  0.00    -0.350 N 
ATOM     23  H1  UNL     1      -1.141  -3.189  -0.766  1.00  0.00     0.163 HD
BRANCH  22  24
HETATM   24  C2  UNL     1       0.868  -3.746  -1.320  1.00  0.00     0.214 C 
HETATM   25  C1  UNL     1       0.259  -4.861  -2.145  1.00  0.00     0.063 C 
BRANCH  24  26
HETATM   26  O1  UNL     1       1.680  -4.280  -0.297  1.00  0.00    -0.377 OA
ATOM     27  H1  UNL     1       2.062  -3.581   0.220  1.00  0.00     0.212 HD
ENDBRANCH  24  26
ENDBRANCH  22  24
ENDBRANCH   1  22
BRANCH   3  28
HETATM   28  C6  UNL     1       2.795   0.267   1.766  1.00  0.00     0.259 C 
HETATM   29  O2  UNL     1       2.641   1.209   2.584  1.00  0.00    -0.267 OA
HETATM   30  N2  UNL     1       4.119  -0.060   1.375  1.00  0.00    -0.303 N 
ATOM     31  H2  UNL     1       4.527  -0.964   1.613  1.00  0.00     0.171 HD
BRANCH  30  32
HETATM   32  C7  UNL     1       4.808   0.835   0.696  1.00  0.00     0.151 A 
HETATM   33  N3  UNL     1       4.409   2.048   0.318  1.00  0.00    -0.346 N 
HETATM   34  C8  UNL     1       5.234   2.799  -0.353  1.00  0.00     0.097 A 
ATOM     35  H3  UNL     1       3.474   2.383   0.550  1.00  0.00     0.167 HD
HETATM   36  C9  UNL     1       6.477   2.290  -0.633  1.00  0.00     0.070 A 
HETATM   37  S1  UNL     1       6.398   0.746   0.088  1.00  0.00    -0.064 SA
ENDBRANCH  30  32
ENDBRANCH   3  28
TORSDOF 10
