REMARK  8 active torsions:
REMARK  status: ('A' for Active; 'I' for Inactive)
REMARK    1  A    between atoms: C4_10  and  C5_11 
REMARK    2  A    between atoms: N4_16  and  C7_17 
REMARK    3  A    between atoms: C7_17  and  C8_18 
REMARK    4  A    between atoms: C8_18  and  C9_19 
REMARK    5  A    between atoms: C9_19  and  C10_20 
REMARK       I    between atoms: C10_20  and  N5_22 
REMARK    6  A    between atoms: N5_22  and  N6_24 
REMARK    7  A    between atoms: C11_27  and  O4_28 
REMARK    8  A    between atoms: C13_33  and  N8_34 
ROOT
HETATM    1  C5  UNL     1      -0.445  -0.131  -0.109  1.00  0.00     0.088 A 
HETATM    2  N3  UNL     1       0.253  -0.533   0.950  1.00  0.00    -0.305 N 
ATOM      3  H3  UNL     1      -0.101  -0.555   1.906  1.00  0.00     0.171 HD
HETATM    4  C6  UNL     1       1.501  -0.909   0.577  1.00  0.00     0.329 A 
HETATM    5  O2  UNL     1       2.332  -1.329   1.435  1.00  0.00    -0.246 OA
HETATM    6  N4  UNL     1       1.627  -0.752  -0.735  1.00  0.00    -0.278 N 
HETATM    7  C11 UNL     1       0.444  -0.275  -1.183  1.00  0.00     0.173 A 
ENDROOT
BRANCH   1   8
HETATM    8  C4  UNL     1      -1.806   0.329  -0.156  1.00  0.00     0.053 C 
HETATM    9  C3  UNL     1      -2.919  -0.280   0.178  1.00  0.00     0.062 A 
HETATM   10  C2  UNL     1      -2.953  -1.631   0.680  1.00  0.00     0.259 A 
HETATM   11  C12 UNL     1      -4.230   0.448   0.079  1.00  0.00     0.071 A 
HETATM   12  N2  UNL     1      -4.140  -2.332   1.095  1.00  0.00    -0.308 N 
HETATM   13  O1  UNL     1      -1.906  -2.346   0.802  1.00  0.00    -0.267 OA
HETATM   14  C1  UNL     1      -5.356  -1.610   0.987  1.00  0.00     0.121 A 
ATOM     15  H2  UNL     1      -4.108  -3.289   1.445  1.00  0.00     0.170 HD
HETATM   16  N1  UNL     1      -6.496  -2.096   1.316  1.00  0.00    -0.384 N 
HETATM   17  C14 UNL     1      -5.355  -0.228   0.475  1.00  0.00     0.080 A 
ATOM     18  H12 UNL     1      -6.497  -3.052   1.670  1.00  0.00     0.157 HD
ATOM     19  H11 UNL     1      -7.371  -1.577   1.238  1.00  0.00     0.157 HD
HETATM   20  S1  UNL     1      -6.577   0.958   0.195  1.00  0.00    -0.042 SA
HETATM   21  C13 UNL     1      -5.585   2.215  -0.399  1.00  0.00     0.217 A 
HETATM   22  N7  UNL     1      -4.397   1.666  -0.351  1.00  0.00    -0.330 N 
ATOM     23  H7  UNL     1      -3.586   2.203  -0.657  1.00  0.00     0.168 HD
BRANCH  21  24
HETATM   24  N8  UNL     1      -5.883   3.528  -0.847  1.00  0.00    -0.090 N 
HETATM   25  O5  UNL     1      -7.059   3.906  -0.834  1.00  0.00    -0.530 OA
HETATM   26  O6  UNL     1      -4.905   4.367  -1.285  1.00  0.00    -0.530 OA
ENDBRANCH  21  24
ENDBRANCH   1   8
BRANCH   7  27
HETATM   27  O4  UNL     1       0.080   0.049  -2.485  1.00  0.00    -0.344 OA
ATOM     28  H4  UNL     1       0.683  -0.049  -3.213  1.00  0.00     0.219 HD
ENDBRANCH   7  27
BRANCH   6  29
HETATM   29  C7  UNL     1       2.761  -1.004  -1.553  1.00  0.00     0.136 C 
BRANCH  29  30
HETATM   30  C8  UNL     1       3.675   0.128  -1.826  1.00  0.00     0.030 C 
BRANCH  30  31
HETATM   31  C9  UNL     1       4.376   0.775  -0.705  1.00  0.00     0.106 C 
BRANCH  31  32
HETATM   32  C10 UNL     1       5.320  -0.031   0.063  1.00  0.00     0.235 C 
HETATM   33  O3  UNL     1       5.542  -1.219  -0.255  1.00  0.00    -0.272 OA
HETATM   34  N5  UNL     1       5.994   0.529   1.176  1.00  0.00    -0.277 N 
ATOM     35  H5  UNL     1       5.806   1.500   1.426  1.00  0.00     0.189 HD
BRANCH  34  36
HETATM   36  N6  UNL     1       6.911  -0.202   1.949  1.00  0.00    -0.343 N 
ATOM     37  H62 UNL     1       7.087  -1.172   1.685  1.00  0.00     0.176 HD
ATOM     38  H61 UNL     1       7.396   0.201   2.750  1.00  0.00     0.176 HD
ENDBRANCH  34  36
ENDBRANCH  31  32
ENDBRANCH  30  31
ENDBRANCH  29  30
ENDBRANCH   6  29
TORSDOF 8
