REMARK  10 active torsions:
REMARK  status: ('A' for Active; 'I' for Inactive)
REMARK    1  A    between atoms: O1_2  and  N1_3 
REMARK       I    between atoms: N1_3  and  C2_5 
REMARK       I    between atoms: C2_5  and  N2_7 
REMARK    2  A    between atoms: N2_7  and  C3_9 
REMARK    3  A    between atoms: C3_9  and  C4_10 
REMARK    4  A    between atoms: C3_9  and  C10_32 
REMARK    5  A    between atoms: C4_10  and  C6_15 
REMARK       I    between atoms: C6_15  and  N5_17 
REMARK    6  A    between atoms: N5_17  and  C7_19 
REMARK    7  A    between atoms: C8_24  and  N8_25 
REMARK    8  A    between atoms: N8_25  and  O4_26 
REMARK    9  A    between atoms: C13_35  and  O5_36 
REMARK   10  A    between atoms: C14_38  and  O6_39 
ROOT
HETATM    1  C4  UNL     1       0.476  -0.204   1.090  1.00  0.00     0.115 C 
HETATM    2  N3  UNL     1       1.188  -1.182   0.927  1.00  0.00    -0.290 N 
ATOM      3  H3  UNL     1       2.172  -0.934   1.027  1.00  0.00     0.178 HD
HETATM    4  C5  UNL     1       1.053  -2.472   0.658  1.00  0.00     0.182 C 
HETATM    5  N4  UNL     1       0.968  -3.610   0.426  1.00  0.00    -0.172 NA
ENDROOT
BRANCH   1   6
HETATM    6  C3  UNL     1      -0.972  -0.179   1.019  1.00  0.00     0.176 C 
BRANCH   6   7
HETATM    7  N2  UNL     1      -1.514  -1.477   0.617  1.00  0.00    -0.327 N 
HETATM    8  C2  UNL     1      -2.354  -2.234   1.455  1.00  0.00     0.340 C 
HETATM    9  N1  UNL     1      -2.875  -3.495   1.062  1.00  0.00    -0.217 N 
HETATM   10  O2  UNL     1      -2.653  -1.787   2.581  1.00  0.00    -0.245 OA
ATOM     11  H1  UNL     1      -2.636  -3.871   0.145  1.00  0.00     0.199 HD
ATOM     12  H2  UNL     1      -1.275  -1.846  -0.303  1.00  0.00     0.165 HD
BRANCH   9  13
HETATM   13  O1  UNL     1      -3.691  -4.215   1.889  1.00  0.00    -0.281 OA
HETATM   14  C1  UNL     1      -3.591  -5.557   1.552  1.00  0.00     0.237 C 
ENDBRANCH   9  13
ENDBRANCH   6   7
BRANCH   6  15
HETATM   15  C10 UNL     1      -1.516   0.783   0.025  1.00  0.00    -0.027 A 
HETATM   16  C11 UNL     1      -2.169   1.894   0.502  1.00  0.00     0.012 A 
HETATM   17  C12 UNL     1      -2.708   2.856  -0.340  1.00  0.00     0.040 A 
HETATM   18  C13 UNL     1      -2.587   2.697  -1.717  1.00  0.00     0.098 A 
HETATM   19  C14 UNL     1      -1.932   1.583  -2.220  1.00  0.00     0.099 A 
HETATM   20  C15 UNL     1      -1.410   0.648  -1.322  1.00  0.00     0.049 A 
BRANCH  18  21
HETATM   21  O5  UNL     1      -3.115   3.642  -2.587  1.00  0.00    -0.358 OA
ATOM     22  H5  UNL     1      -3.032   3.533  -3.527  1.00  0.00     0.217 HD
ENDBRANCH  18  21
BRANCH  19  23
HETATM   23  O6  UNL     1      -1.800   1.405  -3.579  1.00  0.00    -0.358 OA
ATOM     24  H6  UNL     1      -1.351   0.642  -3.924  1.00  0.00     0.217 HD
ENDBRANCH  19  23
ENDBRANCH   6  15
ENDBRANCH   1   6
BRANCH   1  25
HETATM   25  C6  UNL     1       1.210   1.062   1.393  1.00  0.00     0.285 C 
HETATM   26  O3  UNL     1       0.627   2.128   1.599  1.00  0.00    -0.265 OA
HETATM   27  N5  UNL     1       2.655   1.078   1.452  1.00  0.00    -0.153 N 
ATOM     28  H5  UNL     1       3.135   0.883   2.331  1.00  0.00     0.187 HD
BRANCH  27  29
HETATM   29  C7  UNL     1       3.332   1.340   0.389  1.00  0.00     0.702 A 
HETATM   30  N6  UNL     1       2.842   1.614  -0.828  1.00  0.00    -0.129 N 
HETATM   31  N7  UNL     1       3.853   1.828  -1.667  1.00  0.00    -0.258 N 
ATOM     32  H6  UNL     1       1.852   1.652  -1.072  1.00  0.00     0.205 HD
HETATM   33  C8  UNL     1       4.992   1.686  -0.972  1.00  0.00     0.228 A 
ATOM     34  H7  UNL     1       3.776   2.058  -2.658  1.00  0.00     0.190 HD
HETATM   35  N10 UNL     1       4.655   1.388   0.283  1.00  0.00    -0.160 N 
ATOM     36  H10 UNL     1       5.312   1.222   1.045  1.00  0.00     0.187 HD
BRANCH  33  37
HETATM   37  N8  UNL     1       6.330   1.822  -1.450  1.00  0.00    -0.026 NA
HETATM   38  C9  UNL     1       7.157   2.226  -0.407  1.00  0.00     0.187 C 
HETATM   39  N9  UNL     1       7.832   2.574   0.447  1.00  0.00    -0.176 NA
BRANCH  37  40
HETATM   40  O4  UNL     1       6.720   0.590  -1.901  1.00  0.00    -0.292 OA
ATOM     41  H4  UNL     1       7.611   0.681  -2.219  1.00  0.00     0.238 HD
ENDBRANCH  37  40
ENDBRANCH  33  37
ENDBRANCH  27  29
ENDBRANCH   1  25
TORSDOF 10
