REMARK  5 active torsions:
REMARK  status: ('A' for Active; 'I' for Inactive)
REMARK    1  A    between atoms: N1_1  and  C1_4 
REMARK    2  A    between atoms: N2_7  and  C4_8 
REMARK    3  A    between atoms: C5_9  and  C6_10 
REMARK    4  A    between atoms: C6_10  and  C7_12 
REMARK    5  A    between atoms: C11_16  and  O2_17 
ROOT
HETATM    1  C4  UNL     1       1.430   1.151   0.473  1.00  0.00     0.108 C 
HETATM    2  C5  UNL     1       0.408   0.353   0.226  1.00  0.00     0.073 C 
ENDROOT
BRANCH   2   3
HETATM    3  C6  UNL     1      -0.938   0.845   0.380  1.00  0.00     0.183 C 
HETATM    4  O1  UNL     1      -1.133   2.054   0.754  1.00  0.00    -0.288 OA
BRANCH   3   5
HETATM    5  C7  UNL     1      -2.125   0.035   0.129  1.00  0.00     0.017 A 
HETATM    6  C8  UNL     1      -2.051  -1.279  -0.278  1.00  0.00     0.015 A 
HETATM    7  C9  UNL     1      -3.217  -2.022  -0.508  1.00  0.00     0.004 A 
HETATM    8  C10 UNL     1      -4.471  -1.476  -0.339  1.00  0.00     0.036 A 
HETATM    9  C11 UNL     1      -4.550  -0.168   0.067  1.00  0.00     0.066 A 
HETATM   10  C12 UNL     1      -3.396   0.552   0.290  1.00  0.00     0.052 A 
BRANCH   9  11
HETATM   11  O2  UNL     1      -5.811   0.407   0.246  1.00  0.00    -0.361 OA
ATOM     12  H2  UNL     1      -5.866   1.313   0.527  1.00  0.00     0.217 HD
ENDBRANCH   9  11
ENDBRANCH   3   5
ENDBRANCH   2   3
BRANCH   1  13
HETATM   13  N2  UNL     1       2.781   0.652   0.318  1.00  0.00    -0.302 N 
HETATM   14  C3  UNL     1       3.916   1.312   0.522  1.00  0.00     0.107 A 
HETATM   15  C2  UNL     1       5.064   0.655   0.317  1.00  0.00     0.056 A 
HETATM   16  C1  UNL     1       4.972  -0.650  -0.088  1.00  0.00     0.086 A 
HETATM   17  S1  UNL     1       3.289  -0.888  -0.161  1.00  0.00     0.009 SA
BRANCH  16  18
HETATM   18  N1  UNL     1       5.961  -1.476  -0.344  1.00  0.00    -0.392 N 
ATOM     19  H12 UNL     1       6.970  -1.333  -0.300  1.00  0.00     0.156 HD
ATOM     20  H11 UNL     1       5.892  -2.448  -0.646  1.00  0.00     0.156 HD
ENDBRANCH  16  18
ENDBRANCH   1  13
TORSDOF 5
