REMARK  5 active torsions:
REMARK  status: ('A' for Active; 'I' for Inactive)
REMARK    1  A    between atoms: S1_3  and  C2_4 
REMARK    2  A    between atoms: C2_4  and  N3_8 
REMARK    3  A    between atoms: N3_8  and  N4_10 
REMARK    4  A    between atoms: C3_12  and  C4_13 
REMARK    5  A    between atoms: C8_17  and  N5_18 
ROOT
HETATM    1  N1  UNL     1      -4.570   2.930   0.057  1.00  0.00    -0.184 NA
HETATM    2  C1  UNL     1      -4.759   1.800  -0.207  1.00  0.00     0.141 C 
HETATM    3  S1  UNL     1      -5.038   0.107  -0.597  1.00  0.00     0.027 SA
ENDROOT
BRANCH   3   4
HETATM    4  C2  UNL     1      -3.787  -0.928   0.126  1.00  0.00     0.167 C 
HETATM    5  N2  UNL     1      -3.808  -2.198  -0.040  1.00  0.00    -0.378 N 
ATOM      6  H22 UNL     1      -4.547  -2.635  -0.591  1.00  0.00     0.158 HD
ATOM      7  H21 UNL     1      -3.090  -2.792   0.375  1.00  0.00     0.158 HD
BRANCH   4   8
HETATM    8  N3  UNL     1      -2.765  -0.323   0.888  1.00  0.00    -0.280 N 
ATOM      9  H3  UNL     1      -3.048   0.297   1.647  1.00  0.00     0.189 HD
BRANCH   8  10
HETATM   10  N4  UNL     1      -1.414  -0.506   0.685  1.00  0.00    -0.309 N 
HETATM   11  C3  UNL     1      -0.573   0.381   0.333  1.00  0.00     0.118 C 
ATOM     12  H4  UNL     1      -1.052  -1.448   0.832  1.00  0.00     0.186 HD
BRANCH  11  13
HETATM   13  C4  UNL     1       0.817   0.004   0.166  1.00  0.00    -0.017 A 
HETATM   14  C5  UNL     1       1.221  -1.290   0.384  1.00  0.00     0.013 A 
HETATM   15  C6  UNL     1       2.549  -1.687   0.233  1.00  0.00     0.003 A 
HETATM   16  C7  UNL     1       3.443  -0.724  -0.146  1.00  0.00     0.036 A 
HETATM   17  C8  UNL     1       3.083   0.588  -0.377  1.00  0.00     0.103 A 
HETATM   18  C9  UNL     1       1.754   0.931  -0.213  1.00  0.00     0.048 A 
BRANCH  17  19
HETATM   19  N5  UNL     1       4.048   1.561  -0.771  1.00  0.00    -0.116 N 
HETATM   20  O1  UNL     1       5.234   1.249  -0.915  1.00  0.00    -0.532 OA
HETATM   21  O2  UNL     1       3.675   2.846  -0.993  1.00  0.00    -0.532 OA
ENDBRANCH  17  19
ENDBRANCH  11  13
ENDBRANCH   8  10
ENDBRANCH   4   8
ENDBRANCH   3   4
TORSDOF 5
