REMARK  5 active torsions:
REMARK  status: ('A' for Active; 'I' for Inactive)
REMARK    1  A    between atoms: C2_2  and  N1_5 
REMARK    2  A    between atoms: N1_5  and  N2_7 
REMARK    3  A    between atoms: C5_9  and  C6_10 
REMARK    4  A    between atoms: C8_12  and  N3_13 
REMARK    5  A    between atoms: C11_18  and  O3_19 
ROOT
HETATM    1  C6  UNL     1       1.635  -0.092   0.371  1.00  0.00     0.016 A 
HETATM    2  C7  UNL     1       2.335  -0.532  -0.749  1.00  0.00     0.051 A 
HETATM    3  C8  UNL     1       3.693  -0.741  -0.778  1.00  0.00     0.103 A 
HETATM    4  C9  UNL     1       4.392  -0.496   0.380  1.00  0.00     0.039 A 
HETATM    5  C10 UNL     1       3.727  -0.064   1.491  1.00  0.00     0.040 A 
HETATM    6  C11 UNL     1       2.331   0.153   1.529  1.00  0.00     0.077 A 
ENDROOT
BRANCH   1   7
HETATM    7  C5  UNL     1       0.214   0.090   0.279  1.00  0.00     0.121 C 
HETATM    8  N2  UNL     1      -0.618   0.471   1.138  1.00  0.00    -0.315 N 
ATOM      9  H2  UNL     1      -0.214   0.686   2.050  1.00  0.00     0.185 HD
BRANCH   8  10
HETATM   10  N1  UNL     1      -1.969   0.648   1.065  1.00  0.00    -0.328 N 
ATOM     11  H1  UNL     1      -2.434   0.985   1.908  1.00  0.00     0.181 HD
BRANCH  10  12
HETATM   12  C2  UNL     1      -2.809   0.405  -0.091  1.00  0.00     0.035 C 
HETATM   13  C1  UNL     1      -4.281   0.717   0.210  1.00  0.00     0.039 C 
HETATM   14  C3  UNL     1      -2.714  -1.075  -0.431  1.00  0.00     0.039 C 
HETATM   15  C4  UNL     1      -2.443   1.225  -1.292  1.00  0.00     0.039 C 
ENDBRANCH  10  12
ENDBRANCH   8  10
ENDBRANCH   1   7
BRANCH   6  16
HETATM   16  O3  UNL     1       1.795   0.589   2.716  1.00  0.00    -0.360 OA
ATOM     17  H3  UNL     1       2.277   0.759   3.517  1.00  0.00     0.217 HD
ENDBRANCH   6  16
BRANCH   3  18
HETATM   18  N3  UNL     1       4.364  -1.192  -1.949  1.00  0.00    -0.116 N 
HETATM   19  O1  UNL     1       3.723  -1.411  -2.992  1.00  0.00    -0.532 OA
HETATM   20  O2  UNL     1       5.704  -1.381  -1.920  1.00  0.00    -0.532 OA
ENDBRANCH   3  18
TORSDOF 5
