REMARK  9 active torsions:
REMARK  status: ('A' for Active; 'I' for Inactive)
REMARK    1  A    between atoms: C2_2  and  C4_4 
REMARK    2  A    between atoms: C4_4  and  C6_6 
REMARK    3  A    between atoms: C6_6  and  O1_7 
REMARK    4  A    between atoms: C6_6  and  C7_9 
REMARK    5  A    between atoms: C7_9  and  C8_10 
REMARK    6  A    between atoms: C9_11  and  O2_12 
REMARK    7  A    between atoms: C10_15  and  C11_16 
REMARK    8  A    between atoms: C11_16  and  C12_18 
REMARK    9  A    between atoms: C22_30  and  O7_31 
ROOT
HETATM    1  C8  UNL     1       1.430  -0.553  -0.269  1.00  0.00     0.039 A 
HETATM    2  C9  UNL     1       0.537  -1.594  -0.386  1.00  0.00     0.193 A 
HETATM    3  O3  UNL     1      -0.568  -1.275   0.201  1.00  0.00    -0.281 OA
HETATM    4  C10 UNL     1      -0.534  -0.088   0.729  1.00  0.00     0.160 A 
HETATM    5  C22 UNL     1       0.719   0.420   0.459  1.00  0.00     0.114 A 
ENDROOT
BRANCH   4   6
HETATM    6  C11 UNL     1      -1.571   0.611   1.463  1.00  0.00     0.219 C 
HETATM    7  O4  UNL     1      -1.388   1.764   1.921  1.00  0.00    -0.287 OA
BRANCH   6   8
HETATM    8  C12 UNL     1      -2.873  -0.037   1.684  1.00  0.00     0.239 C 
HETATM    9  O5  UNL     1      -2.945  -1.313   1.055  1.00  0.00    -0.329 OA
HETATM   10  C13 UNL     1      -3.601  -1.157  -0.157  1.00  0.00     0.122 C 
HETATM   11  C14 UNL     1      -4.247   0.007  -0.209  1.00  0.00    -0.011 C 
HETATM   12  C17 UNL     1      -3.803  -1.899  -1.420  1.00  0.00     0.183 C 
HETATM   13  C15 UNL     1      -4.929   0.110  -1.539  1.00  0.00     0.050 C 
HETATM   14  C18 UNL     1      -4.003   0.671   1.064  1.00  0.00    -0.011 C 
HETATM   15  C16 UNL     1      -5.041  -1.303  -2.013  1.00  0.00     0.091 C 
HETATM   16  C19 UNL     1      -4.679   1.681   1.533  1.00  0.00    -0.078 C 
HETATM   17  C20 UNL     1      -5.811   2.320   0.809  1.00  0.00     0.043 C 
HETATM   18  C21 UNL     1      -4.340   2.255   2.861  1.00  0.00     0.043 C 
HETATM   19  O6  UNL     1      -3.131  -2.812  -1.919  1.00  0.00    -0.290 OA
ENDBRANCH   6   8
ENDBRANCH   4   6
BRANCH   5  20
HETATM   20  O7  UNL     1       1.304   1.624   0.774  1.00  0.00    -0.357 OA
ATOM     21  H7  UNL     1       0.824   2.281   1.265  1.00  0.00     0.217 HD
ENDBRANCH   5  20
BRANCH   2  22
HETATM   22  O2  UNL     1       0.766  -2.800  -1.028  1.00  0.00    -0.340 OA
ATOM     23  H2  UNL     1       0.150  -3.518  -1.109  1.00  0.00     0.220 HD
ENDBRANCH   2  22
BRANCH   1  24
HETATM   24  C7  UNL     1       2.822  -0.447  -0.772  1.00  0.00     0.079 C 
BRANCH  24  25
HETATM   25  C6  UNL     1       3.819  -1.216   0.061  1.00  0.00     0.130 C 
BRANCH  25  26
HETATM   26  C4  UNL     1       5.191  -1.051  -0.510  1.00  0.00     0.038 C 
HETATM   27  C5  UNL     1       5.356  -1.712  -1.850  1.00  0.00     0.017 C 
BRANCH  26  28
HETATM   28  C2  UNL     1       5.556   0.403  -0.646  1.00  0.00    -0.087 C 
HETATM   29  C1  UNL     1       5.845   0.938  -1.816  1.00  0.00     0.014 C 
HETATM   30  C3  UNL     1       5.598   1.267   0.566  1.00  0.00     0.043 C 
ENDBRANCH  26  28
ENDBRANCH  25  26
BRANCH  25  31
HETATM   31  O1  UNL     1       3.462  -2.532   0.194  1.00  0.00    -0.395 OA
ATOM     32  H1  UNL     1       2.590  -2.637   0.557  1.00  0.00     0.210 HD
ENDBRANCH  25  31
ENDBRANCH  24  25
ENDBRANCH   1  24
TORSDOF 9
