REMARK  7 active torsions:
REMARK  status: ('A' for Active; 'I' for Inactive)
REMARK    1  A    between atoms: C2_2  and  C3_3 
REMARK    2  A    between atoms: C3_3  and  C4_4 
REMARK    3  A    between atoms: C4_4  and  O1_6 
REMARK    4  A    between atoms: O1_6  and  C6_7 
REMARK    5  A    between atoms: C7_8  and  C8_9 
REMARK    6  A    between atoms: C9_13  and  C10_14 
REMARK    7  A    between atoms: C12_17  and  N1_18 
REMARK       I    between atoms: N1_18  and  C13_20 
ROOT
HETATM    1  N1  UNL     1       5.133   1.639  -1.677  1.00  0.00    -0.310 N 
ATOM      2  H1  UNL     1       4.883   2.612  -1.851  1.00  0.00     0.170 HD
HETATM    3  C13 UNL     1       6.363   1.100  -2.119  1.00  0.00     0.203 C 
HETATM    4  N2  UNL     1       7.587   1.587  -1.612  1.00  0.00    -0.062 NA
HETATM    5  N3  UNL     1       6.364   0.161  -2.988  1.00  0.00    -0.267 N 
ATOM      6  H3  UNL     1       5.474  -0.184  -3.347  1.00  0.00     0.180 HD
HETATM    7  C14 UNL     1       7.557  -0.408  -3.461  1.00  0.00     0.184 C 
HETATM    8  N4  UNL     1       8.547  -0.868  -3.853  1.00  0.00    -0.172 NA
ENDROOT
BRANCH   1   9
HETATM    9  C12 UNL     1       4.318   0.817  -1.024  1.00  0.00     0.151 A 
HETATM   10  S2  UNL     1       4.535  -0.816  -0.631  1.00  0.00    -0.063 SA
HETATM   11  C11 UNL     1       3.027  -1.062   0.184  1.00  0.00     0.084 A 
HETATM   12  C10 UNL     1       2.439   0.168   0.095  1.00  0.00     0.059 A 
HETATM   13  N5  UNL     1       3.128   1.105  -0.528  1.00  0.00    -0.335 N 
ATOM     14  H5  UNL     1       2.745   2.045  -0.626  1.00  0.00     0.168 HD
BRANCH  12  15
HETATM   15  C9  UNL     1       1.064   0.440   0.626  1.00  0.00     0.056 A 
HETATM   16  S1  UNL     1       0.422   2.037   0.806  1.00  0.00    -0.077 SA
HETATM   17  C7  UNL     1      -1.141   1.626   1.384  1.00  0.00     0.117 A 
HETATM   18  C6  UNL     1      -1.109   0.263   1.414  1.00  0.00     0.115 A 
HETATM   19  C15 UNL     1       0.050  -0.344   1.017  1.00  0.00     0.099 A 
HETATM   20  C16 UNL     1       0.167  -1.807   1.050  1.00  0.00     0.104 C 
HETATM   21  N6  UNL     1       0.229  -2.997   1.089  1.00  0.00    -0.191 NA
BRANCH  17  22
HETATM   22  C8  UNL     1      -2.149   2.622   1.737  1.00  0.00     0.219 C 
HETATM   23  O2  UNL     1      -3.262   2.385   2.181  1.00  0.00    -0.643 OA
HETATM   24  O3  UNL     1      -1.828   3.990   1.556  1.00  0.00    -0.643 OA
ENDBRANCH  17  22
BRANCH  18  25
HETATM   25  O1  UNL     1      -2.242  -0.427   1.844  1.00  0.00    -0.343 OA
BRANCH  25  26
HETATM   26  C4  UNL     1      -3.372  -0.790   1.154  1.00  0.00     0.125 C 
HETATM   27  C5  UNL     1      -4.556  -0.821   2.102  1.00  0.00     0.040 C 
BRANCH  26  28
HETATM   28  C3  UNL     1      -3.295  -2.126   0.414  1.00  0.00     0.032 C 
BRANCH  28  29
HETATM   29  C2  UNL     1      -4.595  -2.355  -0.357  1.00  0.00    -0.002 C 
HETATM   30  C1  UNL     1      -4.766  -1.225  -1.344  1.00  0.00     0.005 C 
ENDBRANCH  28  29
ENDBRANCH  26  28
ENDBRANCH  25  26
ENDBRANCH  18  25
ENDBRANCH  12  15
ENDBRANCH   1   9
TORSDOF 7
