REMARK  11 active torsions:
REMARK  status: ('A' for Active; 'I' for Inactive)
REMARK    1  A    between atoms: O1_2  and  C2_3 
REMARK    2  A    between atoms: C2_3  and  C3_5 
REMARK    3  A    between atoms: C4_6  and  C5_7 
REMARK    4  A    between atoms: C7_10  and  O4_11 
REMARK    5  A    between atoms: C8_13  and  C9_14 
REMARK    6  A    between atoms: C9_14  and  C10_15 
REMARK    7  A    between atoms: C14_19  and  C15_20 
REMARK    8  A    between atoms: C15_20  and  O5_21 
REMARK    9  A    between atoms: C15_20  and  C16_23 
REMARK   10  A    between atoms: C16_23  and  O6_26 
REMARK   11  A    between atoms: C19_28  and  O7_29 
ROOT
HETATM    1  C5  UNL     1       3.260  -0.828   1.620  1.00  0.00     0.227 C 
HETATM    2  O3  UNL     1       2.058  -1.320   2.287  1.00  0.00    -0.330 OA
HETATM    3  C6  UNL     1       0.997  -0.609   1.719  1.00  0.00     0.120 A 
HETATM    4  C7  UNL     1      -0.334  -0.898   1.529  1.00  0.00     0.107 A 
HETATM    5  C8  UNL     1      -1.188   0.034   0.913  1.00  0.00    -0.003 A 
HETATM    6  C14 UNL     1      -0.739   1.264   0.481  1.00  0.00     0.040 A 
HETATM    7  C19 UNL     1       0.630   1.534   0.685  1.00  0.00     0.096 A 
HETATM    8  C20 UNL     1       1.440   0.617   1.282  1.00  0.00     0.083 A 
HETATM    9  C21 UNL     1       2.884   0.629   1.621  1.00  0.00     0.198 C 
HETATM   10  O8  UNL     1       3.532   1.653   1.836  1.00  0.00    -0.289 OA
ENDROOT
BRANCH   6  11
HETATM   11  C15 UNL     1      -1.454   2.277  -0.216  1.00  0.00     0.090 C 
BRANCH  11  12
HETATM   12  O5  UNL     1      -0.695   2.901  -1.126  1.00  0.00    -0.361 OA
ATOM     13  H5  UNL     1      -1.173   3.578  -1.592  1.00  0.00     0.217 HD
ENDBRANCH  11  12
BRANCH  11  14
HETATM   14  C16 UNL     1      -2.804   2.821  -0.184  1.00  0.00     0.100 C 
HETATM   15  C17 UNL     1      -3.608   2.384  -1.413  1.00  0.00     0.053 C 
HETATM   16  C18 UNL     1      -2.733   4.374  -0.368  1.00  0.00     0.053 C 
BRANCH  14  17
HETATM   17  O6  UNL     1      -3.541   2.672   0.963  1.00  0.00    -0.384 OA
ATOM     18  H6  UNL     1      -4.422   3.027   0.984  1.00  0.00     0.211 HD
ENDBRANCH  14  17
ENDBRANCH  11  14
ENDBRANCH   6  11
BRANCH   5  19
HETATM   19  C9  UNL     1      -2.548  -0.447   0.649  1.00  0.00     0.070 C 
BRANCH  19  20
HETATM   20  C10 UNL     1      -2.590  -1.292  -0.589  1.00  0.00    -0.020 C 
HETATM   21  C11 UNL     1      -3.172  -2.462  -0.657  1.00  0.00    -0.091 C 
HETATM   22  C12 UNL     1      -3.871  -3.115   0.472  1.00  0.00     0.042 C 
HETATM   23  C13 UNL     1      -3.142  -3.221  -1.956  1.00  0.00     0.042 C 
ENDBRANCH  19  20
ENDBRANCH   5  19
BRANCH   7  24
HETATM   24  O7  UNL     1       1.151   2.778   0.260  1.00  0.00    -0.359 OA
ATOM     25  H7  UNL     1       2.073   2.960   0.397  1.00  0.00     0.217 HD
ENDBRANCH   7  24
BRANCH   4  26
HETATM   26  O4  UNL     1      -0.838  -2.117   1.950  1.00  0.00    -0.357 OA
ATOM     27  H4  UNL     1      -1.757  -2.317   1.819  1.00  0.00     0.217 HD
ENDBRANCH   4  26
BRANCH   1  28
HETATM   28  C4  UNL     1       3.202  -1.308   0.250  1.00  0.00     0.019 C 
HETATM   29  C3  UNL     1       4.184  -1.367  -0.593  1.00  0.00     0.081 C 
BRANCH  29  30
HETATM   30  C2  UNL     1       5.527  -0.955  -0.303  1.00  0.00     0.282 C 
HETATM   31  O2  UNL     1       5.880  -0.502   0.784  1.00  0.00    -0.260 OA
BRANCH  30  32
HETATM   32  O1  UNL     1       6.495  -1.069  -1.297  1.00  0.00    -0.323 OA
HETATM   33  C1  UNL     1       7.835  -0.675  -1.054  1.00  0.00     0.213 C 
ENDBRANCH  30  32
ENDBRANCH  29  30
ENDBRANCH   1  28
TORSDOF 11
