REMARK  16 active torsions:
REMARK  status: ('A' for Active; 'I' for Inactive)
REMARK    1  A    between atoms: C3_3  and  N1_4 
REMARK       I    between atoms: N1_4  and  C4_6 
REMARK       I    between atoms: C4_6  and  N2_8 
REMARK    2  A    between atoms: N2_8  and  C5_10 
REMARK    3  A    between atoms: C5_10  and  C6_11 
REMARK    4  A    between atoms: C6_11  and  C7_12 
REMARK    5  A    between atoms: C7_12  and  C8_13 
REMARK    6  A    between atoms: C8_13  and  C9_14 
REMARK    7  A    between atoms: C8_13  and  C11_16 
REMARK    8  A    between atoms: C13_20  and  C14_21 
REMARK    9  A    between atoms: C16_23  and  C17_24 
REMARK   10  A    between atoms: C17_24  and  C18_25 
REMARK   11  A    between atoms: C18_25  and  C19_26 
REMARK   12  A    between atoms: C19_26  and  O2_27 
REMARK   13  A    between atoms: C19_26  and  N4_29 
REMARK   14  A    between atoms: N4_29  and  C20_31 
REMARK   15  A    between atoms: C20_31  and  C21_32 
REMARK   16  A    between atoms: C21_32  and  C22_33 
ROOT
HETATM    1  C1  UNL     1       9.188   4.935   1.518  1.00  0.00     0.014 C 
HETATM    2  C2  UNL     1       8.912   4.163   0.627  1.00  0.00    -0.098 C 
HETATM    3  C3  UNL     1       8.565   3.238  -0.447  1.00  0.00     0.217 C 
ENDROOT
BRANCH   3   4
HETATM    4  N1  UNL     1       8.464   1.903   0.101  1.00  0.00    -0.333 N 
HETATM    5  C4  UNL     1       8.139   0.809  -0.722  1.00  0.00     0.320 C 
HETATM    6  O1  UNL     1       7.933   0.986  -1.940  1.00  0.00    -0.247 OA
HETATM    7  N2  UNL     1       8.042  -0.508  -0.168  1.00  0.00    -0.319 N 
ATOM      8  H2  UNL     1       8.211  -0.640   0.829  1.00  0.00     0.170 HD
ATOM      9  H1  UNL     1       8.630   1.753   1.096  1.00  0.00     0.165 HD
BRANCH   7  10
HETATM   10  C5  UNL     1       7.717  -1.633  -0.967  1.00  0.00     0.092 C 
BRANCH  10  11
HETATM   11  C6  UNL     1       6.463  -1.724  -1.695  1.00  0.00     0.014 C 
BRANCH  11  12
HETATM   12  C7  UNL     1       5.163  -1.857  -1.045  1.00  0.00    -0.012 C 
BRANCH  12  13
HETATM   13  C8  UNL     1       4.589  -0.904  -0.095  1.00  0.00     0.064 C 
BRANCH  13  14
HETATM   14  C9  UNL     1       5.222  -0.664   1.192  1.00  0.00    -0.024 C 
HETATM   15  C10 UNL     1       5.298  -1.637   2.086  1.00  0.00     0.008 C 
ENDBRANCH  13  14
BRANCH  13  16
HETATM   16  C11 UNL     1       3.104  -1.187   0.069  1.00  0.00    -0.029 A 
HETATM   17  C12 UNL     1       2.494  -2.349   0.439  1.00  0.00     0.096 A 
HETATM   18  N3  UNL     1       1.139  -2.136   0.462  1.00  0.00    -0.365 N 
HETATM   19  C13 UNL     1       0.830  -0.882   0.123  1.00  0.00     0.038 A 
ATOM     20  H3  UNL     1       0.452  -2.848   0.708  1.00  0.00     0.165 HD
HETATM   21  C28 UNL     1       2.093  -0.284  -0.127  1.00  0.00     0.039 A 
BRANCH  19  22
HETATM   22  C14 UNL     1      -0.401  -0.148   0.023  1.00  0.00    -0.035 C 
HETATM   23  C15 UNL     1      -0.310   1.268  -0.599  1.00  0.00     0.050 C 
HETATM   24  C16 UNL     1      -1.605  -0.477   0.358  1.00  0.00     0.009 C 
BRANCH  24  25
HETATM   25  C17 UNL     1      -2.152  -1.659   0.941  1.00  0.00     0.005 C 
BRANCH  25  26
HETATM   26  C18 UNL     1      -3.371  -1.924   1.243  1.00  0.00     0.055 C 
BRANCH  26  27
HETATM   27  C19 UNL     1      -4.606  -1.260   1.156  1.00  0.00     0.135 C 
BRANCH  27  28
HETATM   28  O2  UNL     1      -5.637  -1.956   1.615  1.00  0.00    -0.346 OA
ATOM     29  H2  UNL     1      -6.472  -1.507   1.556  1.00  0.00     0.219 HD
ENDBRANCH  27  28
BRANCH  27  30
HETATM   30  N4  UNL     1      -5.001  -0.012   0.688  1.00  0.00    -0.371 N 
ATOM     31  H4  UNL     1      -4.292   0.621   0.318  1.00  0.00     0.161 HD
BRANCH  30  32
HETATM   32  C20 UNL     1      -6.410   0.432   0.707  1.00  0.00     0.128 C 
BRANCH  32  33
HETATM   33  C21 UNL     1      -7.313  -0.386  -0.149  1.00  0.00     0.077 C 
BRANCH  33  34
HETATM   34  C22 UNL     1      -8.698   0.180  -0.060  1.00  0.00     0.012 A 
HETATM   35  C23 UNL     1      -9.548  -0.285   0.928  1.00  0.00     0.025 A 
HETATM   36  C24 UNL     1     -10.827   0.230   1.020  1.00  0.00     0.003 A 
HETATM   37  C25 UNL     1     -11.197   1.191   0.112  1.00  0.00     0.017 A 
HETATM   38  C26 UNL     1     -10.339   1.655  -0.879  1.00  0.00     0.090 A 
HETATM   39  N5  UNL     1      -9.084   1.119  -0.933  1.00  0.00    -0.364 N 
HETATM   40  C27 UNL     1      -8.202   1.608  -1.970  1.00  0.00     0.155 C 
ENDBRANCH  33  34
ENDBRANCH  32  33
ENDBRANCH  30  32
ENDBRANCH  27  30
ENDBRANCH  26  27
ENDBRANCH  25  26
ENDBRANCH  24  25
ENDBRANCH  19  22
ENDBRANCH  13  16
ENDBRANCH  12  13
ENDBRANCH  11  12
ENDBRANCH  10  11
ENDBRANCH   7  10
ENDBRANCH   3   4
TORSDOF 16
