REMARK  13 active torsions:
REMARK  status: ('A' for Active; 'I' for Inactive)
REMARK    1  A    between atoms: C2_2  and  N1_4 
REMARK    2  A    between atoms: N1_4  and  C4_5 
REMARK    3  A    between atoms: N1_4  and  C16_26 
REMARK    4  A    between atoms: N1_4  and  C21_32 
REMARK    5  A    between atoms: C4_5  and  C5_6 
REMARK    6  A    between atoms: C5_6  and  N2_7 
REMARK       I    between atoms: N2_7  and  C6_9 
REMARK       I    between atoms: C6_9  and  N4_13 
REMARK    7  A    between atoms: N4_13  and  C7_15 
REMARK    8  A    between atoms: C7_15  and  C8_16 
REMARK    9  A    between atoms: C7_15  and  C15_23 
REMARK   10  A    between atoms: C8_16  and  C9_17 
REMARK   11  A    between atoms: C16_26  and  C17_27 
REMARK   12  A    between atoms: C17_27  and  N5_28 
REMARK   13  A    between atoms: C21_32  and  C22_33 
ROOT
HETATM    1  C5  UNL     1       0.109  -0.305  -0.337  1.00  0.00     0.166 C 
ENDROOT
BRANCH   1   2
HETATM    2  C4  UNL     1      -0.815  -0.228   0.817  1.00  0.00     0.263 C 
BRANCH   2   3
HETATM    3  N1  UNL     1      -2.212   0.021   0.534  1.00  0.00    -0.040 N 
BRANCH   3   4
HETATM    4  C2  UNL     1      -2.933   0.169   1.777  1.00  0.00     0.187 C 
HETATM    5  C1  UNL     1      -3.847   1.312   1.934  1.00  0.00     0.040 C 
HETATM    6  C3  UNL     1      -2.001   0.246   3.003  1.00  0.00     0.040 C 
ENDBRANCH   3   4
BRANCH   3   7
HETATM    7  C16 UNL     1      -2.634  -1.298   0.029  1.00  0.00     0.271 C 
BRANCH   7   8
HETATM    8  C17 UNL     1      -4.079  -1.438  -0.250  1.00  0.00     0.264 C 
BRANCH   8   9
HETATM    9  N5  UNL     1      -4.427  -2.782  -0.714  1.00  0.00    -0.077 N 
HETATM   10  C18 UNL     1      -5.857  -3.017  -0.555  1.00  0.00     0.271 C 
HETATM   11  C19 UNL     1      -3.731  -3.807   0.001  1.00  0.00     0.271 C 
HETATM   12  C20 UNL     1      -4.130  -2.935  -2.127  1.00  0.00     0.271 C 
ENDBRANCH   8   9
ENDBRANCH   7   8
ENDBRANCH   3   7
BRANCH   3  13
HETATM   13  C21 UNL     1      -2.503   0.876  -0.513  1.00  0.00     0.214 C 
BRANCH  13  14
HETATM   14  C22 UNL     1      -2.054   2.242  -0.627  1.00  0.00    -0.013 A 
HETATM   15  C23 UNL     1      -2.379   2.853  -1.856  1.00  0.00     0.013 A 
HETATM   16  C24 UNL     1      -2.035   4.148  -2.131  1.00  0.00     0.001 A 
HETATM   17  C25 UNL     1      -1.357   4.926  -1.231  1.00  0.00     0.000 A 
HETATM   18  C26 UNL     1      -1.030   4.340  -0.018  1.00  0.00     0.001 A 
HETATM   19  C27 UNL     1      -1.384   3.032   0.244  1.00  0.00     0.013 A 
ENDBRANCH  13  14
ENDBRANCH   3  13
ENDBRANCH   2   3
ENDBRANCH   1   2
BRANCH   1  20
HETATM   20  N2  UNL     1       1.477  -0.548   0.089  1.00  0.00    -0.225 N 
HETATM   21  C6  UNL     1       2.561  -0.664  -0.811  1.00  0.00     0.668 C 
HETATM   22  N3  UNL     1       2.694  -1.757  -1.472  1.00  0.00    -0.235 N 
HETATM   23  N4  UNL     1       3.512   0.367  -1.023  1.00  0.00    -0.212 N 
ATOM     24  H32 UNL     1       2.010  -2.498  -1.320  1.00  0.00     0.174 HD
ATOM     25  H31 UNL     1       3.476  -1.841  -2.121  1.00  0.00     0.174 HD
ATOM     26  H4  UNL     1       3.884   0.469  -1.967  1.00  0.00     0.178 HD
ATOM     27  H2  UNL     1       1.664  -0.639   1.087  1.00  0.00     0.177 HD
BRANCH  23  28
HETATM   28  C7  UNL     1       3.997   1.278  -0.029  1.00  0.00     0.204 C 
BRANCH  28  29
HETATM   29  C8  UNL     1       4.773   0.661   1.082  1.00  0.00     0.075 C 
BRANCH  29  30
HETATM   30  C9  UNL     1       5.980  -0.067   0.726  1.00  0.00    -0.056 A 
HETATM   31  C10 UNL     1       7.203   0.543   0.657  1.00  0.00     0.007 A 
HETATM   32  C11 UNL     1       8.362  -0.120   0.325  1.00  0.00     0.001 A 
HETATM   33  C12 UNL     1       8.328  -1.464   0.043  1.00  0.00     0.000 A 
HETATM   34  C13 UNL     1       7.116  -2.111   0.102  1.00  0.00     0.001 A 
HETATM   35  C14 UNL     1       5.949  -1.417   0.442  1.00  0.00     0.007 A 
ENDBRANCH  29  30
ENDBRANCH  28  29
BRANCH  28  36
HETATM   36  C15 UNL     1       4.752   2.378  -0.629  1.00  0.00     0.197 C 
HETATM   37  O1  UNL     1       4.985   2.457  -1.880  1.00  0.00    -0.646 OA
HETATM   38  O2  UNL     1       5.271   3.424   0.121  1.00  0.00    -0.646 OA
ENDBRANCH  28  36
ENDBRANCH  23  28
ENDBRANCH   1  20
TORSDOF 13
