REMARK  14 active torsions:
REMARK  status: ('A' for Active; 'I' for Inactive)
REMARK    1  A    between atoms: C2_2  and  N1_3 
REMARK    2  A    between atoms: N1_3  and  C4_5 
REMARK    3  A    between atoms: N1_3  and  C6_7 
REMARK    4  A    between atoms: C6_7  and  C7_8 
REMARK    5  A    between atoms: C6_7  and  C22_33 
REMARK       I    between atoms: C7_8  and  N2_10 
REMARK    6  A    between atoms: N2_10  and  C8_12 
REMARK    7  A    between atoms: C8_12  and  C9_13 
REMARK    8  A    between atoms: C8_12  and  C13_21 
REMARK    9  A    between atoms: C9_13  and  C10_14 
REMARK   10  A    between atoms: C10_14  and  C11_15 
REMARK   11  A    between atoms: C11_15  and  N3_16 
REMARK       I    between atoms: C13_21  and  N6_23 
REMARK   12  A    between atoms: N6_23  and  C14_25 
REMARK   13  A    between atoms: C14_25  and  C15_26 
REMARK   14  A    between atoms: C15_26  and  C16_27 
ROOT
HETATM    1  C8  UNL     1       0.709   0.368   1.047  1.00  0.00     0.080 C 
ENDROOT
BRANCH   1   2
HETATM    2  N2  UNL     1      -0.495  -0.093   0.442  1.00  0.00    -0.321 N 
HETATM    3  C7  UNL     1      -1.380   0.473  -0.461  1.00  0.00     0.277 C 
HETATM    4  O1  UNL     1      -0.993   1.660  -0.815  1.00  0.00    -0.266 OA
ATOM      5  H2  UNL     1      -0.760  -1.034   0.734  1.00  0.00     0.169 HD
BRANCH   3   6
HETATM    6  C6  UNL     1      -2.636  -0.044  -1.056  1.00  0.00     0.188 C 
BRANCH   6   7
HETATM    7  N1  UNL     1      -3.355  -0.960  -0.212  1.00  0.00    -0.039 N 
HETATM    8  C3  UNL     1      -2.808  -2.284  -0.101  1.00  0.00     0.279 C 
BRANCH   7   9
HETATM    9  C2  UNL     1      -4.738  -1.184  -0.577  1.00  0.00     0.239 C 
HETATM   10  C1  UNL     1      -5.678  -0.064  -0.595  1.00  0.00     0.035 C 
ENDBRANCH   7   9
BRANCH   7  11
HETATM   11  C4  UNL     1      -3.473  -0.293   1.087  1.00  0.00     0.239 C 
HETATM   12  C5  UNL     1      -3.487  -1.213   2.265  1.00  0.00     0.035 C 
ENDBRANCH   7  11
ENDBRANCH   6   7
BRANCH   6  13
HETATM   13  C22 UNL     1      -2.550  -0.265  -2.481  1.00  0.00     0.005 C 
HETATM   14  C23 UNL     1      -1.958  -1.508  -3.053  1.00  0.00     0.021 C 
HETATM   15  C24 UNL     1      -3.794   0.043  -3.329  1.00  0.00     0.021 C 
HETATM   16  C25 UNL     1      -1.589   0.804  -3.071  1.00  0.00     0.021 C 
ENDBRANCH   6  13
ENDBRANCH   3   6
ENDBRANCH   1   2
BRANCH   1  17
HETATM   17  C9  UNL     1       0.878   1.876   1.182  1.00  0.00     0.064 C 
BRANCH  17  18
HETATM   18  C10 UNL     1      -0.186   2.419   2.070  1.00  0.00     0.026 C 
BRANCH  18  19
HETATM   19  C11 UNL     1      -0.007   3.930   2.231  1.00  0.00     0.122 C 
BRANCH  19  20
HETATM   20  N3  UNL     1      -0.088   4.540   0.947  1.00  0.00    -0.367 N 
HETATM   21  C12 UNL     1       0.369   5.728   0.742  1.00  0.00     0.196 C 
HETATM   22  N4  UNL     1       0.963   6.437   1.818  1.00  0.00    -0.067 NA
HETATM   23  N5  UNL     1       0.267   6.296  -0.555  1.00  0.00    -0.067 NA
ATOM     24  H3  UNL     1      -0.515   4.028   0.175  1.00  0.00     0.161 HD
ENDBRANCH  19  20
ENDBRANCH  18  19
ENDBRANCH  17  18
ENDBRANCH   1  17
BRANCH   1  25
HETATM   25  C13 UNL     1       1.921  -0.339   0.646  1.00  0.00     0.264 C 
HETATM   26  O2  UNL     1       1.774  -1.259  -0.193  1.00  0.00    -0.266 OA
HETATM   27  N6  UNL     1       3.228  -0.081   1.113  1.00  0.00    -0.356 N 
ATOM     28  H6  UNL     1       3.367   0.668   1.792  1.00  0.00     0.162 HD
BRANCH  27  29
HETATM   29  C14 UNL     1       4.375  -0.834   0.669  1.00  0.00     0.127 C 
BRANCH  29  30
HETATM   30  C15 UNL     1       4.244  -2.276   1.045  1.00  0.00     0.058 C 
BRANCH  30  31
HETATM   31  C16 UNL     1       5.436  -3.068   0.588  1.00  0.00    -0.057 A 
HETATM   32  C17 UNL     1       6.499  -3.171   1.454  1.00  0.00     0.007 A 
HETATM   33  C18 UNL     1       7.627  -3.902   1.065  1.00  0.00     0.001 A 
HETATM   34  C19 UNL     1       7.678  -4.509  -0.163  1.00  0.00     0.000 A 
HETATM   35  C20 UNL     1       6.581  -4.381  -1.010  1.00  0.00     0.001 A 
HETATM   36  C21 UNL     1       5.467  -3.668  -0.646  1.00  0.00     0.007 A 
ENDBRANCH  30  31
ENDBRANCH  29  30
ENDBRANCH  27  29
ENDBRANCH   1  25
TORSDOF 14
