REMARK  13 active torsions:
REMARK  status: ('A' for Active; 'I' for Inactive)
REMARK       I    between atoms: C2_2  and  N1_4 
REMARK    1  A    between atoms: N1_4  and  C3_6 
REMARK    2  A    between atoms: C3_6  and  C4_7 
REMARK    3  A    between atoms: C3_6  and  C24_33 
REMARK    4  A    between atoms: C4_7  and  C5_8 
REMARK    5  A    between atoms: C5_8  and  C6_9 
REMARK    6  A    between atoms: C8_13  and  C9_14 
REMARK    7  A    between atoms: C13_18  and  C14_19 
REMARK    8  A    between atoms: C14_19  and  C15_20 
REMARK    9  A    between atoms: C15_20  and  N3_21 
REMARK   10  A    between atoms: N3_21  and  C18_24 
REMARK   11  A    between atoms: C18_24  and  C19_25 
REMARK   12  A    between atoms: C19_25  and  C20_26 
REMARK   13  A    between atoms: C20_26  and  N4_27 
REMARK       I    between atoms: N4_27  and  C23_30 
ROOT
HETATM    1  C6  UNL     1      -2.171  -0.907   1.280  1.00  0.00    -0.034 A 
HETATM    2  C7  UNL     1      -2.903  -1.586   2.269  1.00  0.00     0.095 A 
HETATM    3  N2  UNL     1      -2.519  -2.865   2.315  1.00  0.00    -0.368 N 
ATOM      4  H2  UNL     1      -2.903  -3.563   2.952  1.00  0.00     0.165 HD
HETATM    5  C8  UNL     1      -1.556  -3.106   1.405  1.00  0.00     0.023 A 
HETATM    6  C13 UNL     1      -1.348  -1.886   0.771  1.00  0.00    -0.026 A 
ENDROOT
BRANCH   6   7
HETATM    7  C14 UNL     1      -0.358  -1.669  -0.302  1.00  0.00     0.069 C 
BRANCH   7   8
HETATM    8  C15 UNL     1       0.884  -0.957   0.177  1.00  0.00     0.241 C 
BRANCH   8   9
HETATM    9  N3  UNL     1       1.808  -0.789  -0.931  1.00  0.00    -0.074 N 
HETATM   10  C16 UNL     1       1.042  -0.519  -2.124  1.00  0.00     0.272 C 
HETATM   11  C17 UNL     1       2.612  -1.959  -1.016  1.00  0.00     0.272 C 
BRANCH   9  12
HETATM   12  C18 UNL     1       2.647   0.381  -0.733  1.00  0.00     0.238 C 
BRANCH  12  13
HETATM   13  C19 UNL     1       3.913   0.217  -1.515  1.00  0.00     0.056 C 
BRANCH  13  14
HETATM   14  C20 UNL     1       4.860   1.366  -1.428  1.00  0.00     0.249 C 
BRANCH  14  15
HETATM   15  N4  UNL     1       5.358   1.704  -0.139  1.00  0.00     0.004 N 
HETATM   16  C21 UNL     1       6.637   2.427  -0.355  1.00  0.00     0.284 C 
HETATM   17  C22 UNL     1       5.667   0.613   0.730  1.00  0.00     0.284 C 
HETATM   18  C23 UNL     1       4.507   2.637   0.464  1.00  0.00     0.427 C 
HETATM   19  N5  UNL     1       4.395   2.678   1.875  1.00  0.00    -0.033 NA
HETATM   20  O2  UNL     1       3.849   3.430  -0.237  1.00  0.00    -0.243 OA
ENDBRANCH  14  15
ENDBRANCH  13  14
ENDBRANCH  12  13
ENDBRANCH   9  12
ENDBRANCH   8   9
ENDBRANCH   7   8
ENDBRANCH   6   7
BRANCH   1  21
HETATM   21  C5  UNL     1      -2.334   0.528   0.923  1.00  0.00     0.042 C 
BRANCH  21  22
HETATM   22  C4  UNL     1      -3.179   0.653  -0.344  1.00  0.00     0.030 C 
BRANCH  22  23
HETATM   23  C3  UNL     1      -3.360   2.095  -0.735  1.00  0.00     0.088 C 
BRANCH  23  24
HETATM   24  N1  UNL     1      -4.026   2.810   0.336  1.00  0.00    -0.356 N 
HETATM   25  C2  UNL     1      -3.450   3.974   0.924  1.00  0.00     0.213 C 
HETATM   26  C1  UNL     1      -4.145   4.677   2.005  1.00  0.00     0.117 C 
HETATM   27  O1  UNL     1      -2.338   4.383   0.498  1.00  0.00    -0.274 OA
ATOM     28  H1  UNL     1      -4.926   2.473   0.676  1.00  0.00     0.162 HD
ENDBRANCH  23  24
BRANCH  23  29
HETATM   29  C24 UNL     1      -4.268   2.129  -1.942  1.00  0.00     0.000 C 
HETATM   30  C25 UNL     1      -5.599   1.488  -1.699  1.00  0.00     0.011 C 
HETATM   31  C26 UNL     1      -4.495   3.538  -2.447  1.00  0.00     0.011 C 
ENDBRANCH  23  29
ENDBRANCH  22  23
ENDBRANCH  21  22
ENDBRANCH   1  21
BRANCH   5  32
HETATM   32  C9  UNL     1      -0.939  -4.426   1.205  1.00  0.00    -0.008 C 
HETATM   33  C10 UNL     1      -1.149  -4.975  -0.202  1.00  0.00     0.021 C 
HETATM   34  C11 UNL     1      -1.644  -5.418   2.137  1.00  0.00     0.021 C 
HETATM   35  C12 UNL     1       0.510  -4.515   1.506  1.00  0.00     0.021 C 
ENDBRANCH   5  32
TORSDOF 13
