REMARK  13 active torsions:
REMARK  status: ('A' for Active; 'I' for Inactive)
REMARK    1  A    between atoms: C2_2  and  C3_3 
REMARK    2  A    between atoms: C3_3  and  N1_4 
REMARK       I    between atoms: C4_6  and  N2_7 
REMARK       I    between atoms: C4_6  and  N3_10 
REMARK    3  A    between atoms: N3_10  and  C6_12 
REMARK    4  A    between atoms: C6_12  and  C7_13 
REMARK    5  A    between atoms: C6_12  and  C17_29 
REMARK       I    between atoms: C7_13  and  N4_15 
REMARK    6  A    between atoms: N4_15  and  C8_17 
REMARK    7  A    between atoms: C9_18  and  C10_19 
REMARK    8  A    between atoms: C10_19  and  C11_20 
REMARK    9  A    between atoms: C11_20  and  N5_21 
REMARK   10  A    between atoms: N5_21  and  C12_23 
REMARK   11  A    between atoms: C13_24  and  N6_25 
REMARK   12  A    between atoms: C17_29  and  C18_30 
REMARK   13  A    between atoms: C17_29  and  C24_36 
ROOT
HETATM    1  C6  UNL     1      -2.641   0.768  -0.361  1.00  0.00     0.204 C 
ENDROOT
BRANCH   1   2
HETATM    2  N3  UNL     1      -3.534  -0.301   0.142  1.00  0.00    -0.212 N 
HETATM    3  C4  UNL     1      -3.829  -1.556  -0.390  1.00  0.00     0.670 C 
HETATM    4  N1  UNL     1      -4.557  -2.330   0.317  1.00  0.00    -0.227 N 
HETATM    5  N2  UNL     1      -3.340  -2.068  -1.617  1.00  0.00    -0.231 N 
ATOM      6  H1  UNL     1      -4.898  -1.942   1.196  1.00  0.00     0.177 HD
HETATM    7  C5  UNL     1      -4.197  -1.930  -2.772  1.00  0.00     0.165 C 
ATOM      8  H2  UNL     1      -2.425  -2.514  -1.682  1.00  0.00     0.177 HD
ATOM      9  H3  UNL     1      -4.010  -0.085   1.018  1.00  0.00     0.178 HD
BRANCH   4  10
HETATM   10  C3  UNL     1      -4.948  -3.654   0.035  1.00  0.00     0.137 C 
BRANCH  10  11
HETATM   11  C2  UNL     1      -4.668  -4.550   1.264  1.00  0.00     0.016 C 
HETATM   12  C1  UNL     1      -5.023  -5.970   1.039  1.00  0.00     0.006 C 
ENDBRANCH  10  11
ENDBRANCH   4  10
ENDBRANCH   1   2
BRANCH   1  13
HETATM   13  C7  UNL     1      -1.311   0.191  -0.485  1.00  0.00     0.245 C 
HETATM   14  O1  UNL     1      -0.802   0.003  -1.631  1.00  0.00    -0.271 OA
HETATM   15  N4  UNL     1      -0.488  -0.245   0.624  1.00  0.00    -0.336 N 
ATOM     16  H4  UNL     1      -0.834  -0.073   1.568  1.00  0.00     0.168 HD
BRANCH  15  17
HETATM   17  C8  UNL     1       0.729  -0.876   0.493  1.00  0.00     0.087 C 
HETATM   18  C9  UNL     1       2.085  -0.567   0.229  1.00  0.00    -0.008 C 
BRANCH  18  19
HETATM   19  C10 UNL     1       2.724   0.325  -0.760  1.00  0.00     0.048 C 
BRANCH  19  20
HETATM   20  C11 UNL     1       4.196  -0.160  -0.936  1.00  0.00     0.122 C 
BRANCH  20  21
HETATM   21  N5  UNL     1       4.889  -0.423   0.267  1.00  0.00    -0.397 N 
ATOM     22  H5  UNL     1       4.652  -0.003   1.166  1.00  0.00     0.158 HD
BRANCH  21  23
HETATM   23  C12 UNL     1       5.963  -1.348   0.075  1.00  0.00     0.108 C 
HETATM   24  C13 UNL     1       7.219  -0.907  -0.483  1.00  0.00     0.217 C 
BRANCH  24  25
HETATM   25  N6  UNL     1       8.118  -0.106   0.269  1.00  0.00    -0.057 N 
HETATM   26  C14 UNL     1       7.619   0.702   1.334  1.00  0.00     0.277 C 
HETATM   27  C15 UNL     1       8.942   0.704  -0.617  1.00  0.00     0.277 C 
HETATM   28  C16 UNL     1       9.082  -1.054   0.932  1.00  0.00     0.277 C 
ENDBRANCH  24  25
ENDBRANCH  21  23
ENDBRANCH  20  21
ENDBRANCH  19  20
ENDBRANCH  18  19
ENDBRANCH  15  17
ENDBRANCH   1  13
BRANCH   1  29
HETATM   29  C17 UNL     1      -2.983   1.964   0.413  1.00  0.00     0.084 C 
BRANCH  29  30
HETATM   30  C18 UNL     1      -2.401   3.257   0.122  1.00  0.00    -0.047 A 
HETATM   31  C19 UNL     1      -1.098   3.578   0.398  1.00  0.00     0.008 A 
HETATM   32  C20 UNL     1      -0.645   4.854   0.127  1.00  0.00     0.001 A 
HETATM   33  C21 UNL     1      -1.477   5.835  -0.422  1.00  0.00     0.000 A 
HETATM   34  C22 UNL     1      -2.763   5.464  -0.680  1.00  0.00     0.001 A 
HETATM   35  C23 UNL     1      -3.272   4.218  -0.434  1.00  0.00     0.008 A 
ENDBRANCH  29  30
BRANCH  29  36
HETATM   36  C24 UNL     1      -4.478   1.963   0.593  1.00  0.00    -0.047 A 
HETATM   37  C25 UNL     1      -5.322   1.597  -0.426  1.00  0.00     0.008 A 
HETATM   38  C26 UNL     1      -6.690   1.521  -0.308  1.00  0.00     0.001 A 
HETATM   39  C27 UNL     1      -7.278   1.833   0.909  1.00  0.00     0.000 A 
HETATM   40  C28 UNL     1      -6.459   2.207   1.953  1.00  0.00     0.001 A 
HETATM   41  C29 UNL     1      -5.079   2.269   1.794  1.00  0.00     0.008 A 
ENDBRANCH  29  36
ENDBRANCH   1  29
TORSDOF 13
