REMARK  16 active torsions:
REMARK  status: ('A' for Active; 'I' for Inactive)
REMARK    1  A    between atoms: C2_2  and  C3_3 
REMARK    2  A    between atoms: C2_2  and  N1_10 
REMARK    3  A    between atoms: C3_3  and  C4_4 
REMARK       I    between atoms: N1_10  and  C10_12 
REMARK       I    between atoms: C10_12  and  N3_16 
REMARK    4  A    between atoms: N3_16  and  C11_18 
REMARK    5  A    between atoms: C11_18  and  C12_19 
REMARK    6  A    between atoms: C12_19  and  C13_20 
REMARK    7  A    between atoms: C13_20  and  C14_21 
REMARK    8  A    between atoms: C14_21  and  N4_22 
REMARK    9  A    between atoms: N4_22  and  C17_25 
REMARK   10  A    between atoms: C17_25  and  C18_26 
REMARK   11  A    between atoms: C18_26  and  C19_27 
REMARK   12  A    between atoms: C19_27  and  C20_28 
REMARK   13  A    between atoms: C20_28  and  N5_29 
REMARK       I    between atoms: N5_29  and  C21_31 
REMARK   14  A    between atoms: C21_31  and  C22_33 
REMARK   15  A    between atoms: C23_34  and  C24_35 
REMARK   16  A    between atoms: C25_36  and  C26_37 
ROOT
HETATM    1  C14 UNL     1      -0.864   0.380   1.487  1.00  0.00     0.201 C 
ENDROOT
BRANCH   1   2
HETATM    2  C13 UNL     1      -2.315   0.308   1.392  1.00  0.00     0.022 C 
BRANCH   2   3
HETATM    3  C12 UNL     1      -3.085  -0.899   1.157  1.00  0.00    -0.005 C 
BRANCH   3   4
HETATM    4  C11 UNL     1      -3.064  -1.670  -0.095  1.00  0.00     0.165 C 
BRANCH   4   5
HETATM    5  N3  UNL     1      -3.540  -0.963  -1.271  1.00  0.00    -0.223 N 
HETATM    6  C10 UNL     1      -4.874  -0.557  -1.491  1.00  0.00     0.668 C 
HETATM    7  N1  UNL     1      -5.942  -1.422  -1.193  1.00  0.00    -0.222 N 
HETATM    8  N2  UNL     1      -5.073   0.614  -1.973  1.00  0.00    -0.235 N 
ATOM      9  H1  UNL     1      -5.754  -2.184  -0.542  1.00  0.00     0.178 HD
ATOM     10  H22 UNL     1      -6.037   0.907  -2.132  1.00  0.00     0.174 HD
ATOM     11  H21 UNL     1      -4.298   1.241  -2.189  1.00  0.00     0.174 HD
ATOM     12  H3  UNL     1      -2.856  -0.742  -1.995  1.00  0.00     0.178 HD
BRANCH   7  13
HETATM   13  C2  UNL     1      -7.281  -1.328  -1.726  1.00  0.00     0.099 C 
HETATM   14  C1  UNL     1      -7.179  -1.268  -3.255  1.00  0.00     0.033 C 
BRANCH  13  15
HETATM   15  C3  UNL     1      -8.000  -0.172  -1.135  1.00  0.00     0.063 C 
BRANCH  15  16
HETATM   16  C4  UNL     1      -8.140  -0.184   0.323  1.00  0.00    -0.056 A 
HETATM   17  C5  UNL     1      -9.226  -0.825   0.936  1.00  0.00     0.007 A 
HETATM   18  C6  UNL     1      -9.393  -0.849   2.302  1.00  0.00     0.001 A 
HETATM   19  C7  UNL     1      -8.481  -0.231   3.130  1.00  0.00     0.000 A 
HETATM   20  C8  UNL     1      -7.415   0.399   2.535  1.00  0.00     0.001 A 
HETATM   21  C9  UNL     1      -7.235   0.429   1.147  1.00  0.00     0.007 A 
ENDBRANCH  15  16
ENDBRANCH  13  15
ENDBRANCH   7  13
ENDBRANCH   4   5
ENDBRANCH   3   4
ENDBRANCH   2   3
ENDBRANCH   1   2
BRANCH   1  22
HETATM   22  N4  UNL     1       0.083   0.111   0.514  1.00  0.00    -0.055 N 
HETATM   23  C15 UNL     1      -0.171   0.349  -0.861  1.00  0.00     0.277 C 
HETATM   24  C16 UNL     1       0.625  -1.256   0.654  1.00  0.00     0.277 C 
BRANCH  22  25
HETATM   25  C17 UNL     1       1.298   0.953   0.826  1.00  0.00     0.242 C 
BRANCH  25  26
HETATM   26  C18 UNL     1       1.093   2.349   0.426  1.00  0.00     0.030 C 
BRANCH  26  27
HETATM   27  C19 UNL     1       2.191   3.309   0.727  1.00  0.00     0.021 C 
BRANCH  27  28
HETATM   28  C20 UNL     1       3.532   3.048   0.149  1.00  0.00     0.123 C 
BRANCH  28  29
HETATM   29  N5  UNL     1       4.207   1.874   0.622  1.00  0.00    -0.358 N 
HETATM   30  C21 UNL     1       5.503   1.570   0.039  1.00  0.00     0.241 C 
HETATM   31  O1  UNL     1       5.887   2.382  -0.826  1.00  0.00    -0.269 OA
ATOM     32  H5  UNL     1       3.794   1.277   1.338  1.00  0.00     0.162 HD
BRANCH  30  33
HETATM   33  C22 UNL     1       6.188   0.400   0.507  1.00  0.00     0.074 C 
HETATM   34  C23 UNL     1       7.361  -0.083   0.137  1.00  0.00     0.005 C 
BRANCH  34  35
HETATM   35  C24 UNL     1       8.244   0.471  -0.851  1.00  0.00     0.001 C 
HETATM   36  C25 UNL     1       9.392   0.037  -1.243  1.00  0.00     0.011 C 
BRANCH  36  37
HETATM   37  C26 UNL     1      10.214  -1.089  -0.892  1.00  0.00    -0.040 A 
HETATM   38  C27 UNL     1      11.419  -1.292  -1.502  1.00  0.00    -0.012 A 
HETATM   39  C28 UNL     1      12.056  -2.507  -0.964  1.00  0.00     0.055 A 
HETATM   40  C29 UNL     1      11.114  -3.012   0.029  1.00  0.00    -0.022 A 
HETATM   41  C30 UNL     1      10.073  -2.161   0.030  1.00  0.00     0.007 A 
ENDBRANCH  36  37
ENDBRANCH  34  35
ENDBRANCH  30  33
ENDBRANCH  28  29
ENDBRANCH  27  28
ENDBRANCH  26  27
ENDBRANCH  25  26
ENDBRANCH  22  25
ENDBRANCH   1  22
TORSDOF 16
