REMARK  16 active torsions:
REMARK  status: ('A' for Active; 'I' for Inactive)
REMARK    1  A    between atoms: C2_2  and  C3_3 
REMARK    2  A    between atoms: C3_3  and  C4_4 
REMARK    3  A    between atoms: C4_4  and  N1_6 
REMARK    4  A    between atoms: N1_6  and  C11_19 
REMARK    5  A    between atoms: C6_7  and  C7_8 
REMARK    6  A    between atoms: C7_8  and  C8_9 
REMARK    7  A    between atoms: C10_11  and  N2_12 
REMARK    8  A    between atoms: C11_19  and  C12_20 
REMARK    9  A    between atoms: C12_20  and  C13_21 
REMARK   10  A    between atoms: C13_21  and  C14_22 
REMARK   11  A    between atoms: C13_21  and  C21_33 
REMARK   12  A    between atoms: C14_22  and  N5_23 
REMARK       I    between atoms: N5_23  and  C15_25 
REMARK   13  A    between atoms: C15_25  and  C16_27 
REMARK   14  A    between atoms: C16_27  and  N6_28 
REMARK   15  A    between atoms: N6_28  and  C19_31 
REMARK   16  A    between atoms: C21_33  and  C22_34 
ROOT
HETATM    1  C13 UNL     1      -0.097   0.456  -0.799  1.00  0.00     0.009 C 
ENDROOT
BRANCH   1   2
HETATM    2  C12 UNL     1       1.311  -0.206  -0.662  1.00  0.00     0.027 C 
BRANCH   2   3
HETATM    3  C11 UNL     1       2.405   0.714  -1.022  1.00  0.00     0.128 C 
BRANCH   3   4
HETATM    4  N1  UNL     1       3.738   0.130  -1.014  1.00  0.00    -0.367 N 
HETATM    5  C6  UNL     1       3.886  -0.960  -0.255  1.00  0.00     0.069 C 
BRANCH   4   6
HETATM    6  C4  UNL     1       4.684   1.116  -1.316  1.00  0.00    -0.016 C 
HETATM    7  C5  UNL     1       5.705   0.775  -2.345  1.00  0.00     0.063 C 
BRANCH   6   8
HETATM    8  C3  UNL     1       5.227   1.931  -0.190  1.00  0.00     0.052 C 
BRANCH   8   9
HETATM    9  C2  UNL     1       6.295   1.425   0.668  1.00  0.00     0.001 C 
HETATM   10  C1  UNL     1       7.603   1.115   0.002  1.00  0.00     0.005 C 
ENDBRANCH   8   9
ENDBRANCH   6   8
ENDBRANCH   4   6
BRANCH   5  11
HETATM   11  C7  UNL     1       4.802  -2.085  -0.688  1.00  0.00     0.103 C 
BRANCH  11  12
HETATM   12  C8  UNL     1       4.697  -3.123   0.398  1.00  0.00     0.034 A 
HETATM   13  C9  UNL     1       5.440  -3.273   1.542  1.00  0.00     0.076 A 
HETATM   14  C10 UNL     1       4.984  -4.378   2.248  1.00  0.00     0.115 A 
HETATM   15  N3  UNL     1       3.974  -4.874   1.513  1.00  0.00    -0.286 N 
HETATM   16  N4  UNL     1       3.795  -4.147   0.426  1.00  0.00    -0.303 N 
ATOM     17  H3  UNL     1       3.423  -5.696   1.760  1.00  0.00     0.188 HD
ATOM     18  H4  UNL     1       3.088  -4.324  -0.287  1.00  0.00     0.186 HD
BRANCH  14  19
HETATM   19  N2  UNL     1       5.447  -4.825   3.377  1.00  0.00    -0.384 N 
ATOM     20  H22 UNL     1       6.214  -4.449   3.935  1.00  0.00     0.157 HD
ATOM     21  H21 UNL     1       5.112  -5.637   3.896  1.00  0.00     0.157 HD
ENDBRANCH  14  19
ENDBRANCH  11  12
ENDBRANCH   5  11
ENDBRANCH   3   4
ENDBRANCH   2   3
ENDBRANCH   1   2
BRANCH   1  22
HETATM   22  C14 UNL     1      -1.067  -0.600  -0.405  1.00  0.00     0.127 C 
BRANCH  22  23
HETATM   23  N5  UNL     1      -2.459  -0.315  -0.530  1.00  0.00    -0.359 N 
HETATM   24  C15 UNL     1      -3.470  -1.218  -0.114  1.00  0.00     0.243 C 
HETATM   25  O1  UNL     1      -3.131  -2.308   0.384  1.00  0.00    -0.272 OA
ATOM     26  H5  UNL     1      -2.739   0.577  -0.936  1.00  0.00     0.162 HD
BRANCH  24  27
HETATM   27  C16 UNL     1      -4.884  -0.872  -0.268  1.00  0.00     0.338 C 
BRANCH  27  28
HETATM   28  N6  UNL     1      -5.787  -1.901   0.205  1.00  0.00    -0.067 N 
HETATM   29  C17 UNL     1      -5.428  -2.420   1.509  1.00  0.00     0.272 C 
HETATM   30  C18 UNL     1      -5.732  -2.999  -0.735  1.00  0.00     0.272 C 
BRANCH  28  31
HETATM   31  C19 UNL     1      -7.099  -1.297   0.272  1.00  0.00     0.232 C 
HETATM   32  C20 UNL     1      -7.985  -1.644  -0.873  1.00  0.00     0.035 C 
ENDBRANCH  28  31
ENDBRANCH  27  28
ENDBRANCH  24  27
ENDBRANCH  22  23
ENDBRANCH   1  22
BRANCH   1  33
HETATM   33  C21 UNL     1      -0.097   1.686   0.024  1.00  0.00     0.045 C 
BRANCH  33  34
HETATM   34  C22 UNL     1      -1.322   2.493   0.121  1.00  0.00    -0.057 A 
HETATM   35  C23 UNL     1      -1.649   3.429  -0.857  1.00  0.00     0.013 A 
HETATM   36  C24 UNL     1      -2.753   4.247  -0.780  1.00  0.00    -0.061 A 
HETATM   37  C25 UNL     1      -3.039   5.232  -1.877  1.00  0.00     0.048 C 
HETATM   38  C26 UNL     1      -3.553   4.116   0.320  1.00  0.00     0.013 A 
HETATM   39  C27 UNL     1      -3.292   3.207   1.335  1.00  0.00    -0.061 A 
HETATM   40  C28 UNL     1      -4.202   3.111   2.516  1.00  0.00     0.048 C 
HETATM   41  C29 UNL     1      -2.180   2.400   1.234  1.00  0.00     0.013 A 
ENDBRANCH  33  34
ENDBRANCH   1  33
TORSDOF 16
