REMARK  2 active torsions:
REMARK  status: ('A' for Active; 'I' for Inactive)
REMARK    1  A    between atoms: N3_4  and  N4_6 
REMARK    2  A    between atoms: C2_8  and  C3_9 
ROOT
HETATM    1  N4  UNL     1      -0.440  -0.736   1.064  1.00  0.00    -0.312 N 
ATOM      2  H4  UNL     1      -0.178  -0.232   1.911  1.00  0.00     0.185 HD
HETATM    3  C2  UNL     1       0.485  -1.107   0.247  1.00  0.00     0.113 C 
ENDROOT
BRANCH   1   4
HETATM    4  N3  UNL     1      -1.788  -1.002   0.825  1.00  0.00    -0.277 N 
HETATM    5  C1  UNL     1      -2.630  -0.074   0.496  1.00  0.00     0.215 C 
HETATM    6  N1  UNL     1      -4.002  -0.349   0.253  1.00  0.00    -0.065 NA
HETATM    7  N2  UNL     1      -2.130   1.251   0.384  1.00  0.00    -0.065 NA
ATOM      8  H3  UNL     1      -2.123  -1.961   0.912  1.00  0.00     0.189 HD
ENDBRANCH   1   4
BRANCH   3   9
HETATM    9  C3  UNL     1       1.917  -0.844   0.466  1.00  0.00     0.227 C 
HETATM   10  C4  UNL     1       2.263   0.624   0.726  1.00  0.00     0.066 C 
HETATM   11  C5  UNL     1       2.391   0.671  -0.782  1.00  0.00     0.235 C 
HETATM   12  N5  UNL     1       2.714  -0.744  -0.744  1.00  0.00    -0.066 N 
ATOM     13  H52 UNL     1       3.684  -1.059  -0.759  1.00  0.00     0.278 HD
ATOM     14  H51 UNL     1       2.525  -1.345  -1.546  1.00  0.00     0.278 HD
ENDBRANCH   3   9
TORSDOF 2
