REMARK  2 active torsions:
REMARK  status: ('A' for Active; 'I' for Inactive)
REMARK    1  A    between atoms: N1_1  and  C1_5 
REMARK    2  A    between atoms: C3_7  and  C4_8 
ROOT
HETATM    1  C4  UNL     1       0.524  -1.014  -0.062  1.00  0.00     0.397 C 
HETATM    2  N2  UNL     1       1.626  -0.594   0.819  1.00  0.00     0.016 N 
ATOM      3  H21 UNL     1       2.110  -1.265   1.416  1.00  0.00     0.284 HD
ATOM      4  H22 UNL     1       1.453  -0.021   1.645  1.00  0.00     0.284 HD
HETATM    5  C5  UNL     1       2.259  -0.044  -0.350  1.00  0.00     0.476 A 
HETATM    6  C6  UNL     1       2.831   1.223  -0.445  1.00  0.00     0.339 A 
HETATM    7  N3  UNL     1       3.673  -0.046  -0.511  1.00  0.00    -0.008 N 
ATOM      8  H31 UNL     1       4.353  -0.460  -1.149  1.00  0.00     0.282 HD
ATOM      9  H32 UNL     1       4.481  -0.434  -0.024  1.00  0.00     0.282 HD
HETATM   10  N4  UNL     1       1.382  -0.734  -1.227  1.00  0.00     0.016 N 
ATOM     11  H41 UNL     1       1.005  -0.277  -2.058  1.00  0.00     0.284 HD
ATOM     12  H42 UNL     1       1.723  -1.490  -1.821  1.00  0.00     0.284 HD
ENDROOT
BRANCH   1  13
HETATM   13  C3  UNL     1      -0.617  -0.043  -0.054  1.00  0.00     0.048 C 
HETATM   14  C2  UNL     1      -1.274   0.192   1.284  1.00  0.00     0.041 C 
HETATM   15  C1  UNL     1      -2.605   0.133   0.546  1.00  0.00     0.184 C 
HETATM   16  C7  UNL     1      -1.900  -0.775  -0.470  1.00  0.00     0.041 C 
BRANCH  15  17
HETATM   17  N1  UNL     1      -2.912   1.385  -0.064  1.00  0.00    -0.075 N 
ATOM     18  H13 UNL     1      -2.892   2.147   0.614  1.00  0.00     0.274 HD
ATOM     19  H12 UNL     1      -2.158   1.700  -0.675  1.00  0.00     0.274 HD
ATOM     20  H11 UNL     1      -3.803   1.345  -0.558  1.00  0.00     0.274 HD
ENDBRANCH  15  17
ENDBRANCH   1  13
TORSDOF 2
