REMARK  1 active torsions:
REMARK  status: ('A' for Active; 'I' for Inactive)
REMARK    1  A    between atoms: C4_5  and  N2_6 
REMARK       I    between atoms: N2_6  and  C5_8 
REMARK       I    between atoms: C5_8  and  N3_9 
REMARK       I    between atoms: C5_8  and  N4_13 
ROOT
HETATM    1  N2  UNL     1       1.056   0.116  -0.792  1.00  0.00    -0.326 N 
ATOM      2  H2  UNL     1       1.085   0.014  -1.806  1.00  0.00     0.164 HD
HETATM    3  C5  UNL     1       2.282   0.337  -0.092  1.00  0.00     0.481 C 
HETATM    4  N3  UNL     1       2.858  -0.874   0.447  1.00  0.00    -0.033 N 
ATOM      5  H31 UNL     1       3.733  -0.716   0.947  1.00  0.00     0.278 HD
ATOM      6  H32 UNL     1       2.979  -1.574  -0.284  1.00  0.00     0.278 HD
ATOM      7  H33 UNL     1       2.186  -1.363   1.038  1.00  0.00     0.278 HD
HETATM    8  N4  UNL     1       3.293   0.983  -0.901  1.00  0.00    -0.033 N 
ATOM      9  H41 UNL     1       4.168   1.141  -0.401  1.00  0.00     0.278 HD
ATOM     10  H42 UNL     1       2.939   1.854  -1.296  1.00  0.00     0.278 HD
ATOM     11  H43 UNL     1       3.456   0.461  -1.762  1.00  0.00     0.278 HD
ENDROOT
BRANCH   1  12
HETATM   12  C4  UNL     1      -0.086   0.040  -0.196  1.00  0.00     0.119 A 
HETATM   13  C3  UNL     1      -0.289   0.159   1.168  1.00  0.00     0.068 A 
HETATM   14  C2  UNL     1      -1.647   0.023   1.441  1.00  0.00     0.113 A 
HETATM   15  N1  UNL     1      -2.224  -0.170   0.257  1.00  0.00    -0.306 N 
HETATM   16  C1  UNL     1      -3.646  -0.365   0.043  1.00  0.00     0.177 C 
HETATM   17  N5  UNL     1      -1.303  -0.161  -0.714  1.00  0.00    -0.284 N 
ATOM     18  H5  UNL     1      -1.501  -0.289  -1.706  1.00  0.00     0.188 HD
ENDBRANCH   1  12
TORSDOF 1
