REMARK  6 active torsions:
REMARK  status: ('A' for Active; 'I' for Inactive)
REMARK    1  A    between atoms: C2_2  and  C3_3 
REMARK    2  A    between atoms: C3_3  and  C4_4 
REMARK    3  A    between atoms: C4_4  and  C5_5 
REMARK    4  A    between atoms: C5_5  and  C6_6 
REMARK    5  A    between atoms: C6_6  and  N1_7 
REMARK    6  A    between atoms: C14_16  and  N2_17 
ROOT
HETATM    1  C3  UNL     1      -2.197  -0.316  -0.157  1.00  0.00     0.036 C 
HETATM    2  S1  UNL     1      -1.885  -0.062  -1.956  1.00  0.00    -0.157 SA
HETATM    3  C12 UNL     1      -3.171   1.216  -2.247  1.00  0.00     0.077 C 
HETATM    4  C13 UNL     1      -3.603   1.520  -0.845  1.00  0.00     0.044 C 
HETATM    5  C14 UNL     1      -3.603   0.227  -0.077  1.00  0.00     0.202 C 
ENDROOT
BRANCH   1   6
HETATM    6  C2  UNL     1      -2.103  -1.751   0.210  1.00  0.00     0.018 C 
HETATM    7  C1  UNL     1      -3.133  -2.612  -0.500  1.00  0.00     0.006 C 
ENDBRANCH   1   6
BRANCH   1   8
HETATM    8  C4  UNL     1      -1.193   0.511   0.551  1.00  0.00     0.024 C 
BRANCH   8   9
HETATM    9  C5  UNL     1       0.184   0.051   0.210  1.00  0.00     0.021 C 
BRANCH   9  10
HETATM   10  C6  UNL     1       1.252   0.904   0.920  1.00  0.00     0.117 C 
BRANCH  10  11
HETATM   11  N1  UNL     1       2.509   0.369   0.518  1.00  0.00    -0.412 N 
HETATM   12  C7  UNL     1       3.651   1.010   1.092  1.00  0.00     0.117 C 
HETATM   13  C8  UNL     1       4.730  -0.075   1.213  1.00  0.00     0.019 C 
HETATM   14  C9  UNL     1       4.935  -0.726  -0.133  1.00  0.00     0.003 C 
HETATM   15  C10 UNL     1       4.094  -0.151  -1.222  1.00  0.00     0.019 C 
HETATM   16  C11 UNL     1       2.640   0.028  -0.858  1.00  0.00     0.117 C 
ENDBRANCH  10  11
ENDBRANCH   9  10
ENDBRANCH   8   9
ENDBRANCH   1   8
BRANCH   5  17
HETATM   17  N2  UNL     1      -4.060   0.410   1.252  1.00  0.00    -0.073 N 
ATOM     18  H23 UNL     1      -3.975  -0.455   1.786  1.00  0.00     0.274 HD
ATOM     19  H22 UNL     1      -3.414   0.998   1.779  1.00  0.00     0.274 HD
ATOM     20  H21 UNL     1      -5.010   0.777   1.306  1.00  0.00     0.274 HD
ENDBRANCH   5  17
TORSDOF 6
