REMARK  5 active torsions:
REMARK  status: ('A' for Active; 'I' for Inactive)
REMARK    1  A    between atoms: C1_2  and  C2_3 
REMARK       I    between atoms: C1_2  and  N1_10 
REMARK    2  A    between atoms: C2_3  and  C3_4 
REMARK    3  A    between atoms: N1_10  and  C9_12 
REMARK    4  A    between atoms: C9_12  and  C10_13 
REMARK    5  A    between atoms: C10_13  and  C11_14 
ROOT
HETATM    1  O1  UNL     1      -0.057   1.549   0.777  1.00  0.00    -0.274 OA
HETATM    2  C1  UNL     1       0.329   0.624   0.035  1.00  0.00     0.217 C 
HETATM    3  N1  UNL     1       1.671   0.664  -0.447  1.00  0.00    -0.361 N 
ATOM      4  H1  UNL     1       2.008  -0.083  -1.055  1.00  0.00     0.162 HD
ENDROOT
BRANCH   3   5
HETATM    5  C9  UNL     1       2.560   1.744  -0.089  1.00  0.00     0.129 C 
BRANCH   5   6
HETATM    6  C10 UNL     1       3.916   1.559  -0.716  1.00  0.00     0.084 C 
BRANCH   6   7
HETATM    7  C11 UNL     1       4.481   0.266  -0.209  1.00  0.00     0.052 A 
HETATM    8  N2  UNL     1       5.216   0.133   0.886  1.00  0.00    -0.363 N 
HETATM    9  C12 UNL     1       5.656  -1.033   1.226  1.00  0.00     0.095 A 
ATOM     10  H2  UNL     1       5.433   0.949   1.458  1.00  0.00     0.165 HD
HETATM   11  C13 UNL     1       5.338  -2.099   0.427  1.00  0.00     0.068 A 
HETATM   12  S1  UNL     1       4.402  -1.334  -0.794  1.00  0.00    -0.087 SA
ENDBRANCH   6   7
ENDBRANCH   5   6
ENDBRANCH   3   5
BRANCH   2  13
HETATM   13  C2  UNL     1      -0.542  -0.478  -0.345  1.00  0.00     0.107 C 
BRANCH  13  14
HETATM   14  C3  UNL     1      -1.939  -0.260   0.174  1.00  0.00    -0.006 C 
HETATM   15  C4  UNL     1      -2.728  -1.505  -0.270  1.00  0.00     0.005 C 
HETATM   16  C5  UNL     1      -4.183  -1.367   0.069  1.00  0.00     0.000 C 
HETATM   17  C6  UNL     1      -4.555  -0.100   0.762  1.00  0.00     0.000 C 
HETATM   18  C7  UNL     1      -3.935   1.134   0.182  1.00  0.00     0.000 C 
HETATM   19  C8  UNL     1      -2.654   0.873  -0.555  1.00  0.00     0.005 C 
ENDBRANCH  13  14
ENDBRANCH   2  13
TORSDOF 5
