REMARK  1 active torsions:
REMARK  status: ('A' for Active; 'I' for Inactive)
REMARK    1  A    between atoms: C2_2  and  C3_3 
ROOT
HETATM    1  C3  UNL     1       0.545  -0.184   0.340  1.00  0.00    -0.009 C 
HETATM    2  C4  UNL     1      -0.020   0.932  -0.448  1.00  0.00     0.049 C 
HETATM    3  C5  UNL     1      -1.452   0.840  -0.812  1.00  0.00     0.056 C 
HETATM    4  N1  UNL     1      -2.306   0.132   0.057  1.00  0.00    -0.402 N 
ATOM      5  H1  UNL     1      -3.319   0.145  -0.060  1.00  0.00     0.158 HD
HETATM    6  C6  UNL     1      -1.682  -0.604   1.109  1.00  0.00     0.119 C 
HETATM    7  C7  UNL     1      -0.477  -1.306   0.473  1.00  0.00     0.024 C 
ENDROOT
BRANCH   1   8
HETATM    8  C2  UNL     1       1.855  -0.705  -0.212  1.00  0.00     0.000 C 
HETATM    9  C1  UNL     1       2.827   0.472  -0.186  1.00  0.00     0.005 C 
ENDBRANCH   1   8
TORSDOF 1
