REMARK  2 active torsions:
REMARK  status: ('A' for Active; 'I' for Inactive)
REMARK    1  A    between atoms: N2_6  and  C6_8 
REMARK    2  A    between atoms: C6_8  and  O1_9 
ROOT
HETATM    1  C1  UNL     1       0.911   1.272   0.907  1.00  0.00     0.309 C 
HETATM    2  N1  UNL     1       0.700  -0.003   0.224  1.00  0.00     0.084 N 
HETATM    3  C2  UNL     1       1.927  -0.472  -0.346  1.00  0.00     0.309 C 
HETATM    4  C3  UNL     1       0.185  -1.003   1.169  1.00  0.00     0.301 C 
HETATM    5  C4  UNL     1      -0.805  -1.363   0.108  1.00  0.00     0.304 C 
HETATM    6  N2  UNL     1      -0.444  -0.110  -0.510  1.00  0.00     0.106 N 
HETATM    7  C5  UNL     1      -0.335  -0.255  -1.931  1.00  0.00     0.312 C 
ENDROOT
BRANCH   6   8
HETATM    8  C6  UNL     1      -1.450   0.901  -0.196  1.00  0.00     0.436 C 
BRANCH   8   9
HETATM    9  O1  UNL     1      -2.096   0.603   1.005  1.00  0.00    -0.373 OA
ATOM     10  H1  UNL     1      -2.750   1.261   1.209  1.00  0.00     0.211 HD
ENDBRANCH   8   9
ENDBRANCH   6   8
TORSDOF 2
