REMARK  18 active torsions:
REMARK  status: ('A' for Active; 'I' for Inactive)
REMARK    1  A    between atoms: N5_14  and  C6_15 
REMARK    2  A    between atoms: C6_15  and  C7_16 
REMARK    3  A    between atoms: C7_16  and  C8_17 
REMARK    4  A    between atoms: C7_16  and  N11_33 
REMARK    5  A    between atoms: C7_16  and  C17_42 
REMARK    6  A    between atoms: C8_17  and  C9_18 
REMARK    7  A    between atoms: C9_18  and  N6_19 
REMARK    8  A    between atoms: C10_23  and  C11_24 
REMARK    9  A    between atoms: N11_33  and  C16_35 
REMARK   10  A    between atoms: C16_35  and  N12_36 
REMARK   11  A    between atoms: C16_35  and  O1_40 
REMARK   12  A    between atoms: C17_42  and  O2_43 
REMARK   13  A    between atoms: C17_42  and  C18_45 
REMARK   14  A    between atoms: C18_45  and  O3_46 
REMARK   15  A    between atoms: C18_45  and  C19_48 
REMARK   16  A    between atoms: C20_50  and  C21_51 
REMARK   17  A    between atoms: C21_51  and  C22_52 
REMARK   18  A    between atoms: C22_52  and  O4_53 
ROOT
HETATM    1  C7  UNL     1      -0.534   0.494  -0.320  1.00  0.00     0.092 C 
ENDROOT
BRANCH   1   2
HETATM    2  C6  UNL     1       0.060   1.578   0.612  1.00  0.00     0.106 C 
BRANCH   2   3
HETATM    3  N5  UNL     1      -0.781   2.553   1.166  1.00  0.00    -0.303 N 
HETATM    4  C3  UNL     1      -0.886   3.871   0.783  1.00  0.00     0.160 A 
HETATM    5  N3  UNL     1      -0.243   4.654  -0.091  1.00  0.00    -0.174 N 
HETATM    6  C4  UNL     1      -1.869   4.488   1.522  1.00  0.00     0.148 A 
HETATM    7  C2  UNL     1      -0.468   5.953  -0.306  1.00  0.00     0.682 A 
ATOM      8  H3  UNL     1       0.491   4.216  -0.648  1.00  0.00     0.186 HD
HETATM    9  N1  UNL     1      -1.423   6.539   0.414  1.00  0.00    -0.150 N 
HETATM   10  N2  UNL     1       0.217   6.625  -1.192  1.00  0.00    -0.234 N 
HETATM   11  C1  UNL     1      -1.728   7.941   0.241  1.00  0.00     0.179 C 
HETATM   12  C23 UNL     1      -2.125   5.831   1.321  1.00  0.00     0.292 A 
HETATM   13  O5  UNL     1      -3.038   6.389   2.010  1.00  0.00    -0.265 OA
ATOM     14  H22 UNL     1       0.045   7.617  -1.356  1.00  0.00     0.174 HD
ATOM     15  H21 UNL     1       0.948   6.176  -1.743  1.00  0.00     0.174 HD
HETATM   16  N4  UNL     1      -2.371   3.582   2.355  1.00  0.00    -0.344 N 
HETATM   17  C5  UNL     1      -1.714   2.451   2.129  1.00  0.00     0.190 A 
ATOM     18  H4  UNL     1      -3.116   3.728   3.036  1.00  0.00     0.167 HD
ENDBRANCH   2   3
ENDBRANCH   1   2
BRANCH   1  19
HETATM   19  C8  UNL     1       0.702  -0.249  -0.704  1.00  0.00     0.062 C 
BRANCH  19  20
HETATM   20  C9  UNL     1       0.719  -1.399  -1.576  1.00  0.00     0.170 C 
BRANCH  20  21
HETATM   21  N6  UNL     1       2.157  -1.786  -1.711  1.00  0.00    -0.216 N 
HETATM   22  N7  UNL     1       3.008  -1.356  -2.625  1.00  0.00    -0.003 NA
HETATM   23  N8  UNL     1       4.202  -1.906  -2.434  1.00  0.00    -0.266 N 
HETATM   24  C10 UNL     1       4.107  -2.716  -1.357  1.00  0.00     0.144 A 
ATOM     25  H8  UNL     1       5.037  -1.746  -2.997  1.00  0.00     0.186 HD
HETATM   26  N10 UNL     1       2.844  -2.611  -0.950  1.00  0.00    -0.269 N 
ATOM     27  H10 UNL     1       2.457  -3.108  -0.148  1.00  0.00     0.190 HD
BRANCH  24  28
HETATM   28  C11 UNL     1       5.128  -3.541  -0.736  1.00  0.00     0.013 A 
HETATM   29  C12 UNL     1       4.847  -4.320   0.364  1.00  0.00     0.032 A 
HETATM   30  C13 UNL     1       5.814  -5.103   0.962  1.00  0.00     0.088 A 
HETATM   31  N9  UNL     1       7.072  -5.134   0.489  1.00  0.00    -0.375 N 
HETATM   32  C14 UNL     1       7.384  -4.377  -0.597  1.00  0.00     0.088 A 
ATOM     33  H9  UNL     1       7.780  -5.715   0.937  1.00  0.00     0.164 HD
HETATM   34  C15 UNL     1       6.430  -3.589  -1.206  1.00  0.00     0.032 A 
ENDBRANCH  24  28
ENDBRANCH  20  21
ENDBRANCH  19  20
ENDBRANCH   1  19
BRANCH   1  35
HETATM   35  N11 UNL     1      -1.240   1.154  -1.359  1.00  0.00    -0.359 N 
ATOM     36  H11 UNL     1      -2.257   1.083  -1.350  1.00  0.00     0.158 HD
BRANCH  35  37
HETATM   37  C16 UNL     1      -0.669   1.882  -2.378  1.00  0.00     0.420 C 
BRANCH  37  38
HETATM   38  N12 UNL     1      -1.773   2.707  -2.962  1.00  0.00    -0.035 N 
ATOM     39 3H12 UNL     1      -2.580   2.157  -3.257  1.00  0.00     0.279 HD
ATOM     40 2H12 UNL     1      -2.260   3.282  -2.274  1.00  0.00     0.279 HD
ATOM     41 1H12 UNL     1      -1.350   3.247  -3.717  1.00  0.00     0.279 HD
ENDBRANCH  37  38
BRANCH  37  42
HETATM   42  O1  UNL     1      -0.286   1.138  -3.535  1.00  0.00    -0.355 OA
ATOM     43  H1  UNL     1       0.108   1.640  -4.238  1.00  0.00     0.213 HD
ENDBRANCH  37  42
ENDBRANCH  35  37
ENDBRANCH   1  35
BRANCH   1  44
HETATM   44  C17 UNL     1      -1.569  -0.340   0.346  1.00  0.00     0.185 C 
BRANCH  44  45
HETATM   45  O2  UNL     1      -2.173  -1.098  -0.704  1.00  0.00    -0.390 OA
ATOM     46  H2  UNL     1      -2.834  -1.631  -0.278  1.00  0.00     0.210 HD
ENDBRANCH  44  45
BRANCH  44  47
HETATM   47  C18 UNL     1      -1.180  -1.363   1.364  1.00  0.00     0.196 C 
BRANCH  47  48
HETATM   48  O3  UNL     1      -0.501  -0.812   2.467  1.00  0.00    -0.387 OA
ATOM     49  H3  UNL     1      -0.254  -1.462   3.114  1.00  0.00     0.210 HD
ENDBRANCH  47  48
BRANCH  47  50
HETATM   50  C19 UNL     1      -2.348  -2.068   1.968  1.00  0.00     0.055 C 
HETATM   51  N13 UNL     1      -3.259  -1.121   2.672  1.00  0.00    -0.104 NA
HETATM   52  C20 UNL     1      -3.051  -3.187   1.390  1.00  0.00     0.023 C 
BRANCH  52  53
HETATM   53  C21 UNL     1      -2.446  -4.508   1.143  1.00  0.00     0.000 C 
BRANCH  53  54
HETATM   54  C22 UNL     1      -1.331  -4.696   0.188  1.00  0.00     0.191 C 
BRANCH  54  55
HETATM   55  O4  UNL     1      -1.730  -4.329  -1.103  1.00  0.00    -0.397 OA
ATOM     56  H4  UNL     1      -1.014  -4.450  -1.716  1.00  0.00     0.209 HD
ENDBRANCH  54  55
ENDBRANCH  53  54
ENDBRANCH  52  53
ENDBRANCH  47  50
ENDBRANCH  44  47
ENDBRANCH   1  44
TORSDOF 18
