REMARK  20 active torsions:
REMARK  status: ('A' for Active; 'I' for Inactive)
REMARK    1  A    between atoms: C4_8  and  N3_9 
REMARK    2  A    between atoms: C5_12  and  C6_13 
REMARK    3  A    between atoms: C6_13  and  C7_14 
REMARK    4  A    between atoms: C7_14  and  O1_15 
REMARK    5  A    between atoms: C7_14  and  N4_17 
REMARK    6  A    between atoms: N4_17  and  C8_18 
REMARK    7  A    between atoms: C10_25  and  N8_26 
REMARK    8  A    between atoms: N8_26  and  C11_28 
REMARK    9  A    between atoms: C11_28  and  C13_30 
REMARK   10  A    between atoms: C13_30  and  O2_31 
REMARK   11  A    between atoms: C13_30  and  C14_33 
REMARK       I    between atoms: C14_33  and  N9_35 
REMARK   12  A    between atoms: N9_35  and  O4_37 
REMARK   13  A    between atoms: O4_37  and  C15_38 
REMARK   14  A    between atoms: C15_38  and  C16_39 
REMARK   15  A    between atoms: C16_39  and  N10_40 
REMARK   16  A    between atoms: N10_40  and  N11_41 
REMARK   17  A    between atoms: N10_40  and  C17_44 
REMARK   18  A    between atoms: C17_44  and  C18_45 
REMARK   19  A    between atoms: C19_50  and  N14_51 
REMARK   20  A    between atoms: N14_51  and  N15_53 
ROOT
HETATM    1  C13 UNL     1       1.196   0.774   0.705  1.00  0.00     0.234 C 
ENDROOT
BRANCH   1   2
HETATM    2  C11 UNL     1       0.215  -0.379   0.814  1.00  0.00     0.117 C 
HETATM    3  C12 UNL     1       0.297  -1.364  -0.293  1.00  0.00     0.035 C 
BRANCH   2   4
HETATM    4  N8  UNL     1      -1.114   0.170   0.919  1.00  0.00    -0.364 N 
ATOM      5  H8  UNL     1      -1.268   1.168   0.776  1.00  0.00     0.161 HD
BRANCH   4   6
HETATM    6  C10 UNL     1      -2.196  -0.674   1.219  1.00  0.00     0.178 A 
HETATM    7  C8  UNL     1      -3.542  -0.241   1.335  1.00  0.00     0.237 A 
HETATM    8  N5  UNL     1      -4.210  -1.393   1.649  1.00  0.00    -0.255 N 
HETATM    9  N6  UNL     1      -3.420  -2.415   1.724  1.00  0.00    -0.235 N 
ATOM     10  H5  UNL     1      -5.217  -1.441   1.806  1.00  0.00     0.191 HD
HETATM   11  C9  UNL     1      -3.763  -3.820   2.028  1.00  0.00     0.200 C 
HETATM   12  N7  UNL     1      -2.213  -1.984   1.466  1.00  0.00    -0.265 N 
ATOM     13  H7  UNL     1      -1.384  -2.578   1.455  1.00  0.00     0.190 HD
BRANCH   7  14
HETATM   14  N4  UNL     1      -3.956   0.885   1.184  1.00  0.00    -0.393 NA
BRANCH  14  15
HETATM   15  C7  UNL     1      -4.595   2.045   1.061  1.00  0.00     0.304 C 
BRANCH  15  16
HETATM   16  C6  UNL     1      -5.817   2.242   0.194  1.00  0.00     0.112 C 
BRANCH  16  17
HETATM   17  C5  UNL     1      -6.924   1.346   0.372  1.00  0.00     0.013 A 
HETATM   18  C2  UNL     1      -7.066   0.160  -0.301  1.00  0.00     0.016 A 
HETATM   19  C1  UNL     1      -6.162  -0.261  -1.399  1.00  0.00     0.069 C 
HETATM   20  N1  UNL     1      -8.115  -0.667   0.002  1.00  0.00    -0.355 N 
HETATM   21  C3  UNL     1      -9.027  -0.369   0.939  1.00  0.00     0.182 A 
ATOM     22  H1  UNL     1      -8.206  -1.547  -0.506  1.00  0.00     0.166 HD
HETATM   23  N2  UNL     1      -8.898   0.779   1.593  1.00  0.00    -0.339 N 
HETATM   24  C4  UNL     1      -7.901   1.611   1.337  1.00  0.00     0.108 A 
ATOM     25  H2  UNL     1      -9.582   1.025   2.308  1.00  0.00     0.168 HD
BRANCH  24  26
HETATM   26  N3  UNL     1      -7.808   2.719   1.985  1.00  0.00    -0.385 N 
ATOM     27  H32 UNL     1      -8.521   2.912   2.689  1.00  0.00     0.157 HD
ATOM     28  H31 UNL     1      -7.040   3.360   1.788  1.00  0.00     0.157 HD
ENDBRANCH  24  26
ENDBRANCH  16  17
ENDBRANCH  15  16
BRANCH  15  29
HETATM   29  O1  UNL     1      -3.631   3.058   0.670  1.00  0.00    -0.365 OA
ATOM     30  H1  UNL     1      -2.863   2.934   1.215  1.00  0.00     0.213 HD
ENDBRANCH  15  29
ENDBRANCH  14  15
ENDBRANCH   7  14
ENDBRANCH   4   6
ENDBRANCH   2   4
ENDBRANCH   1   2
BRANCH   1  31
HETATM   31  O2  UNL     1       0.897   1.588  -0.387  1.00  0.00    -0.384 OA
ATOM     32  H2  UNL     1       1.511   2.310  -0.455  1.00  0.00     0.210 HD
ENDBRANCH   1  31
BRANCH   1  33
HETATM   33  C14 UNL     1       2.598   0.233   0.547  1.00  0.00     0.272 C 
HETATM   34  O3  UNL     1       3.054  -0.533   1.425  1.00  0.00    -0.268 OA
HETATM   35  N9  UNL     1       3.333   0.621  -0.597  1.00  0.00    -0.232 N 
ATOM     36  H9  UNL     1       2.886   1.253  -1.261  1.00  0.00     0.197 HD
BRANCH  35  37
HETATM   37  O4  UNL     1       4.583   0.209  -0.863  1.00  0.00    -0.273 OA
BRANCH  37  38
HETATM   38  C15 UNL     1       4.673  -1.135  -1.162  1.00  0.00     0.247 C 
BRANCH  38  39
HETATM   39  C16 UNL     1       6.045  -1.579  -1.526  1.00  0.00     0.111 C 
BRANCH  39  40
HETATM   40  N10 UNL     1       6.650  -0.986  -2.647  1.00  0.00    -0.304 N 
BRANCH  40  41
HETATM   41  N11 UNL     1       6.212  -1.436  -3.875  1.00  0.00    -0.343 N 
ATOM     42 2H11 UNL     1       5.907  -2.409  -3.902  1.00  0.00     0.177 HD
ATOM     43 1H11 UNL     1       6.651  -1.006  -4.689  1.00  0.00     0.177 HD
ENDBRANCH  40  41
BRANCH  40  44
HETATM   44  C17 UNL     1       7.072   0.359  -2.610  1.00  0.00     0.225 C 
BRANCH  44  45
HETATM   45  C18 UNL     1       8.178   0.611  -1.654  1.00  0.00     0.132 A 
HETATM   46  N12 UNL     1       9.474   0.759  -2.073  1.00  0.00    -0.273 N 
HETATM   47  N13 UNL     1      10.247   0.972  -1.017  1.00  0.00    -0.129 N 
ATOM     48  H12 UNL     1       9.793   0.713  -3.041  1.00  0.00     0.189 HD
HETATM   49  C19 UNL     1       9.486   0.968   0.113  1.00  0.00     0.714 A 
ATOM     50  H13 UNL     1      11.256   1.117  -1.046  1.00  0.00     0.205 HD
HETATM   51  N17 UNL     1       8.223   0.741  -0.343  1.00  0.00    -0.175 N 
ATOM     52  H17 UNL     1       7.404   0.679   0.262  1.00  0.00     0.185 HD
BRANCH  49  53
HETATM   53  N14 UNL     1       9.869   1.145   1.458  1.00  0.00    -0.117 N 
ATOM     54  H14 UNL     1       9.609   1.997   1.955  1.00  0.00     0.207 HD
BRANCH  53  55
HETATM   55  N15 UNL     1      10.529   0.256   2.043  1.00  0.00    -0.235 N 
HETATM   56  N16 UNL     1      10.742  -0.847   2.601  1.00  0.00    -0.330 N 
ATOM     57 2H16 UNL     1       9.805  -1.242   2.520  1.00  0.00     0.178 HD
ATOM     58 1H16 UNL     1      11.280  -1.571   3.077  1.00  0.00     0.178 HD
ATOM     59  H15 UNL     1      11.449   0.692   2.100  1.00  0.00     0.208 HD
ENDBRANCH  53  55
ENDBRANCH  49  53
ENDBRANCH  44  45
ENDBRANCH  40  44
ENDBRANCH  39  40
ENDBRANCH  38  39
ENDBRANCH  37  38
ENDBRANCH  35  37
ENDBRANCH   1  33
TORSDOF 20
