REMARK  20 active torsions:
REMARK  status: ('A' for Active; 'I' for Inactive)
REMARK    1  A    between atoms: N1_1  and  N2_4 
REMARK    2  A    between atoms: N3_6  and  N4_8 
REMARK    3  A    between atoms: N4_8  and  C1_10 
REMARK    4  A    between atoms: C1_10  and  O1_11 
REMARK    5  A    between atoms: C1_10  and  C2_13 
REMARK    6  A    between atoms: C3_14  and  N5_15 
REMARK       I    between atoms: N5_15  and  C4_17 
REMARK    7  A    between atoms: C5_24  and  C6_25 
REMARK    8  A    between atoms: C6_25  and  N8_26 
REMARK    9  A    between atoms: C6_25  and  C13_46 
REMARK   10  A    between atoms: N8_26  and  C7_28 
REMARK   11  A    between atoms: C7_28  and  N9_29 
REMARK   12  A    between atoms: C7_28  and  C8_33 
REMARK   13  A    between atoms: C8_33  and  N10_34 
REMARK   14  A    between atoms: C8_33  and  C9_38 
REMARK   15  A    between atoms: C9_38  and  S1_39 
REMARK   16  A    between atoms: S1_39  and  C10_40 
REMARK   17  A    between atoms: C10_40  and  C11_41 
REMARK   18  A    between atoms: C11_41  and  C12_43 
REMARK   19  A    between atoms: C15_49  and  N11_50 
REMARK   20  A    between atoms: C16_55  and  O7_56 
ROOT
HETATM    1  C6  UNL     1      -0.517  -1.266   0.030  1.00  0.00     0.184 C 
ENDROOT
BRANCH   1   2
HETATM    2  C5  UNL     1      -1.545  -0.405  -0.623  1.00  0.00     0.088 A 
HETATM    3  N7  UNL     1      -1.745  -0.371  -1.936  1.00  0.00    -0.298 N 
HETATM    4  N6  UNL     1      -2.657   0.388  -2.486  1.00  0.00    -0.284 N 
ATOM      5  H7  UNL     1      -1.166  -0.958  -2.537  1.00  0.00     0.187 HD
HETATM    6  C3  UNL     1      -3.489   1.214  -1.777  1.00  0.00     0.142 A 
ATOM      7  H6  UNL     1      -2.755   0.364  -3.501  1.00  0.00     0.188 HD
HETATM    8  C2  UNL     1      -3.361   1.249  -0.428  1.00  0.00     0.097 A 
HETATM    9  C16 UNL     1      -2.363   0.419   0.178  1.00  0.00     0.110 A 
BRANCH   6  10
HETATM   10  N5  UNL     1      -4.435   1.912  -2.569  1.00  0.00    -0.285 N 
HETATM   11  C4  UNL     1      -4.424   1.797  -3.995  1.00  0.00     0.289 C 
HETATM   12  O2  UNL     1      -3.574   1.107  -4.561  1.00  0.00    -0.629 OA
HETATM   13  O3  UNL     1      -5.375   2.468  -4.737  1.00  0.00    -0.629 OA
ATOM     14  H5  UNL     1      -5.132   2.503  -2.117  1.00  0.00     0.173 HD
ENDBRANCH   6  10
BRANCH   8  15
HETATM   15  C1  UNL     1      -4.160   2.079   0.432  1.00  0.00     0.173 C 
BRANCH  15  16
HETATM   16  N4  UNL     1      -5.174   2.999   0.272  1.00  0.00    -0.264 N 
ATOM     17  H4  UNL     1      -5.527   3.226  -0.658  1.00  0.00     0.190 HD
BRANCH  16  18
HETATM   18  N3  UNL     1      -5.737   3.646   1.465  1.00  0.00    -0.227 N 
HETATM   19  N2  UNL     1      -6.905   3.332   1.776  1.00  0.00    -0.235 N 
ATOM     20  H2  UNL     1      -6.862   2.314   1.833  1.00  0.00     0.209 HD
ATOM     21  H3  UNL     1      -5.200   4.319   2.012  1.00  0.00     0.210 HD
BRANCH  19  22
HETATM   22  N1  UNL     1      -8.081   3.576   2.052  1.00  0.00    -0.330 N 
ATOM     23  H12 UNL     1      -8.082   4.594   1.985  1.00  0.00     0.178 HD
ATOM     24  H11 UNL     1      -9.035   3.320   2.306  1.00  0.00     0.178 HD
ENDBRANCH  19  22
ENDBRANCH  16  18
ENDBRANCH  15  16
BRANCH  15  25
HETATM   25  O1  UNL     1      -3.846   1.929   1.709  1.00  0.00    -0.344 OA
ATOM     26  H1  UNL     1      -3.147   1.295   1.819  1.00  0.00     0.219 HD
ENDBRANCH  15  25
ENDBRANCH   8  15
BRANCH   9  27
HETATM   27  O7  UNL     1      -2.156   0.377   1.480  1.00  0.00    -0.357 OA
ATOM     28  H7  UNL     1      -1.494  -0.173   1.882  1.00  0.00     0.217 HD
ENDBRANCH   9  27
ENDBRANCH   1   2
BRANCH   1  29
HETATM   29  N8  UNL     1       0.370  -0.538   0.850  1.00  0.00    -0.379 N 
ATOM     30  H8  UNL     1       0.350  -0.690   1.858  1.00  0.00     0.156 HD
BRANCH  29  31
HETATM   31  C7  UNL     1       1.273   0.383   0.322  1.00  0.00     0.309 C 
BRANCH  31  32
HETATM   32  N9  UNL     1       0.615   1.516  -0.352  1.00  0.00    -0.057 N 
ATOM     33  H93 UNL     1      -0.030   1.187  -1.070  1.00  0.00     0.276 HD
ATOM     34  H92 UNL     1      -0.049   1.974   0.272  1.00  0.00     0.276 HD
ATOM     35  H91 UNL     1       1.276   2.190  -0.738  1.00  0.00     0.276 HD
ENDBRANCH  31  32
BRANCH  31  36
HETATM   36  C8  UNL     1       2.376  -0.099  -0.561  1.00  0.00     0.242 C 
BRANCH  36  37
HETATM   37  N10 UNL     1       1.989  -0.764  -1.762  1.00  0.00    -0.071 N 
ATOM     38 3H10 UNL     1       1.366  -1.540  -1.538  1.00  0.00     0.274 HD
ATOM     39 2H10 UNL     1       1.359  -0.166  -2.297  1.00  0.00     0.274 HD
ATOM     40 1H10 UNL     1       2.743  -1.093  -2.365  1.00  0.00     0.274 HD
ENDBRANCH  36  37
BRANCH  36  41
HETATM   41  C9  UNL     1       3.381  -0.952   0.236  1.00  0.00     0.111 C 
BRANCH  41  42
HETATM   42  S1  UNL     1       4.723  -1.550  -0.787  1.00  0.00    -0.159 SA
BRANCH  42  43
HETATM   43  C10 UNL     1       5.802  -0.233  -1.398  1.00  0.00     0.164 C 
BRANCH  43  44
HETATM   44  C11 UNL     1       6.548   0.433  -0.329  1.00  0.00     0.234 C 
HETATM   45  O4  UNL     1       6.088   1.452   0.221  1.00  0.00    -0.285 OA
BRANCH  44  46
HETATM   46  C12 UNL     1       7.828  -0.091   0.097  1.00  0.00     0.247 C 
HETATM   47  O5  UNL     1       8.362  -1.117  -0.406  1.00  0.00    -0.642 OA
HETATM   48  O6  UNL     1       8.548   0.541   1.120  1.00  0.00    -0.642 OA
ENDBRANCH  44  46
ENDBRANCH  43  44
ENDBRANCH  42  43
ENDBRANCH  41  42
ENDBRANCH  36  41
ENDBRANCH  31  36
ENDBRANCH  29  31
ENDBRANCH   1  29
BRANCH   1  49
HETATM   49  C13 UNL     1      -1.243  -2.346   0.843  1.00  0.00     0.046 A 
HETATM   50  C14 UNL     1      -2.584  -2.570   0.692  1.00  0.00     0.080 A 
HETATM   51  S2  UNL     1      -2.870  -3.833   1.803  1.00  0.00    -0.064 SA
HETATM   52  C15 UNL     1      -1.284  -4.005   2.394  1.00  0.00     0.142 A 
HETATM   53  N12 UNL     1      -0.599  -3.088   1.715  1.00  0.00    -0.338 N 
ATOM     54  H12 UNL     1       0.402  -2.964   1.868  1.00  0.00     0.168 HD
BRANCH  52  55
HETATM   55  N11 UNL     1      -0.817  -4.837   3.305  1.00  0.00    -0.380 N 
ATOM     56 2H11 UNL     1      -1.342  -5.540   3.825  1.00  0.00     0.158 HD
ATOM     57 1H11 UNL     1       0.134  -4.940   3.659  1.00  0.00     0.158 HD
ENDBRANCH  52  55
ENDBRANCH   1  49
TORSDOF 20
