REMARK  13 active torsions:
REMARK  status: ('A' for Active; 'I' for Inactive)
REMARK    1  A    between atoms: C2_2  and  C3_3 
REMARK    2  A    between atoms: C3_3  and  C4_4 
REMARK    3  A    between atoms: C4_4  and  C5_5 
REMARK       I    between atoms: C5_5  and  N1_7 
REMARK       I    between atoms: N2_10  and  C8_11 
REMARK    4  A    between atoms: C8_11  and  C9_13 
REMARK    5  A    between atoms: C9_13  and  C10_14 
REMARK    6  A    between atoms: C9_13  and  N6_22 
REMARK    7  A    between atoms: C10_14  and  C11_15 
REMARK    8  A    between atoms: C11_15  and  C12_16 
REMARK    9  A    between atoms: C12_16  and  N3_17 
REMARK       I    between atoms: N6_22  and  C14_24 
REMARK   10  A    between atoms: C14_24  and  C15_26 
REMARK       I    between atoms: N7_31  and  C20_32 
REMARK   11  A    between atoms: C20_32  and  C21_34 
REMARK   12  A    between atoms: C21_34  and  C22_36 
REMARK   13  A    between atoms: C22_36  and  C23_37 
ROOT
HETATM    1  C9  UNL     1       1.533   1.289  -0.048  1.00  0.00     0.176 C 
ENDROOT
BRANCH   1   2
HETATM    2  C8  UNL     1       2.253   0.803  -1.266  1.00  0.00     0.242 C 
HETATM    3  N2  UNL     1       3.204  -0.202  -1.334  1.00  0.00    -0.347 N 
HETATM    4  C7  UNL     1       3.638  -0.968  -0.196  1.00  0.00     0.145 C 
HETATM    5  C29 UNL     1       3.824  -0.514  -2.638  1.00  0.00     0.145 C 
HETATM    6  C6  UNL     1       5.144  -0.830  -0.013  1.00  0.00     0.145 C 
HETATM    7  N1  UNL     1       5.743  -1.235  -1.262  1.00  0.00    -0.349 N 
HETATM    8  C5  UNL     1       6.786  -2.192  -1.238  1.00  0.00     0.219 C 
HETATM    9  C30 UNL     1       5.300  -0.673  -2.504  1.00  0.00     0.145 C 
HETATM   10  O1  UNL     1       7.314  -2.559  -2.310  1.00  0.00    -0.273 OA
HETATM   11  O2  UNL     1       1.929   1.400  -2.343  1.00  0.00    -0.271 OA
BRANCH   8  12
HETATM   12  C4  UNL     1       7.269  -2.771   0.034  1.00  0.00     0.103 C 
BRANCH  12  13
HETATM   13  C3  UNL     1       8.443  -3.665  -0.215  1.00  0.00     0.009 C 
BRANCH  13  14
HETATM   14  C2  UNL     1       8.957  -4.269   1.068  1.00  0.00    -0.004 C 
HETATM   15  C1  UNL     1      10.134  -5.156   0.790  1.00  0.00     0.005 C 
ENDBRANCH  13  14
ENDBRANCH  12  13
ENDBRANCH   8  12
ENDBRANCH   1   2
BRANCH   1  16
HETATM   16  C10 UNL     1       2.364   2.120   0.836  1.00  0.00     0.036 C 
BRANCH  16  17
HETATM   17  C11 UNL     1       2.992   3.354   0.330  1.00  0.00     0.022 C 
BRANCH  17  18
HETATM   18  C12 UNL     1       2.066   4.428  -0.144  1.00  0.00     0.122 C 
BRANCH  18  19
HETATM   19  N3  UNL     1       1.187   4.831   0.961  1.00  0.00    -0.367 N 
HETATM   20  C13 UNL     1       0.842   6.057   1.134  1.00  0.00     0.196 C 
HETATM   21  N4  UNL     1       1.286   7.101   0.274  1.00  0.00    -0.067 NA
HETATM   22  N5  UNL     1      -0.015   6.368   2.226  1.00  0.00    -0.067 NA
ATOM     23  H3  UNL     1       0.842   4.121   1.607  1.00  0.00     0.161 HD
ENDBRANCH  18  19
ENDBRANCH  17  18
ENDBRANCH  16  17
ENDBRANCH   1  16
BRANCH   1  24
HETATM   24  N6  UNL     1       0.222   1.718  -0.368  1.00  0.00    -0.346 N 
HETATM   25  C14 UNL     1      -0.929   0.850  -0.264  1.00  0.00     0.241 C 
HETATM   26  O3  UNL     1      -0.706  -0.334   0.121  1.00  0.00    -0.271 OA
ATOM     27  H6  UNL     1       0.084   2.678  -0.685  1.00  0.00     0.163 HD
BRANCH  25  28
HETATM   28  C15 UNL     1      -2.296   1.264  -0.576  1.00  0.00     0.183 C 
HETATM   29  C16 UNL     1      -2.352   2.113  -1.808  1.00  0.00     0.015 C 
HETATM   30  C17 UNL     1      -2.716   3.522  -1.493  1.00  0.00     0.012 C 
HETATM   31  C18 UNL     1      -3.334   1.418  -2.744  1.00  0.00     0.027 C 
HETATM   32  C19 UNL     1      -3.068  -0.047  -2.317  1.00  0.00     0.127 C 
HETATM   33  N7  UNL     1      -3.153   0.104  -0.893  1.00  0.00    -0.334 N 
HETATM   34  C20 UNL     1      -3.828  -0.683   0.034  1.00  0.00     0.264 C 
HETATM   35  O4  UNL     1      -3.622  -0.436   1.276  1.00  0.00    -0.267 OA
BRANCH  34  36
HETATM   36  C21 UNL     1      -4.756  -1.775  -0.251  1.00  0.00     0.092 C 
HETATM   37  N8  UNL     1      -5.528  -1.633  -1.464  1.00  0.00    -0.101 NA
BRANCH  36  38
HETATM   38  C22 UNL     1      -5.562  -2.281   0.900  1.00  0.00     0.064 C 
BRANCH  38  39
HETATM   39  C23 UNL     1      -6.456  -1.360   1.612  1.00  0.00    -0.009 C 
HETATM   40  C24 UNL     1      -7.210  -2.042   2.749  1.00  0.00     0.005 C 
HETATM   41  C25 UNL     1      -8.285  -2.951   2.261  1.00  0.00     0.000 C 
HETATM   42  C26 UNL     1      -8.790  -2.731   0.890  1.00  0.00     0.000 C 
HETATM   43  C27 UNL     1      -8.606  -1.374   0.304  1.00  0.00     0.000 C 
HETATM   44  C28 UNL     1      -7.459  -0.591   0.837  1.00  0.00     0.005 C 
ENDBRANCH  38  39
ENDBRANCH  36  38
ENDBRANCH  34  36
ENDBRANCH  25  28
ENDBRANCH   1  24
TORSDOF 13
