REMARK  20 active torsions:
REMARK  status: ('A' for Active; 'I' for Inactive)
REMARK    1  A    between atoms: C7_7  and  C8_8 
REMARK    2  A    between atoms: C9_9  and  C10_10 
REMARK    3  A    between atoms: C11_11  and  C12_12 
REMARK    4  A    between atoms: C12_12  and  N1_13 
REMARK    5  A    between atoms: N2_16  and  C15_17 
REMARK    6  A    between atoms: C15_17  and  C16_18 
REMARK    7  A    between atoms: C16_18  and  C17_19 
REMARK    8  A    between atoms: C17_19  and  N3_20 
REMARK    9  A    between atoms: N3_20  and  C18_22 
REMARK   10  A    between atoms: C18_22  and  C19_23 
REMARK   11  A    between atoms: C18_22  and  N7_31 
REMARK   12  A    between atoms: C19_23  and  C20_24 
REMARK   13  A    between atoms: C20_24  and  C21_25 
REMARK   14  A    between atoms: C21_25  and  N4_26 
REMARK   15  A    between atoms: N7_31  and  C23_32 
REMARK   16  A    between atoms: C23_32  and  C24_33 
REMARK   17  A    between atoms: C24_33  and  O1_34 
REMARK   18  A    between atoms: C24_33  and  C25_36 
REMARK   19  A    between atoms: C25_36  and  O2_37 
REMARK   20  A    between atoms: C30_44  and  O4_45 
ROOT
HETATM    1  N1  UNL     1       1.201   1.217  -0.337  1.00  0.00    -0.322 N 
HETATM    2  C13 UNL     1       0.933   1.863   0.914  1.00  0.00     0.148 C 
HETATM    3  C14 UNL     1       0.734   0.776   1.927  1.00  0.00     0.147 C 
HETATM    4  N2  UNL     1       0.416  -0.382   1.102  1.00  0.00    -0.332 N 
HETATM    5  C26 UNL     1       0.830  -0.145  -0.242  1.00  0.00     0.321 C 
HETATM    6  O3  UNL     1       0.829  -1.050  -1.115  1.00  0.00    -0.247 OA
ENDROOT
BRANCH   4   7
HETATM    7  C15 UNL     1      -0.202  -1.563   1.621  1.00  0.00     0.129 C 
BRANCH   7   8
HETATM    8  C16 UNL     1      -1.681  -1.627   1.562  1.00  0.00     0.039 C 
BRANCH   8   9
HETATM    9  C17 UNL     1      -2.402  -0.525   2.304  1.00  0.00     0.123 C 
BRANCH   9  10
HETATM   10  N3  UNL     1      -3.835  -0.667   2.216  1.00  0.00    -0.369 N 
ATOM     11  H3  UNL     1      -4.352  -0.901   3.063  1.00  0.00     0.161 HD
BRANCH  10  12
HETATM   12  C18 UNL     1      -4.573  -0.494   0.986  1.00  0.00     0.150 C 
BRANCH  12  13
HETATM   13  C19 UNL     1      -5.444  -1.697   0.648  1.00  0.00     0.093 C 
BRANCH  13  14
HETATM   14  C20 UNL     1      -6.179  -1.413  -0.644  1.00  0.00     0.028 C 
BRANCH  14  15
HETATM   15  C21 UNL     1      -7.055  -2.582  -1.019  1.00  0.00     0.122 C 
BRANCH  15  16
HETATM   16  N4  UNL     1      -8.013  -2.813   0.027  1.00  0.00    -0.367 N 
HETATM   17  C22 UNL     1      -9.043  -3.537  -0.217  1.00  0.00     0.196 C 
HETATM   18  N5  UNL     1      -9.982  -3.765   0.802  1.00  0.00    -0.067 NA
HETATM   19  N6  UNL     1      -9.252  -4.112  -1.494  1.00  0.00    -0.067 NA
ATOM     20  H4  UNL     1      -7.875  -2.406   0.952  1.00  0.00     0.161 HD
ENDBRANCH  15  16
ENDBRANCH  14  15
ENDBRANCH  13  14
ENDBRANCH  12  13
BRANCH  12  21
HETATM   21  N7  UNL     1      -4.561   0.442   0.261  1.00  0.00    -0.406 NA
BRANCH  21  22
HETATM   22  C23 UNL     1      -4.483   1.545  -0.499  1.00  0.00     0.191 C 
BRANCH  22  23
HETATM   23  C24 UNL     1      -5.384   2.715  -0.104  1.00  0.00     0.193 C 
BRANCH  23  24
HETATM   24  O1  UNL     1      -6.718   2.390  -0.133  1.00  0.00    -0.387 OA
ATOM     25  H1  UNL     1      -7.278   3.117   0.112  1.00  0.00     0.210 HD
ENDBRANCH  23  24
BRANCH  23  26
HETATM   26  C25 UNL     1      -5.143   3.810  -1.133  1.00  0.00     0.202 C 
BRANCH  26  27
HETATM   27  O2  UNL     1      -3.793   4.146  -1.110  1.00  0.00    -0.398 OA
ATOM     28  H2  UNL     1      -3.643   4.830  -1.752  1.00  0.00     0.209 HD
ENDBRANCH  26  27
ENDBRANCH  23  26
ENDBRANCH  22  23
ENDBRANCH  21  22
ENDBRANCH  12  21
ENDBRANCH  10  12
ENDBRANCH   9  10
ENDBRANCH   8   9
ENDBRANCH   7   8
ENDBRANCH   4   7
BRANCH   1  29
HETATM   29  C12 UNL     1       1.756   1.858  -1.503  1.00  0.00     0.222 C 
BRANCH  29  30
HETATM   30  C11 UNL     1       3.234   1.766  -1.502  1.00  0.00    -0.081 C 
HETATM   31  C10 UNL     1       4.439   1.674  -1.517  1.00  0.00    -0.063 C 
BRANCH  31  32
HETATM   32  C9  UNL     1       5.877   1.543  -1.554  1.00  0.00     0.046 A 
HETATM   33  C8  UNL     1       6.538   0.747  -0.623  1.00  0.00     0.065 A 
HETATM   34  N8  UNL     1       7.886   0.613  -0.654  1.00  0.00    -0.330 N 
HETATM   35  C30 UNL     1       8.571   1.269  -1.607  1.00  0.00     0.148 A 
HETATM   36  C31 UNL     1       8.517  -0.227   0.338  1.00  0.00     0.158 C 
HETATM   37  C28 UNL     1       7.948   2.074  -2.555  1.00  0.00    -0.009 A 
HETATM   38  C27 UNL     1       6.592   2.208  -2.523  1.00  0.00     0.034 A 
HETATM   39  C29 UNL     1       8.807   2.756  -3.569  1.00  0.00     0.052 C 
BRANCH  33  40
HETATM   40  C7  UNL     1       5.767   0.055   0.400  1.00  0.00    -0.002 A 
HETATM   41  C2  UNL     1       5.275  -1.211   0.164  1.00  0.00    -0.050 A 
HETATM   42  C1  UNL     1       5.524  -1.883  -1.137  1.00  0.00     0.049 C 
HETATM   43  C3  UNL     1       4.535  -1.879   1.146  1.00  0.00     0.007 A 
HETATM   44  C4  UNL     1       4.288  -1.279   2.365  1.00  0.00     0.001 A 
HETATM   45  C5  UNL     1       4.793  -0.011   2.572  1.00  0.00     0.001 A 
HETATM   46  C6  UNL     1       5.526   0.660   1.610  1.00  0.00     0.014 A 
ENDBRANCH  33  40
BRANCH  35  47
HETATM   47  O4  UNL     1       9.948   1.109  -1.608  1.00  0.00    -0.346 OA
ATOM     48  H4  UNL     1      10.373   0.559  -0.961  1.00  0.00     0.219 HD
ENDBRANCH  35  47
ENDBRANCH  31  32
ENDBRANCH  29  30
ENDBRANCH   1  29
TORSDOF 20
