REMARK  5 active torsions:
REMARK  status: ('A' for Active; 'I' for Inactive)
REMARK    1  A    between atoms: C2_2  and  C3_3 
REMARK    2  A    between atoms: C3_3  and  C4_4 
REMARK    3  A    between atoms: C4_4  and  C5_5 
REMARK    4  A    between atoms: C6_8  and  N2_9 
REMARK    5  A    between atoms: C12_19  and  N4_20 
ROOT
HETATM    1  C5  UNL     1      -0.451   0.741   0.511  1.00  0.00     0.035 A 
HETATM    2  N1  UNL     1      -0.224   2.095   0.503  1.00  0.00    -0.195 N 
ATOM      3  H1  UNL     1      -1.010   2.736   0.613  1.00  0.00     0.184 HD
HETATM    4  C6  UNL     1       1.014   2.590   0.353  1.00  0.00     0.676 A 
HETATM    5  N3  UNL     1       2.057   1.744   0.208  1.00  0.00    -0.193 N 
ATOM      6  H3  UNL     1       2.994   2.131   0.095  1.00  0.00     0.184 HD
HETATM    7  C7  UNL     1       1.901   0.407   0.208  1.00  0.00     0.065 A 
HETATM    8  C8  UNL     1       0.608  -0.115   0.364  1.00  0.00    -0.010 A 
HETATM    9  C9  UNL     1       0.384  -1.581   0.387  1.00  0.00     0.043 C 
HETATM   10  C10 UNL     1       1.709  -2.312   0.644  1.00  0.00     0.007 C 
HETATM   11  C11 UNL     1       2.651  -1.799  -0.452  1.00  0.00     0.039 C 
HETATM   12  C12 UNL     1       3.106  -0.432   0.049  1.00  0.00     0.234 C 
ENDROOT
BRANCH   1  13
HETATM   13  C4  UNL     1      -1.844   0.271   0.661  1.00  0.00     0.058 C 
BRANCH  13  14
HETATM   14  C3  UNL     1      -2.423  -0.085  -0.685  1.00  0.00     0.006 C 
BRANCH  14  15
HETATM   15  C2  UNL     1      -3.852  -0.565  -0.463  1.00  0.00    -0.004 C 
HETATM   16  C1  UNL     1      -4.631   0.541   0.162  1.00  0.00     0.005 C 
ENDBRANCH  14  15
ENDBRANCH  13  14
ENDBRANCH   1  13
BRANCH   4  17
HETATM   17  N2  UNL     1       1.244   3.870   0.342  1.00  0.00    -0.234 N 
ATOM     18  H22 UNL     1       0.456   4.509   0.451  1.00  0.00     0.174 HD
ATOM     19  H21 UNL     1       2.185   4.246   0.228  1.00  0.00     0.174 HD
ENDBRANCH   4  17
BRANCH  12  20
HETATM   20  N4  UNL     1       4.043   0.086  -0.931  1.00  0.00    -0.070 N 
ATOM     21  H43 UNL     1       3.583   0.232  -1.829  1.00  0.00     0.275 HD
ATOM     22  H42 UNL     1       4.299   1.049  -0.713  1.00  0.00     0.275 HD
ATOM     23  H41 UNL     1       4.875  -0.493  -1.041  1.00  0.00     0.275 HD
ENDBRANCH  12  20
TORSDOF 5
