REMARK  4 active torsions:
REMARK  status: ('A' for Active; 'I' for Inactive)
REMARK    1  A    between atoms: C2_2  and  C3_3 
REMARK    2  A    between atoms: C3_3  and  C4_4 
REMARK    3  A    between atoms: C4_4  and  C5_5 
REMARK    4  A    between atoms: C5_5  and  C6_6 
ROOT
HETATM    1  C6  UNL     1       0.086   0.877   0.577  1.00  0.00     0.253 C 
HETATM    2  N1  UNL     1      -1.032   1.724   0.233  1.00  0.00    -0.056 N 
ATOM      3  H11 UNL     1      -0.701   2.613  -0.143  1.00  0.00     0.278 HD
ATOM      4  H12 UNL     1      -1.500   2.054   1.077  1.00  0.00     0.278 HD
HETATM    5  C7  UNL     1      -1.972   1.130  -0.654  1.00  0.00     0.238 C 
HETATM    6  C8  UNL     1      -3.250   1.958  -0.626  1.00  0.00     0.064 C 
HETATM    7  C9  UNL     1      -4.272   1.105   0.047  1.00  0.00     0.237 C 
HETATM    8  N2  UNL     1      -3.704  -0.183   0.301  1.00  0.00    -0.052 N 
ATOM      9  H21 UNL     1      -4.322  -0.946   0.025  1.00  0.00     0.279 HD
ATOM     10  H22 UNL     1      -3.652  -0.400   1.296  1.00  0.00     0.279 HD
HETATM   11  C10 UNL     1      -2.418  -0.247  -0.350  1.00  0.00     0.318 C 
HETATM   12  N3  UNL     1      -1.473  -1.043   0.413  1.00  0.00    -0.344 N 
HETATM   13  C11 UNL     1      -1.602  -2.486   0.490  1.00  0.00     0.153 C 
HETATM   14  C12 UNL     1      -0.395  -0.434   1.109  1.00  0.00     0.105 C 
HETATM   15  N4  UNL     1       0.163  -0.935   2.142  1.00  0.00    -0.387 N 
ATOM     16  H41 UNL     1      -0.165  -1.830   2.505  1.00  0.00     0.157 HD
ATOM     17  H42 UNL     1       0.937  -0.498   2.642  1.00  0.00     0.157 HD
ENDROOT
BRANCH   1  18
HETATM   18  C5  UNL     1       0.881   0.562  -0.660  1.00  0.00     0.041 C 
BRANCH  18  19
HETATM   19  C4  UNL     1       2.059  -0.306  -0.333  1.00  0.00     0.002 C 
BRANCH  19  20
HETATM   20  C3  UNL     1       2.974   0.434   0.598  1.00  0.00    -0.000 C 
BRANCH  20  21
HETATM   21  C2  UNL     1       4.193  -0.388   0.970  1.00  0.00    -0.005 C 
HETATM   22  C1  UNL     1       4.920  -0.692  -0.345  1.00  0.00     0.005 C 
ENDBRANCH  20  21
ENDBRANCH  19  20
ENDBRANCH  18  19
ENDBRANCH   1  18
TORSDOF 4
