REMARK  6 active torsions:
REMARK  status: ('A' for Active; 'I' for Inactive)
REMARK    1  A    between atoms: C2_2  and  C3_3 
REMARK    2  A    between atoms: C3_3  and  C4_4 
REMARK    3  A    between atoms: C5_7  and  N2_8 
REMARK    4  A    between atoms: C6_13  and  N4_14 
REMARK    5  A    between atoms: N4_14  and  C7_16 
REMARK    6  A    between atoms: C7_16  and  C8_17 
ROOT
HETATM    1  C4  UNL     1      -1.583  -0.653   0.081  1.00  0.00     0.051 A 
HETATM    2  N1  UNL     1      -1.531  -1.694  -0.769  1.00  0.00    -0.194 N 
ATOM      3  H1  UNL     1      -2.406  -2.145  -1.035  1.00  0.00     0.184 HD
HETATM    4  C5  UNL     1      -0.394  -2.167  -1.283  1.00  0.00     0.677 A 
HETATM    5  N3  UNL     1       0.784  -1.605  -0.964  1.00  0.00    -0.176 N 
ATOM      6  H3  UNL     1       1.649  -1.971  -1.362  1.00  0.00     0.186 HD
HETATM    7  C6  UNL     1       0.822  -0.544  -0.107  1.00  0.00     0.140 A 
HETATM    8  C10 UNL     1      -0.371  -0.078   0.408  1.00  0.00     0.112 A 
HETATM    9  C11 UNL     1      -0.308   1.051   1.324  1.00  0.00     0.105 C 
HETATM   10  N6  UNL     1      -0.265   1.929   2.062  1.00  0.00    -0.191 NA
ENDROOT
BRANCH   1  11
HETATM   11  C3  UNL     1      -2.860  -0.174   0.606  1.00  0.00     0.059 C 
BRANCH  11  12
HETATM   12  C2  UNL     1      -3.350   1.088  -0.071  1.00  0.00     0.002 C 
HETATM   13  C1  UNL     1      -4.672   1.542   0.511  1.00  0.00     0.005 C 
ENDBRANCH  11  12
ENDBRANCH   1  11
BRANCH   7  14
HETATM   14  N4  UNL     1       1.924   0.033   0.234  1.00  0.00    -0.372 N 
ATOM     15  H4  UNL     1       1.930   0.826   0.875  1.00  0.00     0.161 HD
BRANCH  14  16
HETATM   16  C7  UNL     1       3.153  -0.489  -0.329  1.00  0.00     0.156 C 
BRANCH  16  17
HETATM   17  C8  UNL     1       4.369   0.150   0.308  1.00  0.00     0.229 A 
HETATM   18  C9  UNL     1       4.454   1.647   0.151  1.00  0.00     0.267 A 
HETATM   19  N5  UNL     1       4.163   1.034   1.431  1.00  0.00    -0.066 N 
ATOM     20  H52 UNL     1       3.406   1.145   2.105  1.00  0.00     0.277 HD
ATOM     21  H51 UNL     1       4.590   1.104   2.355  1.00  0.00     0.277 HD
ENDBRANCH  16  17
ENDBRANCH  14  16
ENDBRANCH   7  14
BRANCH   4  22
HETATM   22  N2  UNL     1      -0.405  -3.167  -2.093  1.00  0.00    -0.234 N 
ATOM     23  H22 UNL     1      -1.299  -3.594  -2.335  1.00  0.00     0.174 HD
ATOM     24  H21 UNL     1       0.464  -3.529  -2.486  1.00  0.00     0.174 HD
ENDBRANCH   4  22
TORSDOF 6
