REMARK  6 active torsions:
REMARK  status: ('A' for Active; 'I' for Inactive)
REMARK    1  A    between atoms: N1_1  and  C1_4 
REMARK    2  A    between atoms: C2_9  and  N4_10 
REMARK    3  A    between atoms: N4_10  and  C3_12 
REMARK    4  A    between atoms: C3_12  and  C4_13 
REMARK    5  A    between atoms: C4_13  and  O1_14 
REMARK    6  A    between atoms: O1_14  and  C5_15 
ROOT
HETATM    1  C1  UNL     1       4.388  -1.813   1.152  1.00  0.00     0.705 A 
HETATM    2  N2  UNL     1       4.436  -0.549   1.571  1.00  0.00    -0.118 N 
ATOM      3  H2  UNL     1       5.091  -0.167   2.253  1.00  0.00     0.206 HD
HETATM    4  N3  UNL     1       3.474   0.128   0.940  1.00  0.00    -0.117 N 
ATOM      5  H3  UNL     1       3.275   1.121   1.064  1.00  0.00     0.206 HD
HETATM    6  C2  UNL     1       2.808  -0.698   0.116  1.00  0.00     0.707 A 
HETATM    7  N5  UNL     1       3.384  -1.907   0.254  1.00  0.00    -0.020 N 
ATOM      8  H5  UNL     1       3.107  -2.756  -0.239  1.00  0.00     0.203 HD
ENDROOT
BRANCH   6   9
HETATM    9  N4  UNL     1       1.818  -0.389  -0.648  1.00  0.00    -0.222 N 
ATOM     10  H4  UNL     1       1.377  -1.094  -1.239  1.00  0.00     0.177 HD
BRANCH   9  11
HETATM   11  C3  UNL     1       1.340   0.986  -0.652  1.00  0.00     0.164 C 
BRANCH  11  12
HETATM   12  C4  UNL     1       0.491   1.288  -1.842  1.00  0.00     0.188 C 
BRANCH  12  13
HETATM   13  O1  UNL     1      -0.606   0.480  -1.880  1.00  0.00    -0.384 OA
BRANCH  13  14
HETATM   14  C5  UNL     1      -1.491   0.545  -0.856  1.00  0.00     0.121 C 
HETATM   15  C6  UNL     1      -1.634  -0.750  -0.086  1.00  0.00     0.032 C 
HETATM   16  C7  UNL     1      -3.029  -1.000   0.381  1.00  0.00     0.002 C 
HETATM   17  C8  UNL     1      -3.738   0.202   0.907  1.00  0.00     0.000 C 
HETATM   18  C9  UNL     1      -3.580   1.416   0.020  1.00  0.00     0.002 C 
HETATM   19  C10 UNL     1      -2.889   0.954  -1.271  1.00  0.00     0.032 C 
ENDBRANCH  13  14
ENDBRANCH  12  13
ENDBRANCH  11  12
ENDBRANCH   9  11
ENDBRANCH   6   9
BRANCH   1  20
HETATM   20  N1  UNL     1       5.158  -2.787   1.528  1.00  0.00    -0.233 N 
ATOM     21  H12 UNL     1       5.916  -2.716   2.206  1.00  0.00     0.174 HD
ATOM     22  H11 UNL     1       5.121  -3.755   1.207  1.00  0.00     0.174 HD
ENDBRANCH   1  20
TORSDOF 6
