REMARK  5 active torsions:
REMARK  status: ('A' for Active; 'I' for Inactive)
REMARK    1  A    between atoms: N1_1  and  C1_4 
REMARK    2  A    between atoms: N5_11  and  C3_12 
REMARK    3  A    between atoms: C3_12  and  C4_13 
REMARK    4  A    between atoms: C4_13  and  C5_14 
REMARK    5  A    between atoms: C5_14  and  C6_15 
ROOT
HETATM    1  C1  UNL     1       3.793  -1.205   0.058  1.00  0.00     0.695 A 
HETATM    2  N2  UNL     1       4.905  -0.535   0.400  1.00  0.00    -0.161 N 
ATOM      3  H2  UNL     1       5.699  -0.915   0.915  1.00  0.00     0.187 HD
HETATM    4  C2  UNL     1       4.788   0.731  -0.058  1.00  0.00     0.222 A 
HETATM    5  N3  UNL     1       5.700   1.804   0.057  1.00  0.00    -0.061 NA
HETATM    6  N4  UNL     1       3.597   0.795  -0.672  1.00  0.00    -0.257 N 
ATOM      7  H4  UNL     1       3.218   1.627  -1.125  1.00  0.00     0.190 HD
HETATM    8  N5  UNL     1       2.984  -0.377  -0.606  1.00  0.00    -0.122 N 
ENDROOT
BRANCH   8   9
HETATM    9  C3  UNL     1       1.692  -0.632  -1.169  1.00  0.00     0.168 C 
BRANCH   9  10
HETATM   10  C4  UNL     1       0.613  -0.329  -0.123  1.00  0.00     0.023 C 
BRANCH  10  11
HETATM   11  C5  UNL     1      -0.711  -0.622  -0.792  1.00  0.00     0.006 C 
BRANCH  11  12
HETATM   12  C6  UNL     1      -1.878  -0.365   0.133  1.00  0.00    -0.014 C 
HETATM   13  C7  UNL     1      -1.957   1.041   0.606  1.00  0.00     0.004 C 
HETATM   14  C8  UNL     1      -3.293   1.683   0.477  1.00  0.00     0.000 C 
HETATM   15  C9  UNL     1      -4.438   0.807   0.910  1.00  0.00     0.000 C 
HETATM   16  C10 UNL     1      -4.283  -0.618   0.446  1.00  0.00     0.000 C 
HETATM   17  C11 UNL     1      -3.158  -0.724  -0.587  1.00  0.00     0.004 C 
ENDBRANCH  11  12
ENDBRANCH  10  11
ENDBRANCH   9  10
ENDBRANCH   8   9
BRANCH   1  18
HETATM   18  N1  UNL     1       3.520  -2.438   0.312  1.00  0.00    -0.233 N 
ATOM     19  H12 UNL     1       4.138  -3.071   0.820  1.00  0.00     0.174 HD
ATOM     20  H11 UNL     1       2.675  -2.947   0.052  1.00  0.00     0.174 HD
ENDBRANCH   1  18
TORSDOF 5
