REMARK  7 active torsions:
REMARK  status: ('A' for Active; 'I' for Inactive)
REMARK    1  A    between atoms: C2_2  and  C3_3 
REMARK    2  A    between atoms: C3_3  and  N1_4 
REMARK    3  A    between atoms: N1_4  and  C4_6 
REMARK    4  A    between atoms: N4_13  and  C7_14 
REMARK    5  A    between atoms: C8_15  and  N5_16 
REMARK    6  A    between atoms: N5_16  and  C9_18 
REMARK    7  A    between atoms: C9_18  and  C10_19 
ROOT
HETATM    1  C4  UNL     1      -3.109  -1.076  -0.380  1.00  0.00     0.685 A 
HETATM    2  N2  UNL     1      -3.368  -0.165   0.568  1.00  0.00    -0.172 N 
ATOM      3  H2  UNL     1      -4.278   0.278   0.692  1.00  0.00     0.186 HD
HETATM    4  C5  UNL     1      -2.293   0.103   1.342  1.00  0.00     0.172 A 
HETATM    5  C6  UNL     1      -1.279  -0.700   0.845  1.00  0.00     0.176 A 
HETATM    6  N3  UNL     1      -1.785  -1.403  -0.194  1.00  0.00    -0.172 N 
ATOM      7  H3  UNL     1      -1.263  -2.075  -0.756  1.00  0.00     0.186 HD
HETATM    8  N4  UNL     1      -0.216  -0.496   1.607  1.00  0.00    -0.255 N 
HETATM    9  C13 UNL     1      -0.570   0.447   2.587  1.00  0.00     0.335 A 
HETATM   10  O3  UNL     1       0.169   0.899   3.490  1.00  0.00    -0.246 OA
HETATM   11  N9  UNL     1      -1.849   0.797   2.403  1.00  0.00    -0.286 N 
HETATM   12  C14 UNL     1      -2.576   1.742   3.199  1.00  0.00     0.163 C 
ENDROOT
BRANCH   8  13
HETATM   13  C7  UNL     1       1.077  -1.069   1.602  1.00  0.00     0.120 C 
HETATM   14  C8  UNL     1       2.243  -0.478   1.045  1.00  0.00     0.105 C 
BRANCH  14  15
HETATM   15  N5  UNL     1       2.603  -0.220  -0.315  1.00  0.00    -0.371 N 
ATOM     16  H5  UNL     1       2.211  -0.688  -1.132  1.00  0.00     0.164 HD
BRANCH  15  17
HETATM   17  C9  UNL     1       3.614   0.813  -0.340  1.00  0.00     0.136 C 
BRANCH  17  18
HETATM   18  C10 UNL     1       4.935   0.570  -0.882  1.00  0.00     0.128 A 
HETATM   19  N6  UNL     1       5.902   1.425  -0.366  1.00  0.00    -0.293 N 
HETATM   20  C11 UNL     1       7.184   1.324  -0.689  1.00  0.00     0.329 A 
ATOM     21  H6  UNL     1       5.615   2.156   0.284  1.00  0.00     0.172 HD
HETATM   22  O1  UNL     1       8.032   2.132  -0.181  1.00  0.00    -0.246 OA
HETATM   23  N7  UNL     1       7.603   0.381  -1.537  1.00  0.00    -0.260 N 
HETATM   24  C12 UNL     1       6.655  -0.452  -2.042  1.00  0.00     0.329 A 
ATOM     25  H7  UNL     1       8.586   0.290  -1.793  1.00  0.00     0.175 HD
HETATM   26  O2  UNL     1       7.031  -1.339  -2.840  1.00  0.00    -0.246 OA
HETATM   27  N8  UNL     1       5.348  -0.370  -1.731  1.00  0.00    -0.293 N 
ATOM     28  H8  UNL     1       4.680  -1.022  -2.142  1.00  0.00     0.172 HD
ENDBRANCH  17  18
ENDBRANCH  15  17
ENDBRANCH  14  15
ENDBRANCH   8  13
BRANCH   1  29
HETATM   29  N1  UNL     1      -3.900  -1.610  -1.199  1.00  0.00    -0.205 N 
ATOM     30  H1  UNL     1      -3.397  -2.267  -1.796  1.00  0.00     0.183 HD
BRANCH  29  31
HETATM   31  C3  UNL     1      -5.226  -1.584  -1.539  1.00  0.00     0.078 C 
BRANCH  31  32
HETATM   32  C2  UNL     1      -6.079  -0.385  -1.333  1.00  0.00     0.040 C 
HETATM   33  C1  UNL     1      -5.660   0.847  -2.059  1.00  0.00     0.010 C 
ENDBRANCH  31  32
ENDBRANCH  29  31
ENDBRANCH   1  29
TORSDOF 7
