REMARK  8 active torsions:
REMARK  status: ('A' for Active; 'I' for Inactive)
REMARK    1  A    between atoms: C2_3  and  N2_4 
REMARK       I    between atoms: N2_4  and  C3_6 
REMARK       I    between atoms: C3_6  and  N3_8 
REMARK    2  A    between atoms: N3_8  and  N4_10 
REMARK    3  A    between atoms: N4_10  and  C4_12 
REMARK    4  A    between atoms: C4_12  and  C5_14 
REMARK    5  A    between atoms: C5_14  and  C6_15 
REMARK    6  A    between atoms: C6_15  and  S1_16 
REMARK    7  A    between atoms: S1_16  and  C7_17 
REMARK    8  A    between atoms: C7_17  and  N6_18 
ROOT
HETATM    1  N1  UNL     1       5.924   2.981  -1.376  1.00  0.00    -0.196 NA
HETATM    2  C1  UNL     1       6.328   2.252  -0.571  1.00  0.00     0.078 C 
HETATM    3  C2  UNL     1       6.843   1.354   0.440  1.00  0.00     0.248 C 
ENDROOT
BRANCH   3   4
HETATM    4  N2  UNL     1       5.723   0.589   0.966  1.00  0.00    -0.329 N 
HETATM    5  C3  UNL     1       4.971  -0.226   0.090  1.00  0.00     0.335 C 
HETATM    6  O1  UNL     1       5.290  -0.267  -1.123  1.00  0.00    -0.246 OA
HETATM    7  N3  UNL     1       3.880  -0.974   0.591  1.00  0.00    -0.251 N 
ATOM      8  H3  UNL     1       3.637  -0.923   1.580  1.00  0.00     0.191 HD
ATOM      9  H2  UNL     1       5.483   0.640   1.956  1.00  0.00     0.165 HD
BRANCH   7  10
HETATM   10  N4  UNL     1       3.138  -1.781  -0.269  1.00  0.00    -0.287 N 
ATOM     11  H4  UNL     1       3.599  -2.557  -0.744  1.00  0.00     0.188 HD
BRANCH  10  12
HETATM   12  C4  UNL     1       1.886  -1.573  -0.480  1.00  0.00     0.108 C 
HETATM   13  N5  UNL     1       1.262  -2.479  -1.382  1.00  0.00    -0.086 NA
BRANCH  12  14
HETATM   14  C5  UNL     1       1.227  -0.469   0.193  1.00  0.00     0.084 C 
BRANCH  14  15
HETATM   15  C6  UNL     1       0.097  -0.847   1.095  1.00  0.00     0.082 C 
BRANCH  15  16
HETATM   16  S1  UNL     1      -1.244  -1.707   0.267  1.00  0.00    -0.148 SA
BRANCH  16  17
HETATM   17  C7  UNL     1      -2.105  -0.663  -0.923  1.00  0.00     0.205 C 
BRANCH  17  18
HETATM   18  N6  UNL     1      -2.826   0.428  -0.325  1.00  0.00    -0.318 N 
HETATM   19  C8  UNL     1      -2.407   1.670  -0.044  1.00  0.00     0.186 A 
HETATM   20  N7  UNL     1      -3.438   2.330   0.511  1.00  0.00    -0.345 N 
HETATM   21  C9  UNL     1      -4.510   1.529   0.591  1.00  0.00     0.147 A 
ATOM     22  H7  UNL     1      -3.409   3.300   0.826  1.00  0.00     0.167 HD
HETATM   23  C10 UNL     1      -5.803   1.648   1.050  1.00  0.00     0.280 A 
HETATM   24  C12 UNL     1      -4.113   0.333   0.061  1.00  0.00     0.146 A 
HETATM   25  O2  UNL     1      -6.167   2.739   1.533  1.00  0.00    -0.265 OA
HETATM   26  N8  UNL     1      -6.689   0.626   0.994  1.00  0.00    -0.273 N 
HETATM   27  C11 UNL     1      -6.279  -0.541   0.470  1.00  0.00     0.328 A 
ATOM     28  H8  UNL     1      -7.642   0.739   1.340  1.00  0.00     0.173 HD
HETATM   29  O3  UNL     1      -7.113  -1.502   0.418  1.00  0.00    -0.247 OA
HETATM   30  N9  UNL     1      -5.023  -0.680   0.017  1.00  0.00    -0.292 N 
ATOM     31  H9  UNL     1      -4.739  -1.578  -0.375  1.00  0.00     0.172 HD
ENDBRANCH  17  18
ENDBRANCH  16  17
ENDBRANCH  15  16
ENDBRANCH  14  15
ENDBRANCH  12  14
ENDBRANCH  10  12
ENDBRANCH   7  10
ENDBRANCH   3   4
TORSDOF 8
