REMARK  9 active torsions:
REMARK  status: ('A' for Active; 'I' for Inactive)
REMARK    1  A    between atoms: N1_2  and  C2_3 
REMARK    2  A    between atoms: N1_2  and  C3_6 
REMARK    3  A    between atoms: C2_3  and  O1_4 
REMARK    4  A    between atoms: C3_6  and  C4_7 
REMARK    5  A    between atoms: N3_11  and  C6_12 
REMARK    6  A    between atoms: C7_15  and  N5_16 
REMARK    7  A    between atoms: N5_16  and  C8_18 
REMARK    8  A    between atoms: C8_18  and  C9_19 
REMARK    9  A    between atoms: C9_19  and  N6_20 
ROOT
HETATM    1  C6  UNL     1      -0.704  -0.264  -0.237  1.00  0.00     0.733 A 
HETATM    2  N4  UNL     1      -0.016   0.563   0.570  1.00  0.00    -0.019 N 
ATOM      3  H4  UNL     1      -0.423   1.466   0.812  1.00  0.00     0.203 HD
HETATM    4  C7  UNL     1       1.197   0.237   1.071  1.00  0.00     0.707 A 
HETATM    5  N9  UNL     1       1.758  -0.946   0.767  1.00  0.00    -0.022 N 
ATOM      6  H9  UNL     1       2.673  -1.198   1.140  1.00  0.00     0.203 HD
HETATM    7  C14 UNL     1       1.092  -1.790  -0.037  1.00  0.00     0.705 A 
HETATM    8  N10 UNL     1       1.628  -2.920  -0.327  1.00  0.00    -0.234 N 
ATOM      9 1H10 UNL     1       1.122  -3.561  -0.938  1.00  0.00     0.174 HD
ATOM     10 2H10 UNL     1       2.542  -3.177   0.044  1.00  0.00     0.174 HD
HETATM   11  N11 UNL     1      -0.134  -1.445  -0.535  1.00  0.00    -0.020 N 
ATOM     12  H11 UNL     1      -0.626  -2.097  -1.145  1.00  0.00     0.203 HD
ENDROOT
BRANCH   4  13
HETATM   13  N5  UNL     1       1.772   1.101   1.835  1.00  0.00    -0.224 N 
ATOM     14  H5  UNL     1       1.267   1.970   2.005  1.00  0.00     0.177 HD
BRANCH  13  15
HETATM   15  C8  UNL     1       3.042   0.965   2.466  1.00  0.00     0.157 C 
BRANCH  15  16
HETATM   16  C9  UNL     1       4.106   1.782   1.722  1.00  0.00     0.141 C 
BRANCH  16  17
HETATM   17  N6  UNL     1       4.206   1.319   0.376  1.00  0.00    -0.375 N 
HETATM   18  C10 UNL     1       5.114   0.594  -0.125  1.00  0.00     0.103 A 
HETATM   19  C11 UNL     1       6.170   0.147   0.626  1.00  0.00     0.065 A 
HETATM   20  N8  UNL     1       5.055   0.248  -1.415  1.00  0.00    -0.339 N 
HETATM   21  C12 UNL     1       7.128  -0.649  -0.007  1.00  0.00     0.092 A 
HETATM   22  N7  UNL     1       7.014  -0.964  -1.312  1.00  0.00    -0.362 N 
HETATM   23  C13 UNL     1       5.970  -0.517  -2.036  1.00  0.00     0.181 A 
ATOM     24  H7  UNL     1       7.725  -1.546  -1.756  1.00  0.00     0.165 HD
ATOM     25  H8  UNL     1       4.265   0.586  -1.964  1.00  0.00     0.168 HD
ATOM     26  H6  UNL     1       3.458   1.606  -0.256  1.00  0.00     0.161 HD
ENDBRANCH  16  17
ENDBRANCH  15  16
ENDBRANCH  13  15
ENDBRANCH   4  13
BRANCH   1  27
HETATM   27  N3  UNL     1      -2.000   0.085  -0.772  1.00  0.00    -0.079 N 
HETATM   28  C5  UNL     1      -2.264  -0.007  -2.077  1.00  0.00     0.227 A 
HETATM   29  N2  UNL     1      -3.529   0.381  -2.258  1.00  0.00    -0.338 N 
HETATM   30  C4  UNL     1      -4.023   0.706  -1.054  1.00  0.00     0.126 A 
ATOM     31  H2  UNL     1      -4.027   0.423  -3.147  1.00  0.00     0.168 HD
HETATM   32  N12 UNL     1      -3.053   0.512  -0.159  1.00  0.00    -0.265 N 
ATOM     33  H12 UNL     1      -3.131   0.674   0.845  1.00  0.00     0.189 HD
BRANCH  30  34
HETATM   34  C3  UNL     1      -5.421   1.191  -0.839  1.00  0.00     0.352 C 
BRANCH  34  35
HETATM   35  N1  UNL     1      -6.277   0.068  -0.608  1.00  0.00     0.113 N 
HETATM   36  C1  UNL     1      -5.924  -0.718   0.531  1.00  0.00     0.313 C 
BRANCH  35  37
HETATM   37  C2  UNL     1      -7.669   0.443  -0.579  1.00  0.00     0.437 C 
BRANCH  37  38
HETATM   38  O1  UNL     1      -7.976   1.201   0.567  1.00  0.00    -0.373 OA
ATOM     39  H1  UNL     1      -8.893   1.448   0.586  1.00  0.00     0.211 HD
ENDBRANCH  37  38
ENDBRANCH  35  37
ENDBRANCH  34  35
ENDBRANCH  30  34
ENDBRANCH   1  27
TORSDOF 9
