REMARK  7 active torsions:
REMARK  status: ('A' for Active; 'I' for Inactive)
REMARK    1  A    between atoms: N1_1  and  C1_4 
REMARK       I    between atoms: N4_13  and  C5_14 
REMARK    2  A    between atoms: N6_16  and  C6_18 
REMARK    3  A    between atoms: C6_18  and  C7_19 
REMARK    4  A    between atoms: C7_19  and  C8_20 
REMARK    5  A    between atoms: C8_20  and  N7_21 
REMARK       I    between atoms: N7_21  and  C9_23 
REMARK    6  A    between atoms: C9_23  and  C10_25 
REMARK    7  A    between atoms: C10_25  and  N8_26 
ROOT
HETATM    1  C1  UNL     1      -5.242   1.418   0.107  1.00  0.00     0.680 A 
HETATM    2  N2  UNL     1      -6.168   0.831  -0.677  1.00  0.00    -0.154 N 
ATOM      3  H2  UNL     1      -6.976   1.365  -0.998  1.00  0.00     0.187 HD
HETATM    4  C2  UNL     1      -6.029  -0.459  -1.038  1.00  0.00     0.290 A 
HETATM    5  O1  UNL     1      -6.873  -1.028  -1.764  1.00  0.00    -0.265 OA
HETATM    6  C3  UNL     1      -4.918  -1.138  -0.580  1.00  0.00     0.148 A 
HETATM    7  N3  UNL     1      -4.505  -2.403  -0.761  1.00  0.00    -0.344 N 
ATOM      8  H3  UNL     1      -4.987  -3.115  -1.309  1.00  0.00     0.167 HD
HETATM    9  C4  UNL     1      -3.365  -2.568  -0.106  1.00  0.00     0.193 A 
HETATM   10  N4  UNL     1      -2.992  -1.419   0.527  1.00  0.00    -0.265 N 
HETATM   11  C5  UNL     1      -1.833  -1.215   1.323  1.00  0.00     0.197 C 
HETATM   12  N5  UNL     1      -1.826  -1.777   2.628  1.00  0.00    -0.063 NA
HETATM   13  N6  UNL     1      -0.790  -0.559   0.953  1.00  0.00    -0.364 N 
ATOM     14  H6  UNL     1      -0.011  -0.472   1.606  1.00  0.00     0.162 HD
HETATM   15  C13 UNL     1      -3.965  -0.533   0.226  1.00  0.00     0.163 A 
HETATM   16  N11 UNL     1      -4.164   0.745   0.547  1.00  0.00    -0.174 N 
ATOM     17  H11 UNL     1      -3.484   1.223   1.139  1.00  0.00     0.186 HD
ENDROOT
BRANCH  13  18
HETATM   18  C6  UNL     1      -0.673   0.062  -0.353  1.00  0.00     0.124 C 
BRANCH  18  19
HETATM   19  C7  UNL     1       0.764   0.421  -0.668  1.00  0.00     0.039 C 
BRANCH  19  20
HETATM   20  C8  UNL     1       1.325   1.387   0.343  1.00  0.00     0.124 C 
BRANCH  20  21
HETATM   21  N7  UNL     1       2.689   1.715   0.022  1.00  0.00    -0.360 N 
HETATM   22  C9  UNL     1       3.761   0.808  -0.053  1.00  0.00     0.237 C 
HETATM   23  O2  UNL     1       3.578  -0.422   0.172  1.00  0.00    -0.272 OA
ATOM     24  H7  UNL     1       2.897   2.695  -0.169  1.00  0.00     0.162 HD
BRANCH  22  25
HETATM   25  C10 UNL     1       5.152   1.254  -0.400  1.00  0.00     0.252 C 
BRANCH  25  26
HETATM   26  N8  UNL     1       6.040   0.118  -0.403  1.00  0.00    -0.278 N 
HETATM   27  C11 UNL     1       6.315  -0.665  -1.452  1.00  0.00     0.201 A 
HETATM   28  N9  UNL     1       7.191  -1.618  -1.047  1.00  0.00    -0.346 N 
HETATM   29  C12 UNL     1       7.450  -1.416   0.253  1.00  0.00     0.198 A 
ATOM     30  H9  UNL     1       7.584  -2.358  -1.629  1.00  0.00     0.167 HD
HETATM   31  N10 UNL     1       6.724  -0.342   0.610  1.00  0.00    -0.293 N 
ATOM     32  H10 UNL     1       6.709   0.060   1.547  1.00  0.00     0.188 HD
ENDBRANCH  25  26
ENDBRANCH  22  25
ENDBRANCH  20  21
ENDBRANCH  19  20
ENDBRANCH  18  19
ENDBRANCH  13  18
BRANCH   1  33
HETATM   33  N1  UNL     1      -5.404   2.647   0.433  1.00  0.00    -0.234 N 
ATOM     34  H12 UNL     1      -6.222   3.157   0.099  1.00  0.00     0.174 HD
ATOM     35  H11 UNL     1      -4.703   3.091   1.026  1.00  0.00     0.174 HD
ENDBRANCH   1  33
TORSDOF 7
