REMARK  11 active torsions:
REMARK  status: ('A' for Active; 'I' for Inactive)
REMARK    1  A    between atoms: C2_2  and  C3_3 
REMARK    2  A    between atoms: C3_3  and  O1_4 
REMARK    3  A    between atoms: O1_4  and  N1_5 
REMARK    4  A    between atoms: N1_5  and  C4_7 
REMARK    5  A    between atoms: C6_11  and  C7_12 
REMARK    6  A    between atoms: C7_12  and  C8_13 
REMARK    7  A    between atoms: C9_16  and  C10_17 
REMARK       I    between atoms: C10_17  and  N4_19 
REMARK    8  A    between atoms: N4_19  and  C11_21 
REMARK    9  A    between atoms: C11_21  and  C12_22 
REMARK   10  A    between atoms: C12_22  and  O3_23 
REMARK   11  A    between atoms: C15_32  and  N8_33 
ROOT
HETATM    1  C4  UNL     1       2.766  -1.167  -1.408  1.00  0.00     0.718 A 
HETATM    2  N2  UNL     1       1.644  -1.683  -0.895  1.00  0.00    -0.171 N 
ATOM      3  H2  UNL     1       0.998  -1.088  -0.376  1.00  0.00     0.186 HD
HETATM    4  C5  UNL     1       1.365  -3.015  -1.069  1.00  0.00     0.172 A 
HETATM    5  C6  UNL     1       0.296  -3.779  -0.648  1.00  0.00     0.032 A 
HETATM    6  C14 UNL     1       0.539  -5.070  -1.110  1.00  0.00     0.123 A 
HETATM    7  N6  UNL     1       1.697  -5.021  -1.762  1.00  0.00    -0.288 N 
ATOM      8  H6  UNL     1       2.137  -5.822  -2.215  1.00  0.00     0.187 HD
HETATM    9  N7  UNL     1       2.202  -3.807  -1.747  1.00  0.00    -0.069 N 
HETATM   10  C15 UNL     1       3.355  -3.298  -2.280  1.00  0.00     0.713 A 
HETATM   11  N9  UNL     1       3.607  -2.000  -2.099  1.00  0.00    -0.019 N 
ATOM     12  H9  UNL     1       4.464  -1.610  -2.492  1.00  0.00     0.203 HD
ENDROOT
BRANCH   5  13
HETATM   13  C7  UNL     1      -0.758  -3.384   0.048  1.00  0.00     0.065 C 
BRANCH  13  14
HETATM   14  C8  UNL     1      -0.954  -2.020   0.492  1.00  0.00     0.106 A 
HETATM   15  N3  UNL     1      -1.823  -1.119  -0.061  1.00  0.00    -0.337 N 
HETATM   16  C9  UNL     1      -1.766   0.043   0.607  1.00  0.00     0.117 A 
ATOM     17  H3  UNL     1      -2.425  -1.304  -0.863  1.00  0.00     0.167 HD
HETATM   18  C13 UNL     1      -0.826  -0.157   1.603  1.00  0.00     0.125 A 
HETATM   19  N5  UNL     1      -0.340  -1.401   1.530  1.00  0.00    -0.350 N 
ATOM     20  H5  UNL     1       0.365  -1.810   2.144  1.00  0.00     0.166 HD
BRANCH  16  21
HETATM   21  C10 UNL     1      -2.533   1.263   0.341  1.00  0.00     0.269 C 
HETATM   22  O2  UNL     1      -3.330   1.319  -0.617  1.00  0.00    -0.266 OA
HETATM   23  N4  UNL     1      -2.389   2.411   1.168  1.00  0.00    -0.354 N 
ATOM     24  H4  UNL     1      -1.738   2.368   1.952  1.00  0.00     0.162 HD
BRANCH  23  25
HETATM   25  C11 UNL     1      -3.114   3.621   0.951  1.00  0.00     0.149 C 
BRANCH  25  26
HETATM   26  C12 UNL     1      -4.605   3.495   1.021  1.00  0.00     0.183 C 
BRANCH  26  27
HETATM   27  O3  UNL     1      -5.046   3.035   2.264  1.00  0.00    -0.399 OA
ATOM     28  H3  UNL     1      -5.992   2.955   2.308  1.00  0.00     0.209 HD
ENDBRANCH  26  27
ENDBRANCH  25  26
ENDBRANCH  23  25
ENDBRANCH  16  21
ENDBRANCH  13  14
ENDBRANCH   5  13
BRANCH   1  29
HETATM   29  N1  UNL     1       3.138   0.059  -1.307  1.00  0.00    -0.095 N 
ATOM     30  H1  UNL     1       4.023   0.288  -1.759  1.00  0.00     0.213 HD
BRANCH  29  31
HETATM   31  O1  UNL     1       2.528   1.074  -0.694  1.00  0.00    -0.263 OA
BRANCH  31  32
HETATM   32  C3  UNL     1       2.636   1.395   0.679  1.00  0.00     0.228 C 
BRANCH  32  33
HETATM   33  C2  UNL     1       1.846   2.606   1.023  1.00  0.00    -0.009 C 
HETATM   34  C1  UNL     1       1.142   3.274   0.120  1.00  0.00     0.009 C 
ENDBRANCH  32  33
ENDBRANCH  31  32
ENDBRANCH  29  31
ENDBRANCH   1  29
BRANCH  10  35
HETATM   35  N8  UNL     1       4.126  -4.101  -2.924  1.00  0.00    -0.232 N 
ATOM     36  H82 UNL     1       3.933  -5.093  -3.062  1.00  0.00     0.174 HD
ATOM     37  H81 UNL     1       4.985  -3.722  -3.321  1.00  0.00     0.174 HD
ENDBRANCH  10  35
TORSDOF 11
