REMARK  8 active torsions:
REMARK  status: ('A' for Active; 'I' for Inactive)
REMARK    1  A    between atoms: N1_2  and  C2_4 
REMARK    2  A    between atoms: C3_7  and  N3_8 
REMARK    3  A    between atoms: N3_8  and  N4_10 
REMARK    4  A    between atoms: N6_16  and  C5_18 
REMARK    5  A    between atoms: C5_18  and  C6_19 
REMARK    6  A    between atoms: C6_19  and  N7_20 
REMARK       I    between atoms: N7_20  and  C7_22 
REMARK    7  A    between atoms: C7_22  and  C8_24 
REMARK    8  A    between atoms: C8_24  and  N8_25 
ROOT
HETATM    1  C2  UNL     1       5.406   0.161  -0.977  1.00  0.00     0.706 A 
HETATM    2  N2  UNL     1       5.470  -0.773   0.000  1.00  0.00    -0.020 N 
ATOM      3  H2  UNL     1       6.363  -1.170   0.291  1.00  0.00     0.203 HD
HETATM    4  C3  UNL     1       4.328  -1.158   0.571  1.00  0.00     0.725 A 
HETATM    5  N5  UNL     1       3.151  -0.637   0.191  1.00  0.00    -0.020 N 
ATOM      6  H5  UNL     1       2.302  -0.961   0.655  1.00  0.00     0.203 HD
HETATM    7  C4  UNL     1       3.040   0.293  -0.775  1.00  0.00     0.707 A 
HETATM    8  N6  UNL     1       1.945   0.836  -1.164  1.00  0.00    -0.224 N 
ATOM      9  H6  UNL     1       1.958   1.534  -1.908  1.00  0.00     0.177 HD
HETATM   10  N10 UNL     1       4.228   0.674  -1.348  1.00  0.00    -0.022 N 
ATOM     11  H10 UNL     1       4.211   1.377  -2.087  1.00  0.00     0.203 HD
ENDROOT
BRANCH   8  12
HETATM   12  C5  UNL     1       0.698   0.462  -0.552  1.00  0.00     0.157 C 
BRANCH  12  13
HETATM   13  C6  UNL     1      -0.356   1.524  -0.835  1.00  0.00     0.143 C 
BRANCH  13  14
HETATM   14  N7  UNL     1      -1.584   1.108  -0.197  1.00  0.00    -0.358 N 
HETATM   15  C7  UNL     1      -2.716   1.940  -0.302  1.00  0.00     0.246 C 
HETATM   16  O1  UNL     1      -2.628   3.055  -0.952  1.00  0.00    -0.272 OA
ATOM     17  H7  UNL     1      -1.630   0.229   0.319  1.00  0.00     0.162 HD
BRANCH  15  18
HETATM   18  C8  UNL     1      -3.994   1.565   0.321  1.00  0.00     0.376 C 
BRANCH  18  19
HETATM   19  N8  UNL     1      -3.902   0.250   0.924  1.00  0.00     0.114 N 
HETATM   20  C9  UNL     1      -5.118   0.034   1.736  1.00  0.00     0.276 C 
HETATM   21  C10 UNL     1      -6.370   0.260   0.901  1.00  0.00     0.049 C 
HETATM   22  C11 UNL     1      -6.303  -0.567  -0.371  1.00  0.00     0.117 C 
HETATM   23  N9  UNL     1      -5.166  -1.424  -0.261  1.00  0.00    -0.398 N 
HETATM   24  C12 UNL     1      -3.902  -0.776  -0.140  1.00  0.00     0.391 C 
ATOM     25  H9  UNL     1      -5.253  -2.440  -0.269  1.00  0.00     0.154 HD
ENDBRANCH  18  19
ENDBRANCH  15  18
ENDBRANCH  13  14
ENDBRANCH  12  13
ENDBRANCH   8  12
BRANCH   4  26
HETATM   26  N3  UNL     1       4.351  -2.035   1.501  1.00  0.00    -0.138 N 
ATOM     27  H3  UNL     1       3.453  -2.298   1.906  1.00  0.00     0.205 HD
BRANCH  26  28
HETATM   28  N4  UNL     1       5.468  -2.660   2.010  1.00  0.00    -0.331 N 
ATOM     29  H42 UNL     1       6.357  -2.384   1.592  1.00  0.00     0.177 HD
ATOM     30  H41 UNL     1       5.486  -3.360   2.752  1.00  0.00     0.177 HD
ENDBRANCH  26  28
ENDBRANCH   4  26
BRANCH   1  31
HETATM   31  N1  UNL     1       6.520   0.548  -1.548  1.00  0.00    -0.229 N 
HETATM   32  C1  UNL     1       7.790   0.006  -1.160  1.00  0.00     0.165 C 
ATOM     33  H1  UNL     1       6.483   1.251  -2.286  1.00  0.00     0.177 HD
ENDBRANCH   1  31
TORSDOF 8
