REMARK  7 active torsions:
REMARK  status: ('A' for Active; 'I' for Inactive)
REMARK    1  A    between atoms: N1_1  and  C1_4 
REMARK    2  A    between atoms: C2_7  and  C3_8 
REMARK    3  A    between atoms: C3_8  and  C4_9 
REMARK       I    between atoms: C4_9  and  N3_11 
REMARK    4  A    between atoms: N3_11  and  C5_13 
REMARK    5  A    between atoms: C5_13  and  C6_14 
REMARK    6  A    between atoms: C6_14  and  C7_15 
REMARK    7  A    between atoms: C7_15  and  N4_16 
ROOT
HETATM    1  C4  UNL     1      -1.974  -0.397  -0.278  1.00  0.00     0.224 C 
HETATM    2  O1  UNL     1      -2.126   0.173  -1.373  1.00  0.00    -0.273 OA
HETATM    3  N3  UNL     1      -1.032   0.024   0.687  1.00  0.00    -0.361 N 
ATOM      4  H3  UNL     1      -0.964  -0.493   1.564  1.00  0.00     0.162 HD
ENDROOT
BRANCH   3   5
HETATM    5  C5  UNL     1      -0.170   1.148   0.482  1.00  0.00     0.124 C 
BRANCH   5   6
HETATM    6  C6  UNL     1       0.774   1.045  -0.666  1.00  0.00     0.041 C 
BRANCH   6   7
HETATM    7  C7  UNL     1       1.750  -0.075  -0.614  1.00  0.00     0.144 C 
BRANCH   7   8
HETATM    8  N4  UNL     1       2.647  -0.091   0.489  1.00  0.00    -0.316 N 
HETATM    9  C8  UNL     1       3.548  -1.174   0.548  1.00  0.00     0.245 C 
HETATM   10  C9  UNL     1       4.860  -1.038  -0.067  1.00  0.00     0.243 C 
HETATM   11  O2  UNL     1       5.550  -2.112  -0.047  1.00  0.00    -0.271 OA
HETATM   12  N5  UNL     1       5.574   0.031  -0.699  1.00  0.00    -0.288 N 
HETATM   13  C10 UNL     1       5.270   1.417  -0.413  1.00  0.00     0.317 C 
ATOM     14  H5  UNL     1       6.314  -0.190  -1.366  1.00  0.00     0.172 HD
HETATM   15  O3  UNL     1       6.055   2.275  -0.881  1.00  0.00    -0.262 OA
HETATM   16  C11 UNL     1       4.143   1.973   0.363  1.00  0.00     0.328 C 
HETATM   17  O4  UNL     1       4.064   3.187   0.570  1.00  0.00    -0.261 OA
HETATM   18  N6  UNL     1       3.112   1.144   0.897  1.00  0.00    -0.264 N 
ATOM     19  H6  UNL     1       2.640   1.527   1.716  1.00  0.00     0.190 HD
ENDBRANCH   7   8
ENDBRANCH   6   7
ENDBRANCH   5   6
ENDBRANCH   3   5
BRANCH   1  20
HETATM   20  C3  UNL     1      -2.872  -1.580  -0.036  1.00  0.00     0.181 C 
BRANCH  20  21
HETATM   21  C2  UNL     1      -4.288  -1.071  -0.002  1.00  0.00     0.121 A 
HETATM   22  N2  UNL     1      -5.005  -0.669   1.056  1.00  0.00    -0.178 N 
HETATM   23  C1  UNL     1      -6.233  -0.277   0.654  1.00  0.00     0.691 A 
ATOM     24  H2  UNL     1      -4.673  -0.660   2.020  1.00  0.00     0.185 HD
HETATM   25  N8  UNL     1      -6.234  -0.455  -0.679  1.00  0.00    -0.131 N 
HETATM   26  N7  UNL     1      -5.053  -0.937  -1.078  1.00  0.00    -0.274 N 
ATOM     27  H8  UNL     1      -7.021  -0.252  -1.295  1.00  0.00     0.205 HD
ATOM     28  H7  UNL     1      -4.788  -1.161  -2.037  1.00  0.00     0.189 HD
BRANCH  23  29
HETATM   29  N1  UNL     1      -7.208   0.170   1.351  1.00  0.00    -0.233 N 
ATOM     30  H12 UNL     1      -7.207   0.305   2.362  1.00  0.00     0.174 HD
ATOM     31  H11 UNL     1      -8.136   0.466   1.047  1.00  0.00     0.174 HD
ENDBRANCH  23  29
ENDBRANCH  20  21
ENDBRANCH   1  20
TORSDOF 7
