REMARK  7 active torsions:
REMARK  status: ('A' for Active; 'I' for Inactive)
REMARK    1  A    between atoms: N2_3  and  N3_5 
REMARK       I    between atoms: N3_5  and  C2_7 
REMARK    2  A    between atoms: N5_9  and  C3_11 
REMARK    3  A    between atoms: C3_11  and  C4_12 
REMARK    4  A    between atoms: C4_12  and  C5_13 
REMARK    5  A    between atoms: C5_13  and  C6_15 
REMARK       I    between atoms: C6_15  and  N6_17 
REMARK    6  A    between atoms: N6_17  and  C7_19 
REMARK    7  A    between atoms: C7_19  and  C8_20 
ROOT
HETATM    1  N1  UNL     1      -7.648   2.293   1.640  1.00  0.00    -0.170 NA
HETATM    2  C1  UNL     1      -6.985   1.397   1.294  1.00  0.00     0.198 C 
HETATM    3  N2  UNL     1      -6.173   0.335   0.883  1.00  0.00    -0.234 N 
ATOM      4  H2  UNL     1      -6.365  -0.610   1.216  1.00  0.00     0.199 HD
ENDROOT
BRANCH   3   5
HETATM    5  N3  UNL     1      -5.091   0.565   0.012  1.00  0.00    -0.265 N 
HETATM    6  C2  UNL     1      -3.869   0.967   0.623  1.00  0.00     0.203 C 
HETATM    7  N4  UNL     1      -3.807   2.057   1.514  1.00  0.00    -0.062 NA
HETATM    8  N5  UNL     1      -2.808   0.306   0.343  1.00  0.00    -0.363 N 
ATOM      9  H5  UNL     1      -1.942   0.607   0.790  1.00  0.00     0.162 HD
ATOM     10  H3  UNL     1      -5.177   0.450  -0.998  1.00  0.00     0.190 HD
BRANCH   8  11
HETATM   11  C3  UNL     1      -2.730  -0.814  -0.539  1.00  0.00     0.130 C 
BRANCH  11  12
HETATM   12  C4  UNL     1      -1.344  -0.972  -1.132  1.00  0.00     0.108 C 
BRANCH  12  13
HETATM   13  C5  UNL     1      -0.343  -1.171  -0.073  1.00  0.00     0.217 C 
HETATM   14  O1  UNL     1      -0.698  -1.192   1.149  1.00  0.00    -0.287 OA
BRANCH  13  15
HETATM   15  C6  UNL     1       1.076  -1.351  -0.355  1.00  0.00     0.287 C 
HETATM   16  O2  UNL     1       1.475  -1.338  -1.545  1.00  0.00    -0.264 OA
HETATM   17  N6  UNL     1       2.039  -1.543   0.663  1.00  0.00    -0.349 N 
ATOM     18  H6  UNL     1       1.721  -1.555   1.632  1.00  0.00     0.163 HD
BRANCH  17  19
HETATM   19  C7  UNL     1       3.445  -1.722   0.406  1.00  0.00     0.180 C 
BRANCH  19  20
HETATM   20  C8  UNL     1       4.067  -0.569  -0.301  1.00  0.00     0.036 A 
HETATM   21  C9  UNL     1       4.282   0.626   0.384  1.00  0.00     0.101 A 
HETATM   22  C10 UNL     1       4.861   1.718  -0.230  1.00  0.00     0.251 A 
HETATM   23  O3  UNL     1       5.026   2.759   0.439  1.00  0.00    -0.268 OA
HETATM   24  N7  UNL     1       5.211   1.589  -1.512  1.00  0.00    -0.275 N 
HETATM   25  C11 UNL     1       5.005   0.439  -2.174  1.00  0.00     0.327 A 
ATOM     26  H7  UNL     1       5.642   2.377  -1.996  1.00  0.00     0.173 HD
HETATM   27  O4  UNL     1       5.325   0.286  -3.386  1.00  0.00    -0.247 OA
HETATM   28  N8  UNL     1       4.436  -0.648  -1.585  1.00  0.00    -0.311 N 
ATOM     29  H8  UNL     1       4.293  -1.509  -2.113  1.00  0.00     0.170 HD
ENDBRANCH  19  20
ENDBRANCH  17  19
ENDBRANCH  13  15
ENDBRANCH  12  13
ENDBRANCH  11  12
ENDBRANCH   8  11
ENDBRANCH   3   5
TORSDOF 7
