REMARK  8 active torsions:
REMARK  status: ('A' for Active; 'I' for Inactive)
REMARK       I    between atoms: C1_4  and  N3_6 
REMARK    1  A    between atoms: N3_6  and  C2_8 
REMARK    2  A    between atoms: C2_8  and  C3_9 
REMARK    3  A    between atoms: C3_9  and  C4_10 
REMARK    4  A    between atoms: C4_10  and  N4_11 
REMARK    5  A    between atoms: C7_15  and  C8_16 
REMARK    6  A    between atoms: C8_16  and  S1_17 
REMARK    7  A    between atoms: S1_17  and  C9_19 
REMARK    8  A    between atoms: C9_19  and  O3_20 
ROOT
HETATM    1  N4  UNL     1       0.534  -0.530  -0.939  1.00  0.00    -0.277 N 
HETATM    2  C5  UNL     1      -0.186  -1.282  -0.070  1.00  0.00     0.252 C 
HETATM    3  O1  UNL     1       0.461  -2.148   0.564  1.00  0.00    -0.268 OA
HETATM    4  C6  UNL     1      -1.538  -1.227   0.216  1.00  0.00     0.100 C 
HETATM    5  C7  UNL     1      -2.475  -0.250  -0.141  1.00  0.00     0.029 C 
HETATM    6  N5  UNL     1      -2.347   0.586  -1.189  1.00  0.00    -0.322 N 
ATOM      7  H5  UNL     1      -3.139   1.209  -1.347  1.00  0.00     0.169 HD
HETATM    8  C10 UNL     1      -1.319   0.722  -2.066  1.00  0.00     0.314 C 
HETATM    9  O4  UNL     1      -1.585   1.274  -3.173  1.00  0.00    -0.262 OA
HETATM   10  C11 UNL     1      -0.017   0.307  -1.845  1.00  0.00     0.318 C 
HETATM   11  O5  UNL     1       0.841   0.790  -2.626  1.00  0.00    -0.262 OA
ENDROOT
BRANCH   1  12
HETATM   12  C4  UNL     1       1.981  -0.635  -0.890  1.00  0.00     0.137 C 
BRANCH  12  13
HETATM   13  C3  UNL     1       2.586   0.367   0.066  1.00  0.00     0.040 C 
BRANCH  13  14
HETATM   14  C2  UNL     1       4.102   0.130   0.004  1.00  0.00     0.124 C 
BRANCH  14  15
HETATM   15  N3  UNL     1       4.748   1.057   0.890  1.00  0.00    -0.365 N 
HETATM   16  C1  UNL     1       4.557   0.904   2.300  1.00  0.00     0.181 C 
HETATM   17  N1  UNL     1       4.467   1.976   3.002  1.00  0.00    -0.374 N 
HETATM   18  N2  UNL     1       4.467  -0.369   2.908  1.00  0.00    -0.064 NA
ATOM     19  H12 UNL     1       4.331   1.867   4.007  1.00  0.00     0.158 HD
ATOM     20  H11 UNL     1       4.532   2.895   2.563  1.00  0.00     0.158 HD
ATOM     21  H3  UNL     1       5.331   1.809   0.522  1.00  0.00     0.162 HD
ENDBRANCH  14  15
ENDBRANCH  13  14
ENDBRANCH  12  13
ENDBRANCH   1  12
BRANCH   5  22
HETATM   22  C8  UNL     1      -3.669  -0.158   0.704  1.00  0.00     0.168 C 
BRANCH  22  23
HETATM   23  S1  UNL     1      -5.003  -1.188   0.198  1.00  0.00     0.044 S 
HETATM   24  O2  UNL     1      -6.264  -0.924   1.309  1.00  0.00    -0.256 OA
BRANCH  23  25
HETATM   25  C9  UNL     1      -5.656  -0.661  -1.388  1.00  0.00     0.272 C 
BRANCH  25  26
HETATM   26  O3  UNL     1      -6.124   0.636  -1.329  1.00  0.00    -0.389 OA
ATOM     27  H3  UNL     1      -6.470   0.915  -2.169  1.00  0.00     0.210 HD
ENDBRANCH  25  26
ENDBRANCH  23  25
ENDBRANCH  22  23
ENDBRANCH   5  22
TORSDOF 8
