REMARK  9 active torsions:
REMARK  status: ('A' for Active; 'I' for Inactive)
REMARK    1  A    between atoms: C2_3  and  N2_4 
REMARK    2  A    between atoms: N2_4  and  N3_6 
REMARK    3  A    between atoms: N3_6  and  N4_7 
REMARK    4  A    between atoms: C3_8  and  S1_9 
REMARK    5  A    between atoms: S1_9  and  C4_10 
REMARK    6  A    between atoms: C4_10  and  N5_11 
REMARK    7  A    between atoms: C5_14  and  C6_15 
REMARK    8  A    between atoms: C7_18  and  N7_19 
REMARK    9  A    between atoms: C12_39  and  N14_40 
ROOT
HETATM    1  N4  UNL     1      -1.044   0.931   0.148  1.00  0.00     0.009 N 
HETATM    2  C3  UNL     1       0.205   1.250  -0.178  1.00  0.00     0.143 A 
HETATM    3  C9  UNL     1       0.605   2.247   0.719  1.00  0.00     0.146 A 
HETATM    4  N9  UNL     1      -0.384   2.497   1.547  1.00  0.00    -0.197 N 
ATOM      5  H9  UNL     1      -0.374   3.177   2.307  1.00  0.00     0.183 HD
HETATM    6  C10 UNL     1      -1.395   1.709   1.218  1.00  0.00     0.710 A 
HETATM    7  N10 UNL     1      -2.548   1.661   1.839  1.00  0.00    -0.232 N 
ATOM      8 1H10 UNL     1      -2.810   2.241   2.636  1.00  0.00     0.174 HD
ATOM      9 2H10 UNL     1      -3.327   1.054   1.585  1.00  0.00     0.174 HD
ENDROOT
BRANCH   2  10
HETATM   10  S1  UNL     1       1.245   0.560  -1.476  1.00  0.00    -0.085 SA
BRANCH  10  11
HETATM   11  C4  UNL     1       2.962   1.048  -1.182  1.00  0.00     0.234 C 
BRANCH  11  12
HETATM   12  N5  UNL     1       3.721   0.045  -0.493  1.00  0.00    -0.232 N 
HETATM   13  N6  UNL     1       4.921  -0.222  -1.051  1.00  0.00    -0.284 N 
HETATM   14  C5  UNL     1       5.896  -0.937  -0.502  1.00  0.00     0.169 A 
ATOM     15  H6  UNL     1       5.095   0.161  -1.980  1.00  0.00     0.187 HD
HETATM   16  C7  UNL     1       5.695  -1.478   0.754  1.00  0.00     0.138 A 
HETATM   17  N8  UNL     1       4.491  -1.220   1.321  1.00  0.00    -0.291 N 
HETATM   18  C8  UNL     1       3.557  -0.484   0.703  1.00  0.00     0.343 A 
ATOM     19  H8  UNL     1       4.290  -1.598   2.247  1.00  0.00     0.172 HD
HETATM   20  O3  UNL     1       2.458  -0.298   1.310  1.00  0.00    -0.245 OA
BRANCH  14  21
HETATM   21  C6  UNL     1       7.154  -1.073  -1.247  1.00  0.00     0.232 C 
HETATM   22  O1  UNL     1       7.267  -0.512  -2.365  1.00  0.00    -0.643 OA
HETATM   23  O2  UNL     1       8.232  -1.793  -0.759  1.00  0.00    -0.643 OA
ENDBRANCH  14  21
BRANCH  16  24
HETATM   24  N7  UNL     1       6.559  -2.135   1.345  1.00  0.00    -0.383 N 
ATOM     25  H72 UNL     1       7.465  -2.329   0.918  1.00  0.00     0.157 HD
ATOM     26  H71 UNL     1       6.411  -2.534   2.272  1.00  0.00     0.157 HD
ENDBRANCH  16  24
ENDBRANCH  11  12
ENDBRANCH  10  11
ENDBRANCH   2  10
BRANCH   1  27
HETATM   27  N3  UNL     1      -1.857   0.063  -0.430  1.00  0.00    -0.198 NA
BRANCH  27  28
HETATM   28  N2  UNL     1      -2.559  -0.697  -0.939  1.00  0.00    -0.043 N 
ATOM     29  H2  UNL     1      -2.207  -1.324  -1.662  1.00  0.00     0.223 HD
BRANCH  28  30
HETATM   30  C2  UNL     1      -3.970  -0.748  -0.529  1.00  0.00     0.727 A 
HETATM   31  N1  UNL     1      -4.887   0.084  -1.005  1.00  0.00    -0.017 N 
HETATM   32  C1  UNL     1      -4.523   1.001  -2.066  1.00  0.00     0.195 C 
HETATM   33  C12 UNL     1      -6.153   0.089  -0.513  1.00  0.00     0.694 A 
HETATM   34  N13 UNL     1      -6.392  -0.813   0.484  1.00  0.00    -0.162 N 
HETATM   35  C11 UNL     1      -5.476  -1.635   0.942  1.00  0.00     0.221 A 
ATOM     36  H13 UNL     1      -7.326  -0.850   0.892  1.00  0.00     0.187 HD
HETATM   37  N11 UNL     1      -4.225  -1.639   0.455  1.00  0.00    -0.160 N 
HETATM   38  N12 UNL     1      -5.742  -2.578   1.976  1.00  0.00    -0.062 NA
ATOM     39  H11 UNL     1      -3.510  -2.276   0.806  1.00  0.00     0.187 HD
BRANCH  33  40
HETATM   40  N14 UNL     1      -7.058   0.880  -0.934  1.00  0.00    -0.234 N 
ATOM     41 2H14 UNL     1      -6.879   1.554  -1.679  1.00  0.00     0.174 HD
ATOM     42 1H14 UNL     1      -8.009   0.884  -0.565  1.00  0.00     0.174 HD
ENDBRANCH  33  40
ENDBRANCH  28  30
ENDBRANCH  27  28
ENDBRANCH   1  27
TORSDOF 9
