REMARK  10 active torsions:
REMARK  status: ('A' for Active; 'I' for Inactive)
REMARK    1  A    between atoms: O1_2  and  C2_3 
REMARK       I    between atoms: C2_3  and  N1_5 
REMARK    2  A    between atoms: N1_5  and  C4_7 
REMARK    3  A    between atoms: C5_8  and  N2_9 
REMARK    4  A    between atoms: C5_8  and  C9_19 
REMARK       I    between atoms: N2_9  and  C6_11 
REMARK    5  A    between atoms: C6_11  and  C7_13 
REMARK    6  A    between atoms: C7_13  and  N3_15 
REMARK    7  A    between atoms: C10_21  and  S1_22 
REMARK    8  A    between atoms: S1_22  and  C11_23 
REMARK    9  A    between atoms: C12_30  and  O5_31 
REMARK   10  A    between atoms: C12_30  and  C13_33 
ROOT
HETATM    1  C9  UNL     1      -0.301   0.252   0.228  1.00  0.00     0.242 C 
HETATM    2  O4  UNL     1       0.144   0.215  -1.087  1.00  0.00    -0.314 OA
HETATM    3  C10 UNL     1       1.540   0.038  -0.972  1.00  0.00     0.184 C 
HETATM    4  N8  UNL     1       1.790  -0.637   0.091  1.00  0.00    -0.327 N 
ATOM      5  H8  UNL     1       2.719  -0.906   0.416  1.00  0.00     0.165 HD
HETATM    6  C12 UNL     1       0.548  -0.954   0.753  1.00  0.00     0.215 C 
ENDROOT
BRANCH   1   7
HETATM    7  C5  UNL     1      -1.695   0.088   0.515  1.00  0.00     0.062 C 
HETATM    8  C4  UNL     1      -2.500   0.977   0.996  1.00  0.00     0.123 C 
BRANCH   8   9
HETATM    9  N1  UNL     1      -2.531   2.309   1.337  1.00  0.00    -0.306 N 
HETATM   10  C2  UNL     1      -1.664   3.357   1.133  1.00  0.00     0.366 C 
HETATM   11  O2  UNL     1      -0.663   3.341   0.411  1.00  0.00    -0.238 OA
HETATM   12  C3  UNL     1      -3.730   2.699   2.187  1.00  0.00     0.161 C 
BRANCH  10  13
HETATM   13  O1  UNL     1      -1.853   4.629   1.771  1.00  0.00    -0.309 OA
HETATM   14  C1  UNL     1      -0.938   5.694   1.541  1.00  0.00     0.215 C 
ENDBRANCH  10  13
ENDBRANCH   8   9
BRANCH   7  15
HETATM   15  N2  UNL     1      -2.282  -1.230   0.359  1.00  0.00    -0.325 N 
HETATM   16  C6  UNL     1      -2.506  -1.716  -0.933  1.00  0.00     0.252 C 
HETATM   17  O3  UNL     1      -2.222  -1.063  -1.991  1.00  0.00    -0.271 OA
ATOM     18  H2  UNL     1      -2.526  -1.791   1.175  1.00  0.00     0.168 HD
BRANCH  16  19
HETATM   19  C7  UNL     1      -3.109  -3.067  -1.191  1.00  0.00     0.271 C 
HETATM   20  C8  UNL     1      -2.100  -3.841  -2.005  1.00  0.00     0.050 C 
BRANCH  19  21
HETATM   21  N3  UNL     1      -3.350  -3.758   0.034  1.00  0.00    -0.067 N 
ATOM     22  H33 UNL     1      -2.505  -3.824   0.602  1.00  0.00     0.275 HD
ATOM     23  H32 UNL     1      -3.922  -3.205   0.672  1.00  0.00     0.275 HD
ATOM     24  H31 UNL     1      -3.760  -4.676  -0.141  1.00  0.00     0.275 HD
ENDBRANCH  19  21
ENDBRANCH  16  19
ENDBRANCH   7  15
ENDBRANCH   1   7
BRANCH   6  25
HETATM   25  O5  UNL     1       0.143  -2.158   0.292  1.00  0.00    -0.364 OA
ATOM     26  H5  UNL     1       0.658  -2.890   0.611  1.00  0.00     0.213 HD
ENDBRANCH   6  25
BRANCH   6  27
HETATM   27  C13 UNL     1       0.657  -0.858   2.254  1.00  0.00     0.327 A 
HETATM   28  N9  UNL     1       1.582  -1.781   2.805  1.00  0.00    -0.281 N 
HETATM   29  N10 UNL     1       2.370  -0.859   3.097  1.00  0.00    -0.207 N 
ATOM     30  H9  UNL     1       1.597  -2.795   2.918  1.00  0.00     0.185 HD
HETATM   31  O6  UNL     1       1.579   0.126   2.606  1.00  0.00    -0.233 OA
ATOM     32  H10 UNL     1       3.286  -0.850   3.546  1.00  0.00     0.215 HD
ENDBRANCH   6  27
BRANCH   3  33
HETATM   33  S1  UNL     1       2.797   0.646  -2.114  1.00  0.00    -0.046 SA
BRANCH  33  34
HETATM   34  C11 UNL     1       4.425   0.162  -1.546  1.00  0.00     0.276 C 
HETATM   35  N4  UNL     1       4.664  -1.250  -1.583  1.00  0.00    -0.094 NA
HETATM   36  N5  UNL     1       6.061  -1.323  -1.539  1.00  0.00    -0.019 NA
HETATM   37  N6  UNL     1       6.571  -0.118  -1.979  1.00  0.00    -0.019 NA
HETATM   38  N7  UNL     1       5.493   0.703  -2.327  1.00  0.00    -0.094 NA
ENDBRANCH  33  34
ENDBRANCH   3  33
TORSDOF 10
