REMARK  11 active torsions:
REMARK  status: ('A' for Active; 'I' for Inactive)
REMARK    1  A    between atoms: C2_3  and  N2_4 
REMARK    2  A    between atoms: C3_5  and  N3_6 
REMARK    3  A    between atoms: C5_13  and  N6_14 
REMARK    4  A    between atoms: N6_14  and  C6_16 
REMARK    5  A    between atoms: C6_16  and  O1_17 
REMARK    6  A    between atoms: C6_16  and  C7_19 
REMARK    7  A    between atoms: C7_19  and  N7_20 
REMARK    8  A    between atoms: C7_19  and  C8_24 
REMARK    9  A    between atoms: C8_24  and  O2_25 
REMARK   10  A    between atoms: C8_24  and  O3_27 
REMARK   11  A    between atoms: C13_37  and  N9_38 
ROOT
HETATM    1  N2  UNL     1       0.863  -0.617  -0.248  1.00  0.00     0.062 N 
HETATM    2  C3  UNL     1       0.651  -1.823  -0.808  1.00  0.00     0.701 A 
HETATM    3  N4  UNL     1      -0.538  -2.189  -1.303  1.00  0.00    -0.176 N 
ATOM      4  H4  UNL     1      -0.655  -3.113  -1.719  1.00  0.00     0.185 HD
HETATM    5  C4  UNL     1      -1.604  -1.318  -1.251  1.00  0.00     0.164 A 
HETATM    6  N5  UNL     1      -2.831  -1.722  -1.821  1.00  0.00    -0.080 NA
HETATM    7  C5  UNL     1      -1.444  -0.099  -0.700  1.00  0.00     0.146 A 
HETATM    8  C9  UNL     1      -0.168   0.234  -0.194  1.00  0.00     0.314 A 
HETATM    9  O4  UNL     1       0.016   1.351   0.319  1.00  0.00    -0.264 OA
ENDROOT
BRANCH   1  10
HETATM   10  C2  UNL     1       2.156  -0.284   0.264  1.00  0.00     0.713 A 
HETATM   11  N1  UNL     1       3.076   0.252  -0.533  1.00  0.00    -0.164 N 
HETATM   12  C1  UNL     1       2.781   0.505  -1.925  1.00  0.00     0.177 C 
HETATM   13  C14 UNL     1       4.317   0.587  -0.098  1.00  0.00     0.183 A 
HETATM   14  C11 UNL     1       4.624   0.357   1.228  1.00  0.00     0.089 A 
HETATM   15  O8  UNL     1       5.361   1.117  -0.694  1.00  0.00    -0.270 OA
HETATM   16  C10 UNL     1       3.680  -0.198   2.063  1.00  0.00     0.274 A 
HETATM   17  C12 UNL     1       5.938   0.796   1.357  1.00  0.00     0.084 A 
HETATM   18  N8  UNL     1       2.462  -0.505   1.553  1.00  0.00    -0.154 N 
HETATM   19  O5  UNL     1       3.961  -0.403   3.251  1.00  0.00    -0.267 OA
ATOM     20  H8  UNL     1       1.758  -0.916   2.166  1.00  0.00     0.187 HD
HETATM   21  C13 UNL     1       6.350   1.260   0.131  1.00  0.00     0.217 A 
BRANCH  21  22
HETATM   22  N9  UNL     1       7.627   1.792  -0.149  1.00  0.00    -0.090 N 
HETATM   23  O6  UNL     1       8.464   1.858   0.765  1.00  0.00    -0.530 OA
HETATM   24  O7  UNL     1       8.002   2.246  -1.390  1.00  0.00    -0.530 OA
ENDBRANCH  21  22
ENDBRANCH   1  10
BRANCH   2  25
HETATM   25  N3  UNL     1       1.676  -2.630  -0.844  1.00  0.00    -0.233 N 
ATOM     26  H32 UNL     1       2.582  -2.351  -0.467  1.00  0.00     0.174 HD
ATOM     27  H31 UNL     1       1.515  -3.544  -1.268  1.00  0.00     0.174 HD
ENDBRANCH   2  25
BRANCH   7  28
HETATM   28  N6  UNL     1      -2.460   0.858  -0.565  1.00  0.00    -0.332 N 
ATOM     29  H6  UNL     1      -2.657   1.403  -1.405  1.00  0.00     0.168 HD
BRANCH  28  30
HETATM   30  C6  UNL     1      -3.252   1.181   0.561  1.00  0.00     0.152 C 
BRANCH  30  31
HETATM   31  O1  UNL     1      -2.555   1.207   1.773  1.00  0.00    -0.348 OA
ATOM     32  H1  UNL     1      -3.087   1.424   2.529  1.00  0.00     0.219 HD
ENDBRANCH  30  31
BRANCH  30  33
HETATM   33  C7  UNL     1      -4.596   0.580   0.605  1.00  0.00     0.311 C 
BRANCH  33  34
HETATM   34  N7  UNL     1      -5.280   0.578  -0.678  1.00  0.00    -0.063 N 
ATOM     35  H73 UNL     1      -5.320   1.521  -1.065  1.00  0.00     0.275 HD
ATOM     36  H72 UNL     1      -4.707   0.125  -1.390  1.00  0.00     0.275 HD
ATOM     37  H71 UNL     1      -6.211   0.162  -0.648  1.00  0.00     0.275 HD
ENDBRANCH  33  34
BRANCH  33  38
HETATM   38  C8  UNL     1      -4.737  -0.735   1.304  1.00  0.00     0.292 C 
BRANCH  38  39
HETATM   39  O2  UNL     1      -6.103  -0.990   1.505  1.00  0.00    -0.369 OA
ATOM     40  H2  UNL     1      -6.193  -1.825   1.949  1.00  0.00     0.212 HD
ENDBRANCH  38  39
BRANCH  38  41
HETATM   41  O3  UNL     1      -4.191  -0.681   2.605  1.00  0.00    -0.369 OA
ATOM     42  H3  UNL     1      -4.281  -1.516   3.049  1.00  0.00     0.212 HD
ENDBRANCH  38  41
ENDBRANCH  33  38
ENDBRANCH  30  33
ENDBRANCH  28  30
ENDBRANCH   7  28
TORSDOF 11
