REMARK  11 active torsions:
REMARK  status: ('A' for Active; 'I' for Inactive)
REMARK    1  A    between atoms: C2_4  and  C3_5 
REMARK    2  A    between atoms: C4_10  and  C5_11 
REMARK    3  A    between atoms: C5_11  and  O1_12 
REMARK    4  A    between atoms: C5_11  and  C6_14 
REMARK    5  A    between atoms: C6_14  and  O2_15 
REMARK    6  A    between atoms: C6_14  and  C7_17 
REMARK    7  A    between atoms: C7_17  and  O3_18 
REMARK    8  A    between atoms: C9_25  and  C10_26 
REMARK    9  A    between atoms: N9_31  and  C11_32 
REMARK   10  A    between atoms: C12_37  and  N12_38 
REMARK   11  A    between atoms: C13_43  and  N14_44 
ROOT
HETATM    1  N1  UNL     1       1.031   0.110  -1.595  1.00  0.00    -0.171 NA
HETATM    2  C1  UNL     1       0.663  -0.245  -0.550  1.00  0.00     0.191 C 
HETATM    3  N2  UNL     1       0.201  -0.691   0.708  1.00  0.00    -0.225 N 
HETATM    4  C2  UNL     1      -1.070  -0.972   0.996  1.00  0.00     0.112 A 
HETATM    5  C8  UNL     1      -1.103  -1.368   2.310  1.00  0.00     0.124 A 
HETATM    6  N6  UNL     1       0.174  -1.308   2.767  1.00  0.00    -0.346 N 
ATOM      7  H6  UNL     1       0.470  -1.545   3.714  1.00  0.00     0.167 HD
HETATM    8  C9  UNL     1       0.987  -0.891   1.787  1.00  0.00     0.169 A 
ENDROOT
BRANCH   4   9
HETATM    9  C3  UNL     1      -2.226  -0.887   0.113  1.00  0.00     0.151 A 
HETATM   10  N3  UNL     1      -2.200  -0.501  -1.172  1.00  0.00    -0.282 N 
HETATM   11  N4  UNL     1      -3.415  -0.535  -1.687  1.00  0.00    -0.285 N 
ATOM     12  H3  UNL     1      -1.360  -0.221  -1.679  1.00  0.00     0.188 HD
HETATM   13  C4  UNL     1      -4.237  -0.949  -0.720  1.00  0.00     0.129 A 
ATOM     14  H4  UNL     1      -3.676  -0.291  -2.642  1.00  0.00     0.188 HD
HETATM   15  N5  UNL     1      -3.506  -1.164   0.381  1.00  0.00    -0.326 N 
ATOM     16  H5  UNL     1      -3.867  -1.487   1.279  1.00  0.00     0.169 HD
BRANCH  13  17
HETATM   17  C5  UNL     1      -5.714  -1.127  -0.889  1.00  0.00     0.217 C 
BRANCH  17  18
HETATM   18  O1  UNL     1      -6.128  -2.331  -0.323  1.00  0.00    -0.385 OA
ATOM     19  H1  UNL     1      -7.065  -2.444  -0.430  1.00  0.00     0.210 HD
ENDBRANCH  17  18
BRANCH  17  20
HETATM   20  C6  UNL     1      -6.470  -0.010  -0.192  1.00  0.00     0.177 C 
BRANCH  20  21
HETATM   21  O2  UNL     1      -6.210   0.004   1.174  1.00  0.00    -0.390 OA
ATOM     22  H2  UNL     1      -6.683   0.703   1.610  1.00  0.00     0.210 HD
ENDBRANCH  20  21
BRANCH  20  23
HETATM   23  C7  UNL     1      -6.072   1.346  -0.732  1.00  0.00     0.198 C 
BRANCH  23  24
HETATM   24  O3  UNL     1      -6.839   2.300  -0.076  1.00  0.00    -0.398 OA
ATOM     25  H3  UNL     1      -6.589   3.152  -0.415  1.00  0.00     0.209 HD
ENDBRANCH  23  24
ENDBRANCH  20  23
ENDBRANCH  17  20
ENDBRANCH  13  17
ENDBRANCH   4   9
BRANCH   8  26
HETATM   26  C10 UNL     1       2.429  -0.688   1.850  1.00  0.00     0.183 A 
HETATM   27  N7  UNL     1       3.246  -0.870   2.886  1.00  0.00    -0.265 N 
HETATM   28  N8  UNL     1       4.485  -0.561   2.489  1.00  0.00    -0.218 N 
ATOM     29  H7  UNL     1       2.975  -1.188   3.816  1.00  0.00     0.190 HD
HETATM   30  N9  UNL     1       4.461  -0.189   1.225  1.00  0.00    -0.158 N 
ATOM     31  H8  UNL     1       5.319  -0.606   3.074  1.00  0.00     0.210 HD
HETATM   32  N15 UNL     1       3.207  -0.264   0.829  1.00  0.00    -0.257 N 
ATOM     33  H15 UNL     1       2.873  -0.036  -0.108  1.00  0.00     0.191 HD
BRANCH  30  34
HETATM   34  C11 UNL     1       5.535   0.222   0.399  1.00  0.00     0.206 A 
HETATM   35  N10 UNL     1       6.228  -0.656  -0.370  1.00  0.00    -0.265 N 
HETATM   36  N11 UNL     1       7.227  -0.246  -1.133  1.00  0.00    -0.131 N 
ATOM     37  H10 UNL     1       5.975  -1.644  -0.359  1.00  0.00     0.189 HD
HETATM   38  C12 UNL     1       7.623   1.038  -1.206  1.00  0.00     0.692 A 
ATOM     39  H11 UNL     1       7.723  -0.938  -1.695  1.00  0.00     0.205 HD
HETATM   40  N13 UNL     1       6.949   1.921  -0.452  1.00  0.00    -0.172 N 
HETATM   41  C13 UNL     1       5.928   1.555   0.339  1.00  0.00     0.164 A 
ATOM     42  H13 UNL     1       7.222   2.903  -0.481  1.00  0.00     0.186 HD
BRANCH  38  43
HETATM   43  N12 UNL     1       8.612   1.418  -1.967  1.00  0.00    -0.233 N 
ATOM     44 2H12 UNL     1       9.124   0.747  -2.540  1.00  0.00     0.174 HD
ATOM     45 1H12 UNL     1       8.912   2.391  -2.022  1.00  0.00     0.174 HD
ENDBRANCH  38  43
BRANCH  41  46
HETATM   46  N14 UNL     1       5.263   2.382   1.073  1.00  0.00    -0.382 N 
ATOM     47 2H14 UNL     1       4.487   2.104   1.674  1.00  0.00     0.157 HD
ATOM     48 1H14 UNL     1       5.551   3.359   1.029  1.00  0.00     0.157 HD
ENDBRANCH  41  46
ENDBRANCH  30  34
ENDBRANCH   8  26
TORSDOF 11
