REMARK  10 active torsions:
REMARK  status: ('A' for Active; 'I' for Inactive)
REMARK    1  A    between atoms: N1_1  and  N2_4 
REMARK    2  A    between atoms: N2_4  and  C1_6 
REMARK    3  A    between atoms: C2_12  and  C3_13 
REMARK       I    between atoms: C3_13  and  N5_15 
REMARK    4  A    between atoms: N5_15  and  C4_17 
REMARK    5  A    between atoms: C4_17  and  C5_18 
REMARK    6  A    between atoms: C6_24  and  C7_25 
REMARK    7  A    between atoms: C7_25  and  N8_26 
REMARK    8  A    between atoms: C7_25  and  C8_30 
REMARK    9  A    between atoms: N8_26  and  N9_27 
REMARK   10  A    between atoms: C13_41  and  O5_42 
ROOT
HETATM    1  C5  UNL     1       1.174  -0.042  -0.477  1.00  0.00     0.078 A 
HETATM    2  N6  UNL     1       1.520   1.243  -0.301  1.00  0.00    -0.242 N 
ATOM      3  H6  UNL     1       2.383   1.661  -0.648  1.00  0.00     0.196 HD
HETATM    4  O3  UNL     1       0.614   1.881   0.366  1.00  0.00    -0.157 OA
HETATM    5  N7  UNL     1      -0.326   1.057   0.639  1.00  0.00    -0.242 N 
ATOM      6  H7  UNL     1      -1.171   1.293   1.159  1.00  0.00     0.196 HD
HETATM    7  C6  UNL     1      -0.047  -0.160   0.147  1.00  0.00     0.089 A 
ENDROOT
BRANCH   7   8
HETATM    8  C7  UNL     1      -0.878  -1.383   0.243  1.00  0.00     0.220 C 
BRANCH   8   9
HETATM    9  N8  UNL     1      -0.806  -1.898   1.587  1.00  0.00    -0.129 NA
BRANCH   9  10
HETATM   10  N9  UNL     1      -1.574  -3.062   1.716  1.00  0.00    -0.347 N 
ATOM     11  H92 UNL     1      -2.107  -3.477   0.952  1.00  0.00     0.172 HD
ATOM     12  H91 UNL     1      -1.523  -3.427   2.667  1.00  0.00     0.172 HD
ENDBRANCH   9  10
ENDBRANCH   8   9
BRANCH   8  13
HETATM   13  C8  UNL     1      -2.289  -1.024  -0.129  1.00  0.00     0.113 A 
HETATM   14  N10 UNL     1      -2.798  -1.405  -1.310  1.00  0.00    -0.310 N 
HETATM   15  C9  UNL     1      -4.058  -1.074  -1.632  1.00  0.00     0.264 A 
ATOM     16  H10 UNL     1      -2.229  -1.945  -1.962  1.00  0.00     0.170 HD
HETATM   17  O4  UNL     1      -4.503  -1.445  -2.741  1.00  0.00    -0.267 OA
HETATM   18  C10 UNL     1      -4.859  -0.345  -0.779  1.00  0.00     0.121 A 
HETATM   19  C11 UNL     1      -4.332   0.041   0.427  1.00  0.00     0.134 A 
HETATM   20  C14 UNL     1      -6.092   0.328  -0.382  1.00  0.00     0.135 A 
HETATM   21  N11 UNL     1      -3.064  -0.314   0.707  1.00  0.00    -0.329 N 
HETATM   22  N12 UNL     1      -5.553   0.701   0.804  1.00  0.00    -0.288 N 
ATOM     23  H11 UNL     1      -2.670  -0.028   1.603  1.00  0.00     0.168 HD
HETATM   24  C12 UNL     1      -6.457   1.397   1.510  1.00  0.00     0.156 A 
HETATM   25  C13 UNL     1      -7.595   1.462   0.742  1.00  0.00     0.158 A 
HETATM   26  N13 UNL     1      -7.359   0.801  -0.420  1.00  0.00    -0.321 N 
ATOM     27  H13 UNL     1      -8.021   0.682  -1.187  1.00  0.00     0.169 HD
BRANCH  25  28
HETATM   28  O5  UNL     1      -8.790   2.087   1.070  1.00  0.00    -0.345 OA
ATOM     29  H5  UNL     1      -9.577   2.132   0.539  1.00  0.00     0.219 HD
ENDBRANCH  25  28
ENDBRANCH   8  13
ENDBRANCH   7   8
BRANCH   1  30
HETATM   30  C4  UNL     1       1.893  -1.134  -1.183  1.00  0.00     0.184 C 
BRANCH  30  31
HETATM   31  N5  UNL     1       3.140  -0.637  -1.687  1.00  0.00    -0.350 N 
HETATM   32  C3  UNL     1       4.170  -0.168  -0.836  1.00  0.00     0.274 C 
HETATM   33  O2  UNL     1       4.005  -0.184   0.401  1.00  0.00    -0.266 OA
ATOM     34  H5  UNL     1       3.291  -0.621  -2.696  1.00  0.00     0.163 HD
BRANCH  32  35
HETATM   35  C2  UNL     1       5.436   0.343  -1.386  1.00  0.00     0.171 A 
HETATM   36  C1  UNL     1       6.505   0.839  -0.671  1.00  0.00     0.176 A 
HETATM   37  N3  UNL     1       7.453   1.193  -1.556  1.00  0.00    -0.222 N 
HETATM   38  O1  UNL     1       6.995   0.931  -2.727  1.00  0.00    -0.155 OA
ATOM     39  H3  UNL     1       8.365   1.594  -1.338  1.00  0.00     0.198 HD
HETATM   40  N4  UNL     1       5.796   0.423  -2.683  1.00  0.00    -0.232 N 
ATOM     41  H4  UNL     1       5.232   0.138  -3.484  1.00  0.00     0.197 HD
BRANCH  36  42
HETATM   42  N2  UNL     1       6.546   0.931   0.626  1.00  0.00    -0.289 N 
ATOM     43  H2  UNL     1       5.735   0.616   1.159  1.00  0.00     0.188 HD
BRANCH  42  44
HETATM   44  N1  UNL     1       7.631   1.433   1.318  1.00  0.00    -0.344 N 
ATOM     45  H12 UNL     1       8.433   1.743   0.769  1.00  0.00     0.176 HD
ATOM     46  H11 UNL     1       7.663   1.505   2.335  1.00  0.00     0.176 HD
ENDBRANCH  42  44
ENDBRANCH  36  42
ENDBRANCH  32  35
ENDBRANCH  30  31
ENDBRANCH   1  30
TORSDOF 10
