REMARK  17 active torsions:
REMARK  status: ('A' for Active; 'I' for Inactive)
REMARK    1  A    between atoms: C2_2  and  C3_3 
REMARK    2  A    between atoms: C5_7  and  N2_8 
REMARK    3  A    between atoms: C7_11  and  N3_12 
REMARK       I    between atoms: N3_12  and  C8_14 
REMARK    4  A    between atoms: C8_14  and  C9_16 
REMARK    5  A    between atoms: C9_16  and  C10_17 
REMARK    6  A    between atoms: C10_17  and  C11_18 
REMARK    7  A    between atoms: C11_18  and  C12_19 
REMARK    8  A    between atoms: C11_18  and  S1_31 
REMARK    9  A    between atoms: C12_19  and  N4_20 
REMARK       I    between atoms: N4_20  and  C13_22 
REMARK   10  A    between atoms: C13_22  and  C14_24 
REMARK   11  A    between atoms: C14_24  and  C15_25 
REMARK   12  A    between atoms: C15_25  and  N5_26 
REMARK   13  A    between atoms: N5_26  and  C18_29 
REMARK   14  A    between atoms: S1_31  and  C20_33 
REMARK   15  A    between atoms: C20_33  and  C21_34 
REMARK   16  A    between atoms: C21_34  and  C22_35 
REMARK   17  A    between atoms: C25_38  and  C26_39 
ROOT
HETATM    1  C11 UNL     1       0.375   2.024   0.818  1.00  0.00     0.097 C 
ENDROOT
BRANCH   1   2
HETATM    2  C10 UNL     1       1.139   1.133   1.738  1.00  0.00     0.028 C 
BRANCH   2   3
HETATM    3  C9  UNL     1       2.269   0.411   1.068  1.00  0.00     0.104 C 
BRANCH   3   4
HETATM    4  C8  UNL     1       2.977  -0.463   2.091  1.00  0.00     0.223 C 
HETATM    5  N3  UNL     1       4.116  -1.115   1.690  1.00  0.00    -0.310 N 
ATOM      6  H3  UNL     1       4.965  -0.549   1.680  1.00  0.00     0.170 HD
HETATM    7  O1  UNL     1       2.457  -0.518   3.247  1.00  0.00    -0.273 OA
BRANCH   5   8
HETATM    8  C7  UNL     1       4.261  -2.321   1.330  1.00  0.00     0.152 A 
HETATM    9  C5  UNL     1       3.210  -3.201   1.292  1.00  0.00     0.145 A 
HETATM   10  N1  UNL     1       3.473  -4.476   0.897  1.00  0.00    -0.348 N 
HETATM   11  C4  UNL     1       4.712  -4.891   0.549  1.00  0.00     0.114 A 
ATOM     12  H1  UNL     1       2.705  -5.146   0.862  1.00  0.00     0.167 HD
HETATM   13  C3  UNL     1       5.772  -4.005   0.587  1.00  0.00     0.026 A 
HETATM   14  N8  UNL     1       5.521  -2.757   0.971  1.00  0.00    -0.342 N 
ATOM     15  H8  UNL     1       6.294  -2.092   1.002  1.00  0.00     0.167 HD
BRANCH   9  16
HETATM   16  N2  UNL     1       2.003  -2.876   1.607  1.00  0.00    -0.378 N 
HETATM   17  C6  UNL     1       0.897  -3.808   1.565  1.00  0.00     0.148 C 
ATOM     18  H2  UNL     1       1.819  -1.916   1.900  1.00  0.00     0.160 HD
ENDBRANCH   9  16
BRANCH  13  19
HETATM   19  C2  UNL     1       7.155  -4.455   0.203  1.00  0.00     0.054 C 
HETATM   20  C1  UNL     1       7.372  -4.252  -1.279  1.00  0.00     0.011 C 
ENDBRANCH  13  19
ENDBRANCH   5   8
ENDBRANCH   3   4
ENDBRANCH   2   3
ENDBRANCH   1   2
BRANCH   1  21
HETATM   21  C12 UNL     1      -0.207   1.220  -0.309  1.00  0.00     0.140 C 
BRANCH  21  22
HETATM   22  N4  UNL     1      -1.123   0.185   0.159  1.00  0.00    -0.360 N 
HETATM   23  C13 UNL     1      -1.767  -0.663  -0.779  1.00  0.00     0.219 C 
HETATM   24  O2  UNL     1      -1.556  -0.530  -1.998  1.00  0.00    -0.274 OA
ATOM     25  H4  UNL     1      -1.300   0.071   1.157  1.00  0.00     0.162 HD
BRANCH  23  26
HETATM   26  C14 UNL     1      -2.695  -1.708  -0.307  1.00  0.00     0.130 C 
BRANCH  26  27
HETATM   27  C15 UNL     1      -3.282  -2.436  -1.492  1.00  0.00     0.245 C 
BRANCH  27  28
HETATM   28  N5  UNL     1      -4.187  -3.453  -1.024  1.00  0.00    -0.075 N 
HETATM   29  C16 UNL     1      -5.346  -2.941  -0.340  1.00  0.00     0.272 C 
HETATM   30  C17 UNL     1      -3.476  -4.358  -0.149  1.00  0.00     0.272 C 
BRANCH  28  31
HETATM   31  C18 UNL     1      -4.561  -4.244  -2.197  1.00  0.00     0.232 C 
HETATM   32  C19 UNL     1      -5.792  -5.090  -1.952  1.00  0.00     0.034 C 
ENDBRANCH  28  31
ENDBRANCH  27  28
ENDBRANCH  26  27
ENDBRANCH  23  26
ENDBRANCH  21  22
ENDBRANCH   1  21
BRANCH   1  33
HETATM   33  S1  UNL     1       1.372   3.318   0.184  1.00  0.00     0.021 S 
HETATM   34  O3  UNL     1       2.676   2.858  -0.710  1.00  0.00    -0.258 OA
BRANCH  33  35
HETATM   35  C20 UNL     1       1.744   4.559   1.363  1.00  0.00     0.114 C 
BRANCH  35  36
HETATM   36  C21 UNL     1       0.583   5.284   1.943  1.00  0.00     0.051 C 
BRANCH  36  37
HETATM   37  C22 UNL     1      -0.220   6.047   0.970  1.00  0.00    -0.057 A 
HETATM   38  C23 UNL     1      -1.291   5.481   0.342  1.00  0.00     0.008 A 
HETATM   39  C24 UNL     1      -2.061   6.169  -0.579  1.00  0.00     0.015 A 
HETATM   40  C25 UNL     1      -1.752   7.489  -0.895  1.00  0.00     0.004 A 
HETATM   41  C27 UNL     1      -0.670   8.041  -0.253  1.00  0.00     0.015 A 
HETATM   42  C28 UNL     1       0.102   7.336   0.678  1.00  0.00     0.008 A 
BRANCH  40  43
HETATM   43  C26 UNL     1      -2.573   8.179  -1.868  1.00  0.00     0.120 C 
HETATM   44  N6  UNL     1      -2.333   9.394  -2.173  1.00  0.00    -0.387 N 
ATOM     45  H62 UNL     1      -1.556   9.875  -1.720  1.00  0.00     0.157 HD
ATOM     46  H61 UNL     1      -2.911   9.880  -2.858  1.00  0.00     0.157 HD
HETATM   47  N7  UNL     1      -3.659   7.506  -2.502  1.00  0.00    -0.082 NA
ENDBRANCH  40  43
ENDBRANCH  36  37
ENDBRANCH  35  36
ENDBRANCH  33  35
ENDBRANCH   1  33
TORSDOF 17
