REMARK  15 active torsions:
REMARK  status: ('A' for Active; 'I' for Inactive)
REMARK    1  A    between atoms: N2_9  and  C7_11 
REMARK    2  A    between atoms: C7_11  and  C8_12 
REMARK    3  A    between atoms: C8_12  and  C9_13 
REMARK    4  A    between atoms: C9_13  and  C10_14 
REMARK    5  A    between atoms: C10_14  and  O1_15 
REMARK    6  A    between atoms: O1_15  and  C11_16 
REMARK    7  A    between atoms: C14_19  and  C15_20 
REMARK    8  A    between atoms: C15_20  and  C16_21 
REMARK    9  A    between atoms: C16_21  and  N3_22 
REMARK   10  A    between atoms: C16_21  and  C27_42 
REMARK       I    between atoms: N3_22  and  C17_24 
REMARK   11  A    between atoms: C17_24  and  C18_26 
REMARK   12  A    between atoms: C18_26  and  C19_27 
REMARK   13  A    between atoms: C21_29  and  C22_30 
REMARK   14  A    between atoms: C22_30  and  C23_31 
REMARK   15  A    between atoms: C23_31  and  C24_32 
REMARK       I    between atoms: C24_32  and  N4_34 
ROOT
HETATM    1  C16 UNL     1       2.452   2.952  -0.419  1.00  0.00     0.178 C 
ENDROOT
BRANCH   1   2
HETATM    2  C15 UNL     1       1.496   3.344   0.656  1.00  0.00     0.073 C 
BRANCH   2   3
HETATM    3  C14 UNL     1       0.081   3.129   0.257  1.00  0.00    -0.056 A 
HETATM    4  C13 UNL     1      -0.516   1.933   0.566  1.00  0.00     0.010 A 
HETATM    5  C12 UNL     1      -1.819   1.730   0.173  1.00  0.00     0.037 A 
HETATM    6  C11 UNL     1      -2.568   2.680  -0.528  1.00  0.00     0.068 A 
HETATM    7  C29 UNL     1      -1.878   3.880  -0.805  1.00  0.00     0.037 A 
HETATM    8  C28 UNL     1      -0.600   4.122  -0.437  1.00  0.00     0.010 A 
BRANCH   6   9
HETATM    9  O1  UNL     1      -3.788   2.457  -0.885  1.00  0.00    -0.351 OA
BRANCH   9  10
HETATM   10  C10 UNL     1      -5.007   2.177  -1.215  1.00  0.00     0.175 C 
BRANCH  10  11
HETATM   11  C9  UNL     1      -6.007   1.880  -0.106  1.00  0.00     0.028 C 
BRANCH  11  12
HETATM   12  C8  UNL     1      -5.665   0.710   0.741  1.00  0.00     0.022 C 
BRANCH  12  13
HETATM   13  C7  UNL     1      -5.566  -0.585  -0.034  1.00  0.00     0.121 C 
BRANCH  13  14
HETATM   14  N2  UNL     1      -6.764  -0.935  -0.709  1.00  0.00    -0.376 N 
HETATM   15  C6  UNL     1      -7.840  -1.423  -0.266  1.00  0.00     0.101 A 
HETATM   16  N1  UNL     1      -8.823  -1.648  -1.188  1.00  0.00    -0.347 N 
HETATM   17  C30 UNL     1      -8.146  -1.751   1.023  1.00  0.00     0.054 A 
HETATM   18  C4  UNL     1     -10.011  -2.161  -0.832  1.00  0.00     0.007 A 
ATOM     19  H1  UNL     1      -8.650  -1.421  -2.167  1.00  0.00     0.167 HD
HETATM   20  C3  UNL     1     -10.320  -2.492   0.480  1.00  0.00     0.031 A 
HETATM   21  C5  UNL     1     -11.043  -2.384  -1.886  1.00  0.00     0.068 C 
HETATM   22  C2  UNL     1      -9.354  -2.279   1.439  1.00  0.00    -0.057 A 
HETATM   23  C1  UNL     1      -9.633  -2.616   2.848  1.00  0.00     0.048 C 
ATOM     24  H2  UNL     1      -6.754  -0.765  -1.715  1.00  0.00     0.161 HD
ENDBRANCH  13  14
ENDBRANCH  12  13
ENDBRANCH  11  12
ENDBRANCH  10  11
ENDBRANCH   9  10
ENDBRANCH   6   9
ENDBRANCH   2   3
ENDBRANCH   1   2
BRANCH   1  25
HETATM   25  N3  UNL     1       2.383   1.563  -0.793  1.00  0.00    -0.348 N 
HETATM   26  C17 UNL     1       2.808   0.461  -0.045  1.00  0.00     0.223 C 
HETATM   27  O2  UNL     1       3.308   0.584   1.086  1.00  0.00    -0.273 OA
ATOM     28  H3  UNL     1       1.978   1.360  -1.707  1.00  0.00     0.163 HD
BRANCH  26  29
HETATM   29  C18 UNL     1       2.675  -0.912  -0.594  1.00  0.00     0.159 C 
BRANCH  29  30
HETATM   30  C19 UNL     1       4.051  -1.368  -0.916  1.00  0.00     0.018 A 
HETATM   31  C20 UNL     1       4.995  -1.889  -0.063  1.00  0.00     0.034 A 
HETATM   32  C21 UNL     1       6.150  -2.177  -0.766  1.00  0.00    -0.041 A 
HETATM   33  C26 UNL     1       5.874  -1.815  -2.073  1.00  0.00     0.095 A 
HETATM   34  N7  UNL     1       4.625  -1.337  -2.146  1.00  0.00    -0.368 N 
ATOM     35  H7  UNL     1       4.174  -1.001  -2.997  1.00  0.00     0.165 HD
BRANCH  32  36
HETATM   36  C22 UNL     1       7.457  -2.722  -0.319  1.00  0.00     0.049 C 
BRANCH  36  37
HETATM   37  C23 UNL     1       8.402  -1.590   0.039  1.00  0.00     0.108 C 
BRANCH  37  38
HETATM   38  C24 UNL     1       9.685  -2.157   0.464  1.00  0.00     0.224 C 
HETATM   39  O3  UNL     1       9.830  -3.387   0.560  1.00  0.00    -0.273 OA
HETATM   40  N4  UNL     1      10.730  -1.220   0.753  1.00  0.00    -0.304 N 
HETATM   41  C25 UNL     1      11.945  -1.371   0.348  1.00  0.00     0.203 C 
ATOM     42  H4  UNL     1      10.502  -0.394   1.306  1.00  0.00     0.171 HD
HETATM   43  N5  UNL     1      12.894  -0.378   0.693  1.00  0.00    -0.066 NA
HETATM   44  N6  UNL     1      12.250  -2.532  -0.416  1.00  0.00    -0.066 NA
ENDBRANCH  37  38
ENDBRANCH  36  37
ENDBRANCH  32  36
ENDBRANCH  29  30
ENDBRANCH  26  29
ENDBRANCH   1  25
BRANCH   1  45
HETATM   45  C27 UNL     1       3.840   3.315  -0.062  1.00  0.00     0.254 C 
HETATM   46  N8  UNL     1       4.113   4.614   0.454  1.00  0.00    -0.060 NA
HETATM   47  O4  UNL     1       4.756   2.478  -0.215  1.00  0.00    -0.275 OA
ENDBRANCH   1  45
TORSDOF 15
