REMARK  17 active torsions:
REMARK  status: ('A' for Active; 'I' for Inactive)
REMARK    1  A    between atoms: C5_5  and  C6_6 
REMARK    2  A    between atoms: C6_6  and  C7_7 
REMARK    3  A    between atoms: C7_7  and  C8_8 
REMARK    4  A    between atoms: C8_8  and  C9_9 
REMARK    5  A    between atoms: C9_9  and  C10_10 
REMARK    6  A    between atoms: C10_10  and  N1_11 
REMARK    7  A    between atoms: C10_10  and  C11_15 
REMARK       I    between atoms: C11_15  and  N2_17 
REMARK    8  A    between atoms: N2_17  and  C12_19 
REMARK    9  A    between atoms: C12_19  and  C13_20 
REMARK   10  A    between atoms: C13_20  and  N3_21 
REMARK   11  A    between atoms: N3_21  and  C14_22 
REMARK   12  A    between atoms: C15_23  and  O2_24 
REMARK   13  A    between atoms: C15_23  and  N4_26 
REMARK   14  A    between atoms: N4_26  and  C16_28 
REMARK   15  A    between atoms: C16_28  and  C17_29 
REMARK   16  A    between atoms: C17_29  and  C18_30 
REMARK   17  A    between atoms: C18_30  and  N5_31 
ROOT
HETATM    1  N3  UNL     1      -1.643   1.043   0.862  1.00  0.00     0.029 N 
HETATM    2  C20 UNL     1      -1.836   0.801  -0.533  1.00  0.00     0.293 C 
HETATM    3  C21 UNL     1      -1.307  -0.466  -1.003  1.00  0.00    -0.019 A 
HETATM    4  C22 UNL     1      -1.072  -0.598  -2.365  1.00  0.00     0.010 A 
HETATM    5  C23 UNL     1      -0.592  -1.773  -2.885  1.00  0.00     0.002 A 
HETATM    6  C24 UNL     1      -0.336  -2.847  -2.061  1.00  0.00     0.012 A 
HETATM    7  C25 UNL     1      -0.566  -2.723  -0.710  1.00  0.00    -0.024 A 
HETATM    8  C26 UNL     1      -0.320  -3.762   0.157  1.00  0.00     0.012 A 
HETATM    9  C27 UNL     1      -0.547  -3.630   1.510  1.00  0.00     0.002 A 
HETATM   10  C28 UNL     1      -1.025  -2.437   1.993  1.00  0.00     0.018 A 
HETATM   11  C29 UNL     1      -1.276  -1.388   1.143  1.00  0.00     0.052 A 
HETATM   12  C30 UNL     1      -1.046  -1.534  -0.217  1.00  0.00    -0.002 A 
HETATM   13  C31 UNL     1      -1.777  -0.112   1.649  1.00  0.00     0.357 C 
HETATM   14  O3  UNL     1      -2.321  -0.114   2.806  1.00  0.00    -0.259 OA
ENDROOT
BRANCH   1  15
HETATM   15  C13 UNL     1      -0.218   1.412   0.980  1.00  0.00     0.273 C 
BRANCH  15  16
HETATM   16  C12 UNL     1       0.085   2.384   2.041  1.00  0.00     0.151 C 
BRANCH  16  17
HETATM   17  N2  UNL     1       1.510   2.671   2.078  1.00  0.00    -0.358 N 
HETATM   18  C11 UNL     1       2.497   1.717   2.359  1.00  0.00     0.248 C 
HETATM   19  O1  UNL     1       2.164   0.511   2.620  1.00  0.00    -0.271 OA
ATOM     20  H2  UNL     1       1.810   3.627   1.887  1.00  0.00     0.162 HD
BRANCH  18  21
HETATM   21  C10 UNL     1       3.931   2.081   2.364  1.00  0.00     0.274 C 
BRANCH  21  22
HETATM   22  C9  UNL     1       4.824   0.956   1.994  1.00  0.00     0.042 C 
BRANCH  22  23
HETATM   23  C8  UNL     1       4.877   0.495   0.601  1.00  0.00     0.003 C 
BRANCH  23  24
HETATM   24  C7  UNL     1       5.332   1.446  -0.444  1.00  0.00     0.006 C 
BRANCH  24  25
HETATM   25  C6  UNL     1       5.355   0.808  -1.830  1.00  0.00     0.057 C 
BRANCH  25  26
HETATM   26  C5  UNL     1       6.253  -0.352  -1.906  1.00  0.00     0.009 A 
HETATM   27  C4  UNL     1       7.587  -0.331  -2.237  1.00  0.00     0.027 A 
HETATM   28  C3  UNL     1       8.023  -1.631  -2.183  1.00  0.00     0.026 A 
HETATM   29  C2  UNL     1       6.972  -2.451  -1.822  1.00  0.00     0.005 A 
HETATM   30  C1  UNL     1       7.035  -3.930  -1.654  1.00  0.00     0.068 C 
HETATM   31  N8  UNL     1       5.918  -1.637  -1.663  1.00  0.00    -0.363 N 
ATOM     32  H8  UNL     1       4.985  -1.948  -1.394  1.00  0.00     0.165 HD
ENDBRANCH  25  26
ENDBRANCH  24  25
ENDBRANCH  23  24
ENDBRANCH  22  23
ENDBRANCH  21  22
BRANCH  21  33
HETATM   33  N1  UNL     1       4.138   3.335   1.751  1.00  0.00    -0.067 N 
ATOM     34  H13 UNL     1       5.107   3.619   1.897  1.00  0.00     0.275 HD
ATOM     35  H12 UNL     1       4.119   3.216   0.738  1.00  0.00     0.275 HD
ATOM     36  H11 UNL     1       3.524   4.109   2.005  1.00  0.00     0.275 HD
ENDBRANCH  21  33
ENDBRANCH  18  21
ENDBRANCH  16  17
ENDBRANCH  15  16
ENDBRANCH   1  15
BRANCH   1  37
HETATM   37  C14 UNL     1      -2.441   2.127   1.358  1.00  0.00     0.268 C 
HETATM   38  C15 UNL     1      -3.870   1.944   1.440  1.00  0.00     0.160 C 
BRANCH  38  39
HETATM   39  O2  UNL     1      -4.571   2.950   1.886  1.00  0.00    -0.345 OA
ATOM     40  H2  UNL     1      -5.512   2.830   1.940  1.00  0.00     0.219 HD
ENDBRANCH  38  39
BRANCH  38  41
HETATM   41  N4  UNL     1      -4.670   0.833   1.112  1.00  0.00    -0.370 N 
ATOM     42  H4  UNL     1      -4.225  -0.012   0.753  1.00  0.00     0.161 HD
BRANCH  41  43
HETATM   43  C16 UNL     1      -6.130   0.860   1.274  1.00  0.00     0.123 C 
BRANCH  43  44
HETATM   44  C17 UNL     1      -6.683  -0.457   0.843  1.00  0.00     0.039 C 
BRANCH  44  45
HETATM   45  C18 UNL     1      -6.371  -0.772  -0.602  1.00  0.00     0.123 C 
BRANCH  45  46
HETATM   46  N5  UNL     1      -6.917   0.224  -1.472  1.00  0.00    -0.367 N 
HETATM   47  C19 UNL     1      -8.164   0.380  -1.712  1.00  0.00     0.196 C 
HETATM   48  N6  UNL     1      -8.592   1.419  -2.607  1.00  0.00    -0.067 NA
HETATM   49  N7  UNL     1      -9.200  -0.414  -1.149  1.00  0.00    -0.067 NA
ATOM     50  H5  UNL     1      -6.264   0.856  -1.935  1.00  0.00     0.161 HD
ENDBRANCH  45  46
ENDBRANCH  44  45
ENDBRANCH  43  44
ENDBRANCH  41  43
ENDBRANCH  38  41
ENDBRANCH   1  37
TORSDOF 17
