REMARK  19 active torsions:
REMARK  status: ('A' for Active; 'I' for Inactive)
REMARK    1  A    between atoms: C2_2  and  C3_3 
REMARK    2  A    between atoms: C3_3  and  C4_4 
REMARK    3  A    between atoms: C4_4  and  C5_5 
REMARK    4  A    between atoms: C5_5  and  N1_6 
REMARK    5  A    between atoms: N1_6  and  C6_7 
REMARK       I    between atoms: N1_6  and  C10_11 
REMARK    6  A    between atoms: C6_7  and  C7_8 
REMARK    7  A    between atoms: C7_8  and  C8_9 
REMARK    8  A    between atoms: C10_11  and  C11_13 
REMARK    9  A    between atoms: C11_13  and  C12_14 
REMARK   10  A    between atoms: C11_13  and  C26_38 
REMARK   11  A    between atoms: C13_15  and  C14_16 
REMARK   12  A    between atoms: C16_18  and  O2_19 
REMARK   13  A    between atoms: C17_21  and  N2_22 
REMARK       I    between atoms: N2_22  and  C18_24 
REMARK       I    between atoms: N3_28  and  C21_29 
REMARK       I    between atoms: C21_29  and  N4_31 
REMARK   14  A    between atoms: N4_31  and  C22_33 
REMARK   15  A    between atoms: C22_33  and  C23_34 
REMARK   16  A    between atoms: C23_34  and  C24_35 
REMARK   17  A    between atoms: C26_38  and  C27_39 
REMARK   18  A    between atoms: C27_39  and  C28_40 
REMARK   19  A    between atoms: C28_40  and  N6_41 
ROOT
HETATM    1  C12 UNL     1       0.070   0.608   0.006  1.00  0.00    -0.090 C 
HETATM    2  C13 UNL     1       1.001   0.370  -0.759  1.00  0.00    -0.080 C 
ENDROOT
BRANCH   2   3
HETATM    3  C14 UNL     1       2.050   0.076  -1.679  1.00  0.00     0.171 C 
HETATM    4  C15 UNL     1       2.594   1.256  -2.477  1.00  0.00     0.072 C 
HETATM    5  C16 UNL     1       3.607   0.774  -3.442  1.00  0.00     0.145 C 
HETATM    6  C17 UNL     1       4.140  -0.593  -3.368  1.00  0.00     0.131 C 
HETATM    7  C20 UNL     1       3.864  -1.420  -2.152  1.00  0.00     0.156 C 
HETATM    8  N3  UNL     1       3.191  -0.557  -1.128  1.00  0.00    -0.317 N 
HETATM    9  C21 UNL     1       3.851  -0.461   0.106  1.00  0.00     0.323 C 
HETATM   10  O4  UNL     1       4.790  -1.330   0.254  1.00  0.00    -0.247 OA
HETATM   11  N4  UNL     1       3.600   0.447   1.132  1.00  0.00    -0.319 N 
ATOM     12  H4  UNL     1       2.831   1.088   0.936  1.00  0.00     0.170 HD
BRANCH   5  13
HETATM   13  O2  UNL     1       4.646   1.754  -3.446  1.00  0.00    -0.393 OA
ATOM     14  H2  UNL     1       5.296   1.445  -4.066  1.00  0.00     0.210 HD
ENDBRANCH   5  13
BRANCH   6  15
HETATM   15  N2  UNL     1       3.819  -1.329  -4.597  1.00  0.00    -0.353 N 
HETATM   16  C18 UNL     1       4.825  -1.752  -5.491  1.00  0.00     0.214 C 
HETATM   17  C19 UNL     1       4.561  -2.496  -6.740  1.00  0.00     0.117 C 
HETATM   18  O3  UNL     1       6.020  -1.481  -5.210  1.00  0.00    -0.274 OA
ATOM     19  H2  UNL     1       2.844  -1.540  -4.810  1.00  0.00     0.163 HD
ENDBRANCH   6  15
BRANCH  11  20
HETATM   20  C22 UNL     1       4.198   0.649   2.377  1.00  0.00     0.094 C 
BRANCH  20  21
HETATM   21  C23 UNL     1       5.517   1.210   2.589  1.00  0.00     0.039 C 
BRANCH  21  22
HETATM   22  C24 UNL     1       6.811   0.697   2.156  1.00  0.00     0.021 C 
HETATM   23  C25 UNL     1       7.164  -0.680   2.679  1.00  0.00     0.065 C 
HETATM   24  N5  UNL     1       7.191   0.827   0.791  1.00  0.00    -0.107 NA
ENDBRANCH  21  22
ENDBRANCH  20  21
ENDBRANCH  11  20
ENDBRANCH   2   3
BRANCH   1  25
HETATM   25  C11 UNL     1      -1.018   0.880   0.939  1.00  0.00     0.157 C 
BRANCH  25  26
HETATM   26  C10 UNL     1      -1.622  -0.337   1.475  1.00  0.00     0.235 C 
HETATM   27  N1  UNL     1      -2.642  -1.126   0.888  1.00  0.00    -0.351 N 
HETATM   28  O1  UNL     1      -1.154  -0.712   2.612  1.00  0.00    -0.272 OA
BRANCH  27  29
HETATM   29  C5  UNL     1      -3.088  -2.290   1.600  1.00  0.00     0.126 C 
BRANCH  29  30
HETATM   30  C4  UNL     1      -4.158  -2.111   2.594  1.00  0.00     0.020 C 
BRANCH  30  31
HETATM   31  C3  UNL     1      -5.490  -1.652   2.204  1.00  0.00     0.001 C 
BRANCH  31  32
HETATM   32  C2  UNL     1      -6.288  -2.519   1.281  1.00  0.00    -0.004 C 
HETATM   33  C1  UNL     1      -7.629  -1.812   1.037  1.00  0.00     0.005 C 
ENDBRANCH  31  32
ENDBRANCH  30  31
ENDBRANCH  29  30
ENDBRANCH  27  29
BRANCH  27  34
HETATM   34  C6  UNL     1      -3.191  -0.809  -0.398  1.00  0.00     0.125 C 
BRANCH  34  35
HETATM   35  C7  UNL     1      -2.542  -1.516  -1.557  1.00  0.00     0.020 C 
BRANCH  35  36
HETATM   36  C8  UNL     1      -3.211  -1.083  -2.847  1.00  0.00    -0.003 C 
HETATM   37  C9  UNL     1      -4.684  -1.412  -2.845  1.00  0.00     0.005 C 
ENDBRANCH  35  36
ENDBRANCH  34  35
ENDBRANCH  27  34
ENDBRANCH  25  26
BRANCH  25  38
HETATM   38  C26 UNL     1      -0.501   1.792   2.050  1.00  0.00     0.028 C 
BRANCH  38  39
HETATM   39  C27 UNL     1      -1.588   2.229   2.984  1.00  0.00     0.021 C 
BRANCH  39  40
HETATM   40  C28 UNL     1      -2.693   2.997   2.316  1.00  0.00     0.122 C 
BRANCH  40  41
HETATM   41  N6  UNL     1      -3.667   3.353   3.330  1.00  0.00    -0.367 N 
HETATM   42  C29 UNL     1      -4.751   3.969   2.954  1.00  0.00     0.196 C 
HETATM   43  N7  UNL     1      -5.697   4.316   3.943  1.00  0.00    -0.067 NA
HETATM   44  N8  UNL     1      -4.956   4.276   1.567  1.00  0.00    -0.067 NA
ATOM     45  H6  UNL     1      -3.507   3.127   4.312  1.00  0.00     0.161 HD
ENDBRANCH  40  41
ENDBRANCH  39  40
ENDBRANCH  38  39
ENDBRANCH  25  38
ENDBRANCH   1  25
TORSDOF 19
