REMARK  19 active torsions:
REMARK  status: ('A' for Active; 'I' for Inactive)
REMARK    1  A    between atoms: O1_2  and  C2_3 
REMARK    2  A    between atoms: C3_7  and  O2_8 
REMARK    3  A    between atoms: O2_8  and  C4_9 
REMARK    4  A    between atoms: C4_9  and  C5_11 
REMARK    5  A    between atoms: C9_16  and  O5_17 
REMARK    6  A    between atoms: C11_20  and  O6_21 
REMARK    7  A    between atoms: C12_24  and  C13_25 
REMARK    8  A    between atoms: C13_25  and  O8_26 
REMARK    9  A    between atoms: C13_25  and  C14_28 
REMARK   10  A    between atoms: C14_28  and  C15_29 
REMARK   11  A    between atoms: C15_29  and  C16_30 
REMARK   12  A    between atoms: C15_29  and  O10_34 
REMARK   13  A    between atoms: C16_30  and  C17_31 
REMARK   14  A    between atoms: O10_34  and  C19_35 
REMARK   15  A    between atoms: C21_38  and  O12_39 
REMARK   16  A    between atoms: O12_39  and  C22_40 
REMARK   17  A    between atoms: C24_43  and  C25_44 
REMARK   18  A    between atoms: C27_47  and  O15_48 
REMARK   19  A    between atoms: C28_50  and  O16_51 
ROOT
HETATM    1  C2  UNL     1       2.192  -0.662  -1.790  1.00  0.00     0.329 C 
HETATM    2  N1  UNL     1       2.492  -0.764  -0.350  1.00  0.00     0.030 N 
ATOM      3  H11 UNL     1       2.850  -1.686  -0.099  1.00  0.00     0.288 HD
ATOM      4  H12 UNL     1       1.644  -0.774   0.216  1.00  0.00     0.288 HD
HETATM    5  C3  UNL     1       3.379   0.274   0.040  1.00  0.00     0.396 C 
HETATM    6  O4  UNL     1       2.776   1.426   0.657  1.00  0.00    -0.288 OA
HETATM    7  C9  UNL     1       2.302   1.789  -0.602  1.00  0.00     0.225 C 
HETATM    8  C10 UNL     1       0.996   1.135  -0.822  1.00  0.00     0.148 C 
HETATM    9  C11 UNL     1      -0.223   2.013  -0.825  1.00  0.00     0.270 C 
HETATM   10  O7  UNL     1      -1.270   1.523  -0.136  1.00  0.00    -0.350 OA
HETATM   11  C12 UNL     1      -1.866   0.360  -0.364  1.00  0.00     0.183 C 
HETATM   12  C21 UNL     1      -1.037  -0.763  -0.996  1.00  0.00     0.177 C 
HETATM   13  C24 UNL     1      -0.334  -0.419  -2.236  1.00  0.00     0.127 C 
HETATM   14  C27 UNL     1       0.998   0.231  -2.053  1.00  0.00     0.150 C 
HETATM   15  C28 UNL     1       3.513   1.145  -1.167  1.00  0.00     0.266 C 
HETATM   16  C29 UNL     1       3.334   0.185  -2.259  1.00  0.00     0.240 C 
HETATM   17  O17 UNL     1       3.950   0.090  -3.290  1.00  0.00    -0.289 OA
ENDROOT
BRANCH  11  18
HETATM   18  C13 UNL     1      -3.249   0.488  -1.015  1.00  0.00     0.152 C 
BRANCH  18  19
HETATM   19  O8  UNL     1      -3.190   1.080  -2.282  1.00  0.00    -0.393 OA
ATOM     20  H8  UNL     1      -4.047   1.159  -2.685  1.00  0.00     0.210 HD
ENDBRANCH  18  19
BRANCH  18  21
HETATM   21  C14 UNL     1      -4.040   1.460  -0.183  1.00  0.00     0.067 C 
BRANCH  21  22
HETATM   22  C15 UNL     1      -4.298   1.064   1.250  1.00  0.00     0.141 C 
BRANCH  22  23
HETATM   23  C16 UNL     1      -5.071   2.239   1.845  1.00  0.00     0.110 C 
BRANCH  23  24
HETATM   24  C17 UNL     1      -5.438   2.102   3.244  1.00  0.00     0.125 C 
HETATM   25  C18 UNL     1      -6.203   3.221   3.878  1.00  0.00     0.091 C 
HETATM   26  O9  UNL     1      -5.158   1.143   3.904  1.00  0.00    -0.298 OA
ENDBRANCH  23  24
ENDBRANCH  22  23
BRANCH  22  27
HETATM   27  O10 UNL     1      -5.023  -0.118   1.350  1.00  0.00    -0.316 OA
BRANCH  27  28
HETATM   28  C19 UNL     1      -4.736  -1.290   1.955  1.00  0.00     0.255 C 
HETATM   29  C20 UNL     1      -5.711  -2.439   1.926  1.00  0.00     0.126 C 
HETATM   30  O11 UNL     1      -3.667  -1.467   2.555  1.00  0.00    -0.266 OA
ENDBRANCH  27  28
ENDBRANCH  22  27
ENDBRANCH  21  22
ENDBRANCH  18  21
ENDBRANCH  11  18
BRANCH  12  31
HETATM   31  O12 UNL     1      -2.001  -1.780  -1.186  1.00  0.00    -0.313 OA
BRANCH  31  32
HETATM   32  C22 UNL     1      -2.053  -2.920  -0.363  1.00  0.00     0.255 C 
HETATM   33  C23 UNL     1      -3.056  -3.974  -0.562  1.00  0.00     0.126 C 
HETATM   34  O13 UNL     1      -1.211  -3.004   0.549  1.00  0.00    -0.266 OA
ENDBRANCH  31  32
ENDBRANCH  12  31
BRANCH   9  35
HETATM   35  O6  UNL     1       0.055   3.272  -0.223  1.00  0.00    -0.371 OA
ATOM     36  H6  UNL     1      -0.716   3.827  -0.225  1.00  0.00     0.212 HD
ENDBRANCH   9  35
BRANCH  13  37
HETATM   37  C25 UNL     1      -0.379  -1.515  -3.223  1.00  0.00     0.133 C 
HETATM   38  C26 UNL     1       0.132  -1.371  -4.649  1.00  0.00     0.091 C 
HETATM   39  O14 UNL     1      -0.816  -2.643  -3.025  1.00  0.00    -0.298 OA
ENDBRANCH  13  37
BRANCH  14  40
HETATM   40  O15 UNL     1       1.244   1.094  -3.119  1.00  0.00    -0.383 OA
ATOM     41  H15 UNL     1       0.495   1.654  -3.284  1.00  0.00     0.210 HD
ENDBRANCH  14  40
BRANCH   7  42
HETATM   42  O5  UNL     1       2.364   3.168  -0.859  1.00  0.00    -0.362 OA
ATOM     43  H5  UNL     1       2.041   3.415  -1.717  1.00  0.00     0.213 HD
ENDBRANCH   7  42
BRANCH   1  44
HETATM   44  O1  UNL     1       2.175  -1.819  -2.455  1.00  0.00    -0.351 OA
HETATM   45  C1  UNL     1       3.215  -2.647  -2.550  1.00  0.00     0.205 C 
ENDBRANCH   1  44
BRANCH  15  46
HETATM   46  O16 UNL     1       4.602   1.961  -1.253  1.00  0.00    -0.371 OA
ATOM     47  H16 UNL     1       4.687   2.515  -2.020  1.00  0.00     0.211 HD
ENDBRANCH  15  46
BRANCH   5  48
HETATM   48  O2  UNL     1       4.467   0.022   0.833  1.00  0.00    -0.252 OA
BRANCH  48  49
HETATM   49  C4  UNL     1       5.565  -0.736   0.692  1.00  0.00     0.287 C 
HETATM   50  O3  UNL     1       5.682  -1.371  -0.381  1.00  0.00    -0.260 OA
BRANCH  49  51
HETATM   51  C5  UNL     1       6.613  -0.849   1.727  1.00  0.00     0.084 C 
HETATM   52  C6  UNL     1       6.539  -0.209   2.866  1.00  0.00    -0.082 C 
HETATM   53  C7  UNL     1       5.417   0.683   3.235  1.00  0.00     0.043 C 
HETATM   54  C8  UNL     1       7.637  -0.382   3.852  1.00  0.00     0.043 C 
ENDBRANCH  49  51
ENDBRANCH  48  49
ENDBRANCH   5  48
TORSDOF 19
