REMARK  18 active torsions:
REMARK  status: ('A' for Active; 'I' for Inactive)
REMARK    1  A    between atoms: O1_2  and  C2_3 
REMARK    2  A    between atoms: C2_3  and  C3_4 
REMARK    3  A    between atoms: C9_10  and  O2_11 
REMARK    4  A    between atoms: C10_14  and  C11_15 
REMARK    5  A    between atoms: C12_19  and  C13_20 
REMARK    6  A    between atoms: C13_20  and  O7_21 
REMARK    7  A    between atoms: C14_23  and  O8_24 
REMARK    8  A    between atoms: O8_24  and  C15_25 
REMARK    9  A    between atoms: C15_25  and  C16_26 
REMARK   10  A    between atoms: C16_26  and  O9_28 
REMARK   11  A    between atoms: C19_32  and  O11_33 
REMARK   12  A    between atoms: O11_33  and  C20_34 
REMARK   13  A    between atoms: C20_34  and  C21_36 
REMARK   14  A    between atoms: C21_36  and  O13_37 
REMARK   15  A    between atoms: C21_36  and  C22_39 
REMARK   16  A    between atoms: C22_39  and  O14_40 
REMARK   17  A    between atoms: C22_39  and  C23_42 
REMARK   18  A    between atoms: C23_42  and  O15_43 
ROOT
HETATM    1  C3  UNL     1      -4.196   0.646  -0.349  1.00  0.00     0.096 C 
HETATM    2  C4  UNL     1      -3.591   1.992  -0.605  1.00  0.00     0.025 C 
HETATM    3  C5  UNL     1      -2.254   1.955  -1.222  1.00  0.00     0.009 C 
HETATM    4  C6  UNL     1      -1.260   1.071  -0.438  1.00  0.00     0.025 C 
HETATM    5  C7  UNL     1      -1.930  -0.310  -0.367  1.00  0.00     0.028 C 
HETATM    6  C8  UNL     1      -1.019  -1.111   0.559  1.00  0.00     0.079 C 
HETATM    7  C9  UNL     1       0.208  -1.493  -0.244  1.00  0.00     0.198 C 
HETATM    8  O3  UNL     1      -0.043  -1.696  -1.554  1.00  0.00    -0.284 OA
HETATM    9  C10 UNL     1       0.453  -0.795  -2.442  1.00  0.00     0.381 C 
HETATM   10  O6  UNL     1       1.864  -0.655  -2.319  1.00  0.00    -0.313 OA
HETATM   11  C12 UNL     1       2.151   0.631  -1.866  1.00  0.00     0.191 C 
HETATM   12  C14 UNL     1       1.298   0.771  -0.595  1.00  0.00     0.147 C 
HETATM   13  C18 UNL     1      -0.030   1.131  -1.200  1.00  0.00     0.172 C 
HETATM   14  O10 UNL     1      -0.189   0.428  -2.399  1.00  0.00    -0.315 OA
HETATM   15  C19 UNL     1       1.317  -0.528   0.104  1.00  0.00     0.234 C 
HETATM   16  C24 UNL     1      -3.218  -0.183   0.397  1.00  0.00     0.150 C 
HETATM   17  O16 UNL     1      -3.815  -1.403   0.684  1.00  0.00    -0.348 OA
HETATM   18  C25 UNL     1      -4.731  -1.159   1.707  1.00  0.00     0.166 C 
HETATM   19  C26 UNL     1      -4.048  -0.751   2.989  1.00  0.00     0.079 C 
HETATM   20  C27 UNL     1      -5.527  -2.430   2.029  1.00  0.00     0.079 C 
HETATM   21  O17 UNL     1      -5.687  -0.174   1.390  1.00  0.00    -0.283 OA
HETATM   22  C28 UNL     1      -5.347   0.897   0.612  1.00  0.00     0.275 C 
HETATM   23  O18 UNL     1      -5.894   2.010   0.642  1.00  0.00    -0.264 OA
ENDROOT
BRANCH  15  24
HETATM   24  O11 UNL     1       2.499  -1.292   0.058  1.00  0.00    -0.305 OA
BRANCH  24  25
HETATM   25  C20 UNL     1       3.189  -1.697   1.191  1.00  0.00     0.291 C 
HETATM   26  O12 UNL     1       2.662  -1.299   2.294  1.00  0.00    -0.262 OA
BRANCH  25  27
HETATM   27  C21 UNL     1       4.400  -2.504   1.177  1.00  0.00     0.248 C 
BRANCH  27  28
HETATM   28  O13 UNL     1       4.856  -2.787   2.480  1.00  0.00    -0.383 OA
ATOM     29  H13 UNL     1       5.647  -3.314   2.471  1.00  0.00     0.210 HD
ENDBRANCH  27  28
BRANCH  27  30
HETATM   30  C22 UNL     1       5.559  -1.987   0.404  1.00  0.00     0.180 C 
BRANCH  30  31
HETATM   31  O14 UNL     1       6.604  -2.939   0.350  1.00  0.00    -0.390 OA
ATOM     32  H14 UNL     1       7.345  -2.608  -0.144  1.00  0.00     0.210 HD
ENDBRANCH  30  31
BRANCH  30  33
HETATM   33  C23 UNL     1       6.162  -0.756   1.078  1.00  0.00     0.199 C 
BRANCH  33  34
HETATM   34  O15 UNL     1       7.230  -0.243   0.382  1.00  0.00    -0.398 OA
ATOM     35  H15 UNL     1       7.605   0.523   0.801  1.00  0.00     0.209 HD
ENDBRANCH  33  34
ENDBRANCH  30  33
ENDBRANCH  27  30
ENDBRANCH  25  27
ENDBRANCH  24  25
ENDBRANCH  15  24
BRANCH   7  36
HETATM   36  O2  UNL     1       0.596  -2.738   0.303  1.00  0.00    -0.363 OA
ATOM     37  H2  UNL     1       1.365  -2.977  -0.200  1.00  0.00     0.213 HD
ENDBRANCH   7  36
BRANCH  12  38
HETATM   38  O8  UNL     1       1.910   1.730   0.131  1.00  0.00    -0.369 OA
BRANCH  38  39
HETATM   39  C15 UNL     1       1.489   2.169   1.310  1.00  0.00     0.200 C 
BRANCH  39  40
HETATM   40  C16 UNL     1       2.482   3.259   1.784  1.00  0.00     0.138 C 
HETATM   41  C17 UNL     1       1.963   3.729   3.136  1.00  0.00     0.041 C 
BRANCH  40  42
HETATM   42  O9  UNL     1       2.536   4.309   0.897  1.00  0.00    -0.394 OA
ATOM     43  H9  UNL     1       3.145   4.978   1.188  1.00  0.00     0.210 HD
ENDBRANCH  40  42
ENDBRANCH  39  40
ENDBRANCH  38  39
ENDBRANCH  12  38
BRANCH  11  44
HETATM   44  C13 UNL     1       3.565   0.935  -1.776  1.00  0.00     0.199 C 
BRANCH  44  45
HETATM   45  O7  UNL     1       3.941   2.188  -1.354  1.00  0.00    -0.398 OA
ATOM     46  H7  UNL     1       4.868   2.387  -1.295  1.00  0.00     0.209 HD
ENDBRANCH  44  45
ENDBRANCH  11  44
BRANCH   9  47
HETATM   47  C11 UNL     1       0.245  -1.331  -3.812  1.00  0.00     0.271 C 
HETATM   48  O4  UNL     1      -0.311  -2.443  -3.967  1.00  0.00    -0.642 OA
HETATM   49  O5  UNL     1       0.641  -0.653  -4.953  1.00  0.00    -0.642 OA
ENDBRANCH   9  47
BRANCH   1  50
HETATM   50  C2  UNL     1      -4.802  -0.001  -1.536  1.00  0.00     0.189 C 
BRANCH  50  51
HETATM   51  O1  UNL     1      -3.987  -0.249  -2.602  1.00  0.00    -0.395 OA
HETATM   52  C1  UNL     1      -4.761  -0.858  -3.598  1.00  0.00     0.201 C 
ENDBRANCH  50  51
ENDBRANCH   1  50
TORSDOF 18
