REMARK  13 active torsions:
REMARK  status: ('A' for Active; 'I' for Inactive)
REMARK    1  A    between atoms: C2_2  and  C3_4 
REMARK    2  A    between atoms: C3_4  and  O2_5 
REMARK    3  A    between atoms: O2_5  and  C4_6 
REMARK    4  A    between atoms: C4_6  and  C5_8 
REMARK       I    between atoms: N1_27  and  C19_28 
REMARK    5  A    between atoms: C19_28  and  C20_30 
REMARK    6  A    between atoms: C20_30  and  C21_31 
REMARK    7  A    between atoms: C21_31  and  C22_32 
REMARK       I    between atoms: C22_32  and  N2_34 
REMARK    8  A    between atoms: N2_34  and  C23_36 
REMARK    9  A    between atoms: C23_36  and  N3_37 
REMARK   10  A    between atoms: N3_37  and  C24_40 
REMARK   11  A    between atoms: C24_40  and  C25_41 
REMARK   12  A    between atoms: C26_44  and  O11_45 
REMARK   13  A    between atoms: O11_45  and  C27_46 
ROOT
HETATM    1  C5  UNL     1      -2.587  -2.581   0.392  1.00  0.00     0.135 C 
HETATM    2  C6  UNL     1      -3.712  -2.292  -0.295  1.00  0.00     0.170 C 
HETATM    3  O4  UNL     1      -3.815  -1.343  -1.264  1.00  0.00    -0.358 OA
HETATM    4  C7  UNL     1      -4.547  -0.202  -1.483  1.00  0.00     0.200 C 
HETATM    5  C8  UNL     1      -5.883  -0.384  -2.153  1.00  0.00     0.194 C 
HETATM    6  O5  UNL     1      -6.932   0.109  -1.417  1.00  0.00    -0.387 OA
HETATM    7  C9  UNL     1      -7.620   1.037  -2.190  1.00  0.00     0.193 C 
HETATM    8  C10 UNL     1      -8.041   2.247  -1.417  1.00  0.00     0.193 C 
HETATM    9  O6  UNL     1      -7.001   3.170  -1.454  1.00  0.00    -0.389 OA
HETATM   10  C11 UNL     1      -6.601   3.472  -0.136  1.00  0.00     0.169 C 
HETATM   11  C12 UNL     1      -6.009   4.854  -0.172  1.00  0.00     0.052 C 
HETATM   12  C13 UNL     1      -4.731   4.944   0.596  1.00  0.00     0.169 C 
HETATM   13  O7  UNL     1      -4.370   3.698   1.084  1.00  0.00    -0.391 OA
HETATM   14  C14 UNL     1      -3.083   3.717   1.638  1.00  0.00     0.169 C 
HETATM   15  C15 UNL     1      -3.010   2.568   2.614  1.00  0.00     0.052 C 
HETATM   16  C16 UNL     1      -1.588   2.079   2.705  1.00  0.00     0.169 C 
HETATM   17  O8  UNL     1      -1.220   1.449   1.520  1.00  0.00    -0.389 OA
HETATM   18  C17 UNL     1      -1.246   0.061   1.641  1.00  0.00     0.188 C 
HETATM   19  C18 UNL     1      -1.101  -0.512   0.250  1.00  0.00     0.158 C 
HETATM   20  N1  UNL     1      -1.319  -1.962   0.207  1.00  0.00    -0.309 N 
HETATM   21  C19 UNL     1      -0.155  -2.742  -0.051  1.00  0.00     0.225 C 
HETATM   22  O9  UNL     1      -0.182  -3.996  -0.151  1.00  0.00    -0.273 OA
ENDROOT
BRANCH   1  23
HETATM   23  C4  UNL     1      -2.670  -3.639   1.403  1.00  0.00     0.312 C 
HETATM   24  O3  UNL     1      -3.777  -4.254   1.602  1.00  0.00    -0.258 OA
BRANCH  23  25
HETATM   25  O2  UNL     1      -1.641  -4.067   2.209  1.00  0.00    -0.309 OA
BRANCH  25  26
HETATM   26  C3  UNL     1      -1.673  -5.063   3.186  1.00  0.00     0.256 C 
BRANCH  26  27
HETATM   27  C2  UNL     1      -1.990  -6.425   2.732  1.00  0.00     0.147 C 
HETATM   28  C1  UNL     1      -2.249  -6.892   1.369  1.00  0.00     0.093 C 
HETATM   29  O1  UNL     1      -2.038  -7.282   3.639  1.00  0.00    -0.296 OA
ENDBRANCH  26  27
ENDBRANCH  25  26
ENDBRANCH  23  25
ENDBRANCH   1  23
BRANCH  21  30
HETATM   30  C20 UNL     1       1.163  -2.044  -0.211  1.00  0.00     0.112 C 
BRANCH  30  31
HETATM   31  C21 UNL     1       2.275  -3.071  -0.403  1.00  0.00     0.112 C 
BRANCH  31  32
HETATM   32  C22 UNL     1       3.573  -2.365  -0.568  1.00  0.00     0.219 C 
HETATM   33  O10 UNL     1       3.607  -1.115  -0.538  1.00  0.00    -0.274 OA
HETATM   34  N2  UNL     1       4.749  -3.102  -0.755  1.00  0.00    -0.338 N 
ATOM     35  H2  UNL     1       4.676  -4.119  -0.774  1.00  0.00     0.164 HD
BRANCH  34  36
HETATM   36  C23 UNL     1       6.053  -2.519  -0.922  1.00  0.00     0.357 C 
BRANCH  36  37
HETATM   37  N3  UNL     1       6.414  -1.773   0.238  1.00  0.00    -0.056 N 
ATOM     38  H32 UNL     1       5.722  -1.059   0.463  1.00  0.00     0.279 HD
ATOM     39  H31 UNL     1       6.337  -2.329   1.089  1.00  0.00     0.279 HD
BRANCH  37  40
HETATM   40  C24 UNL     1       7.725  -1.218   0.077  1.00  0.00     0.284 C 
BRANCH  40  41
HETATM   41  C25 UNL     1       7.826  -0.144  -0.968  1.00  0.00     0.260 C 
HETATM   42  N4  UNL     1       9.194   0.359  -0.954  1.00  0.00    -0.110 NA
HETATM   43  N5  UNL     1       9.085   1.506  -0.124  1.00  0.00    -0.086 NA
HETATM   44  C26 UNL     1       7.829   2.052  -0.601  1.00  0.00     0.381 C 
HETATM   45  O13 UNL     1       7.015   0.952  -0.715  1.00  0.00    -0.321 OA
BRANCH  44  46
HETATM   46  O11 UNL     1       7.987   2.780  -1.766  1.00  0.00    -0.298 OA
BRANCH  46  47
HETATM   47  C27 UNL     1       7.663   4.116  -1.605  1.00  0.00     0.405 C 
HETATM   48  N6  UNL     1       8.841   4.924  -1.955  1.00  0.00    -0.058 NA
HETATM   49  N7  UNL     1       8.314   4.855  -3.256  1.00  0.00     0.020 NA
HETATM   50  O12 UNL     1       7.073   4.744  -2.683  1.00  0.00    -0.219 OA
ENDBRANCH  46  47
ENDBRANCH  44  46
ENDBRANCH  40  41
ENDBRANCH  37  40
ENDBRANCH  36  37
ENDBRANCH  34  36
ENDBRANCH  31  32
ENDBRANCH  30  31
ENDBRANCH  21  30
TORSDOF 13
