REMARK  5 active torsions:
REMARK  status: ('A' for Active; 'I' for Inactive)
REMARK    1  A    between atoms: C2_2  and  C5_5 
REMARK    2  A    between atoms: C6_10  and  O1_11 
REMARK    3  A    between atoms: C7_13  and  C8_14 
REMARK    4  A    between atoms: C8_14  and  C9_15 
REMARK    5  A    between atoms: C9_15  and  C10_16 
ROOT
HETATM    1  C10 UNL     1       0.515  -1.521   0.391  1.00  0.00     0.123 A 
HETATM    2  N3  UNL     1       1.579  -2.381   0.526  1.00  0.00    -0.284 N 
ATOM      3  H3  UNL     1       1.510  -3.376   0.738  1.00  0.00     0.188 HD
HETATM    4  N4  UNL     1       2.693  -1.724   0.340  1.00  0.00    -0.285 N 
ATOM      5  H4  UNL     1       3.627  -2.131   0.385  1.00  0.00     0.188 HD
HETATM    6  C11 UNL     1       2.427  -0.438   0.081  1.00  0.00     0.136 A 
HETATM    7  N5  UNL     1       1.097  -0.316   0.115  1.00  0.00    -0.317 N 
HETATM    8  C12 UNL     1       0.490   0.968  -0.094  1.00  0.00     0.159 C 
HETATM    9  C13 UNL     1       1.488   2.062  -0.162  1.00  0.00     0.254 C 
HETATM   10  N6  UNL     1       2.695   1.766  -0.840  1.00  0.00    -0.058 N 
ATOM     11  H61 UNL     1       3.294   2.588  -0.912  1.00  0.00     0.278 HD
ATOM     12  H62 UNL     1       2.534   1.600  -1.833  1.00  0.00     0.278 HD
HETATM   13  C14 UNL     1       3.398   0.645  -0.217  1.00  0.00     0.184 C 
HETATM   14  C15 UNL     1       4.396   0.146  -1.233  1.00  0.00     0.047 C 
HETATM   15  C16 UNL     1       5.813   0.483  -0.758  1.00  0.00     0.003 C 
HETATM   16  C17 UNL     1       6.016  -0.272   0.534  1.00  0.00     0.000 C 
HETATM   17  C18 UNL     1       5.125   0.320   1.577  1.00  0.00     0.003 C 
HETATM   18  C19 UNL     1       4.033   1.186   1.040  1.00  0.00     0.047 C 
ENDROOT
BRANCH   1  19
HETATM   19  C9  UNL     1      -0.873  -1.924   0.535  1.00  0.00     0.051 C 
BRANCH  19  20
HETATM   20  C8  UNL     1      -1.948  -1.243   0.346  1.00  0.00     0.022 C 
BRANCH  20  21
HETATM   21  C7  UNL     1      -3.315  -1.716   0.513  1.00  0.00     0.041 A 
HETATM   22  C5  UNL     1      -4.465  -0.945   0.299  1.00  0.00     0.048 A 
HETATM   23  N1  UNL     1      -5.505  -1.737   0.558  1.00  0.00    -0.301 N 
HETATM   24  N2  UNL     1      -5.098  -2.919   0.910  1.00  0.00    -0.279 N 
ATOM     25  H1  UNL     1      -6.483  -1.455   0.489  1.00  0.00     0.186 HD
HETATM   26  C6  UNL     1      -3.727  -2.963   0.900  1.00  0.00     0.167 A 
ATOM     27  H2  UNL     1      -5.707  -3.699   1.157  1.00  0.00     0.189 HD
BRANCH  22  28
HETATM   28  C2  UNL     1      -4.465   0.447  -0.125  1.00  0.00    -0.006 C 
HETATM   29  C1  UNL     1      -5.919   0.914  -0.241  1.00  0.00     0.021 C 
HETATM   30  C3  UNL     1      -3.866   0.610  -1.525  1.00  0.00     0.021 C 
HETATM   31  C4  UNL     1      -3.805   1.385   0.863  1.00  0.00     0.021 C 
ENDBRANCH  22  28
BRANCH  26  32
HETATM   32  O1  UNL     1      -2.984  -4.101   1.233  1.00  0.00    -0.344 OA
ATOM     33  H1  UNL     1      -2.035  -4.131   1.226  1.00  0.00     0.219 HD
ENDBRANCH  26  32
ENDBRANCH  20  21
ENDBRANCH  19  20
ENDBRANCH   1  19
TORSDOF 5
