REMARK  9 active torsions:
REMARK  status: ('A' for Active; 'I' for Inactive)
REMARK    1  A    between atoms: C2_2  and  C3_3 
REMARK    2  A    between atoms: C3_3  and  C4_4 
REMARK    3  A    between atoms: C4_4  and  C5_5 
REMARK    4  A    between atoms: C4_4  and  C8_8 
REMARK    5  A    between atoms: C5_5  and  C6_6 
REMARK    6  A    between atoms: C8_8  and  C9_10 
REMARK    7  A    between atoms: C9_10  and  C10_11 
REMARK    8  A    between atoms: C10_11  and  C11_12 
REMARK    9  A    between atoms: C14_15  and  C15_16 
ROOT
HETATM    1  C9  UNL     1       0.294  -0.264  -1.112  1.00  0.00     0.083 C 
ENDROOT
BRANCH   1   2
HETATM    2  C8  UNL     1      -1.150  -0.522  -1.150  1.00  0.00     0.132 C 
HETATM    3  O1  UNL     1      -1.696  -0.704  -2.274  1.00  0.00    -0.298 OA
BRANCH   2   4
HETATM    4  C4  UNL     1      -2.101  -0.608  -0.021  1.00  0.00     0.062 C 
BRANCH   4   5
HETATM    5  C3  UNL     1      -3.477  -1.058  -0.535  1.00  0.00     0.038 C 
BRANCH   5   6
HETATM    6  C2  UNL     1      -4.455  -1.303   0.534  1.00  0.00    -0.036 C 
HETATM    7  C1  UNL     1      -4.965  -2.522   0.680  1.00  0.00     0.007 C 
ENDBRANCH   5   6
ENDBRANCH   4   5
BRANCH   4   8
HETATM    8  C5  UNL     1      -2.338   0.679   0.722  1.00  0.00     0.038 C 
BRANCH   8   9
HETATM    9  C6  UNL     1      -2.907   1.740  -0.147  1.00  0.00    -0.036 C 
HETATM   10  C7  UNL     1      -4.074   2.288   0.121  1.00  0.00     0.007 C 
ENDBRANCH   8   9
ENDBRANCH   4   8
ENDBRANCH   2   4
ENDBRANCH   1   2
BRANCH   1  11
HETATM   11  C10 UNL     1       0.798   0.309   0.153  1.00  0.00     0.046 C 
BRANCH  11  12
HETATM   12  C11 UNL     1       2.276   0.502   0.155  1.00  0.00    -0.052 A 
HETATM   13  C12 UNL     1       2.816   1.749  -0.031  1.00  0.00     0.008 A 
HETATM   14  C13 UNL     1       4.172   1.996  -0.050  1.00  0.00     0.015 A 
HETATM   15  C14 UNL     1       5.024   0.911   0.133  1.00  0.00     0.002 A 
HETATM   16  C16 UNL     1       4.472  -0.339   0.320  1.00  0.00     0.021 A 
HETATM   17  C17 UNL     1       3.114  -0.586   0.338  1.00  0.00    -0.055 A 
HETATM   18  C18 UNL     1       2.546  -1.936   0.543  1.00  0.00     0.049 C 
BRANCH  15  19
HETATM   19  C15 UNL     1       6.463   1.098   0.123  1.00  0.00     0.269 C 
HETATM   20  O2  UNL     1       6.984   2.225  -0.049  1.00  0.00    -0.301 OA
ENDBRANCH  15  19
ENDBRANCH  11  12
ENDBRANCH   1  11
TORSDOF 9
