REMARK  8 active torsions:
REMARK  status: ('A' for Active; 'I' for Inactive)
REMARK    1  A    between atoms: C2_2  and  C3_3 
REMARK    2  A    between atoms: C3_3  and  C4_4 
REMARK    3  A    between atoms: C7_7  and  O1_8 
REMARK    4  A    between atoms: O1_8  and  C8_9 
REMARK    5  A    between atoms: C8_9  and  C9_10 
REMARK    6  A    between atoms: C9_10  and  C10_11 
REMARK    7  A    between atoms: C10_11  and  C11_12 
REMARK    8  A    between atoms: C11_12  and  O2_13 
ROOT
HETATM    1  O1  UNL     1       0.301   0.415   0.547  1.00  0.00    -0.350 OA
ENDROOT
BRANCH   1   2
HETATM    2  C7  UNL     1       1.542   0.028   0.107  1.00  0.00     0.077 A 
HETATM    3  C5  UNL     1       2.638   0.876  -0.326  1.00  0.00    -0.025 A 
HETATM    4  C4  UNL     1       3.700   0.176  -0.688  1.00  0.00    -0.064 A 
HETATM    5  C6  UNL     1       2.628   2.386  -0.379  1.00  0.00     0.051 C 
HETATM    6  C18 UNL     1       3.342  -1.254  -0.503  1.00  0.00     0.071 A 
HETATM    7  C16 UNL     1       1.948  -1.220   0.006  1.00  0.00    -0.046 A 
HETATM    8  C17 UNL     1       1.193  -2.471   0.329  1.00  0.00     0.046 C 
BRANCH   4   9
HETATM    9  C3  UNL     1       5.014   0.661  -1.187  1.00  0.00     0.061 C 
BRANCH   9  10
HETATM   10  C2  UNL     1       6.129   0.230  -0.303  1.00  0.00    -0.033 C 
HETATM   11  C1  UNL     1       7.102  -0.524  -0.787  1.00  0.00     0.007 C 
ENDBRANCH   9  10
ENDBRANCH   4   9
ENDBRANCH   1   2
BRANCH   1  12
HETATM   12  C8  UNL     1      -0.906   0.085  -0.152  1.00  0.00     0.176 C 
BRANCH  12  13
HETATM   13  C9  UNL     1      -2.032   0.670   0.621  1.00  0.00     0.038 C 
BRANCH  13  14
HETATM   14  C10 UNL     1      -3.387   0.433   0.046  1.00  0.00    -0.017 C 
HETATM   15  C12 UNL     1      -4.481   1.000   0.908  1.00  0.00     0.012 C 
HETATM   16  C13 UNL     1      -5.032  -0.117   1.741  1.00  0.00     0.001 C 
HETATM   17  C14 UNL     1      -4.100  -1.282   1.484  1.00  0.00     0.001 C 
HETATM   18  C15 UNL     1      -3.713  -1.040   0.028  1.00  0.00     0.012 C 
BRANCH  14  19
HETATM   19  C11 UNL     1      -3.560   0.994  -1.338  1.00  0.00     0.173 C 
BRANCH  19  20
HETATM   20  O2  UNL     1      -4.879   0.689  -1.733  1.00  0.00    -0.400 OA
ATOM     21  H2  UNL     1      -4.988   1.044  -2.608  1.00  0.00     0.209 HD
ENDBRANCH  19  20
ENDBRANCH  14  19
ENDBRANCH  13  14
ENDBRANCH  12  13
ENDBRANCH   1  12
TORSDOF 8
