REMARK  10 active torsions:
REMARK  status: ('A' for Active; 'I' for Inactive)
REMARK    1  A    between atoms: C2_2  and  C3_3 
REMARK    2  A    between atoms: C3_3  and  C4_4 
REMARK    3  A    between atoms: C4_4  and  C5_5 
REMARK    4  A    between atoms: C5_5  and  C6_6 
REMARK    5  A    between atoms: C6_6  and  C7_7 
REMARK    6  A    between atoms: C7_7  and  C8_9 
REMARK    7  A    between atoms: C8_9  and  C9_10 
REMARK    8  A    between atoms: C9_10  and  O2_11 
REMARK    9  A    between atoms: C9_10  and  C10_13 
REMARK   10  A    between atoms: C10_13  and  C11_14 
ROOT
HETATM    1  C9  UNL     1      -1.028   2.055  -0.824  1.00  0.00     0.129 C 
ENDROOT
BRANCH   1   2
HETATM    2  C8  UNL     1      -0.237   0.789  -0.941  1.00  0.00     0.110 C 
BRANCH   2   3
HETATM    3  C7  UNL     1       0.748   0.706   0.156  1.00  0.00     0.129 C 
HETATM    4  O1  UNL     1       0.913   1.643   0.901  1.00  0.00    -0.298 OA
BRANCH   3   5
HETATM    5  C6  UNL     1       1.558  -0.535   0.366  1.00  0.00     0.078 C 
BRANCH   5   6
HETATM    6  C5  UNL     1       2.914  -0.229  -0.272  1.00  0.00     0.007 C 
BRANCH   6   7
HETATM    7  C4  UNL     1       3.844  -1.398  -0.138  1.00  0.00     0.000 C 
BRANCH   7   8
HETATM    8  C3  UNL     1       5.155  -1.059  -0.792  1.00  0.00    -0.000 C 
BRANCH   8   9
HETATM    9  C2  UNL     1       5.791   0.133  -0.150  1.00  0.00    -0.005 C 
HETATM   10  C1  UNL     1       6.036  -0.151   1.326  1.00  0.00     0.005 C 
ENDBRANCH   8   9
ENDBRANCH   7   8
ENDBRANCH   6   7
ENDBRANCH   5   6
ENDBRANCH   3   5
ENDBRANCH   2   3
ENDBRANCH   1   2
BRANCH   1  11
HETATM   11  O2  UNL     1      -1.926   2.113  -1.945  1.00  0.00    -0.395 OA
ATOM     12  H2  UNL     1      -2.428   2.916  -1.871  1.00  0.00     0.210 HD
ENDBRANCH   1  11
BRANCH   1  13
HETATM   13  C10 UNL     1      -1.862   2.064   0.424  1.00  0.00     0.070 C 
BRANCH  13  14
HETATM   14  C11 UNL     1      -2.818   0.938   0.396  1.00  0.00    -0.055 A 
HETATM   15  C12 UNL     1      -2.656  -0.279   0.975  1.00  0.00     0.013 A 
HETATM   16  C13 UNL     1      -3.605  -1.291   0.893  1.00  0.00    -0.061 A 
HETATM   17  C14 UNL     1      -3.387  -2.611   1.542  1.00  0.00     0.048 C 
HETATM   18  C15 UNL     1      -4.760  -1.041   0.191  1.00  0.00     0.013 A 
HETATM   19  C16 UNL     1      -4.968   0.193  -0.419  1.00  0.00    -0.061 A 
HETATM   20  C17 UNL     1      -6.227   0.472  -1.186  1.00  0.00     0.048 C 
HETATM   21  C18 UNL     1      -4.002   1.171  -0.313  1.00  0.00     0.013 A 
ENDBRANCH  13  14
ENDBRANCH   1  13
TORSDOF 10
