REMARK  3 active torsions:
REMARK  status: ('A' for Active; 'I' for Inactive)
REMARK    1  A    between atoms: C3_4  and  N2_5 
REMARK    2  A    between atoms: C9_16  and  N6_17 
REMARK    3  A    between atoms: N6_17  and  N7_19 
ROOT
HETATM    1  N1  UNL     1       0.067  -2.595   1.498  1.00  0.00    -0.191 NA
HETATM    2  C1  UNL     1       0.590  -1.687   1.022  1.00  0.00     0.107 C 
HETATM    3  C2  UNL     1       1.217  -0.549   0.409  1.00  0.00     0.133 A 
HETATM    4  C3  UNL     1       0.387   0.323  -0.263  1.00  0.00     0.130 A 
HETATM    5  N3  UNL     1       0.908   1.405  -0.883  1.00  0.00    -0.315 N 
ATOM      6  H3  UNL     1       0.287   2.045  -1.379  1.00  0.00     0.170 HD
HETATM    7  C8  UNL     1       2.235   1.656  -0.859  1.00  0.00     0.195 A 
HETATM    8  N4  UNL     1       2.720   2.814  -1.526  1.00  0.00    -0.063 NA
HETATM    9  N5  UNL     1       3.044   0.811  -0.207  1.00  0.00    -0.314 N 
ATOM     10  H5  UNL     1       4.046   1.000  -0.189  1.00  0.00     0.170 HD
HETATM   11  C9  UNL     1       2.562  -0.305   0.439  1.00  0.00     0.146 A 
ENDROOT
BRANCH   4  12
HETATM   12  N2  UNL     1      -1.043   0.129  -0.314  1.00  0.00    -0.366 N 
HETATM   13  C4  UNL     1      -1.776  -0.825  -1.098  1.00  0.00     0.124 C 
HETATM   14  C5  UNL     1      -3.115  -0.952  -0.389  1.00  0.00     0.021 C 
HETATM   15  C6  UNL     1      -3.185   0.120   0.652  1.00  0.00     0.021 C 
HETATM   16  C7  UNL     1      -1.954   0.959   0.465  1.00  0.00     0.124 C 
ENDBRANCH   4  12
BRANCH  11  17
HETATM   17  N6  UNL     1       3.354  -1.071   1.059  1.00  0.00    -0.291 N 
ATOM     18  H6  UNL     1       4.334  -0.793   1.005  1.00  0.00     0.188 HD
BRANCH  17  19
HETATM   19  N7  UNL     1       3.132  -2.199   1.785  1.00  0.00    -0.344 N 
ATOM     20  H72 UNL     1       2.147  -2.459   1.826  1.00  0.00     0.176 HD
ATOM     21  H71 UNL     1       3.771  -2.817   2.285  1.00  0.00     0.176 HD
ENDBRANCH  17  19
ENDBRANCH  11  17
TORSDOF 3
