REMARK  4 active torsions:
REMARK  status: ('A' for Active; 'I' for Inactive)
REMARK    1  A    between atoms: C2_2  and  O1_4 
REMARK    2  A    between atoms: O1_4  and  C4_5 
REMARK    3  A    between atoms: C4_5  and  C5_7 
REMARK    4  A    between atoms: C7_12  and  N3_13 
ROOT
HETATM    1  C5  UNL     1      -0.298  -0.406  -0.307  1.00  0.00     0.149 A 
HETATM    2  C6  UNL     1      -0.805  -1.368  -1.186  1.00  0.00     0.153 A 
HETATM    3  N1  UNL     1       0.079  -2.168  -1.957  1.00  0.00    -0.081 NA
HETATM    4  N2  UNL     1      -2.136  -1.494  -1.261  1.00  0.00    -0.178 N 
ATOM      5  H2  UNL     1      -2.535  -2.188  -1.893  1.00  0.00     0.185 HD
HETATM    6  C7  UNL     1      -2.964  -0.725  -0.521  1.00  0.00     0.681 A 
HETATM    7  N4  UNL     1      -2.456   0.207   0.330  1.00  0.00    -0.151 N 
HETATM    8  C8  UNL     1      -3.367   1.030   1.124  1.00  0.00     0.179 C 
HETATM    9  C9  UNL     1      -1.138   0.384   0.453  1.00  0.00     0.281 A 
HETATM   10  O3  UNL     1      -0.652   1.259   1.251  1.00  0.00    -0.266 OA
ENDROOT
BRANCH   1  11
HETATM   11  C4  UNL     1       1.136  -0.214  -0.174  1.00  0.00     0.307 C 
HETATM   12  O2  UNL     1       1.909  -0.919  -0.854  1.00  0.00    -0.259 OA
BRANCH  11  13
HETATM   13  O1  UNL     1       1.662   0.725   0.682  1.00  0.00    -0.280 OA
BRANCH  13  14
HETATM   14  C2  UNL     1       3.045   0.847   0.753  1.00  0.00     0.044 C 
HETATM   15  C1  UNL     1       3.694   0.123   1.623  1.00  0.00     0.046 C 
HETATM   16  C3  UNL     1       3.804   1.772  -0.127  1.00  0.00     0.076 C 
ENDBRANCH  13  14
ENDBRANCH  11  13
ENDBRANCH   1  11
BRANCH   6  17
HETATM   17  N3  UNL     1      -4.240  -0.864  -0.609  1.00  0.00    -0.234 N 
ATOM     18  H32 UNL     1      -4.621  -1.563  -1.247  1.00  0.00     0.174 HD
ATOM     19  H31 UNL     1      -4.865  -0.283  -0.050  1.00  0.00     0.174 HD
ENDBRANCH   6  17
TORSDOF 4
