REMARK  9 active torsions:
REMARK  status: ('A' for Active; 'I' for Inactive)
REMARK    1  A    between atoms: C2_2  and  C3_3 
REMARK    2  A    between atoms: C3_3  and  C5_5 
REMARK    3  A    between atoms: C5_5  and  O2_7 
REMARK    4  A    between atoms: O2_7  and  C6_8 
REMARK    5  A    between atoms: C7_9  and  O3_10 
REMARK    6  A    between atoms: C10_15  and  C11_16 
REMARK    7  A    between atoms: C12_17  and  C13_18 
REMARK    8  A    between atoms: C25_31  and  C27_33 
REMARK    9  A    between atoms: C27_33  and  O6_34 
ROOT
HETATM    1  C6  UNL     1      -3.404  -0.213   0.875  1.00  0.00     0.169 C 
HETATM    2  C7  UNL     1      -1.979   0.283   0.867  1.00  0.00     0.155 C 
HETATM    3  C8  UNL     1      -1.149  -0.809   1.461  1.00  0.00     0.052 C 
HETATM    4  C9  UNL     1       0.155  -0.408   1.999  1.00  0.00     0.140 C 
HETATM    5  O4  UNL     1       0.688   0.813   1.582  1.00  0.00    -0.375 OA
HETATM    6  C10 UNL     1       1.948   0.247   1.887  1.00  0.00     0.155 C 
HETATM    7  C20 UNL     1       1.353  -1.067   1.396  1.00  0.00     0.012 C 
HETATM    8  C21 UNL     1       1.884  -2.268   2.129  1.00  0.00     0.021 C 
HETATM    9  C22 UNL     1       1.232  -1.159  -0.078  1.00  0.00     0.015 C 
HETATM   10  C23 UNL     1      -0.030  -1.739  -0.601  1.00  0.00     0.007 C 
HETATM   11  C24 UNL     1      -1.087  -1.972   0.463  1.00  0.00     0.006 C 
HETATM   12  C25 UNL     1      -2.402  -2.347  -0.069  1.00  0.00    -0.009 C 
HETATM   13  C26 UNL     1      -2.379  -2.441  -1.596  1.00  0.00     0.018 C 
HETATM   14  C28 UNL     1      -3.593  -1.600   0.417  1.00  0.00    -0.009 C 
HETATM   15  C29 UNL     1      -4.605  -1.572  -0.744  1.00  0.00     0.018 C 
HETATM   16  C30 UNL     1      -4.349  -2.357   1.500  1.00  0.00     0.018 C 
ENDROOT
BRANCH   6  17
HETATM   17  C11 UNL     1       3.074   0.783   1.125  1.00  0.00     0.005 C 
HETATM   18  C12 UNL     1       4.067  -0.016   0.764  1.00  0.00     0.009 C 
BRANCH  18  19
HETATM   19  C13 UNL     1       5.244   0.473  -0.016  1.00  0.00     0.075 C 
HETATM   20  C14 UNL     1       6.009  -0.724  -0.534  1.00  0.00     0.050 C 
HETATM   21  C15 UNL     1       4.745   1.262  -1.175  1.00  0.00     0.042 C 
HETATM   22  C16 UNL     1       5.808   2.109  -1.830  1.00  0.00     0.006 C 
HETATM   23  C17 UNL     1       6.753   2.721  -0.821  1.00  0.00     0.032 C 
HETATM   24  C18 UNL     1       7.210   1.602   0.091  1.00  0.00     0.119 C 
HETATM   25  C19 UNL     1       8.358   2.022   0.979  1.00  0.00     0.039 C 
HETATM   26  O5  UNL     1       6.102   1.185   0.814  1.00  0.00    -0.372 OA
ENDBRANCH  18  19
ENDBRANCH   6  17
BRANCH   2  27
HETATM   27  O3  UNL     1      -1.549   0.721  -0.368  1.00  0.00    -0.392 OA
ATOM     28  H3  UNL     1      -0.652   1.033  -0.373  1.00  0.00     0.210 HD
ENDBRANCH   2  27
BRANCH   1  29
HETATM   29  O2  UNL     1      -4.149   0.729   0.086  1.00  0.00    -0.312 OA
BRANCH  29  30
HETATM   30  C5  UNL     1      -5.081   1.587   0.650  1.00  0.00     0.263 C 
HETATM   31  O1  UNL     1      -5.237   1.492   1.889  1.00  0.00    -0.265 OA
BRANCH  30  32
HETATM   32  C3  UNL     1      -5.865   2.565  -0.117  1.00  0.00     0.081 C 
HETATM   33  C4  UNL     1      -6.767   1.918  -1.141  1.00  0.00     0.020 C 
BRANCH  32  34
HETATM   34  C2  UNL     1      -5.008   3.571  -0.842  1.00  0.00     0.010 C 
HETATM   35  C1  UNL     1      -4.058   4.294   0.060  1.00  0.00     0.006 C 
ENDBRANCH  32  34
ENDBRANCH  30  32
ENDBRANCH  29  30
ENDBRANCH   1  29
BRANCH  12  36
HETATM   36  C27 UNL     1      -2.648  -3.828   0.304  1.00  0.00     0.174 C 
BRANCH  36  37
HETATM   37  O6  UNL     1      -1.593  -4.525  -0.312  1.00  0.00    -0.400 OA
ATOM     38  H6  UNL     1      -1.744  -5.435  -0.083  1.00  0.00     0.209 HD
ENDBRANCH  36  37
ENDBRANCH  12  36
TORSDOF 9
