REMARK  8 active torsions:
REMARK  status: ('A' for Active; 'I' for Inactive)
REMARK    1  A    between atoms: O1_2  and  C2_3 
REMARK    2  A    between atoms: C3_4  and  O2_5 
REMARK    3  A    between atoms: O2_5  and  C4_6 
REMARK       I    between atoms: C4_6  and  N1_8 
REMARK    4  A    between atoms: N1_8  and  C5_10 
REMARK    5  A    between atoms: C5_10  and  C6_11 
REMARK    6  A    between atoms: C6_11  and  O4_12 
REMARK    7  A    between atoms: C18_25  and  O5_26 
REMARK    8  A    between atoms: O5_26  and  C19_27 
ROOT
HETATM    1  C2  UNL     1       3.070  -0.897  -0.481  1.00  0.00     0.159 C 
HETATM    2  C3  UNL     1       3.911   0.216   0.078  1.00  0.00     0.163 C 
HETATM    3  C7  UNL     1       3.205   1.512  -0.136  1.00  0.00     0.036 C 
HETATM    4  C8  UNL     1       1.789   1.363  -0.583  1.00  0.00     0.013 C 
HETATM    5  C9  UNL     1       1.022   0.367   0.276  1.00  0.00    -0.030 C 
HETATM    6  C10 UNL     1       1.181   0.882   1.686  1.00  0.00     0.016 C 
HETATM    7  C11 UNL     1      -0.409   0.399  -0.210  1.00  0.00    -0.001 C 
HETATM    8  C12 UNL     1      -1.200   1.555   0.193  1.00  0.00     0.006 C 
HETATM    9  C13 UNL     1      -2.314   1.359   1.157  1.00  0.00     0.007 C 
HETATM   10  C14 UNL     1      -3.114   0.115   1.019  1.00  0.00     0.004 C 
HETATM   11  C15 UNL     1      -4.606   0.328   0.939  1.00  0.00    -0.017 C 
HETATM   12  C16 UNL     1      -5.380  -0.582   1.896  1.00  0.00     0.018 C 
HETATM   13  C17 UNL     1      -5.023   1.749   1.344  1.00  0.00     0.018 C 
HETATM   14  C18 UNL     1      -5.181   0.115  -0.430  1.00  0.00     0.140 C 
HETATM   15  C21 UNL     1      -4.191   0.483  -1.478  1.00  0.00     0.034 C 
HETATM   16  C22 UNL     1      -2.988  -0.445  -1.423  1.00  0.00     0.012 C 
HETATM   17  C23 UNL     1      -2.597  -0.821  -0.048  1.00  0.00    -0.035 C 
HETATM   18  C24 UNL     1      -3.019  -2.267   0.186  1.00  0.00     0.016 C 
HETATM   19  C25 UNL     1      -1.072  -0.872   0.157  1.00  0.00    -0.001 C 
HETATM   20  C26 UNL     1      -0.534  -1.937  -0.734  1.00  0.00     0.007 C 
HETATM   21  C27 UNL     1       0.932  -1.903  -0.824  1.00  0.00     0.013 C 
HETATM   22  C28 UNL     1       1.674  -0.968   0.092  1.00  0.00    -0.008 C 
HETATM   23  C29 UNL     1       1.808  -1.638   1.443  1.00  0.00     0.019 C 
ENDROOT
BRANCH   2  24
HETATM   24  O2  UNL     1       5.117   0.217  -0.667  1.00  0.00    -0.296 OA
BRANCH  24  25
HETATM   25  C4  UNL     1       6.379  -0.012  -0.076  1.00  0.00     0.364 C 
HETATM   26  O3  UNL     1       6.305  -0.213   1.164  1.00  0.00    -0.238 OA
HETATM   27  N1  UNL     1       7.553  -0.007  -0.824  1.00  0.00    -0.314 N 
ATOM     28  H1  UNL     1       7.454   0.161  -1.825  1.00  0.00     0.170 HD
BRANCH  27  29
HETATM   29  C5  UNL     1       8.864  -0.209  -0.347  1.00  0.00     0.092 C 
BRANCH  29  30
HETATM   30  C6  UNL     1       9.357   0.826   0.594  1.00  0.00     0.208 C 
BRANCH  30  31
HETATM   31  O4  UNL     1       8.643   0.964   1.736  1.00  0.00    -0.396 OA
ATOM     32  H4  UNL     1       8.959   1.627   2.339  1.00  0.00     0.209 HD
ENDBRANCH  30  31
ENDBRANCH  29  30
ENDBRANCH  27  29
ENDBRANCH  24  25
ENDBRANCH   2  24
BRANCH   1  33
HETATM   33  O1  UNL     1       3.119  -0.920  -1.862  1.00  0.00    -0.387 OA
HETATM   34  C1  UNL     1       3.792  -2.019  -2.381  1.00  0.00     0.202 C 
ENDBRANCH   1  33
BRANCH  14  35
HETATM   35  O5  UNL     1      -6.342   0.943  -0.606  1.00  0.00    -0.316 OA
BRANCH  35  36
HETATM   36  C19 UNL     1      -7.582   0.433  -0.949  1.00  0.00     0.255 C 
HETATM   37  C20 UNL     1      -8.790   1.244  -1.137  1.00  0.00     0.126 C 
HETATM   38  O6  UNL     1      -7.671  -0.813  -1.109  1.00  0.00    -0.266 OA
ENDBRANCH  35  36
ENDBRANCH  14  35
TORSDOF 8
