REMARK  8 active torsions:
REMARK  status: ('A' for Active; 'I' for Inactive)
REMARK    1  A    between atoms: C2_2  and  C3_3 
REMARK    2  A    between atoms: C3_3  and  C4_4 
REMARK    3  A    between atoms: C7_8  and  O2_9 
REMARK    4  A    between atoms: C13_17  and  C14_18 
REMARK    5  A    between atoms: C18_23  and  C19_24 
REMARK    6  A    between atoms: C19_24  and  C20_25 
REMARK    7  A    between atoms: C20_25  and  C21_26 
REMARK    8  A    between atoms: C21_26  and  O5_29 
ROOT
HETATM    1  C4  UNL     1      -1.498  -1.380  -0.117  1.00  0.00     0.093 C 
HETATM    2  O1  UNL     1      -1.887  -0.784   1.086  1.00  0.00    -0.359 OA
HETATM    3  C5  UNL     1      -2.335   0.424   1.293  1.00  0.00     0.117 C 
HETATM    4  C6  UNL     1      -3.274   0.217   2.538  1.00  0.00     0.052 C 
HETATM    5  C7  UNL     1      -1.386   1.471   1.878  1.00  0.00     0.155 C 
HETATM    6  C8  UNL     1      -0.086   1.548   1.045  1.00  0.00     0.041 C 
HETATM    7  C9  UNL     1       0.086   0.211   0.560  1.00  0.00     0.011 C 
HETATM    8  C10 UNL     1      -0.716  -0.134  -0.655  1.00  0.00     0.058 C 
HETATM    9  C11 UNL     1      -1.494   0.949  -1.245  1.00  0.00     0.126 C 
HETATM   10  C12 UNL     1      -1.616   0.782  -2.774  1.00  0.00     0.040 C 
HETATM   11  O3  UNL     1      -2.589   1.459  -0.780  1.00  0.00    -0.370 OA
HETATM   12  C13 UNL     1      -3.207   1.171   0.353  1.00  0.00     0.227 C 
HETATM   13  C16 UNL     1       1.397  -0.441   0.371  1.00  0.00    -0.005 C 
HETATM   14  C17 UNL     1       2.145  -0.395   1.713  1.00  0.00     0.021 C 
HETATM   15  C18 UNL     1       2.198   0.099  -0.752  1.00  0.00    -0.056 C 
HETATM   16  C24 UNL     1       2.452  -0.905  -1.599  1.00  0.00    -0.018 C 
HETATM   17  C25 UNL     1       1.868  -2.187  -1.146  1.00  0.00     0.038 C 
HETATM   18  C26 UNL     1       1.085  -1.858   0.104  1.00  0.00     0.035 C 
HETATM   19  C27 UNL     1      -0.395  -2.326  -0.043  1.00  0.00    -0.023 C 
HETATM   20  C28 UNL     1      -0.398  -3.608  -0.250  1.00  0.00     0.024 C 
HETATM   21  C29 UNL     1       0.870  -4.442  -0.087  1.00  0.00     0.060 C 
HETATM   22  C30 UNL     1      -1.387  -4.454  -0.786  1.00  0.00     0.095 C 
HETATM   23  N1  UNL     1      -2.158  -5.221  -1.256  1.00  0.00    -0.192 NA
ENDROOT
BRANCH   1  24
HETATM   24  C3  UNL     1      -2.646  -1.671  -0.946  1.00  0.00     0.043 C 
BRANCH  24  25
HETATM   25  C2  UNL     1      -3.791  -2.416  -0.314  1.00  0.00    -0.001 C 
HETATM   26  C1  UNL     1      -4.894  -2.683  -1.345  1.00  0.00     0.005 C 
ENDBRANCH  24  25
ENDBRANCH   1  24
BRANCH  15  27
HETATM   27  C19 UNL     1       2.609   1.459  -1.043  1.00  0.00    -0.016 C 
BRANCH  27  28
HETATM   28  C20 UNL     1       3.566   2.218  -0.272  1.00  0.00     0.064 C 
BRANCH  28  29
HETATM   29  C21 UNL     1       5.008   1.855  -0.236  1.00  0.00     0.054 C 
HETATM   30  C22 UNL     1       5.445   0.550   0.267  1.00  0.00     0.045 C 
HETATM   31  C23 UNL     1       5.656   2.919   0.699  1.00  0.00     0.045 C 
BRANCH  29  32
HETATM   32  O5  UNL     1       5.590   2.048  -1.517  1.00  0.00    -0.390 OA
ATOM     33  H5  UNL     1       6.511   1.816  -1.494  1.00  0.00     0.210 HD
ENDBRANCH  29  32
ENDBRANCH  28  29
ENDBRANCH  27  28
ENDBRANCH  15  27
BRANCH   5  34
HETATM   34  O2  UNL     1      -1.095   1.108   3.194  1.00  0.00    -0.392 OA
ATOM     35  H2  UNL     1      -0.506   1.758   3.557  1.00  0.00     0.210 HD
ENDBRANCH   5  34
BRANCH  12  36
HETATM   36  C14 UNL     1      -3.789   2.446   0.965  1.00  0.00     0.154 C 
HETATM   37  C15 UNL     1      -3.532   3.719   0.268  1.00  0.00     0.094 C 
HETATM   38  O4  UNL     1      -4.426   2.409   1.967  1.00  0.00    -0.295 OA
ENDBRANCH  12  36
TORSDOF 8
