REMARK  9 active torsions:
REMARK  status: ('A' for Active; 'I' for Inactive)
REMARK    1  A    between atoms: C2_2  and  C3_3 
REMARK    2  A    between atoms: C5_5  and  C6_6 
REMARK    3  A    between atoms: C7_7  and  C8_8 
REMARK    4  A    between atoms: C10_10  and  O1_11 
REMARK    5  A    between atoms: C12_14  and  C14_16 
REMARK    6  A    between atoms: C14_16  and  O3_18 
REMARK    7  A    between atoms: O3_18  and  C15_19 
REMARK    8  A    between atoms: C15_19  and  C16_20 
REMARK    9  A    between atoms: C29_35  and  O6_36 
ROOT
HETATM    1  C8  UNL     1      -1.676   0.795  -0.464  1.00  0.00     0.012 C 
HETATM    2  C9  UNL     1      -2.482   0.484  -1.675  1.00  0.00     0.023 C 
HETATM    3  C10 UNL     1      -0.555   1.734  -0.845  1.00  0.00     0.132 C 
HETATM    4  C11 UNL     1       0.365   1.052  -1.810  1.00  0.00     0.052 C 
HETATM    5  C12 UNL     1       1.061  -0.163  -1.193  1.00  0.00     0.053 C 
HETATM    6  C13 UNL     1       1.596  -0.857  -2.476  1.00  0.00     0.026 C 
HETATM    7  C20 UNL     1       0.051  -1.046  -0.624  1.00  0.00     0.040 C 
HETATM    8  C21 UNL     1       0.427  -2.406  -0.131  1.00  0.00     0.071 C 
HETATM    9  C22 UNL     1       1.776  -2.614   0.370  1.00  0.00    -0.010 C 
HETATM   10  C23 UNL     1       2.489  -3.717   0.182  1.00  0.00    -0.025 C 
HETATM   11  C24 UNL     1       1.999  -4.901  -0.571  1.00  0.00     0.004 C 
HETATM   12  C25 UNL     1       2.538  -4.960  -1.982  1.00  0.00     0.014 C 
HETATM   13  C26 UNL     1       0.477  -4.854  -0.689  1.00  0.00     0.009 C 
HETATM   14  C27 UNL     1       0.169  -3.483  -1.200  1.00  0.00     0.025 C 
HETATM   15  C28 UNL     1      -0.482  -2.869   0.994  1.00  0.00     0.274 C 
HETATM   16  O4  UNL     1      -0.030  -3.470   2.016  1.00  0.00    -0.264 OA
HETATM   17  O5  UNL     1      -1.817  -2.616   0.869  1.00  0.00    -0.288 OA
HETATM   18  C29 UNL     1      -2.199  -1.435   0.202  1.00  0.00     0.276 C 
HETATM   19  C30 UNL     1      -1.050  -0.403   0.215  1.00  0.00     0.026 C 
HETATM   20  C31 UNL     1      -0.667  -0.047   1.597  1.00  0.00     0.022 C 
ENDROOT
BRANCH   5  21
HETATM   21  C14 UNL     1       2.193   0.328  -0.442  1.00  0.00     0.268 C 
HETATM   22  O2  UNL     1       2.070   1.009   0.597  1.00  0.00    -0.264 OA
BRANCH  21  23
HETATM   23  O3  UNL     1       3.485   0.071  -0.836  1.00  0.00    -0.317 OA
BRANCH  23  24
HETATM   24  C15 UNL     1       4.684   0.451  -0.263  1.00  0.00     0.206 C 
BRANCH  24  25
HETATM   25  C16 UNL     1       4.920   0.006   1.119  1.00  0.00     0.002 C 
HETATM   26  C17 UNL     1       5.126   0.840   2.128  1.00  0.00    -0.089 C 
HETATM   27  C18 UNL     1       5.137   2.309   1.938  1.00  0.00     0.042 C 
HETATM   28  C19 UNL     1       5.359   0.344   3.511  1.00  0.00     0.042 C 
ENDBRANCH  24  25
ENDBRANCH  23  24
ENDBRANCH  21  23
ENDBRANCH   5  21
BRANCH   3  29
HETATM   29  O1  UNL     1      -1.131   2.812  -1.515  1.00  0.00    -0.394 OA
ATOM     30  H1  UNL     1      -0.426   3.402  -1.755  1.00  0.00     0.210 HD
ENDBRANCH   3  29
BRANCH   1  31
HETATM   31  C7  UNL     1      -2.553   1.485   0.495  1.00  0.00    -0.014 C 
HETATM   32  C6  UNL     1      -3.456   2.347   0.061  1.00  0.00    -0.003 C 
BRANCH  32  33
HETATM   33  C5  UNL     1      -4.340   3.046   0.993  1.00  0.00     0.006 C 
HETATM   34  C3  UNL     1      -5.265   3.918   0.643  1.00  0.00    -0.063 C 
HETATM   35  C4  UNL     1      -5.568   4.340  -0.740  1.00  0.00     0.048 C 
BRANCH  34  36
HETATM   36  C2  UNL     1      -6.063   4.523   1.719  1.00  0.00    -0.004 C 
HETATM   37  C1  UNL     1      -6.993   5.388   1.458  1.00  0.00     0.012 C 
ENDBRANCH  34  36
ENDBRANCH  32  33
ENDBRANCH   1  31
BRANCH  18  38
HETATM   38  O6  UNL     1      -3.313  -0.931   0.845  1.00  0.00    -0.370 OA
ATOM     39  H6  UNL     1      -3.571  -0.135   0.395  1.00  0.00     0.212 HD
ENDBRANCH  18  38
TORSDOF 9
