REMARK  8 active torsions:
REMARK  status: ('A' for Active; 'I' for Inactive)
REMARK    1  A    between atoms: C2_2  and  C4_4 
REMARK    2  A    between atoms: C13_14  and  C14_15 
REMARK    3  A    between atoms: C14_15  and  C15_16 
REMARK    4  A    between atoms: C17_19  and  N1_20 
REMARK       I    between atoms: N1_20  and  C18_21 
REMARK    5  A    between atoms: C18_21  and  O4_23 
REMARK    6  A    between atoms: O4_23  and  C19_24 
REMARK    7  A    between atoms: C23_28  and  C24_29 
REMARK    8  A    between atoms: C25_30  and  O5_31 
ROOT
HETATM    1  C4  UNL     1      -2.652   1.462  -0.888  1.00  0.00     0.054 C 
HETATM    2  C5  UNL     1      -3.648   0.324  -0.634  1.00  0.00     0.047 C 
HETATM    3  C6  UNL     1      -3.604  -0.855  -1.535  1.00  0.00     0.152 A 
HETATM    4  O1  UNL     1      -4.473  -1.884  -0.867  1.00  0.00    -0.375 OA
HETATM    5  C7  UNL     1      -3.172  -2.176  -1.127  1.00  0.00     0.155 A 
HETATM    6  C8  UNL     1      -2.080  -2.307  -0.178  1.00  0.00     0.026 C 
HETATM    7  C9  UNL     1      -1.780  -3.487   0.651  1.00  0.00     0.009 C 
HETATM    8  C10 UNL     1      -0.487  -2.910   1.293  1.00  0.00     0.011 C 
HETATM    9  C11 UNL     1       0.233  -2.076   0.293  1.00  0.00    -0.029 C 
HETATM   10  C12 UNL     1       1.430  -2.962  -0.180  1.00  0.00     0.016 C 
HETATM   11  C13 UNL     1       0.758  -0.743   0.633  1.00  0.00     0.046 C 
HETATM   12  C17 UNL     1       0.673   0.371  -0.391  1.00  0.00     0.133 C 
HETATM   13  C22 UNL     1      -0.132   1.650   0.067  1.00  0.00     0.092 C 
HETATM   14  C23 UNL     1      -1.563   1.387   0.111  1.00  0.00     0.092 C 
HETATM   15  O6  UNL     1      -1.315   0.084  -0.144  1.00  0.00    -0.366 OA
HETATM   16  C26 UNL     1      -0.456   0.026  -1.273  1.00  0.00     0.166 C 
HETATM   17  C27 UNL     1      -0.504  -1.285  -1.912  1.00  0.00     0.046 C 
HETATM   18  C28 UNL     1      -0.751  -2.251  -0.826  1.00  0.00    -0.028 C 
HETATM   19  C29 UNL     1      -0.566  -3.613  -1.527  1.00  0.00     0.016 C 
ENDROOT
BRANCH  12  20
HETATM   20  N1  UNL     1       1.873   0.835  -0.872  1.00  0.00    -0.375 NA
HETATM   21  C18 UNL     1       3.062   1.297  -1.352  1.00  0.00     0.435 C 
HETATM   22  O3  UNL     1       3.306   2.129  -2.278  1.00  0.00    -0.221 OA
BRANCH  21  23
HETATM   23  O4  UNL     1       4.312   0.834  -0.785  1.00  0.00    -0.288 OA
BRANCH  23  24
HETATM   24  C19 UNL     1       5.507   1.345  -1.284  1.00  0.00     0.126 C 
HETATM   25  C20 UNL     1       6.483   0.236  -1.624  1.00  0.00     0.040 C 
HETATM   26  C21 UNL     1       6.176   2.224  -0.221  1.00  0.00     0.040 C 
ENDBRANCH  23  24
ENDBRANCH  21  23
ENDBRANCH  12  20
BRANCH  11  27
HETATM   27  C14 UNL     1       0.863  -0.293   2.047  1.00  0.00     0.086 C 
BRANCH  27  28
HETATM   28  C15 UNL     1       1.725  -1.072   2.957  1.00  0.00     0.123 C 
HETATM   29  C16 UNL     1       2.281  -0.355   4.171  1.00  0.00     0.091 C 
HETATM   30  O2  UNL     1       2.035  -2.218   2.820  1.00  0.00    -0.298 OA
ENDBRANCH  27  28
ENDBRANCH  11  27
BRANCH  14  31
HETATM   31  C24 UNL     1      -2.000   1.958   1.369  1.00  0.00     0.035 C 
HETATM   32  C25 UNL     1      -3.034   1.603   2.300  1.00  0.00     0.130 C 
BRANCH  32  33
HETATM   33  O5  UNL     1      -2.960   0.375   2.970  1.00  0.00    -0.373 OA
ATOM     34  H5  UNL     1      -3.644   0.140   3.586  1.00  0.00     0.216 HD
ENDBRANCH  32  33
ENDBRANCH  14  31
BRANCH   1  35
HETATM   35  C2  UNL     1      -3.283   2.785  -1.022  1.00  0.00    -0.086 C 
HETATM   36  C1  UNL     1      -4.519   3.162  -0.791  1.00  0.00     0.014 C 
HETATM   37  C3  UNL     1      -2.393   3.949  -1.449  1.00  0.00     0.043 C 
ENDBRANCH   1  35
TORSDOF 8
