REMARK  18 active torsions:
REMARK  status: ('A' for Active; 'I' for Inactive)
REMARK    1  A    between atoms: C2_2  and  C3_3 
REMARK    2  A    between atoms: C7_7  and  C9_9 
REMARK       I    between atoms: C9_9  and  N1_11 
REMARK    3  A    between atoms: N1_11  and  C10_13 
REMARK    4  A    between atoms: C10_13  and  C13_16 
REMARK       I    between atoms: C13_16  and  N2_18 
REMARK    5  A    between atoms: N2_18  and  C14_20 
REMARK    6  A    between atoms: C14_20  and  C15_21 
REMARK    7  A    between atoms: C15_21  and  C16_22 
REMARK    8  A    between atoms: C16_22  and  N3_23 
REMARK    9  A    between atoms: N3_23  and  C17_26 
REMARK   10  A    between atoms: C17_26  and  C18_27 
REMARK   11  A    between atoms: C18_27  and  C19_28 
REMARK   12  A    between atoms: C19_28  and  C20_29 
REMARK   13  A    between atoms: C20_29  and  N4_30 
REMARK   14  A    between atoms: N4_30  and  C21_32 
REMARK   15  A    between atoms: C21_32  and  C22_33 
REMARK   16  A    between atoms: C22_33  and  C23_34 
REMARK   17  A    between atoms: C23_34  and  C24_35 
REMARK   18  A    between atoms: C26_37  and  C27_38 
ROOT
HETATM    1  C14 UNL     1      -0.954  -1.027   0.542  1.00  0.00     0.065 C 
ENDROOT
BRANCH   1   2
HETATM    2  N2  UNL     1      -2.156  -1.590   0.954  1.00  0.00    -0.339 N 
HETATM    3  C13 UNL     1      -3.435  -0.977   1.186  1.00  0.00     0.248 C 
HETATM    4  O2  UNL     1      -3.546   0.246   0.987  1.00  0.00    -0.270 OA
ATOM      5  H2  UNL     1      -2.126  -2.596   1.117  1.00  0.00     0.167 HD
BRANCH   3   6
HETATM    6  C10 UNL     1      -4.574  -1.773   1.640  1.00  0.00     0.106 C 
HETATM    7  C11 UNL     1      -4.425  -1.884   3.177  1.00  0.00     0.048 C 
HETATM    8  C12 UNL     1      -4.444  -3.229   1.171  1.00  0.00     0.048 C 
BRANCH   6   9
HETATM    9  N1  UNL     1      -5.886  -1.333   1.359  1.00  0.00    -0.341 N 
HETATM   10  C9  UNL     1      -6.392  -1.072   0.062  1.00  0.00     0.253 C 
HETATM   11  O1  UNL     1      -5.626  -1.203  -0.917  1.00  0.00    -0.270 OA
ATOM     12  H1  UNL     1      -6.516  -1.193   2.149  1.00  0.00     0.163 HD
BRANCH  10  13
HETATM   13  C7  UNL     1      -7.803  -0.653  -0.231  1.00  0.00     0.139 C 
HETATM   14  C6  UNL     1      -7.810   0.568  -1.058  1.00  0.00     0.054 C 
HETATM   15  C5  UNL     1      -8.711   1.694  -0.622  1.00  0.00     0.007 C 
HETATM   16  C3  UNL     1      -9.141   1.578   0.798  1.00  0.00     0.008 C 
HETATM   17  C38 UNL     1      -9.944   1.687  -1.472  1.00  0.00    -0.013 C 
HETATM   18  C4  UNL     1      -8.001   1.801   1.775  1.00  0.00     0.023 C 
HETATM   19  C34 UNL     1      -9.661   0.157   0.959  1.00  0.00     0.070 C 
HETATM   20  O3  UNL     1      -8.565  -0.655   0.894  1.00  0.00    -0.359 OA
HETATM   21  C35 UNL     1     -10.131   0.071   2.423  1.00  0.00     0.047 C 
HETATM   22  C36 UNL     1     -10.774  -0.169   0.054  1.00  0.00     0.039 C 
HETATM   23  C37 UNL     1     -10.964   0.674  -1.147  1.00  0.00     0.007 C 
HETATM   24  C39 UNL     1      -9.461   1.520  -2.931  1.00  0.00     0.010 C 
HETATM   25  C8  UNL     1      -8.316  -1.833  -1.095  1.00  0.00     0.056 C 
BRANCH  16  26
HETATM   26  C2  UNL     1     -10.217   2.502   1.231  1.00  0.00    -0.024 C 
HETATM   27  C1  UNL     1     -10.337   3.752   0.889  1.00  0.00     0.008 C 
ENDBRANCH  16  26
ENDBRANCH  10  13
ENDBRANCH   6   9
ENDBRANCH   3   6
ENDBRANCH   1   2
BRANCH   1  28
HETATM   28  C15 UNL     1      -0.896  -0.276  -0.757  1.00  0.00     0.072 C 
BRANCH  28  29
HETATM   29  C16 UNL     1       0.589   0.123  -1.011  1.00  0.00     0.237 C 
BRANCH  29  30
HETATM   30  N3  UNL     1       1.357  -1.072  -1.136  1.00  0.00    -0.075 N 
ATOM     31  H32 UNL     1       1.150  -1.726  -0.381  1.00  0.00     0.277 HD
ATOM     32  H31 UNL     1       1.041  -1.634  -1.926  1.00  0.00     0.277 HD
BRANCH  30  33
HETATM   33  C17 UNL     1       2.771  -0.799  -1.220  1.00  0.00     0.232 C 
BRANCH  33  34
HETATM   34  C18 UNL     1       3.516  -2.102  -1.443  1.00  0.00     0.029 C 
BRANCH  34  35
HETATM   35  C19 UNL     1       4.980  -1.932  -1.483  1.00  0.00     0.021 C 
BRANCH  35  36
HETATM   36  C20 UNL     1       5.546  -1.400  -0.184  1.00  0.00     0.113 C 
BRANCH  36  37
HETATM   37  N4  UNL     1       6.959  -1.319  -0.234  1.00  0.00    -0.421 N 
ATOM     38  H4  UNL     1       7.538  -1.951   0.319  1.00  0.00     0.153 HD
BRANCH  37  39
HETATM   39  C21 UNL     1       7.551  -0.338  -1.072  1.00  0.00     0.114 C 
BRANCH  39  40
HETATM   40  C22 UNL     1       7.334   1.069  -0.551  1.00  0.00     0.025 C 
BRANCH  40  41
HETATM   41  C23 UNL     1       7.887   1.231   0.815  1.00  0.00     0.058 C 
BRANCH  41  42
HETATM   42  C24 UNL     1       9.322   1.063   1.001  1.00  0.00     0.009 A 
HETATM   43  C25 UNL     1      10.308   1.047   0.068  1.00  0.00     0.033 A 
HETATM   44  C26 UNL     1      11.641   0.823   0.367  1.00  0.00    -0.047 A 
HETATM   45  C31 UNL     1      11.962   0.605   1.701  1.00  0.00     0.032 A 
HETATM   46  C32 UNL     1      10.974   0.620   2.649  1.00  0.00     0.006 A 
HETATM   47  C33 UNL     1      11.327   0.379   4.081  1.00  0.00     0.068 C 
HETATM   48  N5  UNL     1       9.706   0.842   2.303  1.00  0.00    -0.363 N 
ATOM     49  H5  UNL     1       8.993   0.848   3.032  1.00  0.00     0.165 HD
BRANCH  44  50
HETATM   50  C27 UNL     1      12.676   0.818  -0.690  1.00  0.00    -0.024 C 
HETATM   51  C28 UNL     1      12.034   1.264  -1.985  1.00  0.00     0.019 C 
HETATM   52  C29 UNL     1      13.272  -0.570  -0.806  1.00  0.00     0.019 C 
HETATM   53  C30 UNL     1      13.770   1.838  -0.400  1.00  0.00     0.019 C 
ENDBRANCH  44  50
ENDBRANCH  41  42
ENDBRANCH  40  41
ENDBRANCH  39  40
ENDBRANCH  37  39
ENDBRANCH  36  37
ENDBRANCH  35  36
ENDBRANCH  34  35
ENDBRANCH  33  34
ENDBRANCH  30  33
ENDBRANCH  29  30
ENDBRANCH  28  29
ENDBRANCH   1  28
TORSDOF 18
