REMARK  18 active torsions:
REMARK  status: ('A' for Active; 'I' for Inactive)
REMARK    1  A    between atoms: C2_2  and  C3_3 
REMARK    2  A    between atoms: C3_3  and  C4_4 
REMARK    3  A    between atoms: C4_4  and  C5_5 
REMARK    4  A    between atoms: C5_5  and  C6_6 
REMARK    5  A    between atoms: C6_6  and  C7_7 
REMARK    6  A    between atoms: C7_7  and  C8_8 
REMARK    7  A    between atoms: C7_7  and  C11_11 
REMARK    8  A    between atoms: C8_8  and  C9_9 
REMARK    9  A    between atoms: C11_11  and  O1_12 
REMARK   10  A    between atoms: C11_11  and  C12_14 
REMARK   11  A    between atoms: C12_14  and  O2_15 
REMARK   12  A    between atoms: C12_14  and  C13_17 
REMARK   13  A    between atoms: C14_18  and  C15_19 
REMARK   14  A    between atoms: C16_20  and  C17_21 
REMARK   15  A    between atoms: C17_21  and  C19_23 
REMARK   16  A    between atoms: C20_24  and  C21_25 
REMARK   17  A    between atoms: C28_39  and  C29_40 
REMARK   18  A    between atoms: C29_40  and  C30_41 
ROOT
HETATM    1  C15 UNL     1      -1.175   0.756  -0.115  1.00  0.00     0.018 C 
HETATM    2  C16 UNL     1      -1.772  -0.613  -0.206  1.00  0.00     0.001 C 
HETATM    3  C26 UNL     1      -3.131  -0.345   0.333  1.00  0.00     0.006 C 
HETATM    4  C27 UNL     1      -3.551   0.907  -0.351  1.00  0.00     0.007 C 
HETATM    5  C28 UNL     1      -2.352   1.752  -0.300  1.00  0.00     0.009 C 
ENDROOT
BRANCH   1   6
HETATM    6  C14 UNL     1      -0.091   1.128  -1.004  1.00  0.00    -0.023 C 
HETATM    7  C13 UNL     1       1.144   1.456  -0.634  1.00  0.00     0.003 C 
BRANCH   7   8
HETATM    8  C12 UNL     1       2.236   1.834  -1.565  1.00  0.00     0.169 C 
BRANCH   8   9
HETATM    9  C11 UNL     1       3.571   1.742  -0.872  1.00  0.00     0.154 C 
BRANCH   9  10
HETATM   10  C7  UNL     1       3.830   0.451  -0.180  1.00  0.00     0.017 C 
BRANCH  10  11
HETATM   11  C6  UNL     1       5.045   0.403   0.675  1.00  0.00     0.007 C 
BRANCH  11  12
HETATM   12  C5  UNL     1       6.356   0.366  -0.019  1.00  0.00     0.000 C 
BRANCH  12  13
HETATM   13  C4  UNL     1       7.447   0.324   1.038  1.00  0.00     0.000 C 
BRANCH  13  14
HETATM   14  C3  UNL     1       7.384  -0.874   1.930  1.00  0.00    -0.000 C 
BRANCH  14  15
HETATM   15  C2  UNL     1       7.539  -2.174   1.173  1.00  0.00    -0.005 C 
HETATM   16  C1  UNL     1       7.447  -3.314   2.163  1.00  0.00     0.005 C 
ENDBRANCH  14  15
ENDBRANCH  13  14
ENDBRANCH  12  13
ENDBRANCH  11  12
ENDBRANCH  10  11
BRANCH  10  17
HETATM   17  C8  UNL     1       3.706  -0.746  -1.109  1.00  0.00     0.007 C 
BRANCH  17  18
HETATM   18  C9  UNL     1       3.621  -2.026  -0.309  1.00  0.00    -0.004 C 
HETATM   19  C10 UNL     1       3.503  -3.179  -1.303  1.00  0.00     0.005 C 
ENDBRANCH  17  18
ENDBRANCH  10  17
ENDBRANCH   9  10
BRANCH   9  20
HETATM   20  O1  UNL     1       4.591   2.118  -1.753  1.00  0.00    -0.392 OA
ATOM     21  H1  UNL     1       4.426   2.943  -2.195  1.00  0.00     0.210 HD
ENDBRANCH   9  20
ENDBRANCH   8   9
BRANCH   8  22
HETATM   22  O2  UNL     1       2.035   3.150  -2.033  1.00  0.00    -0.389 OA
ATOM     23  H2  UNL     1       1.193   3.208  -2.470  1.00  0.00     0.210 HD
ENDBRANCH   8  22
ENDBRANCH   7   8
ENDBRANCH   1   6
BRANCH   2  24
HETATM   24  C17 UNL     1      -1.617  -1.263  -1.478  1.00  0.00     0.008 C 
HETATM   25  C18 UNL     1      -0.162  -1.492  -1.828  1.00  0.00     0.014 C 
BRANCH  24  26
HETATM   26  C19 UNL     1      -2.312  -2.492  -1.830  1.00  0.00    -0.024 C 
HETATM   27  C20 UNL     1      -2.982  -3.364  -1.157  1.00  0.00    -0.002 C 
BRANCH  27  28
HETATM   28  C21 UNL     1      -3.628  -4.582  -1.744  1.00  0.00     0.136 C 
HETATM   29  C22 UNL     1      -4.102  -4.193  -3.145  1.00  0.00     0.040 C 
HETATM   30  C23 UNL     1      -2.717  -5.710  -1.876  1.00  0.00     0.247 C 
HETATM   31  O3  UNL     1      -1.879  -5.755  -2.805  1.00  0.00    -0.271 OA
HETATM   32  N1  UNL     1      -2.758  -6.787  -0.952  1.00  0.00    -0.278 N 
HETATM   33  C24 UNL     1      -3.816  -6.913  -0.038  1.00  0.00     0.329 C 
ATOM     34  H1  UNL     1      -2.008  -7.479  -0.952  1.00  0.00     0.173 HD
HETATM   35  O4  UNL     1      -3.888  -7.868   0.807  1.00  0.00    -0.247 OA
HETATM   36  N2  UNL     1      -4.869  -5.964  -0.020  1.00  0.00    -0.278 N 
HETATM   37  C25 UNL     1      -4.821  -4.895  -0.942  1.00  0.00     0.247 C 
ATOM     38  H2  UNL     1      -5.641  -6.051   0.641  1.00  0.00     0.173 HD
HETATM   39  O5  UNL     1      -5.841  -4.175  -1.087  1.00  0.00    -0.271 OA
ENDBRANCH  27  28
ENDBRANCH  24  26
ENDBRANCH   2  24
BRANCH   5  40
HETATM   40  C29 UNL     1      -2.296   2.909   0.615  1.00  0.00     0.018 C 
HETATM   41  C31 UNL     1      -2.335   2.675   2.068  1.00  0.00     0.017 C 
HETATM   42  C32 UNL     1      -3.728   3.021   2.614  1.00  0.00     0.007 C 
HETATM   43  C33 UNL     1      -3.824   4.511   2.627  1.00  0.00    -0.002 A 
HETATM   44  C34 UNL     1      -3.563   4.992   1.225  1.00  0.00    -0.001 A 
HETATM   45  C36 UNL     1      -4.827   5.303   1.916  1.00  0.00    -0.040 A 
HETATM   46  C35 UNL     1      -3.421   3.880   0.238  1.00  0.00     0.022 C 
HETATM   47  C37 UNL     1      -6.130   4.681   1.576  1.00  0.00     0.015 C 
HETATM   48  C38 UNL     1      -4.958   6.752   2.422  1.00  0.00     0.015 C 
BRANCH  40  49
HETATM   49  C30 UNL     1      -1.047   3.729   0.340  1.00  0.00     0.241 C 
HETATM   50  O6  UNL     1      -0.361   4.160   1.248  1.00  0.00    -0.306 OA
ENDBRANCH  40  49
ENDBRANCH   5  40
TORSDOF 18
