REMARK  18 active torsions:
REMARK  status: ('A' for Active; 'I' for Inactive)
REMARK    1  A    between atoms: C2_2  and  C3_3 
REMARK    2  A    between atoms: C3_3  and  C4_4 
REMARK    3  A    between atoms: C3_3  and  C6_6 
REMARK    4  A    between atoms: C7_8  and  C8_9 
REMARK    5  A    between atoms: C8_9  and  C9_10 
REMARK    6  A    between atoms: C9_10  and  C10_11 
REMARK       I    between atoms: C10_11  and  N1_13 
REMARK    7  A    between atoms: N1_13  and  C11_15 
REMARK    8  A    between atoms: C11_15  and  C12_16 
REMARK    9  A    between atoms: C12_16  and  C13_17 
REMARK   10  A    between atoms: C13_17  and  C14_18 
REMARK   11  A    between atoms: C14_18  and  C15_19 
REMARK   12  A    between atoms: C15_19  and  C16_20 
REMARK   13  A    between atoms: C16_20  and  C17_21 
REMARK   14  A    between atoms: C17_21  and  N2_22 
REMARK   15  A    between atoms: C26_31  and  C27_32 
REMARK   16  A    between atoms: C30_35  and  O3_36 
REMARK   17  A    between atoms: C35_42  and  N3_43 
REMARK   18  A    between atoms: C38_47  and  O4_48 
ROOT
HETATM    1  C6  UNL     1      -1.156  -0.144   1.309  1.00  0.00     0.154 C 
HETATM    2  O1  UNL     1      -0.404  -1.042   0.599  1.00  0.00    -0.378 OA
HETATM    3  C7  UNL     1      -0.571  -1.319  -0.663  1.00  0.00     0.122 C 
HETATM    4  C20 UNL     1      -1.921  -1.723  -1.169  1.00  0.00     0.032 C 
HETATM    5  C21 UNL     1      -2.305  -3.145  -1.001  1.00  0.00     0.007 C 
HETATM    6  C22 UNL     1      -3.803  -3.370  -1.005  1.00  0.00     0.033 C 
HETATM    7  C23 UNL     1      -4.493  -2.571  -2.035  1.00  0.00    -0.087 C 
HETATM    8  C24 UNL     1      -4.063  -2.845  -3.463  1.00  0.00     0.043 C 
HETATM    9  C25 UNL     1      -5.420  -1.671  -1.872  1.00  0.00    -0.017 C 
HETATM   10  C26 UNL     1      -6.027  -1.214  -0.595  1.00  0.00     0.044 C 
HETATM   11  C30 UNL     1      -6.108   0.304  -0.612  1.00  0.00     0.148 C 
HETATM   12  C31 UNL     1      -5.712   0.945   0.644  1.00  0.00     0.002 C 
HETATM   13  C32 UNL     1      -4.789   1.839   0.851  1.00  0.00    -0.022 C 
HETATM   14  C33 UNL     1      -3.876   2.454  -0.153  1.00  0.00     0.026 C 
HETATM   15  C34 UNL     1      -4.643   3.626  -0.724  1.00  0.00     0.016 C 
HETATM   16  C35 UNL     1      -2.566   2.890   0.518  1.00  0.00     0.085 C 
HETATM   17  C37 UNL     1      -1.413   2.034   0.046  1.00  0.00     0.059 C 
HETATM   18  C38 UNL     1      -0.734   1.274   1.189  1.00  0.00     0.149 C 
ENDROOT
BRANCH   3  19
HETATM   19  C8  UNL     1       0.412  -2.324  -1.180  1.00  0.00     0.041 C 
BRANCH  19  20
HETATM   20  C9  UNL     1       1.848  -1.962  -1.141  1.00  0.00     0.105 C 
BRANCH  20  21
HETATM   21  C10 UNL     1       2.506  -1.779   0.153  1.00  0.00     0.217 C 
HETATM   22  O2  UNL     1       1.977  -2.106   1.229  1.00  0.00    -0.274 OA
HETATM   23  N1  UNL     1       3.823  -1.201   0.244  1.00  0.00    -0.361 N 
ATOM     24  H1  UNL     1       4.303  -0.915  -0.609  1.00  0.00     0.162 HD
BRANCH  23  25
HETATM   25  C11 UNL     1       4.471  -1.020   1.509  1.00  0.00     0.122 C 
BRANCH  25  26
HETATM   26  C12 UNL     1       5.827  -0.408   1.298  1.00  0.00     0.020 C 
BRANCH  26  27
HETATM   27  C13 UNL     1       6.730  -1.257   0.436  1.00  0.00     0.002 C 
BRANCH  27  28
HETATM   28  C14 UNL     1       8.074  -0.610   0.281  1.00  0.00     0.000 C 
BRANCH  28  29
HETATM   29  C15 UNL     1       8.025   0.763  -0.352  1.00  0.00     0.002 C 
BRANCH  29  30
HETATM   30  C16 UNL     1       9.456   1.257  -0.425  1.00  0.00     0.030 C 
BRANCH  30  31
HETATM   31  C17 UNL     1       9.546   2.641  -1.037  1.00  0.00     0.271 C 
BRANCH  31  32
HETATM   32  N2  UNL     1      10.926   3.074  -1.084  1.00  0.00     0.080 N 
HETATM   33  C18 UNL     1      10.985   4.398  -1.646  1.00  0.00     0.309 C 
HETATM   34  C19 UNL     1      11.696   2.190  -1.932  1.00  0.00     0.309 C 
ENDBRANCH  31  32
ENDBRANCH  30  31
ENDBRANCH  29  30
ENDBRANCH  28  29
ENDBRANCH  27  28
ENDBRANCH  26  27
ENDBRANCH  25  26
ENDBRANCH  23  25
ENDBRANCH  20  21
ENDBRANCH  19  20
ENDBRANCH   3  19
BRANCH   1  35
HETATM   35  C3  UNL     1      -0.950  -0.598   2.765  1.00  0.00     0.016 C 
BRANCH  35  36
HETATM   36  C2  UNL     1      -1.621   0.181   3.798  1.00  0.00     0.002 C 
HETATM   37  C1  UNL     1      -3.083   0.217   3.925  1.00  0.00     0.005 C 
ENDBRANCH  35  36
BRANCH  35  38
HETATM   38  C4  UNL     1      -1.246  -2.066   2.901  1.00  0.00     0.002 C 
HETATM   39  C5  UNL     1      -2.670  -2.472   2.786  1.00  0.00     0.005 C 
ENDBRANCH  35  38
ENDBRANCH   1  35
BRANCH  18  40
HETATM   40  O4  UNL     1       0.673   1.383   0.998  1.00  0.00    -0.393 OA
ATOM     41  H4  UNL     1       0.943   2.291   0.921  1.00  0.00     0.210 HD
ENDBRANCH  18  40
BRANCH  16  42
HETATM   42  N3  UNL     1      -2.220   4.251   0.226  1.00  0.00    -0.421 N 
HETATM   43  C36 UNL     1      -1.951   4.542  -1.146  1.00  0.00     0.140 C 
ATOM     44  H3  UNL     1      -2.169   4.966   0.952  1.00  0.00     0.153 HD
ENDBRANCH  16  42
BRANCH  10  45
HETATM   45  C27 UNL     1      -7.365  -1.848  -0.349  1.00  0.00    -0.012 C 
HETATM   46  C28 UNL     1      -8.004  -1.418   0.949  1.00  0.00     0.010 C 
HETATM   47  C29 UNL     1      -7.373  -3.339  -0.397  1.00  0.00     0.010 C 
ENDBRANCH  10  45
BRANCH  11  48
HETATM   48  O3  UNL     1      -7.388   0.725  -0.986  1.00  0.00    -0.391 OA
ATOM     49  H3  UNL     1      -7.439   1.674  -0.997  1.00  0.00     0.210 HD
ENDBRANCH  11  48
TORSDOF 18
