REMARK  13 active torsions:
REMARK  status: ('A' for Active; 'I' for Inactive)
REMARK    1  A    between atoms: C2_2  and  C3_3 
REMARK    2  A    between atoms: C3_3  and  C4_4 
REMARK    3  A    between atoms: C4_4  and  C5_5 
REMARK    4  A    between atoms: C5_5  and  C6_6 
REMARK    5  A    between atoms: C6_6  and  O2_8 
REMARK    6  A    between atoms: O2_8  and  C7_9 
REMARK    7  A    between atoms: C9_11  and  O3_12 
REMARK    8  A    between atoms: C25_31  and  C26_32 
REMARK    9  A    between atoms: C26_32  and  C27_33 
REMARK   10  A    between atoms: C27_33  and  N1_34 
REMARK   11  A    between atoms: N1_34  and  C28_36 
REMARK   12  A    between atoms: C28_36  and  C29_37 
REMARK   13  A    between atoms: C29_37  and  N2_38 
ROOT
HETATM    1  C7  UNL     1       1.447  -0.672  -0.396  1.00  0.00     0.139 C 
HETATM    2  C8  UNL     1       1.061  -1.573  -1.532  1.00  0.00     0.065 C 
HETATM    3  C9  UNL     1      -0.433  -1.699  -1.541  1.00  0.00     0.125 C 
HETATM    4  C10 UNL     1      -1.055  -1.305  -0.213  1.00  0.00     0.027 C 
HETATM    5  C11 UNL     1      -2.446  -1.760  -0.091  1.00  0.00    -0.002 C 
HETATM    6  C12 UNL     1      -3.163  -2.020  -1.417  1.00  0.00     0.006 C 
HETATM    7  C13 UNL     1      -4.473  -2.752  -1.064  1.00  0.00     0.007 C 
HETATM    8  C14 UNL     1      -5.353  -1.653  -0.478  1.00  0.00     0.009 C 
HETATM    9  C15 UNL     1      -6.660  -2.285  -0.075  1.00  0.00     0.092 C 
HETATM   10  C16 UNL     1      -6.332  -2.970   1.217  1.00  0.00     0.196 C 
HETATM   11  O4  UNL     1      -7.114  -3.785   1.767  1.00  0.00    -0.289 OA
HETATM   12  C17 UNL     1      -5.018  -2.515   1.650  1.00  0.00     0.203 C 
HETATM   13  O5  UNL     1      -4.318  -3.071   2.519  1.00  0.00    -0.288 OA
HETATM   14  C18 UNL     1      -4.749  -1.290   0.831  1.00  0.00     0.033 C 
HETATM   15  C19 UNL     1      -5.569  -0.173   1.444  1.00  0.00     0.025 C 
HETATM   16  C20 UNL     1      -3.312  -0.905   0.799  1.00  0.00     0.006 C 
HETATM   17  C21 UNL     1      -3.230   0.544   0.449  1.00  0.00     0.007 C 
HETATM   18  C22 UNL     1      -1.979   0.930  -0.313  1.00  0.00     0.010 C 
HETATM   19  C23 UNL     1      -0.778   0.157   0.135  1.00  0.00    -0.031 C 
HETATM   20  C24 UNL     1      -0.674   0.242   1.656  1.00  0.00     0.016 C 
HETATM   21  C25 UNL     1       0.512   0.565  -0.479  1.00  0.00     0.028 C 
ENDROOT
BRANCH  21  22
HETATM   22  C26 UNL     1       1.312   1.618   0.157  1.00  0.00     0.052 C 
BRANCH  22  23
HETATM   23  C27 UNL     1       0.730   3.008   0.252  1.00  0.00     0.060 C 
BRANCH  23  24
HETATM   24  N1  UNL     1       0.512   3.486  -1.056  1.00  0.00    -0.381 N 
ATOM     25  H1  UNL     1       0.837   2.938  -1.852  1.00  0.00     0.164 HD
BRANCH  24  26
HETATM   26  C28 UNL     1      -0.146   4.706  -1.278  1.00  0.00     0.087 C 
BRANCH  26  27
HETATM   27  C29 UNL     1       0.654   5.891  -0.835  1.00  0.00     0.274 C 
BRANCH  27  28
HETATM   28  N2  UNL     1       0.964   5.963   0.549  1.00  0.00    -0.075 N 
ATOM     29  H23 UNL     1       0.106   5.904   1.097  1.00  0.00     0.274 HD
ATOM     30  H22 UNL     1       1.431   5.105   0.842  1.00  0.00     0.274 HD
ATOM     31  H21 UNL     1       1.509   6.771   0.851  1.00  0.00     0.274 HD
ENDBRANCH  27  28
ENDBRANCH  26  27
ENDBRANCH  24  26
ENDBRANCH  23  24
ENDBRANCH  22  23
ENDBRANCH  21  22
BRANCH   1  32
HETATM   32  O2  UNL     1       2.766  -0.236  -0.676  1.00  0.00    -0.316 OA
BRANCH  32  33
HETATM   33  C6  UNL     1       3.831  -0.369   0.199  1.00  0.00     0.259 C 
HETATM   34  O1  UNL     1       3.611  -0.910   1.306  1.00  0.00    -0.265 OA
BRANCH  33  35
HETATM   35  C5  UNL     1       5.192   0.106  -0.141  1.00  0.00     0.111 C 
BRANCH  35  36
HETATM   36  C4  UNL     1       6.208  -0.056   0.926  1.00  0.00     0.010 C 
BRANCH  36  37
HETATM   37  C3  UNL     1       6.484  -1.442   1.387  1.00  0.00     0.000 C 
BRANCH  37  38
HETATM   38  C2  UNL     1       6.984  -2.359   0.288  1.00  0.00    -0.005 C 
HETATM   39  C1  UNL     1       8.258  -1.897  -0.340  1.00  0.00     0.005 C 
ENDBRANCH  37  38
ENDBRANCH  36  37
ENDBRANCH  35  36
ENDBRANCH  33  35
ENDBRANCH  32  33
ENDBRANCH   1  32
BRANCH   3  40
HETATM   40  O3  UNL     1      -0.921  -1.016  -2.618  1.00  0.00    -0.395 OA
ATOM     41  H3  UNL     1      -1.868  -1.096  -2.624  1.00  0.00     0.210 HD
ENDBRANCH   3  40
TORSDOF 13
