REMARK  17 active torsions:
REMARK  status: ('A' for Active; 'I' for Inactive)
REMARK    1  A    between atoms: C2_2  and  C3_3 
REMARK    2  A    between atoms: C3_3  and  C4_4 
REMARK    3  A    between atoms: C3_3  and  C7_7 
REMARK    4  A    between atoms: C7_7  and  C9_9 
REMARK    5  A    between atoms: C10_10  and  C11_11 
REMARK    6  A    between atoms: C11_11  and  C12_13 
REMARK    7  A    between atoms: C14_15  and  C15_16 
REMARK    8  A    between atoms: C24_27  and  C25_28 
REMARK    9  A    between atoms: C25_28  and  C26_30 
REMARK   10  A    between atoms: C26_30  and  N1_31 
REMARK   11  A    between atoms: C32_38  and  C33_39 
REMARK   12  A    between atoms: C33_39  and  O5_40 
REMARK   13  A    between atoms: O5_40  and  C34_41 
REMARK   14  A    between atoms: C34_41  and  C35_42 
REMARK   15  A    between atoms: C35_42  and  O6_43 
REMARK   16  A    between atoms: C36_45  and  O7_46 
REMARK   17  A    between atoms: C37_48  and  O8_49 
ROOT
HETATM    1  C12 UNL     1      -2.624  -0.100  -0.247  1.00  0.00     0.074 C 
HETATM    2  C13 UNL     1      -3.306  -1.317   0.418  1.00  0.00     0.035 C 
HETATM    3  C14 UNL     1      -2.112  -2.002  -0.186  1.00  0.00     0.065 A 
HETATM    4  C16 UNL     1      -0.745  -1.996   0.156  1.00  0.00     0.019 A 
HETATM    5  C17 UNL     1       0.514  -1.723  -0.625  1.00  0.00     0.013 C 
HETATM    6  C18 UNL     1       1.123  -0.482  -0.022  1.00  0.00     0.005 C 
HETATM    7  C19 UNL     1       2.315   0.091  -0.700  1.00  0.00     0.003 C 
HETATM    8  C20 UNL     1       2.247   1.621  -0.628  1.00  0.00     0.007 C 
HETATM    9  C21 UNL     1       2.169   1.788   0.879  1.00  0.00     0.011 C 
HETATM   10  C22 UNL     1       2.511   0.455   1.506  1.00  0.00    -0.021 C 
HETATM   11  C23 UNL     1       3.156   0.536   2.814  1.00  0.00     0.017 C 
HETATM   12  C24 UNL     1       3.375  -0.119   0.406  1.00  0.00     0.070 C 
HETATM   13  C32 UNL     1       1.331  -0.536   1.449  1.00  0.00     0.021 C 
HETATM   14  C36 UNL     1       0.133  -0.030   2.150  1.00  0.00     0.159 C 
HETATM   15  C37 UNL     1      -1.218  -0.454   1.732  1.00  0.00     0.158 C 
HETATM   16  C38 UNL     1      -1.421  -0.760   0.233  1.00  0.00     0.022 A 
ENDROOT
BRANCH   1  17
HETATM   17  C11 UNL     1      -2.975   0.097  -1.629  1.00  0.00     0.154 C 
HETATM   18  O1  UNL     1      -2.069   0.020  -2.532  1.00  0.00    -0.293 OA
BRANCH  17  19
HETATM   19  C10 UNL     1      -4.319   0.365  -2.101  1.00  0.00     0.047 C 
HETATM   20  C9  UNL     1      -5.346   0.609  -1.281  1.00  0.00    -0.018 C 
BRANCH  20  21
HETATM   21  C7  UNL     1      -6.711   0.858  -1.836  1.00  0.00     0.012 C 
HETATM   22  C8  UNL     1      -6.665   0.526  -3.341  1.00  0.00     0.015 C 
BRANCH  21  23
HETATM   23  C3  UNL     1      -7.753  -0.042  -1.189  1.00  0.00     0.018 C 
BRANCH  23  24
HETATM   24  C2  UNL     1      -7.371  -1.456  -1.211  1.00  0.00    -0.031 C 
HETATM   25  C1  UNL     1      -7.247  -2.314  -0.358  1.00  0.00     0.007 C 
ENDBRANCH  23  24
BRANCH  23  26
HETATM   26  C4  UNL     1      -8.244   0.489   0.092  1.00  0.00    -0.014 C 
HETATM   27  C5  UNL     1      -8.730   1.977  -0.211  1.00  0.00     0.010 C 
HETATM   28  C6  UNL     1      -7.238   0.754   1.187  1.00  0.00     0.010 C 
ENDBRANCH  23  26
ENDBRANCH  21  23
ENDBRANCH  20  21
ENDBRANCH  17  19
ENDBRANCH   1  17
BRANCH   3  29
HETATM   29  C15 UNL     1      -2.421  -2.806  -1.271  1.00  0.00     0.183 C 
HETATM   30  O2  UNL     1      -1.836  -3.119  -2.343  1.00  0.00    -0.647 OA
HETATM   31  O3  UNL     1      -3.688  -3.486  -1.251  1.00  0.00    -0.647 OA
ENDBRANCH   3  29
BRANCH  15  32
HETATM   32  O8  UNL     1      -2.085   0.524   2.209  1.00  0.00    -0.392 OA
ATOM     33  H8  UNL     1      -2.954   0.251   1.940  1.00  0.00     0.210 HD
ENDBRANCH  15  32
BRANCH  14  34
HETATM   34  O7  UNL     1       0.176  -0.304   3.548  1.00  0.00    -0.392 OA
ATOM     35  H7  UNL     1      -0.594   0.021   3.999  1.00  0.00     0.210 HD
ENDBRANCH  14  34
BRANCH  13  36
HETATM   36  C33 UNL     1       1.875  -1.800   2.035  1.00  0.00     0.181 C 
BRANCH  36  37
HETATM   37  O5  UNL     1       1.964  -1.712   3.452  1.00  0.00    -0.388 OA
BRANCH  37  38
HETATM   38  C34 UNL     1       2.457  -2.862   3.996  1.00  0.00     0.193 C 
BRANCH  38  39
HETATM   39  C35 UNL     1       1.657  -4.115   3.768  1.00  0.00     0.190 C 
BRANCH  39  40
HETATM   40  O6  UNL     1       2.322  -5.177   4.402  1.00  0.00    -0.399 OA
ATOM     41  H6  UNL     1       1.817  -5.968   4.258  1.00  0.00     0.209 HD
ENDBRANCH  39  40
ENDBRANCH  38  39
ENDBRANCH  37  38
ENDBRANCH  36  37
ENDBRANCH  13  36
BRANCH  12  42
HETATM   42  C25 UNL     1       4.601   0.651   0.133  1.00  0.00     0.160 C 
HETATM   43  O4  UNL     1       5.074   1.445   0.961  1.00  0.00    -0.296 OA
BRANCH  42  44
HETATM   44  C26 UNL     1       5.320   0.512  -1.138  1.00  0.00     0.350 C 
BRANCH  44  45
HETATM   45  N1  UNL     1       6.535   1.247  -1.199  1.00  0.00     0.098 N 
HETATM   46  C27 UNL     1       7.215   1.100  -2.469  1.00  0.00     0.303 C 
HETATM   47  C28 UNL     1       8.672   1.493  -2.171  1.00  0.00     0.302 C 
HETATM   48  N2  UNL     1       8.702   2.896  -1.877  1.00  0.00     0.087 N 
HETATM   49  C29 UNL     1       9.691   3.263  -0.882  1.00  0.00     0.310 C 
HETATM   50  C30 UNL     1       7.426   3.482  -1.640  1.00  0.00     0.302 C 
HETATM   51  C31 UNL     1       6.531   2.603  -0.778  1.00  0.00     0.303 C 
ENDBRANCH  44  45
ENDBRANCH  42  44
ENDBRANCH  12  42
TORSDOF 17
