REMARK  13 active torsions:
REMARK  status: ('A' for Active; 'I' for Inactive)
REMARK    1  A    between atoms: C2_2  and  N1_3 
REMARK    2  A    between atoms: N1_3  and  C3_4 
REMARK       I    between atoms: N1_3  and  C6_8 
REMARK    3  A    between atoms: C3_4  and  C4_5 
REMARK    4  A    between atoms: C4_5  and  O1_6 
REMARK    5  A    between atoms: C6_8  and  C7_10 
REMARK    6  A    between atoms: C8_11  and  C9_12 
REMARK    7  A    between atoms: C9_12  and  C10_13 
REMARK    8  A    between atoms: C9_12  and  N2_16 
REMARK    9  A    between atoms: C23_36  and  C24_37 
REMARK   10  A    between atoms: C25_38  and  C26_39 
REMARK   11  A    between atoms: C26_39  and  C27_40 
REMARK   12  A    between atoms: C27_40  and  N4_41 
REMARK   13  A    between atoms: N4_41  and  C28_43 
ROOT
HETATM    1  N2  UNL     1       0.632   1.565   0.580  1.00  0.00    -0.302 N 
HETATM    2  C11 UNL     1       0.734   0.266   1.117  1.00  0.00     0.239 C 
HETATM    3  O5  UNL     1       1.700  -0.289   1.703  1.00  0.00    -0.272 OA
HETATM    4  C12 UNL     1      -0.561  -0.477   0.900  1.00  0.00     0.186 C 
HETATM    5  C13 UNL     1      -0.431  -1.446  -0.219  1.00  0.00     0.232 C 
HETATM    6  O6  UNL     1       0.007  -0.903  -1.294  1.00  0.00    -0.273 OA
HETATM    7  N3  UNL     1      -0.713  -2.806  -0.237  1.00  0.00    -0.354 N 
ATOM      8  H3  UNL     1       0.064  -3.404  -0.517  1.00  0.00     0.162 HD
HETATM    9  C14 UNL     1      -1.942  -3.507   0.081  1.00  0.00     0.099 C 
HETATM   10  C15 UNL     1      -1.802  -4.967  -0.345  1.00  0.00     0.037 C 
HETATM   11  C16 UNL     1      -2.878  -5.861   0.223  1.00  0.00     0.088 C 
HETATM   12  S1  UNL     1      -4.193  -5.799  -1.074  1.00  0.00    -0.097 SA
HETATM   13  S2  UNL     1      -3.780  -3.868  -1.965  1.00  0.00    -0.091 SA
HETATM   14  C17 UNL     1      -3.161  -2.883  -0.526  1.00  0.00     0.081 C 
HETATM   15  C18 UNL     1      -4.361  -2.816   0.377  1.00  0.00     0.018 C 
HETATM   16  C19 UNL     1      -4.159  -2.203   1.703  1.00  0.00     0.002 C 
HETATM   17  C20 UNL     1      -4.957  -0.955   1.958  1.00  0.00     0.010 C 
HETATM   18  C21 UNL     1      -4.385   0.271   1.308  1.00  0.00     0.074 C 
HETATM   19  S3  UNL     1      -2.762   0.704   1.985  1.00  0.00    -0.161 SA
HETATM   20  C22 UNL     1      -1.537   0.619   0.661  1.00  0.00     0.096 C 
HETATM   21  C23 UNL     1      -0.788   1.924   0.499  1.00  0.00     0.131 C 
ENDROOT
BRANCH   1  22
HETATM   22  C9  UNL     1       1.752   2.428   0.179  1.00  0.00     0.115 C 
BRANCH  22  23
HETATM   23  C8  UNL     1       2.473   1.912  -0.981  1.00  0.00     0.042 C 
HETATM   24  C7  UNL     1       3.356   0.772  -1.021  1.00  0.00     0.077 C 
BRANCH  24  25
HETATM   25  C6  UNL     1       4.598   0.678  -0.281  1.00  0.00     0.243 C 
HETATM   26  N1  UNL     1       5.442  -0.499  -0.325  1.00  0.00    -0.347 N 
HETATM   27  O2  UNL     1       5.042   1.580   0.437  1.00  0.00    -0.268 OA
BRANCH  26  28
HETATM   28  C2  UNL     1       6.687  -0.571   0.395  1.00  0.00     0.121 C 
HETATM   29  C1  UNL     1       6.537  -1.118   1.796  1.00  0.00     0.026 C 
ENDBRANCH  26  28
BRANCH  26  30
HETATM   30  C3  UNL     1       5.005  -1.632  -1.105  1.00  0.00     0.152 C 
BRANCH  30  31
HETATM   31  C4  UNL     1       4.236  -2.595  -0.235  1.00  0.00     0.186 C 
BRANCH  31  32
HETATM   32  O1  UNL     1       3.801  -3.690  -0.966  1.00  0.00    -0.394 OA
HETATM   33  C5  UNL     1       4.809  -4.429  -1.547  1.00  0.00     0.201 C 
ENDBRANCH  31  32
ENDBRANCH  30  31
ENDBRANCH  26  30
ENDBRANCH  24  25
ENDBRANCH  22  23
BRANCH  22  34
HETATM   34  C10 UNL     1       2.477   2.927   1.345  1.00  0.00     0.227 C 
HETATM   35  O3  UNL     1       2.431   2.346   2.437  1.00  0.00    -0.643 OA
HETATM   36  O4  UNL     1       3.231   4.081   1.240  1.00  0.00    -0.643 OA
ENDBRANCH  22  34
ENDBRANCH   1  22
BRANCH  21  37
HETATM   37  C24 UNL     1      -1.052   2.482  -0.847  1.00  0.00    -0.004 C 
HETATM   38  C25 UNL     1      -1.409   3.723  -1.066  1.00  0.00    -0.027 C 
BRANCH  38  39
HETATM   39  C26 UNL     1      -1.587   4.706   0.011  1.00  0.00     0.046 C 
BRANCH  39  40
HETATM   40  C27 UNL     1      -3.019   5.213   0.010  1.00  0.00     0.125 C 
BRANCH  40  41
HETATM   41  N4  UNL     1      -3.270   5.831  -1.274  1.00  0.00    -0.369 N 
ATOM     42  H4  UNL     1      -2.526   5.858  -1.971  1.00  0.00     0.161 HD
BRANCH  41  43
HETATM   43  C28 UNL     1      -4.525   6.397  -1.580  1.00  0.00     0.180 C 
HETATM   44  N5  UNL     1      -5.548   6.345  -0.584  1.00  0.00    -0.070 NA
HETATM   45  S4  UNL     1      -4.780   7.088  -3.039  1.00  0.00    -0.044 SA
ENDBRANCH  41  43
ENDBRANCH  40  41
ENDBRANCH  39  40
ENDBRANCH  38  39
ENDBRANCH  21  37
TORSDOF 13
