REMARK  17 active torsions:
REMARK  status: ('A' for Active; 'I' for Inactive)
REMARK    1  A    between atoms: C2_2  and  C3_4 
REMARK    2  A    between atoms: C3_4  and  N1_5 
REMARK    3  A    between atoms: C3_4  and  C4_9 
REMARK    4  A    between atoms: C4_9  and  C5_11 
REMARK    5  A    between atoms: C5_11  and  C6_12 
REMARK    6  A    between atoms: C6_12  and  C7_13 
REMARK    7  A    between atoms: C7_13  and  C8_14 
REMARK    8  A    between atoms: C8_14  and  C9_15 
REMARK    9  A    between atoms: C9_15  and  C10_16 
REMARK   10  A    between atoms: C12_21  and  C13_22 
REMARK   11  A    between atoms: C13_22  and  C14_23 
REMARK   12  A    between atoms: C18_28  and  O5_29 
REMARK   13  A    between atoms: N3_31  and  C19_32 
REMARK   14  A    between atoms: C19_32  and  C20_33 
REMARK   15  A    between atoms: C26_39  and  O6_40 
REMARK   16  A    between atoms: C27_44  and  C28_45 
REMARK   17  A    between atoms: C28_45  and  C29_46 
ROOT
HETATM    1  C10 UNL     1       1.559  -0.619  -0.805  1.00  0.00     0.089 C 
HETATM    2  N2  UNL     1       1.185  -0.240  -2.154  1.00  0.00    -0.355 N 
ATOM      3  H2  UNL     1       1.844  -0.444  -2.906  1.00  0.00     0.162 HD
HETATM    4  C11 UNL     1      -0.031   0.393  -2.497  1.00  0.00     0.229 C 
HETATM    5  O3  UNL     1      -0.603   0.060  -3.560  1.00  0.00    -0.273 OA
HETATM    6  C12 UNL     1      -0.717   1.451  -1.687  1.00  0.00     0.152 C 
HETATM    7  C17 UNL     1      -2.119   1.068  -1.450  1.00  0.00     0.187 C 
HETATM    8  O4  UNL     1      -2.773   0.642  -2.354  1.00  0.00    -0.292 OA
HETATM    9  C18 UNL     1      -2.711   1.213  -0.093  1.00  0.00     0.288 C 
HETATM   10  N3  UNL     1      -4.035   0.788  -0.011  1.00  0.00    -0.367 N 
HETATM   11  C24 UNL     1      -4.610   0.137   1.054  1.00  0.00     0.153 C 
HETATM   12  C25 UNL     1      -5.810  -0.684   0.543  1.00  0.00     0.041 C 
HETATM   13  C26 UNL     1      -3.841  -0.604   2.062  1.00  0.00     0.138 C 
HETATM   14  N4  UNL     1      -3.496  -1.947   2.252  1.00  0.00    -0.338 N 
ATOM     15  H4  UNL     1      -3.989  -2.350   3.049  1.00  0.00     0.167 HD
HETATM   16  C27 UNL     1      -2.650  -2.892   1.638  1.00  0.00     0.080 C 
HETATM   17  C32 UNL     1      -1.181  -2.729   1.950  1.00  0.00     0.265 C 
HETATM   18  O7  UNL     1      -0.933  -2.315   3.137  1.00  0.00    -0.266 OA
HETATM   19  N5  UNL     1      -0.101  -2.980   1.091  1.00  0.00    -0.351 N 
HETATM   20  C33 UNL     1       1.044  -3.733   1.613  1.00  0.00     0.152 C 
HETATM   21  C34 UNL     1       0.034  -2.561  -0.288  1.00  0.00     0.132 C 
HETATM   22  C35 UNL     1       1.473  -2.110  -0.589  1.00  0.00     0.022 C 
HETATM   23  C36 UNL     1       1.997  -2.912  -1.757  1.00  0.00     0.014 C 
ENDROOT
BRANCH   1  24
HETATM   24  C9  UNL     1       2.853  -0.002  -0.367  1.00  0.00     0.026 C 
BRANCH  24  25
HETATM   25  C8  UNL     1       4.038  -0.348  -1.179  1.00  0.00     0.002 C 
BRANCH  25  26
HETATM   26  C7  UNL     1       5.256   0.365  -0.636  1.00  0.00     0.000 C 
BRANCH  26  27
HETATM   27  C6  UNL     1       5.602   0.029   0.770  1.00  0.00     0.007 C 
BRANCH  27  28
HETATM   28  C5  UNL     1       6.826   0.742   1.285  1.00  0.00     0.081 C 
BRANCH  28  29
HETATM   29  C4  UNL     1       8.073   0.437   0.569  1.00  0.00     0.164 C 
HETATM   30  O2  UNL     1       8.136  -0.440  -0.296  1.00  0.00    -0.295 OA
BRANCH  29  31
HETATM   31  C3  UNL     1       9.302   1.232   0.914  1.00  0.00     0.320 C 
BRANCH  31  32
HETATM   32  C2  UNL     1       9.685   1.073   2.329  1.00  0.00     0.160 C 
HETATM   33  C1  UNL     1      10.952   0.374   2.715  1.00  0.00     0.093 C 
HETATM   34  O1  UNL     1       8.974   1.510   3.204  1.00  0.00    -0.296 OA
ENDBRANCH  31  32
BRANCH  31  35
HETATM   35  N1  UNL     1      10.385   0.732   0.045  1.00  0.00    -0.061 N 
ATOM     36  H13 UNL     1      11.280   1.176   0.253  1.00  0.00     0.275 HD
ATOM     37  H12 UNL     1      10.642  -0.230   0.267  1.00  0.00     0.275 HD
ATOM     38  H11 UNL     1      10.120   0.842  -0.934  1.00  0.00     0.275 HD
ENDBRANCH  31  35
ENDBRANCH  29  31
ENDBRANCH  28  29
ENDBRANCH  27  28
ENDBRANCH  26  27
ENDBRANCH  25  26
ENDBRANCH  24  25
ENDBRANCH   1  24
BRANCH   6  39
HETATM   39  C13 UNL     1      -0.647   2.688  -2.560  1.00  0.00     0.026 C 
BRANCH  39  40
HETATM   40  C14 UNL     1      -1.251   3.910  -1.991  1.00  0.00    -0.021 C 
HETATM   41  C15 UNL     1      -1.075   5.018  -3.039  1.00  0.00     0.009 C 
HETATM   42  C16 UNL     1      -0.580   4.415  -0.742  1.00  0.00     0.009 C 
ENDBRANCH  39  40
ENDBRANCH   6  39
BRANCH   9  43
HETATM   43  O5  UNL     1      -1.866   0.510   0.722  1.00  0.00    -0.370 OA
ATOM     44  H5  UNL     1      -2.244   0.603   1.589  1.00  0.00     0.212 HD
ENDBRANCH   9  43
BRANCH  16  45
HETATM   45  C28 UNL     1      -2.910  -3.440   0.296  1.00  0.00     0.067 C 
BRANCH  45  46
HETATM   46  C29 UNL     1      -4.166  -4.218   0.098  1.00  0.00    -0.017 C 
HETATM   47  C30 UNL     1      -4.254  -5.444   0.986  1.00  0.00     0.010 C 
HETATM   48  C31 UNL     1      -4.346  -4.702  -1.318  1.00  0.00     0.010 C 
ENDBRANCH  45  46
ENDBRANCH  16  45
BRANCH  10  49
HETATM   49  C19 UNL     1      -4.988   1.708  -0.632  1.00  0.00     0.148 C 
BRANCH  49  50
HETATM   50  C20 UNL     1      -5.111   2.998   0.059  1.00  0.00    -0.006 C 
HETATM   51  C21 UNL     1      -6.199   3.528   0.571  1.00  0.00    -0.090 C 
HETATM   52  C22 UNL     1      -7.493   2.815   0.487  1.00  0.00     0.042 C 
HETATM   53  C23 UNL     1      -6.140   4.858   1.246  1.00  0.00     0.042 C 
ENDBRANCH  49  50
ENDBRANCH  10  49
BRANCH  13  54
HETATM   54  O6  UNL     1      -3.390   0.211   2.992  1.00  0.00    -0.348 OA
ATOM     55  H6  UNL     1      -2.893  -0.268   3.644  1.00  0.00     0.219 HD
ENDBRANCH  13  54
TORSDOF 17
