REMARK  11 active torsions:
REMARK  status: ('A' for Active; 'I' for Inactive)
REMARK    1  A    between atoms: C2_2  and  C3_3 
REMARK    2  A    between atoms: C3_3  and  C4_4 
REMARK    3  A    between atoms: C6_9  and  C7_10 
REMARK    4  A    between atoms: C12_17  and  C13_18 
REMARK    5  A    between atoms: C13_18  and  C14_19 
REMARK    6  A    between atoms: C18_26  and  C19_27 
REMARK    7  A    between atoms: C19_27  and  C20_28 
REMARK    8  A    between atoms: C24_35  and  C25_36 
REMARK    9  A    between atoms: C25_36  and  C26_37 
REMARK   10  A    between atoms: C30_44  and  C31_45 
REMARK   11  A    between atoms: C31_45  and  N6_46 
REMARK       I    between atoms: N6_46  and  C32_48 
ROOT
HETATM    1  C4  UNL     1       3.280  -2.010  -0.879  1.00  0.00     0.105 C 
HETATM    2  C5  UNL     1       1.989  -2.476  -1.372  1.00  0.00     0.224 C 
HETATM    3  O1  UNL     1       2.070  -3.223  -2.432  1.00  0.00    -0.273 OA
HETATM    4  N1  UNL     1       0.696  -2.264  -0.915  1.00  0.00    -0.347 N 
ATOM      5  H1  UNL     1       0.065  -1.927  -1.642  1.00  0.00     0.163 HD
HETATM    6  C6  UNL     1       0.064  -2.414   0.341  1.00  0.00     0.180 C 
HETATM    7  C10 UNL     1      -1.326  -2.985   0.267  1.00  0.00     0.243 C 
HETATM    8  O2  UNL     1      -1.486  -4.187  -0.079  1.00  0.00    -0.271 OA
HETATM    9  N2  UNL     1      -2.513  -2.249   0.569  1.00  0.00    -0.341 N 
HETATM   10  C11 UNL     1      -3.549  -2.883   1.410  1.00  0.00     0.153 C 
HETATM   11  C12 UNL     1      -2.793  -0.893   0.151  1.00  0.00     0.179 C 
HETATM   12  C17 UNL     1      -2.501   0.044   1.274  1.00  0.00     0.241 C 
HETATM   13  O3  UNL     1      -2.971  -0.366   2.412  1.00  0.00    -0.271 OA
HETATM   14  N3  UNL     1      -1.823   1.248   1.278  1.00  0.00    -0.346 N 
ATOM     15  H3  UNL     1      -1.302   1.410   2.140  1.00  0.00     0.163 HD
HETATM   16  C18 UNL     1      -1.694   2.311   0.340  1.00  0.00     0.177 C 
HETATM   17  C23 UNL     1      -1.297   1.894  -1.054  1.00  0.00     0.241 C 
HETATM   18  O4  UNL     1      -2.249   2.013  -1.917  1.00  0.00    -0.271 OA
HETATM   19  N4  UNL     1      -0.054   1.421  -1.449  1.00  0.00    -0.346 N 
ATOM     20  H4  UNL     1      -0.056   0.512  -1.912  1.00  0.00     0.163 HD
HETATM   21  C24 UNL     1       1.265   2.050  -1.291  1.00  0.00     0.177 C 
HETATM   22  C29 UNL     1       2.162   1.320  -2.221  1.00  0.00     0.240 C 
HETATM   23  O5  UNL     1       2.491   1.970  -3.284  1.00  0.00    -0.271 OA
HETATM   24  N5  UNL     1       2.693   0.034  -2.109  1.00  0.00    -0.352 N 
ATOM     25  H5  UNL     1       2.418  -0.605  -2.855  1.00  0.00     0.163 HD
HETATM   26  C30 UNL     1       3.563  -0.542  -1.119  1.00  0.00     0.115 C 
ENDROOT
BRANCH  26  27
HETATM   27  C31 UNL     1       3.606   0.218   0.193  1.00  0.00     0.148 C 
BRANCH  27  28
HETATM   28  N6  UNL     1       4.668  -0.308   1.056  1.00  0.00    -0.363 N 
HETATM   29  C32 UNL     1       5.007   0.226   2.311  1.00  0.00     0.181 C 
HETATM   30  N7  UNL     1       6.029   1.080   2.336  1.00  0.00    -0.374 N 
HETATM   31  N8  UNL     1       4.368  -0.055   3.527  1.00  0.00    -0.064 NA
ATOM     32  H72 UNL     1       6.494   1.284   1.451  1.00  0.00     0.158 HD
ATOM     33  H71 UNL     1       6.275   1.468   3.247  1.00  0.00     0.158 HD
ATOM     34  H6  UNL     1       5.196  -1.115   0.724  1.00  0.00     0.162 HD
ENDBRANCH  27  28
ENDBRANCH  26  27
BRANCH   1  35
HETATM   35  C3  UNL     1       4.450  -2.803  -1.486  1.00  0.00     0.042 C 
BRANCH  35  36
HETATM   36  C2  UNL     1       4.389  -4.239  -1.143  1.00  0.00    -0.036 C 
HETATM   37  C1  UNL     1       4.360  -5.181  -2.011  1.00  0.00     0.007 C 
ENDBRANCH  35  36
ENDBRANCH   1  35
BRANCH  21  38
HETATM   38  C25 UNL     1       1.195   3.506  -1.680  1.00  0.00     0.038 C 
BRANCH  38  39
HETATM   39  C26 UNL     1       2.477   4.223  -1.504  1.00  0.00    -0.020 C 
HETATM   40  C27 UNL     1       2.959   4.225  -0.069  1.00  0.00     0.009 C 
HETATM   41  C28 UNL     1       2.212   5.712  -1.840  1.00  0.00     0.009 C 
ENDBRANCH  38  39
ENDBRANCH  21  38
BRANCH   6  42
HETATM   42  C7  UNL     1       0.799  -3.270   1.342  1.00  0.00     0.009 C 
HETATM   43  C8  UNL     1      -0.034  -3.342   2.631  1.00  0.00     0.012 C 
HETATM   44  C9  UNL     1       0.963  -4.644   0.795  1.00  0.00     0.012 C 
ENDBRANCH   6  42
BRANCH  16  45
HETATM   45  C19 UNL     1      -2.822   3.269   0.299  1.00  0.00     0.038 C 
BRANCH  45  46
HETATM   46  C20 UNL     1      -3.145   4.046   1.515  1.00  0.00    -0.020 C 
HETATM   47  C21 UNL     1      -4.333   5.003   1.227  1.00  0.00     0.009 C 
HETATM   48  C22 UNL     1      -3.709   3.126   2.595  1.00  0.00     0.009 C 
ENDBRANCH  45  46
ENDBRANCH  16  45
BRANCH  11  49
HETATM   49  C13 UNL     1      -4.141  -0.692  -0.430  1.00  0.00     0.039 C 
BRANCH  49  50
HETATM   50  C14 UNL     1      -4.554  -1.381  -1.643  1.00  0.00    -0.020 C 
HETATM   51  C15 UNL     1      -6.005  -0.906  -1.947  1.00  0.00     0.009 C 
HETATM   52  C16 UNL     1      -4.614  -2.849  -1.729  1.00  0.00     0.009 C 
ENDBRANCH  49  50
ENDBRANCH  11  49
TORSDOF 11
