REMARK  13 active torsions:
REMARK  status: ('A' for Active; 'I' for Inactive)
REMARK    1  A    between atoms: C2_2  and  C3_3 
REMARK    2  A    between atoms: C3_3  and  C4_4 
REMARK    3  A    between atoms: C4_4  and  C5_5 
REMARK    4  A    between atoms: C6_8  and  C7_9 
REMARK    5  A    between atoms: C7_9  and  C8_10 
REMARK    6  A    between atoms: C10_14  and  N3_15 
REMARK    7  A    between atoms: C14_25  and  C15_26 
REMARK    8  A    between atoms: C15_26  and  C16_27 
REMARK    9  A    between atoms: C16_27  and  C17_28 
REMARK   10  A    between atoms: C23_37  and  C24_38 
REMARK   11  A    between atoms: C24_38  and  C25_39 
REMARK   12  A    between atoms: C27_46  and  C28_47 
REMARK   13  A    between atoms: C31_52  and  O5_53 
ROOT
HETATM    1  C5  UNL     1      -0.074  -1.130   1.750  1.00  0.00     0.153 C 
HETATM    2  N1  UNL     1      -0.372  -1.113   0.384  1.00  0.00    -0.390 N 
ATOM      3  H1  UNL     1       0.366  -1.098  -0.320  1.00  0.00     0.156 HD
HETATM    4  C6  UNL     1      -1.765  -1.117   0.010  1.00  0.00     0.186 C 
HETATM    5  N5  UNL     1      -2.585  -0.094   0.512  1.00  0.00    -0.333 N 
HETATM    6  C12 UNL     1      -4.025  -0.434   0.680  1.00  0.00     0.155 C 
HETATM    7  C13 UNL     1      -2.270   1.214   0.928  1.00  0.00     0.243 C 
HETATM    8  O1  UNL     1      -2.842   1.560   2.035  1.00  0.00    -0.271 OA
HETATM    9  C14 UNL     1      -1.415   2.225   0.326  1.00  0.00     0.176 C 
HETATM   10  N6  UNL     1      -1.454   2.287  -1.118  1.00  0.00    -0.348 N 
ATOM     11  H6  UNL     1      -2.360   2.166  -1.570  1.00  0.00     0.163 HD
HETATM   12  C19 UNL     1      -0.348   2.499  -1.941  1.00  0.00     0.218 C 
HETATM   13  O2  UNL     1      -0.440   3.344  -2.909  1.00  0.00    -0.274 OA
HETATM   14  C20 UNL     1       0.979   1.842  -1.833  1.00  0.00     0.103 C 
HETATM   15  C21 UNL     1       1.894   2.494  -0.831  1.00  0.00     0.011 C 
HETATM   16  C22 UNL     1       3.320   2.566  -1.298  1.00  0.00     0.026 C 
HETATM   17  C23 UNL     1       4.252   1.765  -0.401  1.00  0.00     0.092 C 
HETATM   18  N8  UNL     1       4.445   0.481  -1.027  1.00  0.00    -0.354 N 
ATOM     19  H8  UNL     1       4.912   0.520  -1.933  1.00  0.00     0.162 HD
HETATM   20  C26 UNL     1       4.103  -0.810  -0.608  1.00  0.00     0.241 C 
HETATM   21  O4  UNL     1       5.058  -1.657  -0.693  1.00  0.00    -0.271 OA
HETATM   22  C27 UNL     1       2.838  -1.353  -0.093  1.00  0.00     0.179 C 
HETATM   23  N9  UNL     1       2.468  -0.889   1.201  1.00  0.00    -0.359 N 
ATOM     24  H9  UNL     1       3.121  -0.217   1.605  1.00  0.00     0.162 HD
HETATM   25  C31 UNL     1       1.380  -1.184   2.015  1.00  0.00     0.135 C 
ENDROOT
BRANCH   4  26
HETATM   26  C7  UNL     1      -1.769  -1.391  -1.466  1.00  0.00     0.086 C 
BRANCH  26  27
HETATM   27  C8  UNL     1      -3.046  -1.474  -2.142  1.00  0.00    -0.035 A 
HETATM   28  C9  UNL     1      -3.730  -0.487  -2.797  1.00  0.00     0.097 A 
HETATM   29  N2  UNL     1      -4.895  -0.967  -3.299  1.00  0.00    -0.351 N 
HETATM   30  C10 UNL     1      -4.955  -2.250  -2.968  1.00  0.00     0.119 A 
ATOM     31  H2  UNL     1      -5.591  -0.442  -3.829  1.00  0.00     0.166 HD
HETATM   32  C11 UNL     1      -3.832  -2.605  -2.252  1.00  0.00     0.058 A 
BRANCH  30  33
HETATM   33  N3  UNL     1      -6.048  -3.108  -3.324  1.00  0.00    -0.292 N 
HETATM   34  N4  UNL     1      -5.793  -4.041  -4.137  1.00  0.00    -0.344 N 
ATOM     35  H42 UNL     1      -4.852  -4.164  -4.512  1.00  0.00     0.176 HD
ATOM     36  H41 UNL     1      -6.570  -4.651  -4.390  1.00  0.00     0.176 HD
ATOM     37  H3  UNL     1      -6.983  -2.972  -2.940  1.00  0.00     0.188 HD
ENDBRANCH  30  33
ENDBRANCH  26  27
ENDBRANCH   4  26
BRANCH   1  38
HETATM   38  C4  UNL     1      -0.758  -2.206   2.556  1.00  0.00     0.033 C 
BRANCH  38  39
HETATM   39  C3  UNL     1      -0.479  -3.602   2.189  1.00  0.00     0.002 C 
BRANCH  39  40
HETATM   40  C2  UNL     1      -1.290  -4.489   3.148  1.00  0.00    -0.004 C 
HETATM   41  C1  UNL     1      -2.765  -4.210   3.027  1.00  0.00     0.005 C 
ENDBRANCH  39  40
ENDBRANCH  38  39
ENDBRANCH   1  38
BRANCH  25  42
HETATM   42  O5  UNL     1       1.645  -1.579   3.229  1.00  0.00    -0.348 OA
ATOM     43  H5  UNL     1       2.579  -1.614   3.399  1.00  0.00     0.219 HD
ENDBRANCH  25  42
BRANCH   9  44
HETATM   44  C15 UNL     1      -1.827   3.629   0.796  1.00  0.00     0.035 C 
BRANCH  44  45
HETATM   45  C16 UNL     1      -3.214   4.000   0.433  1.00  0.00     0.002 C 
BRANCH  45  46
HETATM   46  C17 UNL     1      -3.521   5.413   0.945  1.00  0.00    -0.004 C 
HETATM   47  C18 UNL     1      -2.545   6.369   0.303  1.00  0.00     0.005 C 
ENDBRANCH  45  46
ENDBRANCH  44  45
ENDBRANCH   9  44
BRANCH  22  48
HETATM   48  C28 UNL     1       2.933  -2.889  -0.118  1.00  0.00     0.009 C 
HETATM   49  C29 UNL     1       4.027  -3.433   0.734  1.00  0.00     0.012 C 
HETATM   50  C30 UNL     1       2.993  -3.386  -1.543  1.00  0.00     0.012 C 
ENDBRANCH  22  48
BRANCH  17  51
HETATM   51  C24 UNL     1       5.581   2.542  -0.488  1.00  0.00     0.124 C 
BRANCH  51  52
HETATM   52  C25 UNL     1       6.590   1.898   0.353  1.00  0.00     0.233 C 
HETATM   53  N7  UNL     1       7.930   2.382   0.398  1.00  0.00    -0.062 NA
HETATM   54  O3  UNL     1       6.300   0.905   1.056  1.00  0.00    -0.277 OA
ENDBRANCH  51  52
ENDBRANCH  17  51
TORSDOF 13
