REMARK  11 active torsions:
REMARK  status: ('A' for Active; 'I' for Inactive)
REMARK    1  A    between atoms: C2_2  and  C3_4 
REMARK    2  A    between atoms: C3_4  and  C4_5 
REMARK    3  A    between atoms: C4_5  and  C5_6 
REMARK    4  A    between atoms: C5_6  and  N1_7 
REMARK    5  A    between atoms: C5_6  and  C19_36 
REMARK       I    between atoms: N1_7  and  C6_9 
REMARK    6  A    between atoms: C6_9  and  C7_11 
REMARK    7  A    between atoms: C7_11  and  C8_12 
REMARK    8  A    between atoms: C8_12  and  N2_13 
REMARK       I    between atoms: N2_13  and  C9_15 
REMARK       I    between atoms: N4_17  and  C10_19 
REMARK       I    between atoms: C10_19  and  N5_20 
REMARK       I    between atoms: N8_25  and  C12_27 
REMARK       I    between atoms: C12_27  and  N9_29 
REMARK       I    between atoms: C19_36  and  N10_38 
REMARK    9  A    between atoms: N10_38  and  C20_40 
REMARK   10  A    between atoms: C20_40  and  C21_41 
REMARK   11  A    between atoms: C20_40  and  C27_49 
REMARK       I    between atoms: C21_41  and  N11_43 
ROOT
HETATM    1  N1  UNL     1      -1.061   1.055  -1.576  1.00  0.00    -0.326 N 
ATOM      2  H1  UNL     1      -1.062   2.075  -1.567  1.00  0.00     0.168 HD
HETATM    3  C6  UNL     1       0.212   0.482  -1.486  1.00  0.00     0.223 C 
HETATM    4  O2  UNL     1       0.475  -0.739  -1.454  1.00  0.00    -0.273 OA
ENDROOT
BRANCH   3   5
HETATM    5  C7  UNL     1       1.407   1.423  -1.422  1.00  0.00     0.122 C 
BRANCH   5   6
HETATM    6  C8  UNL     1       2.691   0.639  -1.424  1.00  0.00     0.131 C 
BRANCH   6   7
HETATM    7  N2  UNL     1       2.764  -0.259  -0.281  1.00  0.00    -0.364 N 
HETATM    8  C9  UNL     1       3.897  -1.084  -0.166  1.00  0.00     0.202 C 
HETATM    9  N3  UNL     1       4.628  -1.443  -1.323  1.00  0.00    -0.063 NA
HETATM   10  N4  UNL     1       4.271  -1.514   0.985  1.00  0.00    -0.163 N 
HETATM   11  C10 UNL     1       5.420  -2.355   1.128  1.00  0.00     0.690 C 
ATOM     12  H4  UNL     1       3.738  -1.251   1.814  1.00  0.00     0.187 HD
HETATM   13  N5  UNL     1       5.320  -3.752   0.860  1.00  0.00    -0.165 N 
HETATM   14  N8  UNL     1       6.525  -1.836   1.498  1.00  0.00    -0.141 N 
HETATM   15  C11 UNL     1       4.637  -4.499   1.627  1.00  0.00     0.215 C 
ATOM     16  H5  UNL     1       5.797  -4.151   0.052  1.00  0.00     0.186 HD
HETATM   17  N6  UNL     1       4.561  -5.887   1.325  1.00  0.00    -0.066 NA
HETATM   18  N7  UNL     1       3.955  -4.013   2.760  1.00  0.00    -0.066 NA
HETATM   19  C12 UNL     1       6.644  -0.460   1.767  1.00  0.00     0.336 C 
ATOM     20  H8  UNL     1       7.344  -2.435   1.602  1.00  0.00     0.189 HD
HETATM   21  O3  UNL     1       6.015   0.030   2.731  1.00  0.00    -0.246 OA
HETATM   22  N9  UNL     1       7.461   0.380   0.970  1.00  0.00    -0.334 N 
HETATM   23  C13 UNL     1       8.203  -0.135  -0.165  1.00  0.00     0.128 C 
HETATM   24  C18 UNL     1       7.606   1.804   1.250  1.00  0.00     0.128 C 
HETATM   25  C14 UNL     1       8.403   0.980  -1.165  1.00  0.00     0.024 C 
HETATM   26  C15 UNL     1       9.298   2.050  -0.567  1.00  0.00    -0.015 C 
HETATM   27  C16 UNL     1      10.735   1.613  -0.762  1.00  0.00     0.010 C 
HETATM   28  C17 UNL     1       9.020   2.255   0.904  1.00  0.00     0.024 C 
ATOM     29  H2  UNL     1       2.018  -0.289   0.414  1.00  0.00     0.162 HD
ENDBRANCH   6   7
ENDBRANCH   5   6
ENDBRANCH   3   5
BRANCH   1  30
HETATM   30  C5  UNL     1      -2.351   0.472  -1.678  1.00  0.00     0.080 C 
BRANCH  30  31
HETATM   31  C4  UNL     1      -2.417  -1.002  -1.970  1.00  0.00     0.070 C 
BRANCH  31  32
HETATM   32  C3  UNL     1      -1.880  -1.342  -3.330  1.00  0.00     0.084 C 
BRANCH  32  33
HETATM   33  C2  UNL     1      -1.914  -2.813  -3.513  1.00  0.00     0.123 C 
HETATM   34  C1  UNL     1      -3.044  -3.465  -4.187  1.00  0.00     0.091 C 
HETATM   35  O1  UNL     1      -0.982  -3.471  -3.091  1.00  0.00    -0.298 OA
ENDBRANCH  32  33
ENDBRANCH  31  32
ENDBRANCH  30  31
BRANCH  30  36
HETATM   36  C19 UNL     1      -3.348   0.969  -0.713  1.00  0.00     0.264 C 
HETATM   37  O4  UNL     1      -2.916   1.730   0.173  1.00  0.00    -0.266 OA
HETATM   38  N10 UNL     1      -4.690   0.609  -0.798  1.00  0.00    -0.342 N 
ATOM     39  H10 UNL     1      -4.902  -0.014  -1.577  1.00  0.00     0.163 HD
BRANCH  38  40
HETATM   40  C20 UNL     1      -5.820   0.944  -0.007  1.00  0.00     0.180 C 
BRANCH  40  41
HETATM   41  C21 UNL     1      -5.713   0.912   1.442  1.00  0.00     0.243 C 
HETATM   42  O5  UNL     1      -4.720   1.221   2.151  1.00  0.00    -0.271 OA
HETATM   43  N11 UNL     1      -6.860   0.476   2.210  1.00  0.00    -0.350 N 
HETATM   44  C22 UNL     1      -8.087   0.039   1.605  1.00  0.00     0.126 C 
HETATM   45  C26 UNL     1      -6.817   0.463   3.670  1.00  0.00     0.126 C 
HETATM   46  C23 UNL     1      -8.972  -0.497   2.754  1.00  0.00     0.020 C 
HETATM   47  C24 UNL     1      -9.297   0.745   3.581  1.00  0.00     0.003 C 
HETATM   48  C25 UNL     1      -8.011   1.085   4.313  1.00  0.00     0.020 C 
ENDBRANCH  40  41
BRANCH  40  49
HETATM   49  C27 UNL     1      -6.439   2.269  -0.417  1.00  0.00     0.009 C 
HETATM   50  C28 UNL     1      -6.900   2.252  -1.850  1.00  0.00     0.012 C 
HETATM   51  C29 UNL     1      -5.537   3.452  -0.129  1.00  0.00     0.012 C 
ENDBRANCH  40  49
ENDBRANCH  38  40
ENDBRANCH  30  36
ENDBRANCH   1  30
TORSDOF 11
