REMARK  10 active torsions:
REMARK  status: ('A' for Active; 'I' for Inactive)
REMARK    1  A    between atoms: S1_2  and  C2_3 
REMARK    2  A    between atoms: C2_3  and  C3_4 
REMARK    3  A    between atoms: C7_8  and  C8_9 
REMARK       I    between atoms: C8_9  and  N1_11 
REMARK    4  A    between atoms: N1_11  and  C9_13 
REMARK    5  A    between atoms: C9_13  and  C12_18 
REMARK    6  A    between atoms: C10_14  and  C11_15 
REMARK    7  A    between atoms: C12_18  and  C13_19 
REMARK    8  A    between atoms: C20_26  and  N3_27 
REMARK    9  A    between atoms: C25_39  and  N6_40 
REMARK       I    between atoms: N6_40  and  C26_42 
REMARK       I    between atoms: C26_42  and  N7_44 
REMARK   10  A    between atoms: N7_44  and  C28_46 
ROOT
HETATM    1  C3  UNL     1      -2.560  -3.933   1.881  1.00  0.00     0.013 C 
HETATM    2  C4  UNL     1      -2.810  -2.650   1.436  1.00  0.00     0.031 C 
HETATM    3  C5  UNL     1      -2.115  -1.579   2.114  1.00  0.00     0.026 C 
HETATM    4  C6  UNL     1      -1.411  -0.525   1.999  1.00  0.00    -0.002 C 
HETATM    5  C7  UNL     1      -0.773   0.391   1.048  1.00  0.00     0.089 A 
HETATM    6  C17 UNL     1      -1.369   0.921  -0.126  1.00  0.00     0.056 A 
HETATM    7  C18 UNL     1      -0.370   1.044  -1.241  1.00  0.00    -0.020 C 
HETATM    8  C19 UNL     1      -0.444   0.853  -2.500  1.00  0.00    -0.004 C 
HETATM    9  C20 UNL     1      -1.551   0.427  -3.397  1.00  0.00     0.121 C 
HETATM   10  C21 UNL     1      -2.459  -0.427  -2.609  1.00  0.00     0.031 C 
HETATM   11  C22 UNL     1      -3.054  -1.637  -3.244  1.00  0.00     0.012 C 
HETATM   12  C23 UNL     1      -3.050  -2.682  -2.117  1.00  0.00     0.103 C 
HETATM   13  C24 UNL     1      -3.829  -2.217  -0.942  1.00  0.00     0.222 C 
HETATM   14  O3  UNL     1      -4.644  -1.286  -1.204  1.00  0.00    -0.273 OA
HETATM   15  N5  UNL     1      -3.771  -2.684   0.398  1.00  0.00    -0.327 N 
ATOM     16  H5  UNL     1      -4.629  -3.158   0.680  1.00  0.00     0.169 HD
HETATM   17  C25 UNL     1      -1.111   1.847   1.089  1.00  0.00     0.117 A 
ENDROOT
BRANCH   5  18
HETATM   18  C8  UNL     1       0.717   0.093   0.946  1.00  0.00     0.237 C 
HETATM   19  O1  UNL     1       1.518   0.962   1.339  1.00  0.00    -0.272 OA
HETATM   20  N1  UNL     1       1.202  -1.132   0.424  1.00  0.00    -0.329 N 
ATOM     21  H1  UNL     1       0.522  -1.827   0.116  1.00  0.00     0.168 HD
BRANCH  20  22
HETATM   22  C9  UNL     1       2.568  -1.444   0.307  1.00  0.00     0.020 C 
HETATM   23  C10 UNL     1       3.202  -2.424   0.910  1.00  0.00     0.096 C 
BRANCH  23  24
HETATM   24  C11 UNL     1       2.615  -3.375   1.816  1.00  0.00     0.256 C 
HETATM   25  N2  UNL     1       1.227  -3.321   2.147  1.00  0.00    -0.058 NA
HETATM   26  O2  UNL     1       3.349  -4.281   2.333  1.00  0.00    -0.272 OA
ENDBRANCH  23  24
BRANCH  22  27
HETATM   27  C12 UNL     1       3.363  -0.560  -0.618  1.00  0.00     0.084 C 
BRANCH  27  28
HETATM   28  C13 UNL     1       4.778  -0.939  -0.681  1.00  0.00    -0.019 C 
HETATM   29  C14 UNL     1       5.427  -1.329  -1.755  1.00  0.00    -0.091 C 
HETATM   30  C15 UNL     1       6.875  -1.699  -1.731  1.00  0.00     0.042 C 
HETATM   31  C16 UNL     1       4.688  -1.407  -3.058  1.00  0.00     0.042 C 
ENDBRANCH  27  28
ENDBRANCH  22  27
ENDBRANCH  20  22
ENDBRANCH   5  18
BRANCH  17  32
HETATM   32  N6  UNL     1      -0.252   2.933   0.898  1.00  0.00    -0.336 N 
HETATM   33  C26 UNL     1      -0.477   4.198   1.518  1.00  0.00     0.318 C 
HETATM   34  O4  UNL     1      -1.485   4.337   2.261  1.00  0.00    -0.247 OA
HETATM   35  N7  UNL     1       0.388   5.311   1.333  1.00  0.00    -0.335 N 
HETATM   36  C27 UNL     1       1.557   5.152   0.490  1.00  0.00     0.154 C 
ATOM     37  H6  UNL     1       0.563   2.817   0.295  1.00  0.00     0.164 HD
BRANCH  35  38
HETATM   38  C28 UNL     1       0.148   6.589   1.941  1.00  0.00     0.080 C 
HETATM   39  C29 UNL     1       0.105   7.616   0.812  1.00  0.00     0.032 C 
HETATM   40  C30 UNL     1       1.335   6.953   2.812  1.00  0.00     0.032 C 
ENDBRANCH  35  38
ENDBRANCH  17  32
BRANCH   1  41
HETATM   41  C2  UNL     1      -3.124  -5.159   1.376  1.00  0.00     0.103 C 
BRANCH  41  42
HETATM   42  S1  UNL     1      -4.056  -6.102   2.604  1.00  0.00    -0.170 SA
HETATM   43  C1  UNL     1      -5.522  -5.096   3.039  1.00  0.00     0.090 C 
ENDBRANCH  41  42
ENDBRANCH   1  41
BRANCH   9  44
HETATM   44  N3  UNL     1      -1.063  -0.239  -4.573  1.00  0.00    -0.335 N 
HETATM   45  N4  UNL     1       0.141  -0.436  -4.778  1.00  0.00    -0.349 N 
ATOM     46  H42 UNL     1       0.801  -0.106  -4.074  1.00  0.00     0.176 HD
ATOM     47  H41 UNL     1       0.487  -0.909  -5.613  1.00  0.00     0.176 HD
ATOM     48  H3  UNL     1      -1.737  -0.563  -5.267  1.00  0.00     0.180 HD
ENDBRANCH   9  44
TORSDOF 10
