REMARK  8 active torsions:
REMARK  status: ('A' for Active; 'I' for Inactive)
REMARK    1  A    between atoms: C2_2  and  C3_3 
REMARK    2  A    between atoms: C3_3  and  C4_4 
REMARK    3  A    between atoms: C4_4  and  N1_5 
REMARK       I    between atoms: N1_5  and  C5_7 
REMARK       I    between atoms: C5_7  and  N2_9 
REMARK    4  A    between atoms: N2_9  and  C6_11 
REMARK    5  A    between atoms: C6_11  and  C7_12 
REMARK    6  A    between atoms: C22_27  and  C23_28 
REMARK    7  A    between atoms: C23_28  and  N3_30 
REMARK    8  A    between atoms: C29_35  and  C30_36 
REMARK       I    between atoms: C30_36  and  N4_38 
ROOT
HETATM    1  C7  UNL     1       3.335  -0.021  -0.578  1.00  0.00     0.005 C 
HETATM    2  C8  UNL     1       3.776  -1.358  -0.164  1.00  0.00     0.015 C 
HETATM    3  C9  UNL     1       2.645  -2.276   0.197  1.00  0.00    -0.043 C 
HETATM    4  C10 UNL     1       3.289  -3.195   1.286  1.00  0.00     0.015 C 
HETATM    5  C11 UNL     1       2.306  -3.248  -0.879  1.00  0.00     0.015 C 
HETATM    6  C12 UNL     1       1.563  -1.562   0.889  1.00  0.00     0.002 C 
HETATM    7  C13 UNL     1       0.628  -2.409   1.666  1.00  0.00     0.007 C 
HETATM    8  C14 UNL     1      -0.819  -1.953   1.652  1.00  0.00     0.011 C 
HETATM    9  C15 UNL     1      -0.928  -0.443   1.904  1.00  0.00    -0.032 C 
HETATM   10  C16 UNL     1      -0.386  -0.396   3.356  1.00  0.00     0.016 C 
HETATM   11  C17 UNL     1      -0.008   0.326   1.049  1.00  0.00     0.003 C 
HETATM   12  C18 UNL     1      -0.495   1.501   0.324  1.00  0.00     0.006 C 
HETATM   13  C19 UNL     1      -1.878   2.014   0.773  1.00  0.00     0.006 C 
HETATM   14  C20 UNL     1      -2.757   0.859   0.757  1.00  0.00     0.000 C 
HETATM   15  C21 UNL     1      -4.179   0.858   0.788  1.00  0.00     0.014 C 
HETATM   16  C22 UNL     1      -5.212   1.356  -0.025  1.00  0.00     0.024 C 
HETATM   17  C27 UNL     1      -6.314   0.281   0.095  1.00  0.00     0.008 C 
HETATM   18  C28 UNL     1      -5.861  -0.504   1.365  1.00  0.00     0.020 C 
HETATM   19  C29 UNL     1      -4.447  -0.661   0.944  1.00  0.00     0.046 C 
HETATM   20  C33 UNL     1      -3.420  -1.033   1.946  1.00  0.00     0.030 C 
HETATM   21  C34 UNL     1      -2.354   0.030   2.005  1.00  0.00    -0.031 C 
HETATM   22  C35 UNL     1      -2.612   0.736   3.296  1.00  0.00     0.016 C 
HETATM   23  C36 UNL     1       0.888  -0.479   0.081  1.00  0.00    -0.035 C 
HETATM   24  C37 UNL     1       0.228  -0.928  -1.155  1.00  0.00     0.016 C 
HETATM   25  C38 UNL     1       1.983   0.476  -0.328  1.00  0.00     0.016 C 
ENDROOT
BRANCH   1  26
HETATM   26  C6  UNL     1       3.648   0.095  -2.086  1.00  0.00     0.129 C 
BRANCH  26  27
HETATM   27  N2  UNL     1       5.063  -0.072  -2.299  1.00  0.00    -0.343 N 
HETATM   28  C5  UNL     1       6.109   0.735  -1.838  1.00  0.00     0.316 C 
HETATM   29  N1  UNL     1       7.459   0.418  -2.121  1.00  0.00    -0.343 N 
HETATM   30  O1  UNL     1       5.897   1.759  -1.163  1.00  0.00    -0.247 OA
ATOM     31  H1  UNL     1       7.652  -0.415  -2.676  1.00  0.00     0.164 HD
ATOM     32  H2  UNL     1       5.337  -0.881  -2.856  1.00  0.00     0.164 HD
BRANCH  29  33
HETATM   33  C4  UNL     1       8.574   1.207  -1.668  1.00  0.00     0.124 C 
BRANCH  33  34
HETATM   34  C3  UNL     1       8.701   1.322  -0.186  1.00  0.00     0.019 C 
BRANCH  34  35
HETATM   35  C2  UNL     1       9.924   2.179   0.134  1.00  0.00    -0.003 C 
HETATM   36  C1  UNL     1      11.189   1.553  -0.429  1.00  0.00     0.005 C 
ENDBRANCH  34  35
ENDBRANCH  33  34
ENDBRANCH  29  33
ENDBRANCH  26  27
ENDBRANCH   1  26
BRANCH  19  37
HETATM   37  C30 UNL     1      -4.374  -1.480  -0.237  1.00  0.00     0.228 C 
HETATM   38  O2  UNL     1      -4.034  -1.095  -1.392  1.00  0.00    -0.273 OA
HETATM   39  N4  UNL     1      -4.684  -2.838  -0.218  1.00  0.00    -0.360 N 
HETATM   40  C31 UNL     1      -4.600  -3.661  -1.431  1.00  0.00     0.152 C 
HETATM   41  C32 UNL     1      -5.107  -3.555   0.938  1.00  0.00     0.152 C 
ENDBRANCH  19  37
BRANCH  16  42
HETATM   42  C23 UNL     1      -5.141   1.969  -1.350  1.00  0.00     0.222 C 
HETATM   43  C24 UNL     1      -6.568   2.317  -1.874  1.00  0.00     0.043 C 
BRANCH  42  44
HETATM   44  N3  UNL     1      -4.538   3.318  -1.303  1.00  0.00     0.084 N 
HETATM   45  C25 UNL     1      -5.275   4.256  -0.540  1.00  0.00     0.309 C 
HETATM   46  C26 UNL     1      -4.131   3.750  -2.605  1.00  0.00     0.309 C 
ENDBRANCH  42  44
ENDBRANCH  16  42
TORSDOF 8
