REMARK  8 active torsions:
REMARK  status: ('A' for Active; 'I' for Inactive)
REMARK    1  A    between atoms: C2_2  and  C4_4 
REMARK    2  A    between atoms: C7_7  and  C8_8 
REMARK       I    between atoms: C8_8  and  N1_10 
REMARK    3  A    between atoms: N1_10  and  C9_12 
REMARK    4  A    between atoms: C9_12  and  C10_13 
REMARK    5  A    between atoms: C26_29  and  C27_30 
REMARK       I    between atoms: C27_30  and  N2_32 
REMARK    6  A    between atoms: N2_32  and  C28_34 
REMARK    7  A    between atoms: C28_34  and  C29_35 
REMARK    8  A    between atoms: C28_34  and  C32_40 
REMARK       I    between atoms: C29_35  and  N3_37 
ROOT
HETATM    1  C4  UNL     1       2.073   1.010   2.683  1.00  0.00     0.019 C 
HETATM    2  C5  UNL     1       3.125   2.130   2.548  1.00  0.00     0.010 C 
HETATM    3  C6  UNL     1       3.835   1.816   1.254  1.00  0.00     0.020 C 
HETATM    4  C7  UNL     1       2.962   0.827   0.512  1.00  0.00     0.045 C 
HETATM    5  C16 UNL     1       2.591   1.330  -0.877  1.00  0.00     0.020 C 
HETATM    6  C17 UNL     1       1.675   0.290  -1.457  1.00  0.00     0.012 C 
HETATM    7  C18 UNL     1       0.464  -0.062  -0.671  1.00  0.00    -0.029 C 
HETATM    8  C19 UNL     1       0.182  -1.550  -0.987  1.00  0.00     0.016 C 
HETATM    9  C20 UNL     1       0.595   0.033   0.824  1.00  0.00     0.001 C 
HETATM   10  C21 UNL     1      -0.688   0.553   1.467  1.00  0.00     0.006 C 
HETATM   11  C22 UNL     1      -1.219   1.806   0.884  1.00  0.00     0.006 C 
HETATM   12  C23 UNL     1      -1.007   1.974  -0.576  1.00  0.00    -0.001 C 
HETATM   13  C24 UNL     1      -2.194   2.632  -1.204  1.00  0.00     0.010 C 
HETATM   14  C25 UNL     1      -3.425   1.809  -1.281  1.00  0.00     0.044 C 
HETATM   15  C26 UNL     1      -3.211   0.364  -0.997  1.00  0.00     0.007 C 
HETATM   16  C35 UNL     1      -2.014  -0.186  -0.959  1.00  0.00    -0.004 C 
HETATM   17  C36 UNL     1      -0.790   0.629  -1.204  1.00  0.00    -0.014 C 
HETATM   18  C37 UNL     1      -0.714   0.774  -2.717  1.00  0.00     0.021 C 
HETATM   19  C38 UNL     1       1.707   0.882   1.281  1.00  0.00     0.016 C 
ENDROOT
BRANCH  15  20
HETATM   20  C27 UNL     1      -4.402  -0.442  -0.751  1.00  0.00     0.248 C 
HETATM   21  O2  UNL     1      -4.264  -1.686  -0.496  1.00  0.00    -0.268 OA
HETATM   22  N2  UNL     1      -5.707   0.075  -0.781  1.00  0.00    -0.344 N 
ATOM     23  H2  UNL     1      -5.850   1.064  -0.984  1.00  0.00     0.163 HD
BRANCH  22  24
HETATM   24  C28 UNL     1      -6.871  -0.787  -0.524  1.00  0.00     0.180 C 
BRANCH  24  25
HETATM   25  C29 UNL     1      -7.671  -0.213   0.565  1.00  0.00     0.242 C 
HETATM   26  O3  UNL     1      -7.761   1.073   0.544  1.00  0.00    -0.271 OA
HETATM   27  N3  UNL     1      -8.332  -0.873   1.603  1.00  0.00    -0.359 N 
HETATM   28  C30 UNL     1      -8.274  -2.300   1.751  1.00  0.00     0.152 C 
HETATM   29  C31 UNL     1      -9.105  -0.125   2.569  1.00  0.00     0.152 C 
ENDBRANCH  24  25
BRANCH  24  30
HETATM   30  C32 UNL     1      -7.695  -0.877  -1.794  1.00  0.00     0.009 C 
HETATM   31  C33 UNL     1      -8.198   0.454  -2.256  1.00  0.00     0.012 C 
HETATM   32  C34 UNL     1      -8.844  -1.827  -1.627  1.00  0.00     0.012 C 
ENDBRANCH  24  30
ENDBRANCH  22  24
ENDBRANCH  15  20
BRANCH   4  33
HETATM   33  C8  UNL     1       3.705  -0.417   0.400  1.00  0.00     0.226 C 
HETATM   34  O1  UNL     1       3.365  -1.570   0.738  1.00  0.00    -0.273 OA
HETATM   35  N1  UNL     1       5.010  -0.337  -0.176  1.00  0.00    -0.360 N 
ATOM     36  H1  UNL     1       5.352   0.576  -0.474  1.00  0.00     0.162 HD
BRANCH  35  37
HETATM   37  C9  UNL     1       5.862  -1.474  -0.356  1.00  0.00     0.127 C 
BRANCH  37  38
HETATM   38  C10 UNL     1       7.155  -1.034  -0.989  1.00  0.00     0.003 C 
HETATM   39  C11 UNL     1       8.102  -2.196  -1.207  1.00  0.00     0.006 C 
HETATM   40  C12 UNL     1       9.473  -1.594  -1.469  1.00  0.00     0.000 C 
HETATM   41  C13 UNL     1       9.361  -0.200  -2.059  1.00  0.00     0.000 C 
HETATM   42  C14 UNL     1       8.790   0.774  -1.050  1.00  0.00     0.000 C 
HETATM   43  C15 UNL     1       7.887  -0.023  -0.133  1.00  0.00     0.006 C 
ENDBRANCH  37  38
ENDBRANCH  35  37
ENDBRANCH   4  33
BRANCH   1  44
HETATM   44  C2  UNL     1       2.477  -0.108   3.499  1.00  0.00    -0.089 C 
HETATM   45  C1  UNL     1       3.676  -0.168   4.041  1.00  0.00     0.014 C 
HETATM   46  C3  UNL     1       1.552  -1.245   3.812  1.00  0.00     0.043 C 
ENDBRANCH   1  44
TORSDOF 8
