REMARK  8 active torsions:
REMARK  status: ('A' for Active; 'I' for Inactive)
REMARK    1  A    between atoms: C2_2  and  C4_4 
REMARK    2  A    between atoms: C7_7  and  C8_8 
REMARK       I    between atoms: C8_8  and  N1_10 
REMARK    3  A    between atoms: N1_10  and  C9_12 
REMARK    4  A    between atoms: C9_12  and  C10_13 
REMARK    5  A    between atoms: C9_12  and  C14_17 
REMARK    6  A    between atoms: C10_13  and  C11_14 
REMARK    7  A    between atoms: C24_29  and  C25_30 
REMARK    8  A    between atoms: C25_30  and  N3_32 
ROOT
HETATM    1  C4  UNL     1      -1.945  -3.683  -0.063  1.00  0.00     0.029 C 
HETATM    2  C5  UNL     1      -1.741  -3.527   1.430  1.00  0.00     0.012 C 
HETATM    3  C6  UNL     1      -2.722  -2.424   1.820  1.00  0.00     0.025 C 
HETATM    4  C7  UNL     1      -2.680  -1.475   0.666  1.00  0.00     0.072 C 
HETATM    5  C15 UNL     1      -1.623  -0.383   0.928  1.00  0.00    -0.009 C 
HETATM    6  C16 UNL     1      -1.302   0.609  -0.018  1.00  0.00    -0.018 C 
HETATM    7  C17 UNL     1      -0.326   0.591  -1.179  1.00  0.00    -0.005 C 
HETATM    8  C18 UNL     1      -0.823   1.767  -2.027  1.00  0.00     0.021 C 
HETATM    9  C19 UNL     1       1.046   0.930  -0.728  1.00  0.00     0.007 C 
HETATM   10  C20 UNL     1       1.353   0.350   0.613  1.00  0.00     0.007 C 
HETATM   11  C21 UNL     1       2.737   0.747   1.149  1.00  0.00     0.010 C 
HETATM   12  C22 UNL     1       3.824   0.359   0.197  1.00  0.00    -0.034 C 
HETATM   13  C23 UNL     1       4.032  -1.100   0.040  1.00  0.00     0.016 C 
HETATM   14  C24 UNL     1       5.087   1.134   0.448  1.00  0.00     0.016 C 
HETATM   15  C29 UNL     1       5.791   0.839  -0.837  1.00  0.00     0.008 C 
HETATM   16  C30 UNL     1       4.670   1.016  -1.906  1.00  0.00     0.007 C 
HETATM   17  C31 UNL     1       3.443   1.025  -1.103  1.00  0.00     0.003 C 
HETATM   18  C32 UNL     1       2.145   0.757  -1.746  1.00  0.00    -0.035 C 
HETATM   19  C33 UNL     1       2.106   1.911  -2.789  1.00  0.00     0.016 C 
HETATM   20  C34 UNL     1       1.998  -0.466  -2.574  1.00  0.00     0.011 C 
HETATM   21  C35 UNL     1       0.890  -1.370  -2.196  1.00  0.00     0.023 C 
HETATM   22  C36 UNL     1      -0.439  -0.727  -1.985  1.00  0.00     0.019 C 
HETATM   23  C37 UNL     1      -0.933  -0.478  -3.419  1.00  0.00     0.029 C 
HETATM   24  C38 UNL     1      -1.382  -1.555  -1.313  1.00  0.00    -0.165 C 
HETATM   25  C39 UNL     1      -2.296  -2.323  -0.587  1.00  0.00     0.082 C 
ENDROOT
BRANCH   4  26
HETATM   26  C8  UNL     1      -3.954  -0.769   0.413  1.00  0.00     0.232 C 
HETATM   27  O1  UNL     1      -4.540  -0.977  -0.704  1.00  0.00    -0.272 OA
HETATM   28  N1  UNL     1      -4.537   0.097   1.318  1.00  0.00    -0.347 N 
ATOM     29  H1  UNL     1      -4.086   0.279   2.215  1.00  0.00     0.163 HD
BRANCH  28  30
HETATM   30  C9  UNL     1      -5.817   0.760   0.983  1.00  0.00     0.174 C 
BRANCH  30  31
HETATM   31  C10 UNL     1      -5.478   2.221   0.878  1.00  0.00     0.038 C 
BRANCH  31  32
HETATM   32  C11 UNL     1      -6.622   3.093   0.522  1.00  0.00    -0.020 C 
HETATM   33  C12 UNL     1      -7.188   2.679  -0.817  1.00  0.00     0.009 C 
HETATM   34  C13 UNL     1      -6.121   4.537   0.358  1.00  0.00     0.009 C 
ENDBRANCH  31  32
ENDBRANCH  30  31
BRANCH  30  35
HETATM   35  C14 UNL     1      -6.804   0.506   2.034  1.00  0.00     0.254 C 
HETATM   36  N2  UNL     1      -8.148   0.911   2.017  1.00  0.00    -0.060 NA
HETATM   37  O2  UNL     1      -6.390  -0.150   3.059  1.00  0.00    -0.275 OA
ENDBRANCH  30  35
ENDBRANCH  28  30
ENDBRANCH   4  26
BRANCH   1  38
HETATM   38  C2  UNL     1      -0.846  -4.408  -0.653  1.00  0.00    -0.088 C 
HETATM   39  C1  UNL     1       0.263  -4.831  -0.068  1.00  0.00     0.014 C 
HETATM   40  C3  UNL     1      -0.927  -4.770  -2.131  1.00  0.00     0.043 C 
ENDBRANCH   1  38
BRANCH  14  41
HETATM   41  C25 UNL     1       5.813   1.153   1.654  1.00  0.00     0.079 C 
HETATM   42  C26 UNL     1       5.181   1.643   2.932  1.00  0.00     0.032 C 
BRANCH  41  43
HETATM   43  N3  UNL     1       6.512  -0.031   1.990  1.00  0.00    -0.417 N 
HETATM   44  C27 UNL     1       7.599  -0.480   1.210  1.00  0.00     0.143 C 
HETATM   45  C28 UNL     1       6.714  -0.333   3.359  1.00  0.00     0.143 C 
ENDBRANCH  41  43
ENDBRANCH  14  41
TORSDOF 8
