REMARK  9 active torsions:
REMARK  status: ('A' for Active; 'I' for Inactive)
REMARK    1  A    between atoms: C1_2  and  C2_3 
REMARK       I    between atoms: C1_2  and  N1_10 
REMARK    2  A    between atoms: C2_3  and  C3_4 
REMARK    3  A    between atoms: N1_10  and  C9_12 
REMARK    4  A    between atoms: C9_12  and  C10_13 
REMARK    5  A    between atoms: C10_13  and  C11_14 
REMARK    6  A    between atoms: C11_14  and  N2_15 
REMARK    7  A    between atoms: N2_15  and  C12_17 
REMARK    8  A    between atoms: C12_17  and  C13_19 
REMARK       I    between atoms: N3_22  and  C16_23 
REMARK    9  A    between atoms: C16_23  and  C17_25 
ROOT
HETATM    1  N2  UNL     1      -0.617   0.076  -1.522  1.00  0.00    -0.383 N 
ATOM      2  H2  UNL     1      -0.111   0.426  -2.336  1.00  0.00     0.160 HD
ENDROOT
BRANCH   1   3
HETATM    3  C11 UNL     1       0.119  -0.357  -0.380  1.00  0.00     0.122 C 
BRANCH   3   4
HETATM    4  C10 UNL     1       1.624  -0.256  -0.593  1.00  0.00     0.039 C 
BRANCH   4   5
HETATM    5  C9  UNL     1       2.059   1.139  -0.881  1.00  0.00     0.124 C 
BRANCH   5   6
HETATM    6  N1  UNL     1       3.477   1.191  -1.085  1.00  0.00    -0.361 N 
HETATM    7  C1  UNL     1       4.451   0.844  -0.125  1.00  0.00     0.217 C 
HETATM    8  O1  UNL     1       4.106   0.454   1.027  1.00  0.00    -0.274 OA
ATOM      9  H1  UNL     1       3.808   1.504  -1.997  1.00  0.00     0.162 HD
BRANCH   7  10
HETATM   10  C2  UNL     1       5.896   0.938  -0.468  1.00  0.00     0.107 C 
BRANCH  10  11
HETATM   11  C3  UNL     1       6.712   0.401   0.659  1.00  0.00    -0.006 C 
HETATM   12  C4  UNL     1       8.208   0.532   0.310  1.00  0.00     0.005 C 
HETATM   13  C5  UNL     1       9.047  -0.025   1.446  1.00  0.00     0.000 C 
HETATM   14  C6  UNL     1       8.194  -0.416   2.635  1.00  0.00     0.000 C 
HETATM   15  C7  UNL     1       7.073  -1.345   2.299  1.00  0.00     0.000 C 
HETATM   16  C8  UNL     1       6.525  -1.096   0.892  1.00  0.00     0.005 C 
ENDBRANCH  10  11
ENDBRANCH   7  10
ENDBRANCH   5   6
ENDBRANCH   4   5
ENDBRANCH   3   4
ENDBRANCH   1   3
BRANCH   1  17
HETATM   17  C12 UNL     1      -2.026   0.032  -1.555  1.00  0.00     0.096 C 
HETATM   18  S1  UNL     1      -2.814   0.550  -2.890  1.00  0.00    -0.063 SA
BRANCH  17  19
HETATM   19  C13 UNL     1      -2.766  -0.479  -0.373  1.00  0.00     0.150 A 
HETATM   20  C14 UNL     1      -2.722   0.385   0.826  1.00  0.00     0.052 A 
HETATM   21  C15 UNL     1      -4.196   0.471   0.712  1.00  0.00     0.129 A 
HETATM   22  N3  UNL     1      -4.200  -0.406  -0.421  1.00  0.00    -0.341 N 
HETATM   23  C16 UNL     1      -5.184  -1.005  -1.282  1.00  0.00     0.224 C 
HETATM   24  O2  UNL     1      -4.794  -1.757  -2.202  1.00  0.00    -0.273 OA
BRANCH  23  25
HETATM   25  C17 UNL     1      -6.634  -0.760  -1.112  1.00  0.00     0.078 C 
HETATM   26  C18 UNL     1      -6.897   0.687  -1.222  1.00  0.00     0.014 C 
HETATM   27  C19 UNL     1      -7.742   1.275  -0.129  1.00  0.00     0.001 C 
HETATM   28  C20 UNL     1      -8.875   0.277   0.142  1.00  0.00     0.000 C 
HETATM   29  C21 UNL     1      -8.211  -0.869   0.874  1.00  0.00     0.001 C 
HETATM   30  C22 UNL     1      -7.062  -1.442   0.142  1.00  0.00     0.014 C 
ENDBRANCH  23  25
ENDBRANCH  17  19
ENDBRANCH   1  17
TORSDOF 9
