REMARK  10 active torsions:
REMARK  status: ('A' for Active; 'I' for Inactive)
REMARK    1  A    between atoms: C3_3  and  N1_4 
REMARK    2  A    between atoms: N1_4  and  C4_5 
REMARK    3  A    between atoms: N1_4  and  C9_10 
REMARK    4  A    between atoms: C9_10  and  C10_11 
REMARK    5  A    between atoms: C9_10  and  C21_28 
REMARK       I    between atoms: C10_11  and  N2_13 
REMARK    6  A    between atoms: N2_13  and  C11_15 
REMARK    7  A    between atoms: C11_15  and  C12_16 
REMARK    8  A    between atoms: C11_15  and  C17_24 
REMARK    9  A    between atoms: C12_16  and  C13_17 
REMARK   10  A    between atoms: C17_24  and  C19_26 
ROOT
HETATM    1  C1  UNL     1       3.725   3.209   1.286  1.00  0.00     0.018 C 
HETATM    2  C2  UNL     1       2.759   2.546   0.994  1.00  0.00    -0.072 C 
HETATM    3  C3  UNL     1       1.566   1.711   0.656  1.00  0.00     0.155 C 
ENDROOT
BRANCH   3   4
HETATM    4  N1  UNL     1       1.992   0.432   0.370  1.00  0.00    -0.343 N 
BRANCH   4   5
HETATM    5  C4  UNL     1       2.746   0.362  -0.832  1.00  0.00     0.090 C 
HETATM    6  C5  UNL     1       3.058  -0.976  -1.384  1.00  0.00     0.026 C 
HETATM    7  C6  UNL     1       3.735  -0.627  -2.695  1.00  0.00     0.002 C 
HETATM    8  C7  UNL     1       3.065   0.628  -3.156  1.00  0.00     0.002 C 
HETATM    9  C8  UNL     1       2.188   1.102  -2.000  1.00  0.00     0.026 C 
ENDBRANCH   4   5
BRANCH   4  10
HETATM   10  C9  UNL     1       1.434  -0.742   0.885  1.00  0.00     0.088 C 
BRANCH  10  11
HETATM   11  C10 UNL     1       0.044  -1.071   0.506  1.00  0.00     0.265 C 
HETATM   12  O1  UNL     1      -0.472  -2.205   0.837  1.00  0.00    -0.266 OA
HETATM   13  N2  UNL     1      -0.873  -0.275  -0.220  1.00  0.00    -0.351 N 
ATOM     14  H2  UNL     1      -0.566   0.651  -0.518  1.00  0.00     0.163 HD
BRANCH  13  15
HETATM   15  C11 UNL     1      -2.215  -0.683  -0.568  1.00  0.00     0.089 C 
BRANCH  15  16
HETATM   16  C12 UNL     1      -3.253  -0.113   0.311  1.00  0.00     0.039 C 
BRANCH  16  17
HETATM   17  C13 UNL     1      -3.429   1.348   0.403  1.00  0.00     0.081 C 
HETATM   18  C14 UNL     1      -2.259   2.139   0.898  1.00  0.00     0.034 C 
HETATM   19  C15 UNL     1      -2.827   3.193   1.830  1.00  0.00     0.123 C 
HETATM   20  N3  UNL     1      -3.860   2.401   2.489  1.00  0.00    -0.361 N 
HETATM   21  C16 UNL     1      -4.445   1.614   1.471  1.00  0.00     0.221 C 
ATOM     22  H3  UNL     1      -4.108   2.413   3.478  1.00  0.00     0.162 HD
HETATM   23  O2  UNL     1      -5.653   1.227   1.520  1.00  0.00    -0.273 OA
ENDBRANCH  16  17
ENDBRANCH  15  16
BRANCH  15  24
HETATM   24  C17 UNL     1      -2.491  -0.593  -2.035  1.00  0.00     0.004 C 
HETATM   25  C18 UNL     1      -3.889  -1.010  -2.418  1.00  0.00     0.012 C 
BRANCH  24  26
HETATM   26  C19 UNL     1      -1.562  -1.474  -2.840  1.00  0.00     0.002 C 
HETATM   27  C20 UNL     1      -1.696  -2.935  -2.472  1.00  0.00     0.005 C 
ENDBRANCH  24  26
ENDBRANCH  15  24
ENDBRANCH  13  15
ENDBRANCH  10  11
BRANCH  10  28
HETATM   28  C21 UNL     1       1.722  -0.950   2.364  1.00  0.00    -0.003 C 
HETATM   29  C22 UNL     1       3.259  -0.981   2.477  1.00  0.00     0.021 C 
HETATM   30  C23 UNL     1       1.211   0.033   3.309  1.00  0.00     0.021 C 
HETATM   31  C24 UNL     1       1.296  -2.353   2.735  1.00  0.00     0.021 C 
ENDBRANCH  10  28
ENDBRANCH   4  10
ENDBRANCH   3   4
TORSDOF 10
