REMARK  2 active torsions:
REMARK  status: ('A' for Active; 'I' for Inactive)
REMARK    1  A    between atoms: C1_2  and  N2_4 
REMARK    2  A    between atoms: N2_4  and  C2_6 
ROOT
HETATM    1  C2  UNL     1      -0.108   0.669  -0.323  1.00  0.00     0.191 A 
HETATM    2  N3  UNL     1      -0.419  -0.370   0.473  1.00  0.00    -0.280 N 
ATOM      3  H3  UNL     1       0.325  -0.852   0.978  1.00  0.00     0.188 HD
HETATM    4  N4  UNL     1      -1.680  -0.785   0.617  1.00  0.00    -0.294 N 
ATOM      5  H4  UNL     1      -1.904  -1.574   1.223  1.00  0.00     0.187 HD
HETATM    6  C3  UNL     1      -2.647  -0.137  -0.057  1.00  0.00     0.200 A 
HETATM    7  N5  UNL     1      -2.390   0.910  -0.867  1.00  0.00    -0.315 N 
ATOM      8  H5  UNL     1      -3.147   1.380  -1.363  1.00  0.00     0.170 HD
HETATM    9  C4  UNL     1      -1.105   1.327  -1.010  1.00  0.00     0.291 A 
HETATM   10  O1  UNL     1      -0.785   2.283  -1.736  1.00  0.00    -0.264 OA
ENDROOT
BRANCH   1  11
HETATM   11  N2  UNL     1       1.112   1.062  -0.456  1.00  0.00    -0.316 N 
ATOM     12  H2  UNL     1       1.320   1.852  -1.066  1.00  0.00     0.169 HD
BRANCH  11  13
HETATM   13  C1  UNL     1       2.173   0.413   0.233  1.00  0.00     0.186 C 
HETATM   14  N1  UNL     1       2.651  -0.876  -0.128  1.00  0.00    -0.070 NA
HETATM   15  S1  UNL     1       2.843   1.216   1.485  1.00  0.00    -0.044 SA
ENDBRANCH  11  13
ENDBRANCH   1  11
TORSDOF 2
