REMARK  1 active torsions:
REMARK  status: ('A' for Active; 'I' for Inactive)
REMARK    1  A    between atoms: N4_12  and  O3_13 
ROOT
HETATM    1  O1  UNL     1      -3.317  -0.746   0.125  1.00  0.00    -0.247 OA
HETATM    2  C1  UNL     1      -2.119  -0.328   0.103  1.00  0.00     0.328 A 
HETATM    3  N1  UNL     1      -1.895   0.984   0.295  1.00  0.00    -0.273 N 
ATOM      4  H1  UNL     1      -2.676   1.621   0.454  1.00  0.00     0.173 HD
HETATM    5  C2  UNL     1      -0.635   1.450   0.276  1.00  0.00     0.283 A 
HETATM    6  O2  UNL     1      -0.413   2.666   0.453  1.00  0.00    -0.265 OA
HETATM    7  C3  UNL     1       0.442   0.615   0.065  1.00  0.00     0.192 A 
HETATM    8  C4  UNL     1       0.199  -0.748  -0.133  1.00  0.00     0.159 A 
HETATM    9  N2  UNL     1       1.396  -1.336  -0.314  1.00  0.00    -0.265 N 
ATOM     10  H2  UNL     1       1.542  -2.331  -0.483  1.00  0.00     0.186 HD
HETATM   11  N3  UNL     1       2.354  -0.427  -0.240  1.00  0.00     0.008 NA
HETATM   12  N4  UNL     1       1.769   0.740  -0.012  1.00  0.00    -0.138 N 
HETATM   13  N5  UNL     1      -1.078  -1.154  -0.104  1.00  0.00    -0.291 N 
ATOM     14  H5  UNL     1      -1.271  -2.145  -0.247  1.00  0.00     0.172 HD
ENDROOT
BRANCH  12  15
HETATM   15  O3  UNL     1       2.378   1.799   0.111  1.00  0.00    -0.269 OA
ATOM     16  H3  UNL     1       3.322   1.888   0.056  1.00  0.00     0.246 HD
ENDBRANCH  12  15
TORSDOF 1
