REMARK  16 active torsions:
REMARK  status: ('A' for Active; 'I' for Inactive)
REMARK    1  A    between atoms: C3_3  and  C6_6 
REMARK    2  A    between atoms: C7_7  and  O1_8 
REMARK    3  A    between atoms: C8_12  and  C9_13 
REMARK    4  A    between atoms: C9_13  and  C10_14 
REMARK    5  A    between atoms: C13_17  and  O2_18 
REMARK    6  A    between atoms: C14_22  and  C15_23 
REMARK    7  A    between atoms: C15_23  and  C16_24 
REMARK    8  A    between atoms: C19_27  and  O3_28 
REMARK    9  A    between atoms: C20_32  and  C21_33 
REMARK   10  A    between atoms: C21_33  and  C22_34 
REMARK   11  A    between atoms: C22_34  and  C23_35 
REMARK   12  A    between atoms: C23_35  and  N4_36 
REMARK   13  A    between atoms: C26_45  and  C27_46 
REMARK   14  A    between atoms: N8_51  and  C31_52 
REMARK   15  A    between atoms: C31_52  and  C33_54 
REMARK   16  A    between atoms: C33_54  and  C34_55 
ROOT
HETATM    1  C1  UNL     1      -5.655   0.715   1.846  1.00  0.00     0.098 C 
HETATM    2  C2  UNL     1      -4.485   0.339   1.878  1.00  0.00    -0.176 C 
HETATM    3  C3  UNL     1      -3.086  -0.073   1.955  1.00  0.00     0.032 C 
HETATM    4  C4  UNL     1      -3.090  -1.354   2.759  1.00  0.00     0.030 C 
HETATM    5  C5  UNL     1      -2.394   0.914   2.925  1.00  0.00     0.030 C 
ENDROOT
BRANCH   3   6
HETATM    6  C6  UNL     1      -2.377  -0.122   0.676  1.00  0.00     0.181 C 
HETATM    7  C7  UNL     1      -2.403   1.193  -0.033  1.00  0.00     0.141 C 
HETATM    8  N1  UNL     1      -1.470   2.167  -0.325  1.00  0.00    -0.339 N 
HETATM    9  C8  UNL     1      -0.805   3.249   0.306  1.00  0.00     0.062 C 
ATOM     10  H1  UNL     1      -1.164   2.083  -1.294  1.00  0.00     0.167 HD
HETATM   11  C13 UNL     1       0.373   2.987   1.149  1.00  0.00     0.159 C 
HETATM   12  N2  UNL     1       1.620   2.458   0.879  1.00  0.00    -0.357 N 
HETATM   13  C14 UNL     1       2.653   2.782  -0.054  1.00  0.00     0.158 C 
ATOM     14  H2  UNL     1       1.854   1.664   1.475  1.00  0.00     0.162 HD
HETATM   15  C19 UNL     1       3.608   1.647  -0.206  1.00  0.00     0.135 C 
HETATM   16  N3  UNL     1       3.325   0.366  -0.695  1.00  0.00    -0.359 N 
HETATM   17  C20 UNL     1       2.368  -0.599  -0.182  1.00  0.00     0.175 C 
ATOM     18  H3  UNL     1       3.858   0.074  -1.514  1.00  0.00     0.162 HD
HETATM   19  C25 UNL     1       2.034  -1.539  -1.281  1.00  0.00     0.241 C 
HETATM   20  O4  UNL     1       2.922  -1.823  -2.173  1.00  0.00    -0.271 OA
HETATM   21  N7  UNL     1       0.764  -2.113  -1.354  1.00  0.00    -0.346 N 
HETATM   22  C26 UNL     1      -0.211  -2.280  -0.286  1.00  0.00     0.180 C 
ATOM     23  H7  UNL     1       0.484  -2.459  -2.272  1.00  0.00     0.163 HD
HETATM   24  C30 UNL     1      -1.539  -1.984  -0.841  1.00  0.00     0.244 C 
HETATM   25  O5  UNL     1      -1.682  -2.510  -2.004  1.00  0.00    -0.271 OA
HETATM   26  N8  UNL     1      -2.609  -1.219  -0.250  1.00  0.00    -0.332 N 
BRANCH   7  27
HETATM   27  O1  UNL     1      -3.637   1.395  -0.449  1.00  0.00    -0.348 OA
ATOM     28  H1  UNL     1      -3.654   2.231  -0.900  1.00  0.00     0.219 HD
ENDBRANCH   7  27
BRANCH   9  29
HETATM   29  C9  UNL     1      -1.712   4.298   0.958  1.00  0.00     0.065 C 
BRANCH  29  30
HETATM   30  C10 UNL     1      -2.627   4.950  -0.017  1.00  0.00    -0.017 C 
HETATM   31  C11 UNL     1      -1.915   5.676  -1.138  1.00  0.00     0.010 C 
HETATM   32  C12 UNL     1      -3.413   6.013   0.756  1.00  0.00     0.010 C 
ENDBRANCH  29  30
ENDBRANCH   9  29
BRANCH  11  33
HETATM   33  O2  UNL     1       0.186   3.332   2.398  1.00  0.00    -0.345 OA
ATOM     34  H2  UNL     1       0.946   3.163   2.942  1.00  0.00     0.219 HD
ENDBRANCH  11  33
BRANCH  13  35
HETATM   35  C15 UNL     1       2.243   3.257  -1.394  1.00  0.00     0.037 C 
BRANCH  35  36
HETATM   36  C16 UNL     1       3.456   3.543  -2.256  1.00  0.00    -0.020 C 
HETATM   37  C17 UNL     1       4.339   4.610  -1.691  1.00  0.00     0.009 C 
HETATM   38  C18 UNL     1       2.897   4.066  -3.593  1.00  0.00     0.009 C 
ENDBRANCH  35  36
ENDBRANCH  13  35
BRANCH  15  39
HETATM   39  O3  UNL     1       4.848   1.838   0.144  1.00  0.00    -0.348 OA
ATOM     40  H3  UNL     1       5.456   1.115   0.047  1.00  0.00     0.219 HD
ENDBRANCH  15  39
BRANCH  17  41
HETATM   41  C21 UNL     1       3.029  -1.438   0.924  1.00  0.00     0.036 C 
BRANCH  41  42
HETATM   42  C22 UNL     1       4.217  -2.190   0.430  1.00  0.00     0.022 C 
BRANCH  42  43
HETATM   43  C23 UNL     1       4.798  -2.964   1.615  1.00  0.00     0.122 C 
BRANCH  43  44
HETATM   44  N4  UNL     1       5.948  -3.700   1.178  1.00  0.00    -0.367 N 
HETATM   45  C24 UNL     1       7.140  -3.323   1.422  1.00  0.00     0.196 C 
HETATM   46  N5  UNL     1       8.232  -4.097   0.961  1.00  0.00    -0.067 NA
HETATM   47  N6  UNL     1       7.357  -2.131   2.152  1.00  0.00    -0.067 NA
ATOM     48  H4  UNL     1       5.806  -4.561   0.650  1.00  0.00     0.161 HD
ENDBRANCH  43  44
ENDBRANCH  42  43
ENDBRANCH  41  42
ENDBRANCH  17  41
BRANCH  22  49
HETATM   49  C27 UNL     1      -0.038  -3.758   0.100  1.00  0.00     0.009 C 
HETATM   50  C28 UNL     1      -0.312  -4.697  -1.028  1.00  0.00     0.012 C 
HETATM   51  C29 UNL     1      -0.715  -4.122   1.376  1.00  0.00     0.012 C 
ENDBRANCH  22  49
BRANCH  26  52
HETATM   52  C31 UNL     1      -3.907  -1.648  -0.743  1.00  0.00     0.084 C 
HETATM   53  C32 UNL     1      -3.956  -1.433  -2.285  1.00  0.00     0.032 C 
BRANCH  52  54
HETATM   54  C33 UNL     1      -4.187  -3.120  -0.578  1.00  0.00     0.024 C 
BRANCH  54  55
HETATM   55  C34 UNL     1      -5.587  -3.458  -1.122  1.00  0.00    -0.002 C 
HETATM   56  C35 UNL     1      -5.749  -4.967  -0.901  1.00  0.00     0.005 C 
ENDBRANCH  54  55
ENDBRANCH  52  54
ENDBRANCH  26  52
ENDBRANCH   3   6
TORSDOF 16
