REMARK  5 active torsions:
REMARK  status: ('A' for Active; 'I' for Inactive)
REMARK    1  A    between atoms: C2_3  and  C3_4 
REMARK    2  A    between atoms: C2_3  and  N3_9 
REMARK    3  A    between atoms: C3_4  and  N2_5 
REMARK    4  A    between atoms: N3_9  and  C4_12 
REMARK    5  A    between atoms: C4_12  and  C5_13 
ROOT
HETATM    1  N1  UNL     1       2.491  -2.704  -0.201  1.00  0.00    -0.195 NA
HETATM    2  C1  UNL     1       2.521  -1.574  -0.461  1.00  0.00     0.094 C 
HETATM    3  C2  UNL     1       2.555  -0.149  -0.814  1.00  0.00     0.316 C 
ENDROOT
BRANCH   3   4
HETATM    4  C3  UNL     1       3.840   0.502  -0.380  1.00  0.00     0.277 C 
BRANCH   4   5
HETATM    5  N2  UNL     1       4.050   0.426   1.051  1.00  0.00    -0.076 N 
ATOM      6  H23 UNL     1       3.254   0.813   1.559  1.00  0.00     0.274 HD
ATOM      7  H22 UNL     1       4.000  -0.539   1.377  1.00  0.00     0.274 HD
ATOM      8  H21 UNL     1       4.921   0.867   1.345  1.00  0.00     0.274 HD
ENDBRANCH   4   5
ENDBRANCH   3   4
BRANCH   3   9
HETATM    9  N3  UNL     1       1.389   0.457  -0.226  1.00  0.00    -0.057 N 
ATOM     10  H32 UNL     1       1.387   0.402   0.793  1.00  0.00     0.278 HD
ATOM     11  H31 UNL     1       1.389   1.474  -0.308  1.00  0.00     0.278 HD
BRANCH   9  12
HETATM   12  C4  UNL     1       0.228  -0.147  -0.816  1.00  0.00     0.238 C 
BRANCH  12  13
HETATM   13  C5  UNL     1      -1.068   0.391  -0.278  1.00  0.00     0.014 C 
HETATM   14  C6  UNL     1      -2.199  -0.325  -0.981  1.00  0.00     0.034 C 
HETATM   15  C7  UNL     1      -3.476   0.405  -0.642  1.00  0.00     0.232 C 
HETATM   16  N4  UNL     1      -3.634   0.500   0.775  1.00  0.00    -0.075 N 
HETATM   17  C8  UNL     1      -2.639  -0.199   1.527  1.00  0.00     0.232 C 
ATOM     18  H42 UNL     1      -3.677   1.477   1.064  1.00  0.00     0.277 HD
ATOM     19  H41 UNL     1      -4.568   0.195   1.050  1.00  0.00     0.277 HD
HETATM   20  C9  UNL     1      -1.232   0.224   1.192  1.00  0.00     0.034 C 
ENDBRANCH  12  13
ENDBRANCH   9  12
ENDBRANCH   3   9
TORSDOF 5
