REMARK  6 active torsions:
REMARK  status: ('A' for Active; 'I' for Inactive)
REMARK    1  A    between atoms: C2_2  and  N1_3 
REMARK    2  A    between atoms: C2_2  and  C3_10 
REMARK    3  A    between atoms: N1_3  and  N2_5 
REMARK    4  A    between atoms: C3_10  and  N4_12 
REMARK    5  A    between atoms: N4_12  and  C5_14 
REMARK    6  A    between atoms: C7_19  and  O1_20 
ROOT
HETATM    1  C3  UNL     1       0.561   0.758   0.313  1.00  0.00     0.098 C 
HETATM    2  C4  UNL     1       1.005   2.239   0.467  1.00  0.00     0.034 C 
ENDROOT
BRANCH   1   3
HETATM    3  C2  UNL     1       1.776   0.016  -0.104  1.00  0.00     0.118 C 
HETATM    4  C1  UNL     1       1.653  -1.449  -0.314  1.00  0.00     0.036 C 
BRANCH   3   5
HETATM    5  N1  UNL     1       2.883   0.264   0.839  1.00  0.00    -0.316 N 
ATOM      6  H1  UNL     1       3.119   1.226   1.083  1.00  0.00     0.182 HD
BRANCH   5   7
HETATM    7  N2  UNL     1       3.530  -0.655   1.340  1.00  0.00    -0.253 N 
HETATM    8  N3  UNL     1       4.579  -1.320   1.490  1.00  0.00    -0.331 N 
ATOM      9  H32 UNL     1       5.220  -0.832   0.864  1.00  0.00     0.178 HD
ATOM     10  H31 UNL     1       5.115  -2.082   1.905  1.00  0.00     0.178 HD
ATOM     11  H2  UNL     1       2.860  -1.116   1.955  1.00  0.00     0.207 HD
ENDBRANCH   5   7
ENDBRANCH   3   5
ENDBRANCH   1   3
BRANCH   1  12
HETATM   12  N4  UNL     1      -0.548   0.794  -0.540  1.00  0.00    -0.388 N 
ATOM     13  H4  UNL     1      -0.841   1.687  -0.937  1.00  0.00     0.155 HD
BRANCH  12  14
HETATM   14  C5  UNL     1      -1.268  -0.368  -0.863  1.00  0.00     0.310 C 
HETATM   15  N5  UNL     1      -2.657   0.021  -1.222  1.00  0.00    -0.050 N 
HETATM   16  C6  UNL     1      -2.863   0.199   0.219  1.00  0.00     0.270 C 
ATOM     17  H52 UNL     1      -2.852   0.767  -1.890  1.00  0.00     0.279 HD
ATOM     18  H51 UNL     1      -3.258  -0.584  -1.781  1.00  0.00     0.279 HD
HETATM   19  C7  UNL     1      -1.915  -0.972   0.394  1.00  0.00     0.193 C 
BRANCH  19  20
HETATM   20  O1  UNL     1      -2.567  -2.175   0.137  1.00  0.00    -0.390 OA
ATOM     21  H1  UNL     1      -2.967  -2.548   0.914  1.00  0.00     0.210 HD
ENDBRANCH  19  20
ENDBRANCH  12  14
ENDBRANCH   1  12
TORSDOF 6
