REMARK  5 active torsions:
REMARK  status: ('A' for Active; 'I' for Inactive)
REMARK    1  A    between atoms: N1_1  and  C1_5 
REMARK    2  A    between atoms: C1_5  and  C2_6 
REMARK    3  A    between atoms: C2_6  and  C3_7 
REMARK    4  A    between atoms: C4_10  and  C5_11 
REMARK    5  A    between atoms: C5_11  and  C6_12 
ROOT
HETATM    1  C3  UNL     1       1.047  -0.223   0.270  1.00  0.00     0.077 A 
HETATM    2  N2  UNL     1      -0.063   0.158  -0.202  1.00  0.00    -0.358 N 
ATOM      3  H2  UNL     1      -0.450   1.081  -0.397  1.00  0.00     0.162 HD
HETATM    4  C4  UNL     1      -0.578  -1.153  -0.364  1.00  0.00     0.190 A 
HETATM    5  N6  UNL     1       0.652  -1.572   0.160  1.00  0.00    -0.358 N 
ATOM      6  H6  UNL     1       1.081  -2.473   0.372  1.00  0.00     0.162 HD
ENDROOT
BRANCH   4   7
HETATM    7  C5  UNL     1      -1.800  -1.329   0.524  1.00  0.00     0.124 C 
BRANCH   7   8
HETATM    8  C6  UNL     1      -2.795  -0.312   0.090  1.00  0.00     0.100 A 
HETATM    9  N3  UNL     1      -3.735  -0.489  -0.853  1.00  0.00    -0.340 N 
HETATM   10  C7  UNL     1      -4.472   0.630  -1.005  1.00  0.00     0.198 A 
ATOM     11  H3  UNL     1      -3.872  -1.351  -1.381  1.00  0.00     0.168 HD
HETATM   12  N4  UNL     1      -3.971   1.520  -0.130  1.00  0.00    -0.295 N 
HETATM   13  N5  UNL     1      -2.969   0.952   0.521  1.00  0.00    -0.288 N 
ATOM     14  H4  UNL     1      -4.307   2.473   0.008  1.00  0.00     0.187 HD
ATOM     15  H5  UNL     1      -2.410   1.405   1.244  1.00  0.00     0.188 HD
ENDBRANCH   7   8
ENDBRANCH   4   7
BRANCH   1  16
HETATM   16  C2  UNL     1       2.254   0.527   0.739  1.00  0.00     0.103 C 
BRANCH  16  17
HETATM   17  C1  UNL     1       3.477   0.151  -0.058  1.00  0.00     0.237 C 
BRANCH  17  18
HETATM   18  N1  UNL     1       4.587   0.925   0.469  1.00  0.00    -0.079 N 
ATOM     19  H13 UNL     1       4.407   1.929   0.475  1.00  0.00     0.274 HD
ATOM     20  H12 UNL     1       4.714   0.808   1.474  1.00  0.00     0.274 HD
ATOM     21  H11 UNL     1       5.415   0.671  -0.070  1.00  0.00     0.274 HD
ENDBRANCH  17  18
ENDBRANCH  16  17
ENDBRANCH   1  16
TORSDOF 5
