REMARK  5 active torsions:
REMARK  status: ('A' for Active; 'I' for Inactive)
REMARK    1  A    between atoms: C2_2  and  C3_3 
REMARK    2  A    between atoms: C3_3  and  N1_4 
REMARK    3  A    between atoms: C6_8  and  C7_9 
REMARK    4  A    between atoms: C7_9  and  O1_10 
REMARK    5  A    between atoms: O1_10  and  N2_11 
ROOT
HETATM    1  N1  UNL     1      -1.402  -0.291   0.645  1.00  0.00    -0.373 N 
ATOM      2  H1  UNL     1      -1.136  -0.295   1.630  1.00  0.00     0.161 HD
HETATM    3  C4  UNL     1      -0.496  -0.414  -0.239  1.00  0.00     0.103 A 
HETATM    4  C5  UNL     1       0.824  -0.549   0.160  1.00  0.00     0.075 A 
HETATM    5  C6  UNL     1       1.848  -0.686  -0.758  1.00  0.00     0.040 A 
HETATM    6  N3  UNL     1       1.515  -0.682  -2.058  1.00  0.00    -0.354 N 
ATOM      7  H3  UNL     1       2.256  -0.781  -2.752  1.00  0.00     0.166 HD
HETATM    8  C8  UNL     1       0.244  -0.553  -2.486  1.00  0.00     0.182 A 
HETATM    9  N4  UNL     1      -0.729  -0.422  -1.565  1.00  0.00    -0.339 N 
ATOM     10  H4  UNL     1      -1.691  -0.324  -1.888  1.00  0.00     0.168 HD
ENDROOT
BRANCH   1  11
HETATM   11  C3  UNL     1      -2.800  -0.146   0.295  1.00  0.00     0.147 C 
BRANCH  11  12
HETATM   12  C2  UNL     1      -3.332   0.973   1.139  1.00  0.00    -0.018 C 
HETATM   13  C1  UNL     1      -4.318   0.730   1.965  1.00  0.00     0.008 C 
ENDBRANCH  11  12
ENDBRANCH   1  11
BRANCH   5  14
HETATM   14  C7  UNL     1       3.247  -0.828  -0.271  1.00  0.00     0.257 C 
BRANCH  14  15
HETATM   15  O1  UNL     1       3.855   0.418  -0.144  1.00  0.00    -0.281 OA
BRANCH  15  16
HETATM   16  N2  UNL     1       3.104   1.124   0.760  1.00  0.00    -0.311 N 
ATOM     17  H22 UNL     1       2.267   0.789   1.237  1.00  0.00     0.184 HD
ATOM     18  H21 UNL     1       3.549   2.037   0.853  1.00  0.00     0.184 HD
ENDBRANCH  15  16
ENDBRANCH  14  15
ENDBRANCH   5  14
TORSDOF 5
