REMARK  9 active torsions:
REMARK  status: ('A' for Active; 'I' for Inactive)
REMARK    1  A    between atoms: O1_1  and  N1_3 
REMARK    2  A    between atoms: N1_3  and  C1_5 
REMARK    3  A    between atoms: C3_7  and  N2_8 
REMARK    4  A    between atoms: N2_8  and  S1_10 
REMARK    5  A    between atoms: S1_10  and  C4_13 
REMARK    6  A    between atoms: C7_16  and  O4_17 
REMARK    7  A    between atoms: C8_19  and  N3_20 
REMARK    8  A    between atoms: N3_20  and  C9_22 
REMARK    9  A    between atoms: C13_26  and  S2_27 
ROOT
HETATM    1  C4  UNL     1      -1.683  -0.244  -0.933  1.00  0.00     0.151 A 
HETATM    2  C5  UNL     1      -2.069   0.672  -1.891  1.00  0.00     0.046 A 
HETATM    3  C6  UNL     1      -1.267   0.902  -2.993  1.00  0.00     0.043 A 
HETATM    4  C7  UNL     1      -0.078   0.223  -3.147  1.00  0.00     0.109 A 
HETATM    5  C8  UNL     1       0.284  -0.686  -2.176  1.00  0.00     0.137 A 
HETATM    6  N6  UNL     1      -0.521  -0.885  -1.117  1.00  0.00    -0.330 N 
ATOM      7  H6  UNL     1      -0.230  -1.563  -0.413  1.00  0.00     0.168 HD
ENDROOT
BRANCH   1   8
HETATM    8  S1  UNL     1      -2.706  -0.543   0.479  1.00  0.00     0.280 S 
HETATM    9  O2  UNL     1      -3.025  -2.011   0.497  1.00  0.00    -0.199 OA
HETATM   10  O3  UNL     1      -1.855  -0.253   1.681  1.00  0.00    -0.199 OA
BRANCH   8  11
HETATM   11  N2  UNL     1      -4.092   0.438   0.382  1.00  0.00    -0.264 N 
ATOM     12  H2  UNL     1      -4.206   0.999  -0.462  1.00  0.00     0.180 HD
BRANCH  11  13
HETATM   13  C3  UNL     1      -4.995   0.533   1.265  1.00  0.00     0.120 A 
HETATM   14  C2  UNL     1      -6.063   1.373   1.045  1.00  0.00     0.099 A 
HETATM   15  C1  UNL     1      -7.050   1.481   2.002  1.00  0.00     0.130 A 
HETATM   16  N8  UNL     1      -6.899   0.740   3.116  1.00  0.00    -0.318 N 
HETATM   17  C17 UNL     1      -5.860  -0.077   3.331  1.00  0.00     0.179 A 
ATOM     18  H8  UNL     1      -7.617   0.805   3.837  1.00  0.00     0.170 HD
HETATM   19  N7  UNL     1      -4.901  -0.181   2.398  1.00  0.00    -0.319 N 
HETATM   20  S3  UNL     1      -5.717  -0.963   4.706  1.00  0.00    -0.040 SA
ATOM     21  H7  UNL     1      -4.104  -0.800   2.549  1.00  0.00     0.170 HD
BRANCH  15  22
HETATM   22  N1  UNL     1      -8.176   2.331   1.831  1.00  0.00    -0.253 N 
ATOM     23  H1  UNL     1      -9.038   1.930   1.461  1.00  0.00     0.196 HD
BRANCH  22  24
HETATM   24  O1  UNL     1      -8.158   3.549   2.114  1.00  0.00    -0.288 OA
ATOM     25  H1  UNL     1      -8.911   4.117   2.000  1.00  0.00     0.244 HD
ENDBRANCH  22  24
ENDBRANCH  15  22
ENDBRANCH  11  13
ENDBRANCH   8  11
ENDBRANCH   1   8
BRANCH   5  26
HETATM   26  N3  UNL     1       1.490  -1.427  -2.264  1.00  0.00    -0.354 N 
ATOM     27  H3  UNL     1       2.079  -1.260  -3.080  1.00  0.00     0.163 HD
BRANCH  26  28
HETATM   28  C9  UNL     1       1.950  -2.381  -1.317  1.00  0.00     0.202 C 
HETATM   29  C10 UNL     1       2.213  -1.843   0.065  1.00  0.00     0.085 C 
HETATM   30  C11 UNL     1       3.387  -0.947  -0.011  1.00  0.00    -0.026 A 
HETATM   31  C12 UNL     1       3.491   0.223   0.715  1.00  0.00     0.035 A 
HETATM   32  C16 UNL     1       4.421  -1.325  -0.860  1.00  0.00     0.051 A 
HETATM   33  C13 UNL     1       4.597   1.044   0.629  1.00  0.00     0.081 A 
HETATM   34  C14 UNL     1       5.622   0.669  -0.213  1.00  0.00     0.028 A 
HETATM   35  C15 UNL     1       5.516  -0.500  -0.937  1.00  0.00     0.032 A 
HETATM   36  N4  UNL     1       4.288  -2.525  -1.589  1.00  0.00    -0.302 N 
HETATM   37  N5  UNL     1       3.052  -3.115  -1.854  1.00  0.00    -0.115 NA
ATOM     38  H4  UNL     1       5.131  -2.981  -1.937  1.00  0.00     0.182 HD
BRANCH  33  39
HETATM   39  S2  UNL     1       4.693   2.536   1.574  1.00  0.00     0.137 S 
HETATM   40  O5  UNL     1       3.319   3.036   1.808  1.00  0.00    -0.591 OA
HETATM   41  O6  UNL     1       5.561   3.551   0.893  1.00  0.00    -0.591 OA
HETATM   42  O7  UNL     1       5.411   2.199   3.063  1.00  0.00    -0.591 OA
ENDBRANCH  33  39
ENDBRANCH  26  28
ENDBRANCH   5  26
BRANCH   4  43
HETATM   43  O4  UNL     1       0.738   0.457  -4.266  1.00  0.00    -0.357 OA
ATOM     44  H4  UNL     1       1.558  -0.011  -4.372  1.00  0.00     0.218 HD
ENDBRANCH   4  43
TORSDOF 9
