REMARK  9 active torsions:
REMARK  status: ('A' for Active; 'I' for Inactive)
REMARK    1  A    between atoms: O1_1  and  C1_3 
REMARK    2  A    between atoms: C3_5  and  C4_6 
REMARK    3  A    between atoms: C4_6  and  N1_7 
REMARK    4  A    between atoms: N1_7  and  C5_10 
REMARK    5  A    between atoms: C5_10  and  C6_11 
REMARK    6  A    between atoms: C9_14  and  C10_15 
REMARK    7  A    between atoms: C10_15  and  N2_16 
REMARK    8  A    between atoms: C28_49  and  O2_50 
REMARK    9  A    between atoms: C29_52  and  O3_53 
ROOT
HETATM    1  C6  UNL     1       2.258   0.357  -1.613  1.00  0.00     0.051 A 
HETATM    2  C7  UNL     1       2.240  -0.622  -0.627  1.00  0.00     0.030 A 
HETATM    3  C8  UNL     1       1.020  -1.117  -0.253  1.00  0.00     0.030 A 
HETATM    4  C9  UNL     1      -0.163  -0.681  -0.813  1.00  0.00     0.054 A 
HETATM    5  N7  UNL     1      -0.058   0.276  -1.772  1.00  0.00    -0.303 N 
ATOM      6  H7  UNL     1      -0.904   0.630  -2.218  1.00  0.00     0.186 HD
HETATM    7  N8  UNL     1       1.116   0.758  -2.140  1.00  0.00    -0.303 N 
ATOM      8  H8  UNL     1       1.141   1.474  -2.866  1.00  0.00     0.186 HD
ENDROOT
BRANCH   4   9
HETATM    9  C10 UNL     1      -1.422  -1.225  -0.309  1.00  0.00     0.330 C 
BRANCH   9  10
HETATM   10  N2  UNL     1      -2.557  -0.392  -0.599  1.00  0.00     0.097 N 
HETATM   11  C11 UNL     1      -2.783  -0.192  -1.989  1.00  0.00     0.292 C 
HETATM   12  C12 UNL     1      -4.201  -0.464  -2.433  1.00  0.00     0.144 C 
HETATM   13  N3  UNL     1      -4.522  -1.843  -2.525  1.00  0.00    -0.419 N 
HETATM   14  C13 UNL     1      -5.019  -2.483  -1.367  1.00  0.00     0.115 C 
ATOM     15  H3  UNL     1      -4.398  -2.356  -3.398  1.00  0.00     0.153 HD
HETATM   16  C14 UNL     1      -6.286  -1.979  -0.784  1.00  0.00     0.046 C 
HETATM   17  C15 UNL     1      -7.404  -1.720  -1.722  1.00  0.00     0.234 C 
HETATM   18  N4  UNL     1      -8.162  -0.573  -1.183  1.00  0.00    -0.075 N 
HETATM   19  C16 UNL     1      -8.714  -0.875   0.123  1.00  0.00     0.233 C 
ATOM     20  H42 UNL     1      -7.595   0.275  -1.163  1.00  0.00     0.277 HD
ATOM     21  H41 UNL     1      -8.885  -0.263  -1.833  1.00  0.00     0.277 HD
HETATM   22  C17 UNL     1      -8.919   0.368   0.963  1.00  0.00     0.055 C 
HETATM   23  C18 UNL     1      -7.899   0.485   2.083  1.00  0.00     0.234 C 
HETATM   24  N5  UNL     1      -7.672   1.829   2.514  1.00  0.00    -0.073 N 
HETATM   25  C19 UNL     1      -6.254   2.099   2.822  1.00  0.00     0.259 C 
ATOM     26  H52 UNL     1      -8.031   2.497   1.832  1.00  0.00     0.277 HD
ATOM     27  H51 UNL     1      -8.269   2.064   3.307  1.00  0.00     0.277 HD
HETATM   28  C20 UNL     1      -5.539   2.388   1.553  1.00  0.00     0.259 C 
HETATM   29  N6  UNL     1      -4.098   2.099   1.596  1.00  0.00    -0.072 N 
HETATM   30  C21 UNL     1      -3.853   1.302   0.419  1.00  0.00     0.262 C 
ATOM     31  H62 UNL     1      -3.509   2.929   1.666  1.00  0.00     0.277 HD
ATOM     32  H61 UNL     1      -3.787   1.665   2.465  1.00  0.00     0.277 HD
HETATM   33  C22 UNL     1      -2.463   0.869   0.168  1.00  0.00     0.300 C 
ENDBRANCH   9  10
ENDBRANCH   4   9
BRANCH   1  34
HETATM   34  C5  UNL     1       3.510   1.043  -1.978  1.00  0.00     0.291 C 
BRANCH  34  35
HETATM   35  N1  UNL     1       4.615   0.421  -1.218  1.00  0.00    -0.066 N 
ATOM     36  H12 UNL     1       5.362   0.067  -1.815  1.00  0.00     0.277 HD
ATOM     37  H11 UNL     1       4.357  -0.469  -0.791  1.00  0.00     0.277 HD
BRANCH  35  38
HETATM   38  C4  UNL     1       5.076   1.412  -0.247  1.00  0.00     0.271 C 
BRANCH  38  39
HETATM   39  C3  UNL     1       6.289   0.944   0.440  1.00  0.00    -0.029 A 
HETATM   40  C2  UNL     1       6.419   1.121   1.819  1.00  0.00     0.045 A 
HETATM   41  C1  UNL     1       7.594   0.763   2.489  1.00  0.00     0.073 A 
HETATM   42  C25 UNL     1       8.627   0.221   1.741  1.00  0.00    -0.016 A 
HETATM   43  C24 UNL     1       8.536   0.026   0.390  1.00  0.00    -0.018 A 
HETATM   44  C26 UNL     1       9.922  -0.126   2.417  1.00  0.00     0.044 C 
HETATM   45  C23 UNL     1       7.364   0.396  -0.222  1.00  0.00     0.019 A 
HETATM   46  C29 UNL     1       9.613  -0.557  -0.461  1.00  0.00     0.180 C 
HETATM   47  C28 UNL     1      10.835  -0.922   0.323  1.00  0.00     0.151 C 
HETATM   48  C27 UNL     1      11.033   0.144   1.371  1.00  0.00     0.039 C 
BRANCH  41  49
HETATM   49  O1  UNL     1       7.670   0.960   3.856  1.00  0.00    -0.360 OA
ATOM     50  H1  UNL     1       8.468   0.717   4.311  1.00  0.00     0.217 HD
ENDBRANCH  41  49
BRANCH  46  51
HETATM   51  O3  UNL     1       9.047  -1.644  -1.137  1.00  0.00    -0.388 OA
ATOM     52  H3  UNL     1       9.733  -2.015  -1.679  1.00  0.00     0.210 HD
ENDBRANCH  46  51
BRANCH  47  53
HETATM   53  O2  UNL     1      10.685  -2.191   0.849  1.00  0.00    -0.393 OA
ATOM     54  H2  UNL     1      10.560  -2.863   0.189  1.00  0.00     0.210 HD
ENDBRANCH  47  53
ENDBRANCH  38  39
ENDBRANCH  35  38
ENDBRANCH  34  35
ENDBRANCH   1  34
TORSDOF 9
