REMARK  10 active torsions:
REMARK  status: ('A' for Active; 'I' for Inactive)
REMARK    1  A    between atoms: O1_2  and  C2_3 
REMARK    2  A    between atoms: C2_3  and  C4_5 
REMARK    3  A    between atoms: C20_23  and  C21_24 
REMARK    4  A    between atoms: C21_24  and  O4_25 
REMARK    5  A    between atoms: C21_24  and  C22_27 
REMARK    6  A    between atoms: C23_28  and  O5_29 
REMARK    7  A    between atoms: C24_33  and  C25_34 
REMARK    8  A    between atoms: C25_34  and  O6_36 
REMARK    9  A    between atoms: C27_38  and  O7_39 
REMARK   10  A    between atoms: C28_41  and  O8_42 
ROOT
HETATM    1  C4  UNL     1      -0.223  -2.198   0.264  1.00  0.00     0.015 C 
HETATM    2  C5  UNL     1      -1.673  -1.852   0.516  1.00  0.00     0.055 C 
HETATM    3  C6  UNL     1      -2.387  -2.801   1.447  1.00  0.00     0.006 C 
HETATM    4  C7  UNL     1      -3.215  -2.054   2.491  1.00  0.00     0.000 C 
HETATM    5  C8  UNL     1      -4.066  -0.991   1.860  1.00  0.00     0.000 C 
HETATM    6  C9  UNL     1      -4.955  -1.478   0.766  1.00  0.00     0.000 C 
HETATM    7  C10 UNL     1      -5.120  -0.409  -0.321  1.00  0.00     0.000 C 
HETATM    8  C11 UNL     1      -6.466   0.239  -0.273  1.00  0.00     0.000 C 
HETATM    9  C12 UNL     1      -6.368   1.466   0.626  1.00  0.00     0.002 C 
HETATM   10  C13 UNL     1      -5.919   2.663  -0.216  1.00  0.00     0.027 C 
HETATM   11  C14 UNL     1      -5.403   3.764   0.659  1.00  0.00     0.178 C 
HETATM   12  O2  UNL     1      -4.543   4.650   0.013  1.00  0.00    -0.321 OA
HETATM   13  C15 UNL     1      -3.179   4.496  -0.132  1.00  0.00     0.258 C 
HETATM   14  O3  UNL     1      -2.374   5.438   0.045  1.00  0.00    -0.265 OA
HETATM   15  C16 UNL     1      -2.647   3.169  -0.509  1.00  0.00     0.111 C 
HETATM   16  C17 UNL     1      -1.147   3.118  -0.500  1.00  0.00     0.010 C 
HETATM   17  C18 UNL     1      -0.605   1.955   0.267  1.00  0.00     0.006 C 
HETATM   18  C19 UNL     1      -0.241   0.780  -0.656  1.00  0.00     0.055 C 
HETATM   19  C20 UNL     1       0.922  -0.018  -0.158  1.00  0.00     0.016 C 
HETATM   20  N2  UNL     1       0.737  -1.243   0.428  1.00  0.00    -0.365 N 
ATOM     21  H2  UNL     1       1.451  -1.486   1.115  1.00  0.00     0.165 HD
ENDROOT
BRANCH  19  22
HETATM   22  C21 UNL     1       2.097   0.052  -1.155  1.00  0.00     0.174 C 
BRANCH  22  23
HETATM   23  O4  UNL     1       2.195   1.338  -1.690  1.00  0.00    -0.389 OA
ATOM     24  H4  UNL     1       2.919   1.381  -2.304  1.00  0.00     0.210 HD
ENDBRANCH  22  23
BRANCH  22  25
HETATM   25  C22 UNL     1       3.414  -0.262  -0.477  1.00  0.00     0.100 C 
HETATM   26  C23 UNL     1       4.538  -0.201  -1.461  1.00  0.00     0.223 C 
HETATM   27  N1  UNL     1       5.575   0.712  -1.242  1.00  0.00    -0.387 N 
HETATM   28  C24 UNL     1       5.871   1.159   0.061  1.00  0.00     0.138 C 
ATOM     29  H1  UNL     1       6.121   1.057  -2.032  1.00  0.00     0.156 HD
HETATM   30  C27 UNL     1       5.127   0.444   1.165  1.00  0.00     0.172 C 
HETATM   31  C28 UNL     1       3.650   0.570   0.757  1.00  0.00     0.160 C 
BRANCH  26  32
HETATM   32  O5  UNL     1       5.119  -1.478  -1.661  1.00  0.00    -0.377 OA
ATOM     33  H5  UNL     1       5.833  -1.439  -2.286  1.00  0.00     0.212 HD
ENDBRANCH  26  32
BRANCH  28  34
HETATM   34  C25 UNL     1       7.360   1.256   0.348  1.00  0.00     0.139 C 
HETATM   35  C26 UNL     1       8.095  -0.031   0.163  1.00  0.00     0.041 C 
BRANCH  34  36
HETATM   36  O6  UNL     1       7.903   2.175  -0.579  1.00  0.00    -0.394 OA
ATOM     37  H6  UNL     1       8.834   2.236  -0.400  1.00  0.00     0.210 HD
ENDBRANCH  34  36
ENDBRANCH  28  34
BRANCH  30  38
HETATM   38  O7  UNL     1       5.419  -0.886   1.273  1.00  0.00    -0.391 OA
ATOM     39  H7  UNL     1       4.951  -1.335   1.967  1.00  0.00     0.210 HD
ENDBRANCH  30  38
BRANCH  31  40
HETATM   40  O8  UNL     1       3.430   1.919   0.586  1.00  0.00    -0.392 OA
ATOM     41  H8  UNL     1       3.579   2.444   1.364  1.00  0.00     0.210 HD
ENDBRANCH  31  40
ENDBRANCH  22  25
ENDBRANCH  19  22
BRANCH   1  42
HETATM   42  C2  UNL     1      -0.065  -3.155  -0.927  1.00  0.00     0.162 C 
HETATM   43  C3  UNL     1      -1.162  -4.231  -0.840  1.00  0.00     0.046 C 
BRANCH  42  44
HETATM   44  O1  UNL     1       1.114  -3.828  -0.761  1.00  0.00    -0.385 OA
HETATM   45  C1  UNL     1       1.962  -3.869  -1.832  1.00  0.00     0.202 C 
ENDBRANCH  42  44
ENDBRANCH   1  42
TORSDOF 10
