REMARK  9 active torsions:
REMARK  status: ('A' for Active; 'I' for Inactive)
REMARK    1  A    between atoms: N1_1  and  C1_4 
REMARK    2  A    between atoms: C4_7  and  C5_8 
REMARK    3  A    between atoms: C7_12  and  N3_13 
REMARK       I    between atoms: N3_13  and  C8_15 
REMARK    4  A    between atoms: C8_15  and  C9_17 
REMARK    5  A    between atoms: C14_22  and  N4_23 
REMARK    6  A    between atoms: C15_28  and  N6_29 
REMARK    7  A    between atoms: N6_29  and  C16_30 
REMARK    8  A    between atoms: C17_33  and  N8_34 
REMARK    9  A    between atoms: C19_41  and  N11_42 
ROOT
HETATM    1  C5  UNL     1      -1.541   2.997   0.054  1.00  0.00     0.119 A 
HETATM    2  N2  UNL     1      -1.762   1.696   0.170  1.00  0.00    -0.336 N 
ATOM      3  H2  UNL     1      -2.689   1.273   0.210  1.00  0.00     0.168 HD
HETATM    4  C6  UNL     1      -0.612   1.002   0.228  1.00  0.00     0.123 A 
HETATM    5  C7  UNL     1      -0.300  -0.352   0.349  1.00  0.00     0.142 A 
HETATM    6  N5  UNL     1       0.982  -0.672   0.373  1.00  0.00    -0.300 N 
ATOM      7  H5  UNL     1       1.215  -1.661   0.461  1.00  0.00     0.171 HD
HETATM    8  C15 UNL     1       2.024   0.212   0.290  1.00  0.00     0.264 A 
HETATM    9  N12 UNL     1       1.651   1.526   0.174  1.00  0.00    -0.300 N 
ATOM     10  H12 UNL     1       2.383   2.234   0.109  1.00  0.00     0.171 HD
HETATM   11  C20 UNL     1       0.385   1.923   0.142  1.00  0.00     0.141 A 
HETATM   12  N13 UNL     1      -0.217   3.151   0.035  1.00  0.00    -0.326 N 
ATOM     13  H13 UNL     1       0.272   4.042  -0.046  1.00  0.00     0.169 HD
ENDROOT
BRANCH   8  14
HETATM   14  N6  UNL     1       3.267  -0.212   0.343  1.00  0.00    -0.349 NA
BRANCH  14  15
HETATM   15  C16 UNL     1       4.348  -0.677   0.260  1.00  0.00     0.234 A 
HETATM   16  N7  UNL     1       5.324  -0.339   1.186  1.00  0.00    -0.162 N 
HETATM   17  C17 UNL     1       6.560  -0.849   1.115  1.00  0.00     0.679 A 
ATOM     18  H7  UNL     1       5.095   0.312   1.937  1.00  0.00     0.187 HD
HETATM   19  N9  UNL     1       6.928  -1.706   0.158  1.00  0.00    -0.176 N 
HETATM   20  C18 UNL     1       6.051  -2.087  -0.776  1.00  0.00     0.169 A 
ATOM     21  H9  UNL     1       7.881  -2.070   0.140  1.00  0.00     0.185 HD
HETATM   22  N10 UNL     1       6.429  -2.996  -1.790  1.00  0.00    -0.079 NA
HETATM   23  C19 UNL     1       4.758  -1.563  -0.713  1.00  0.00     0.203 A 
BRANCH  17  24
HETATM   24  N8  UNL     1       7.467  -0.509   1.994  1.00  0.00    -0.234 N 
ATOM     25  H82 UNL     1       7.186   0.145   2.724  1.00  0.00     0.174 HD
ATOM     26  H81 UNL     1       8.409  -0.898   1.940  1.00  0.00     0.174 HD
ENDBRANCH  17  24
BRANCH  23  27
HETATM   27  N11 UNL     1       3.855  -1.971  -1.718  1.00  0.00    -0.107 N 
HETATM   28  O4  UNL     1       2.986  -2.852  -1.506  1.00  0.00    -0.531 OA
HETATM   29  O5  UNL     1       3.883  -1.444  -3.002  1.00  0.00    -0.531 OA
ENDBRANCH  23  27
ENDBRANCH  14  15
ENDBRANCH   8  14
BRANCH   5  30
HETATM   30  N3  UNL     1      -1.291  -1.161   0.438  1.00  0.00    -0.307 N 
HETATM   31  C8  UNL     1      -1.337  -2.536   0.562  1.00  0.00     0.259 C 
HETATM   32  O1  UNL     1      -0.364  -3.233   1.001  1.00  0.00    -0.267 OA
ATOM     33  H3  UNL     1      -2.206  -0.710   0.413  1.00  0.00     0.170 HD
BRANCH  31  34
HETATM   34  C9  UNL     1      -2.537  -3.311   0.172  1.00  0.00     0.065 A 
HETATM   35  C10 UNL     1      -2.318  -4.661  -0.116  1.00  0.00     0.020 A 
HETATM   36  C11 UNL     1      -3.308  -5.423  -0.672  1.00  0.00     0.001 A 
HETATM   37  C12 UNL     1      -4.531  -4.869  -0.956  1.00  0.00     0.002 A 
HETATM   38  C13 UNL     1      -4.745  -3.549  -0.670  1.00  0.00     0.037 A 
HETATM   39  C14 UNL     1      -3.736  -2.736  -0.089  1.00  0.00     0.118 A 
BRANCH  39  40
HETATM   40  N4  UNL     1      -4.100  -1.413   0.231  1.00  0.00    -0.115 N 
HETATM   41  O2  UNL     1      -3.789  -0.834   1.269  1.00  0.00    -0.532 OA
HETATM   42  O3  UNL     1      -4.970  -0.778  -0.656  1.00  0.00    -0.532 OA
ENDBRANCH  39  40
ENDBRANCH  31  34
ENDBRANCH   5  30
BRANCH   1  43
HETATM   43  C4  UNL     1      -2.507   4.107  -0.026  1.00  0.00     0.024 A 
HETATM   44  C3  UNL     1      -3.867   3.880  -0.027  1.00  0.00     0.020 A 
HETATM   45  C2  UNL     1      -4.714   4.964  -0.082  1.00  0.00     0.049 A 
HETATM   46  C1  UNL     1      -4.222   6.271  -0.138  1.00  0.00     0.098 A 
HETATM   47  N14 UNL     1      -2.908   6.452  -0.136  1.00  0.00    -0.352 N 
HETATM   48  C21 UNL     1      -2.088   5.416  -0.083  1.00  0.00     0.104 A 
ATOM     49  H14 UNL     1      -2.527   7.397  -0.176  1.00  0.00     0.166 HD
BRANCH  46  50
HETATM   50  N1  UNL     1      -4.989   7.299  -0.193  1.00  0.00    -0.385 N 
ATOM     51  H12 UNL     1      -5.999   7.160  -0.195  1.00  0.00     0.157 HD
ATOM     52  H11 UNL     1      -4.630   8.253  -0.234  1.00  0.00     0.157 HD
ENDBRANCH  46  50
ENDBRANCH   1  43
TORSDOF 9
