REMARK  10 active torsions:
REMARK  status: ('A' for Active; 'I' for Inactive)
REMARK    1  A    between atoms: N1_1  and  C1_4 
REMARK    2  A    between atoms: C3_8  and  C4_9 
REMARK    3  A    between atoms: C4_9  and  C5_10 
REMARK    4  A    between atoms: C5_10  and  N3_11 
REMARK    5  A    between atoms: N3_11  and  C6_13 
REMARK    6  A    between atoms: C8_19  and  N6_20 
REMARK    7  A    between atoms: N6_20  and  C9_21 
REMARK    8  A    between atoms: N7_24  and  C12_25 
REMARK    9  A    between atoms: C19_36  and  N9_37 
REMARK   10  A    between atoms: N11_44  and  N12_45 
ROOT
HETATM    1  C9  UNL     1      -0.992  -0.134  -0.446  1.00  0.00     0.186 C 
HETATM    2  C10 UNL     1      -2.000  -0.977  -1.150  1.00  0.00     0.115 C 
HETATM    3  C11 UNL     1      -3.260  -1.316  -0.435  1.00  0.00     0.161 C 
HETATM    4  N7  UNL     1      -3.732  -0.261   0.414  1.00  0.00    -0.130 N 
HETATM    5  C20 UNL     1      -2.845   0.658   1.026  1.00  0.00     0.364 C 
HETATM    6  O1  UNL     1      -3.226   1.407   1.991  1.00  0.00    -0.244 OA
HETATM    7  N11 UNL     1      -1.524   0.760   0.582  1.00  0.00    -0.186 N 
ENDROOT
BRANCH   1   8
HETATM    8  N6  UNL     1       0.173  -0.746  -0.107  1.00  0.00    -0.354 NA
BRANCH   8   9
HETATM    9  C8  UNL     1       1.306  -1.063   0.040  1.00  0.00     0.276 A 
HETATM   10  N5  UNL     1       1.669  -2.190   0.759  1.00  0.00    -0.311 N 
HETATM   11  C7  UNL     1       2.948  -2.531   0.905  1.00  0.00     0.201 A 
ATOM     12  H5  UNL     1       0.944  -2.769   1.184  1.00  0.00     0.170 HD
HETATM   13  N4  UNL     1       3.961  -1.824   0.378  1.00  0.00    -0.187 N 
HETATM   14  C6  UNL     1       3.647  -0.720  -0.328  1.00  0.00     0.686 A 
ATOM     15  H4  UNL     1       4.931  -2.112   0.507  1.00  0.00     0.185 HD
HETATM   16  N13 UNL     1       2.370  -0.370  -0.479  1.00  0.00    -0.148 N 
ATOM     17  H13 UNL     1       2.170   0.472  -1.018  1.00  0.00     0.188 HD
BRANCH  14  18
HETATM   18  N3  UNL     1       4.606  -0.060  -0.842  1.00  0.00    -0.205 N 
ATOM     19  H3  UNL     1       4.303   0.764  -1.362  1.00  0.00     0.183 HD
BRANCH  18  20
HETATM   20  C5  UNL     1       5.989  -0.240  -0.835  1.00  0.00     0.084 C 
BRANCH  20  21
HETATM   21  C4  UNL     1       6.696   0.514   0.269  1.00  0.00     0.092 C 
BRANCH  21  22
HETATM   22  C3  UNL     1       8.189   0.277   0.168  1.00  0.00     0.006 A 
HETATM   23  C2  UNL     1       9.093   1.019  -0.542  1.00  0.00     0.105 A 
HETATM   24  N2  UNL     1      10.343   0.659  -0.514  1.00  0.00    -0.346 N 
HETATM   25  C1  UNL     1      10.676  -0.414   0.205  1.00  0.00     0.142 A 
ATOM     26  H2  UNL     1      11.050   1.184  -1.029  1.00  0.00     0.167 HD
HETATM   27  S3  UNL     1       9.184  -0.925   0.856  1.00  0.00    -0.057 SA
BRANCH  25  28
HETATM   28  N1  UNL     1      11.863  -0.957   0.373  1.00  0.00    -0.380 N 
ATOM     29  H12 UNL     1      12.755  -0.652  -0.016  1.00  0.00     0.158 HD
ATOM     30  H11 UNL     1      12.118  -1.778   0.923  1.00  0.00     0.158 HD
ENDBRANCH  25  28
ENDBRANCH  21  22
ENDBRANCH  20  21
ENDBRANCH  18  20
ENDBRANCH  14  18
ENDBRANCH   8   9
ENDBRANCH   1   8
BRANCH   7  31
HETATM   31  N12 UNL     1      -0.669   1.753   1.135  1.00  0.00    -0.332 N 
ATOM     32 2H12 UNL     1       0.295   1.827   0.811  1.00  0.00     0.177 HD
ATOM     33 1H12 UNL     1      -1.040   2.376   1.852  1.00  0.00     0.177 HD
ENDBRANCH   7  31
BRANCH   4  34
HETATM   34  C12 UNL     1      -5.140  -0.136   0.643  1.00  0.00     0.690 A 
HETATM   35  N8  UNL     1      -5.881   0.442  -0.261  1.00  0.00    -0.189 N 
HETATM   36  C13 UNL     1      -7.243   0.658  -0.224  1.00  0.00     0.082 A 
ATOM     37  H8  UNL     1      -5.396   0.774  -1.095  1.00  0.00     0.184 HD
HETATM   38  C14 UNL     1      -7.803   0.185   0.916  1.00  0.00     0.078 A 
HETATM   39  C18 UNL     1      -8.094   1.264  -1.146  1.00  0.00     0.017 A 
HETATM   40  S1  UNL     1      -9.463   0.537   0.780  1.00  0.00    -0.076 SA
HETATM   41  C19 UNL     1      -7.021  -0.440   1.897  1.00  0.00     0.134 A 
HETATM   42  C15 UNL     1      -9.405   1.291  -0.752  1.00  0.00     0.058 A 
HETATM   43  S2  UNL     1     -10.268   2.065  -2.010  1.00  0.00    -0.094 SA
HETATM   44  C16 UNL     1      -8.952   2.353  -3.039  1.00  0.00     0.052 A 
HETATM   45  C17 UNL     1      -7.880   1.843  -2.382  1.00  0.00     0.023 A 
HETATM   46  N10 UNL     1      -5.702  -0.601   1.767  1.00  0.00    -0.175 N 
ATOM     47  H10 UNL     1      -5.147  -1.058   2.491  1.00  0.00     0.186 HD
BRANCH  41  48
HETATM   48  N9  UNL     1      -7.670  -0.855   2.945  1.00  0.00    -0.384 N 
ATOM     49  H92 UNL     1      -8.678  -0.732   3.044  1.00  0.00     0.157 HD
ATOM     50  H91 UNL     1      -7.101  -1.310   3.659  1.00  0.00     0.157 HD
ENDBRANCH  41  48
ENDBRANCH   4  34
TORSDOF 10
