REMARK  8 active torsions:
REMARK  status: ('A' for Active; 'I' for Inactive)
REMARK    1  A    between atoms: N1_1  and  C1_5 
REMARK    2  A    between atoms: C1_5  and  C2_6 
REMARK    3  A    between atoms: C2_6  and  C3_7 
REMARK    4  A    between atoms: C3_7  and  C4_8 
REMARK    5  A    between atoms: C4_8  and  N2_9 
REMARK    6  A    between atoms: C4_8  and  C5_13 
REMARK    7  A    between atoms: N3_14  and  N4_16 
REMARK    8  A    between atoms: N4_16  and  C6_18 
ROOT
HETATM    1  C5  UNL     1      -0.240  -1.471   0.246  1.00  0.00     0.113 C 
HETATM    2  N3  UNL     1      -1.523  -1.474   0.198  1.00  0.00    -0.299 N 
ATOM      3  H3  UNL     1      -2.032  -2.358   0.204  1.00  0.00     0.186 HD
ENDROOT
BRANCH   1   4
HETATM    4  C4  UNL     1       0.519  -0.203   0.240  1.00  0.00     0.223 C 
BRANCH   4   5
HETATM    5  C3  UNL     1       1.912  -0.458  -0.226  1.00  0.00     0.040 C 
BRANCH   5   6
HETATM    6  C2  UNL     1       2.654   0.829  -0.386  1.00  0.00     0.029 C 
BRANCH   6   7
HETATM    7  C1  UNL     1       4.073   0.613  -0.858  1.00  0.00     0.230 C 
BRANCH   7   8
HETATM    8  N1  UNL     1       4.845  -0.183   0.044  1.00  0.00    -0.079 N 
ATOM      9  H13 UNL     1       4.830   0.213   0.984  1.00  0.00     0.274 HD
ATOM     10  H12 UNL     1       4.384  -1.073   0.231  1.00  0.00     0.274 HD
ATOM     11  H11 UNL     1       5.803  -0.329  -0.275  1.00  0.00     0.274 HD
ENDBRANCH   7   8
ENDBRANCH   6   7
ENDBRANCH   5   6
ENDBRANCH   4   5
BRANCH   4  12
HETATM   12  N2  UNL     1       0.463   0.483   1.517  1.00  0.00    -0.070 N 
ATOM     13  H23 UNL     1       0.996  -0.022   2.225  1.00  0.00     0.275 HD
ATOM     14  H22 UNL     1       1.001   1.349   1.488  1.00  0.00     0.275 HD
ATOM     15  H21 UNL     1      -0.490   0.657   1.836  1.00  0.00     0.275 HD
ENDBRANCH   4  12
ENDBRANCH   1   4
BRANCH   2  16
HETATM   16  N4  UNL     1      -2.210  -0.283   0.139  1.00  0.00    -0.131 N 
ATOM     17  H4  UNL     1      -1.692   0.587   0.259  1.00  0.00     0.205 HD
BRANCH  16  18
HETATM   18  C6  UNL     1      -3.495  -0.222  -0.064  1.00  0.00     0.712 A 
HETATM   19  N5  UNL     1      -4.358  -1.238  -0.246  1.00  0.00    -0.184 N 
HETATM   20  C7  UNL     1      -5.598  -0.701  -0.421  1.00  0.00     0.215 A 
ATOM     21  H5  UNL     1      -4.126  -2.231  -0.252  1.00  0.00     0.185 HD
HETATM   22  N6  UNL     1      -5.496   0.639  -0.347  1.00  0.00    -0.281 N 
HETATM   23  N7  UNL     1      -4.219   0.906  -0.131  1.00  0.00    -0.130 N 
ATOM     24  H6  UNL     1      -6.254   1.315  -0.439  1.00  0.00     0.188 HD
ATOM     25  H7  UNL     1      -3.835   1.845  -0.029  1.00  0.00     0.205 HD
ENDBRANCH  16  18
ENDBRANCH   2  16
TORSDOF 8
