REMARK  7 active torsions:
REMARK  status: ('A' for Active; 'I' for Inactive)
REMARK    1  A    between atoms: N1_1  and  C1_5 
REMARK    2  A    between atoms: C1_5  and  C2_6 
REMARK    3  A    between atoms: C2_6  and  C3_7 
REMARK    4  A    between atoms: C3_7  and  N2_8 
REMARK    5  A    between atoms: C7_12  and  C8_13 
REMARK    6  A    between atoms: C8_13  and  N3_14 
REMARK    7  A    between atoms: N3_14  and  N4_15 
ROOT
HETATM    1  N2  UNL     1       0.574  -0.663   0.651  1.00  0.00    -0.234 NA
HETATM    2  C4  UNL     1       0.421  -1.853  -0.099  1.00  0.00     0.109 C 
HETATM    3  C5  UNL     1      -0.849  -2.608   0.150  1.00  0.00     0.018 C 
HETATM    4  C6  UNL     1      -2.055  -1.716   0.320  1.00  0.00     0.025 C 
HETATM    5  C7  UNL     1      -1.613  -0.304  -0.007  1.00  0.00     0.110 C 
HETATM    6  N5  UNL     1      -0.569   0.040   0.929  1.00  0.00    -0.159 NA
ENDROOT
BRANCH   1   7
HETATM    7  C3  UNL     1       1.492   0.222  -0.066  1.00  0.00     0.111 C 
BRANCH   7   8
HETATM    8  C2  UNL     1       2.880  -0.311  -0.073  1.00  0.00     0.043 C 
BRANCH   8   9
HETATM    9  C1  UNL     1       3.790   0.637  -0.808  1.00  0.00     0.231 C 
BRANCH   9  10
HETATM   10  N1  UNL     1       3.851   1.925  -0.205  1.00  0.00    -0.079 N 
ATOM     11  H13 UNL     1       2.918   2.323  -0.100  1.00  0.00     0.274 HD
ATOM     12  H12 UNL     1       4.114   1.855   0.778  1.00  0.00     0.274 HD
ATOM     13  H11 UNL     1       4.467   2.567  -0.703  1.00  0.00     0.274 HD
ENDBRANCH   9  10
ENDBRANCH   8   9
ENDBRANCH   7   8
ENDBRANCH   1   7
BRANCH   5  14
HETATM   14  C8  UNL     1      -2.816   0.599   0.120  1.00  0.00     0.156 C 
BRANCH  14  15
HETATM   15  N3  UNL     1      -2.508   1.974  -0.168  1.00  0.00    -0.147 NA
BRANCH  15  16
HETATM   16  N4  UNL     1      -3.670   2.732  -0.012  1.00  0.00    -0.348 N 
ATOM     17  H42 UNL     1      -4.579   2.358   0.261  1.00  0.00     0.172 HD
ATOM     18  H41 UNL     1      -3.452   3.707  -0.216  1.00  0.00     0.172 HD
ENDBRANCH  15  16
ENDBRANCH  14  15
ENDBRANCH   5  14
TORSDOF 7
