REMARK  7 active torsions:
REMARK  status: ('A' for Active; 'I' for Inactive)
REMARK    1  A    between atoms: O1_2  and  C2_3 
REMARK    2  A    between atoms: C4_5  and  N1_6 
REMARK    3  A    between atoms: N1_6  and  C5_8 
REMARK    4  A    between atoms: C5_8  and  C6_9 
REMARK    5  A    between atoms: C6_9  and  C7_10 
REMARK    6  A    between atoms: C7_10  and  N2_11 
REMARK    7  A    between atoms: C8_17  and  N4_18 
ROOT
HETATM    1  C2  UNL     1      -2.802  -0.267   0.219  1.00  0.00     0.160 A 
HETATM    2  C3  UNL     1      -1.566   0.337   0.224  1.00  0.00     0.105 A 
HETATM    3  C4  UNL     1      -0.468  -0.301  -0.323  1.00  0.00     0.120 A 
HETATM    4  N3  UNL     1      -0.666  -1.516  -0.849  1.00  0.00    -0.177 N 
ATOM      5  H3  UNL     1       0.135  -1.999  -1.257  1.00  0.00     0.185 HD
HETATM    6  C8  UNL     1      -1.857  -2.137  -0.871  1.00  0.00     0.679 A 
HETATM    7  N5  UNL     1      -2.907  -1.492  -0.332  1.00  0.00    -0.171 N 
ATOM      8  H5  UNL     1      -3.819  -1.948  -0.341  1.00  0.00     0.186 HD
ENDROOT
BRANCH   3   9
HETATM    9  N1  UNL     1       0.702   0.269  -0.319  1.00  0.00    -0.376 N 
ATOM     10  H1  UNL     1       0.836   1.195   0.086  1.00  0.00     0.161 HD
BRANCH   9  11
HETATM   11  C5  UNL     1       1.808  -0.458  -0.910  1.00  0.00     0.123 C 
BRANCH  11  12
HETATM   12  C6  UNL     1       3.022   0.473  -0.874  1.00  0.00     0.047 C 
BRANCH  12  13
HETATM   13  C7  UNL     1       3.258   0.793   0.594  1.00  0.00     0.231 C 
BRANCH  13  14
HETATM   14  N2  UNL     1       4.377   1.667   0.791  1.00  0.00    -0.079 N 
ATOM     15  H23 UNL     1       5.219   1.289   0.357  1.00  0.00     0.274 HD
ATOM     16  H22 UNL     1       4.278   2.520   0.240  1.00  0.00     0.274 HD
ATOM     17  H21 UNL     1       4.535   1.882   1.776  1.00  0.00     0.274 HD
ENDBRANCH  13  14
ENDBRANCH  12  13
ENDBRANCH  11  12
ENDBRANCH   9  11
ENDBRANCH   3   9
BRANCH   1  18
HETATM   18  O1  UNL     1      -3.873   0.404   0.776  1.00  0.00    -0.340 OA
HETATM   19  C1  UNL     1      -3.699   1.674   1.332  1.00  0.00     0.211 C 
ENDBRANCH   1  18
BRANCH   6  20
HETATM   20  N4  UNL     1      -2.021  -3.311  -1.385  1.00  0.00    -0.234 N 
ATOM     21  H42 UNL     1      -1.225  -3.800  -1.794  1.00  0.00     0.174 HD
ATOM     22  H41 UNL     1      -2.925  -3.783  -1.402  1.00  0.00     0.174 HD
ENDBRANCH   6  20
TORSDOF 7
