REMARK  2 active torsions:
REMARK  status: ('A' for Active; 'I' for Inactive)
REMARK    1  A    between atoms: C7_8  and  C8_9 
REMARK    2  A    between atoms: C9_10  and  C10_11 
ROOT
HETATM    1  N1  UNL     1       7.106  -1.663   0.308  1.00  0.00    -0.191 NA
HETATM    2  C1  UNL     1       5.961  -1.436   0.237  1.00  0.00     0.102 C 
HETATM    3  C2  UNL     1       4.545  -1.179   0.155  1.00  0.00     0.072 A 
HETATM    4  C3  UNL     1       3.773  -2.204   0.660  1.00  0.00     0.026 A 
HETATM    5  C4  UNL     1       2.389  -2.265   0.726  1.00  0.00     0.014 A 
HETATM    6  C5  UNL     1       1.443  -1.323   0.398  1.00  0.00    -0.024 A 
HETATM    7  C6  UNL     1       0.077  -1.405   0.563  1.00  0.00     0.032 A 
HETATM    8  C7  UNL     1      -0.536  -0.246   0.108  1.00  0.00     0.019 A 
HETATM    9  C15 UNL     1       0.471   0.577  -0.349  1.00  0.00     0.034 A 
HETATM   10  C16 UNL     1       1.699  -0.030  -0.196  1.00  0.00    -0.012 A 
HETATM   11  C17 UNL     1       2.907   0.529  -0.556  1.00  0.00     0.004 A 
HETATM   12  C18 UNL     1       3.065   1.756  -1.164  1.00  0.00     0.031 A 
HETATM   13  C19 UNL     1       4.410   2.003  -1.383  1.00  0.00     0.089 A 
HETATM   14  N3  UNL     1       5.065   0.933  -0.910  1.00  0.00    -0.364 N 
ATOM     15  H3  UNL     1       6.078   0.816  -0.927  1.00  0.00     0.165 HD
HETATM   16  C20 UNL     1       4.196   0.034  -0.410  1.00  0.00     0.064 A 
ENDROOT
BRANCH   8  17
HETATM   17  C8  UNL     1      -1.957   0.035   0.117  1.00  0.00    -0.061 C 
HETATM   18  C9  UNL     1      -3.147   0.261   0.143  1.00  0.00    -0.060 C 
BRANCH  18  19
HETATM   19  C10 UNL     1      -4.557   0.514   0.195  1.00  0.00     0.033 A 
HETATM   20  C11 UNL     1      -5.495  -0.475   0.476  1.00  0.00     0.023 A 
HETATM   21  C12 UNL     1      -6.846  -0.201   0.519  1.00  0.00     0.019 A 
HETATM   22  C13 UNL     1      -7.236   1.098   0.271  1.00  0.00     0.087 A 
HETATM   23  N2  UNL     1      -6.322   2.051  -0.002  1.00  0.00    -0.374 N 
HETATM   24  C14 UNL     1      -5.002   1.795  -0.046  1.00  0.00     0.108 A 
ATOM     25  H2  UNL     1      -6.644   3.002  -0.182  1.00  0.00     0.164 HD
ENDBRANCH  18  19
ENDBRANCH   8  17
TORSDOF 2
