REMARK  2 active torsions:
REMARK  status: ('A' for Active; 'I' for Inactive)
REMARK    1  A    between atoms: C11_16  and  C12_17 
REMARK    2  A    between atoms: C13_18  and  C14_19 
ROOT
HETATM    1  N1  UNL     1      -0.882  -2.454  -0.011  1.00  0.00    -0.191 NA
HETATM    2  C1  UNL     1       0.059  -1.794   0.016  1.00  0.00     0.100 C 
HETATM    3  C2  UNL     1       1.266  -1.064   0.053  1.00  0.00     0.060 A 
HETATM    4  C3  UNL     1       2.470  -1.805   0.118  1.00  0.00     0.054 A 
HETATM    5  C4  UNL     1       3.702  -1.214   0.158  1.00  0.00     0.044 A 
HETATM    6  N2  UNL     1       4.936  -1.745   0.221  1.00  0.00    -0.365 N 
ATOM      7  H2  UNL     1       5.144  -2.743   0.249  1.00  0.00     0.165 HD
HETATM    8  C5  UNL     1       5.851  -0.767   0.241  1.00  0.00     0.089 A 
HETATM    9  C6  UNL     1       5.153   0.428   0.189  1.00  0.00     0.031 A 
HETATM   10  C7  UNL     1       3.803   0.129   0.137  1.00  0.00     0.003 A 
HETATM   11  C8  UNL     1       2.661   0.899   0.074  1.00  0.00    -0.008 A 
HETATM   12  C9  UNL     1       2.779   2.251   0.054  1.00  0.00     0.030 A 
HETATM   13  C10 UNL     1       1.672   3.036  -0.008  1.00  0.00     0.090 A 
HETATM   14  N3  UNL     1       0.495   2.453  -0.046  1.00  0.00    -0.358 N 
ATOM     15  H3  UNL     1      -0.332   3.048  -0.092  1.00  0.00     0.166 HD
HETATM   16  C11 UNL     1       0.308   1.083  -0.028  1.00  0.00     0.099 A 
HETATM   17  C20 UNL     1       1.380   0.289   0.032  1.00  0.00     0.031 A 
ENDROOT
BRANCH  16  18
HETATM   18  C12 UNL     1      -1.054   0.662  -0.078  1.00  0.00    -0.042 C 
HETATM   19  C13 UNL     1      -2.218   0.397  -0.122  1.00  0.00    -0.060 C 
BRANCH  19  20
HETATM   20  C14 UNL     1      -3.643   0.104  -0.177  1.00  0.00     0.018 A 
HETATM   21  C15 UNL     1      -4.241  -0.755   0.745  1.00  0.00     0.020 A 
HETATM   22  C16 UNL     1      -5.591  -1.034   0.695  1.00  0.00     0.001 A 
HETATM   23  C17 UNL     1      -6.397  -0.471  -0.269  1.00  0.00     0.000 A 
HETATM   24  C18 UNL     1      -5.824   0.381  -1.189  1.00  0.00     0.001 A 
HETATM   25  C19 UNL     1      -4.473   0.654  -1.131  1.00  0.00     0.020 A 
ENDBRANCH  19  20
ENDBRANCH  16  18
TORSDOF 2
