REMARK  2 active torsions:
REMARK  status: ('A' for Active; 'I' for Inactive)
REMARK    1  A    between atoms: C11_17  and  C12_18 
REMARK    2  A    between atoms: C13_19  and  C14_20 
ROOT
HETATM    1  C1  UNL     1       0.066  -2.436  -2.468  1.00  0.00     0.070 C 
HETATM    2  C2  UNL     1      -1.005  -1.664  -1.804  1.00  0.00     0.026 A 
HETATM    3  N1  UNL     1      -2.296  -1.843  -2.114  1.00  0.00    -0.367 N 
ATOM      4  H1  UNL     1      -2.563  -2.525  -2.823  1.00  0.00     0.165 HD
HETATM    5  C3  UNL     1      -3.238  -1.117  -1.484  1.00  0.00     0.102 A 
HETATM    6  C4  UNL     1      -2.941  -0.183  -0.520  1.00  0.00     0.021 A 
HETATM    7  C5  UNL     1      -1.617   0.016  -0.187  1.00  0.00     0.066 A 
HETATM    8  N2  UNL     1      -1.587   0.963   0.763  1.00  0.00    -0.353 N 
ATOM      9  H2  UNL     1      -0.729   1.307   1.195  1.00  0.00     0.166 HD
HETATM   10  C6  UNL     1      -2.814   1.406   1.081  1.00  0.00     0.046 A 
HETATM   11  C7  UNL     1      -3.333   2.334   1.957  1.00  0.00     0.047 A 
HETATM   12  C8  UNL     1      -4.687   2.544   2.030  1.00  0.00     0.090 A 
HETATM   13  N3  UNL     1      -5.496   1.827   1.231  1.00  0.00    -0.374 N 
ATOM     14  H3  UNL     1      -6.503   1.981   1.283  1.00  0.00     0.164 HD
HETATM   15  C9  UNL     1      -5.027   0.925   0.376  1.00  0.00     0.102 A 
HETATM   16  C10 UNL     1      -3.680   0.677   0.265  1.00  0.00     0.020 A 
HETATM   17  C11 UNL     1      -0.645  -0.743  -0.847  1.00  0.00     0.067 A 
ENDROOT
BRANCH  17  18
HETATM   18  C12 UNL     1       0.736  -0.534  -0.499  1.00  0.00    -0.057 C 
HETATM   19  C13 UNL     1       1.898  -0.380  -0.207  1.00  0.00    -0.061 C 
BRANCH  19  20
HETATM   20  C14 UNL     1       3.279  -0.192   0.157  1.00  0.00     0.018 A 
HETATM   21  C15 UNL     1       4.098  -1.323   0.245  1.00  0.00     0.020 A 
HETATM   22  C16 UNL     1       5.406  -1.127   0.591  1.00  0.00     0.001 A 
HETATM   23  C17 UNL     1       5.960   0.106   0.855  1.00  0.00     0.000 A 
HETATM   24  C18 UNL     1       5.132   1.206   0.762  1.00  0.00     0.001 A 
HETATM   25  C19 UNL     1       3.815   1.045   0.417  1.00  0.00     0.020 A 
ENDBRANCH  19  20
ENDBRANCH  17  18
TORSDOF 2
