REMARK  2 active torsions:
REMARK  status: ('A' for Active; 'I' for Inactive)
REMARK    1  A    between atoms: C9_12  and  C10_13 
REMARK    2  A    between atoms: C11_14  and  C12_15 
ROOT
HETATM    1  N1  UNL     1      -5.338   3.237  -3.069  1.00  0.00    -0.191 NA
HETATM    2  C1  UNL     1      -5.025   2.415  -2.319  1.00  0.00     0.099 C 
HETATM    3  C2  UNL     1      -4.656   1.394  -1.376  1.00  0.00     0.045 A 
HETATM    4  C3  UNL     1      -5.644   0.694  -0.725  1.00  0.00     0.025 A 
HETATM    5  C4  UNL     1      -5.368  -0.296   0.190  1.00  0.00     0.032 A 
HETATM    6  C5  UNL     1      -4.066  -0.606   0.473  1.00  0.00     0.043 A 
HETATM    7  N2  UNL     1      -3.478  -1.514   1.311  1.00  0.00    -0.355 N 
ATOM      8  H2  UNL     1      -3.982  -2.164   1.914  1.00  0.00     0.166 HD
HETATM    9  C6  UNL     1      -2.141  -1.425   1.224  1.00  0.00     0.043 A 
HETATM   10  C7  UNL     1      -1.139  -2.134   1.876  1.00  0.00     0.032 A 
HETATM   11  C8  UNL     1       0.159  -1.797   1.561  1.00  0.00     0.023 A 
HETATM   12  C9  UNL     1       0.454  -0.811   0.648  1.00  0.00     0.019 A 
HETATM   13  C17 UNL     1      -0.551  -0.120   0.012  1.00  0.00     0.035 A 
HETATM   14  C18 UNL     1      -1.874  -0.433   0.305  1.00  0.00     0.004 A 
HETATM   15  C19 UNL     1      -3.062   0.087  -0.172  1.00  0.00     0.005 A 
HETATM   16  C20 UNL     1      -3.343   1.082  -1.091  1.00  0.00     0.037 A 
ENDROOT
BRANCH  12  17
HETATM   17  C10 UNL     1       1.817  -0.461   0.320  1.00  0.00    -0.060 C 
HETATM   18  C11 UNL     1       2.966  -0.165   0.064  1.00  0.00    -0.043 C 
BRANCH  18  19
HETATM   19  C12 UNL     1       4.340   0.188  -0.217  1.00  0.00     0.086 A 
HETATM   20  C13 UNL     1       5.302   0.173   0.757  1.00  0.00     0.039 A 
HETATM   21  C14 UNL     1       6.604   0.508   0.488  1.00  0.00     0.004 A 
HETATM   22  C15 UNL     1       6.922   0.866  -0.814  1.00  0.00     0.017 A 
HETATM   23  C16 UNL     1       5.948   0.878  -1.787  1.00  0.00     0.089 A 
HETATM   24  N3  UNL     1       4.693   0.540  -1.461  1.00  0.00    -0.359 N 
ATOM     25  H3  UNL     1       3.978   0.551  -2.188  1.00  0.00     0.166 HD
ENDBRANCH  18  19
ENDBRANCH  12  17
TORSDOF 2
