REMARK  8 active torsions:
REMARK  status: ('A' for Active; 'I' for Inactive)
REMARK    1  A    between atoms: C2_5  and  N3_6 
REMARK    2  A    between atoms: C3_8  and  C4_9 
REMARK    3  A    between atoms: C4_9  and  N5_12 
REMARK       I    between atoms: N5_12  and  C6_14 
REMARK    4  A    between atoms: C6_14  and  C7_16 
REMARK    5  A    between atoms: C9_18  and  C10_19 
REMARK    6  A    between atoms: C10_19  and  O2_20 
REMARK    7  A    between atoms: C13_26  and  N7_27 
REMARK    8  A    between atoms: C17_37  and  N10_38 
REMARK       I    between atoms: N10_38  and  C18_40 
REMARK       I    between atoms: C18_40  and  N11_41 
REMARK       I    between atoms: C18_40  and  N12_45 
ROOT
HETATM    1  C4  UNL     1       0.179  -2.420  -1.740  1.00  0.00     0.230 C 
HETATM    2  C5  UNL     1       0.180  -3.777  -1.182  1.00  0.00     0.090 C 
HETATM    3  N4  UNL     1       0.193  -4.842  -0.727  1.00  0.00    -0.195 NA
ENDROOT
BRANCH   1   4
HETATM    4  C3  UNL     1       1.393  -1.715  -1.255  1.00  0.00     0.102 C 
HETATM    5  N3  UNL     1       1.356  -0.953  -0.213  1.00  0.00    -0.352 N 
ATOM      6  H3  UNL     1       0.465  -0.847   0.272  1.00  0.00     0.166 HD
BRANCH   5   7
HETATM    7  C2  UNL     1       2.469  -0.261   0.293  1.00  0.00     0.119 A 
HETATM    8  N2  UNL     1       3.206  -0.810   1.303  1.00  0.00    -0.282 N 
HETATM    9  N1  UNL     1       4.262  -0.199   1.813  1.00  0.00    -0.280 N 
ATOM     10  H2  UNL     1       2.934  -1.720   1.676  1.00  0.00     0.189 HD
HETATM   11  C1  UNL     1       5.029  -0.805   2.887  1.00  0.00     0.179 C 
HETATM   12  C17 UNL     1       4.606   0.999   1.308  1.00  0.00     0.120 A 
HETATM   13  C16 UNL     1       3.909   1.613   0.288  1.00  0.00     0.053 A 
HETATM   14  C15 UNL     1       2.810   0.968  -0.235  1.00  0.00     0.053 A 
BRANCH  12  15
HETATM   15  N10 UNL     1       5.642   1.619   1.793  1.00  0.00    -0.326 N 
HETATM   16  C18 UNL     1       6.085   2.894   1.324  1.00  0.00     0.481 C 
HETATM   17  N11 UNL     1       6.749   2.821   0.039  1.00  0.00    -0.033 N 
HETATM   18  N12 UNL     1       7.026   3.428   2.290  1.00  0.00    -0.033 N 
ATOM     19 3H11 UNL     1       7.520   2.153   0.064  1.00  0.00     0.278 HD
ATOM     20 2H11 UNL     1       6.155   2.364  -0.653  1.00  0.00     0.278 HD
ATOM     21 1H11 UNL     1       7.065   3.731  -0.296  1.00  0.00     0.278 HD
ATOM     22 3H12 UNL     1       6.642   3.467   3.234  1.00  0.00     0.278 HD
ATOM     23 2H12 UNL     1       7.798   2.789   2.483  1.00  0.00     0.278 HD
ATOM     24 1H12 UNL     1       7.342   4.338   1.955  1.00  0.00     0.278 HD
ATOM     25  H10 UNL     1       6.165   1.172   2.546  1.00  0.00     0.164 HD
ENDBRANCH  12  15
ENDBRANCH   5   7
ENDBRANCH   1   4
BRANCH   1  26
HETATM   26  N5  UNL     1      -1.031  -1.703  -1.380  1.00  0.00    -0.338 N 
HETATM   27  C6  UNL     1      -1.917  -1.220  -2.359  1.00  0.00     0.242 C 
HETATM   28  O1  UNL     1      -1.678  -1.400  -3.569  1.00  0.00    -0.271 OA
ATOM     29  H5  UNL     1      -1.243  -1.546  -0.395  1.00  0.00     0.164 HD
BRANCH  27  30
HETATM   30  C7  UNL     1      -3.142  -0.493  -1.975  1.00  0.00     0.190 C 
HETATM   31  C8  UNL     1      -2.690   0.730  -1.187  1.00  0.00     0.062 C 
HETATM   32  C9  UNL     1      -3.929   1.536  -0.843  1.00  0.00     0.109 C 
HETATM   33  N6  UNL     1      -4.685   0.728   0.094  1.00  0.00    -0.369 N 
HETATM   34  C11 UNL     1      -4.739  -0.675  -0.185  1.00  0.00     0.112 A 
ATOM     35  H6  UNL     1      -5.151   1.135   0.905  1.00  0.00     0.161 HD
HETATM   36  C12 UNL     1      -5.600  -1.431   0.619  1.00  0.00     0.096 A 
HETATM   37  N9  UNL     1      -4.020  -1.264  -1.155  1.00  0.00    -0.271 N 
HETATM   38  C13 UNL     1      -5.719  -2.792   0.424  1.00  0.00     0.106 A 
HETATM   39  N8  UNL     1      -4.977  -3.328  -0.560  1.00  0.00    -0.295 N 
HETATM   40  C14 UNL     1      -4.148  -2.597  -1.334  1.00  0.00     0.330 A 
ATOM     41  H8  UNL     1      -5.043  -4.332  -0.729  1.00  0.00     0.172 HD
HETATM   42  O3  UNL     1      -3.491  -3.216  -2.240  1.00  0.00    -0.246 OA
BRANCH  32  43
HETATM   43  C10 UNL     1      -3.556   2.856  -0.228  1.00  0.00     0.189 C 
BRANCH  43  44
HETATM   44  O2  UNL     1      -4.711   3.539   0.126  1.00  0.00    -0.399 OA
ATOM     45  H2  UNL     1      -4.475   4.373   0.515  1.00  0.00     0.209 HD
ENDBRANCH  43  44
ENDBRANCH  32  43
BRANCH  38  46
HETATM   46  N7  UNL     1      -6.492  -3.551   1.125  1.00  0.00    -0.385 N 
ATOM     47  H72 UNL     1      -7.055  -3.144   1.872  1.00  0.00     0.157 HD
ATOM     48  H71 UNL     1      -6.580  -4.557   0.981  1.00  0.00     0.157 HD
ENDBRANCH  38  46
ENDBRANCH  27  30
ENDBRANCH   1  26
TORSDOF 8
