REMARK  13 active torsions:
REMARK  status: ('A' for Active; 'I' for Inactive)
REMARK    1  A    between atoms: C3_4  and  S1_5 
REMARK    2  A    between atoms: S1_5  and  C4_6 
REMARK    3  A    between atoms: C4_6  and  C5_7 
REMARK    4  A    between atoms: C5_7  and  C6_8 
REMARK    5  A    between atoms: C6_8  and  C7_9 
REMARK    6  A    between atoms: C9_15  and  N2_16 
REMARK    7  A    between atoms: C10_20  and  O3_21 
REMARK    8  A    between atoms: C11_24  and  C12_25 
REMARK    9  A    between atoms: C12_25  and  O5_26 
REMARK   10  A    between atoms: C13_29  and  C14_30 
REMARK   11  A    between atoms: C14_30  and  O6_33 
REMARK   12  A    between atoms: C17_35  and  O7_36 
REMARK   13  A    between atoms: C17_35  and  O8_38 
ROOT
HETATM    1  C7  UNL     1       2.707  -0.481  -1.220  1.00  0.00     0.189 C 
HETATM    2  O2  UNL     1       3.307  -0.331   0.034  1.00  0.00    -0.316 OA
HETATM    3  C8  UNL     1       4.529   0.271  -0.125  1.00  0.00     0.358 C 
HETATM    4  N1  UNL     1       5.170   0.305   1.165  1.00  0.00     0.018 N 
ATOM      5  H11 UNL     1       4.620   0.732   1.910  1.00  0.00     0.286 HD
ATOM      6  H12 UNL     1       5.954   0.953   1.242  1.00  0.00     0.286 HD
HETATM    7  C9  UNL     1       5.504  -1.093   1.370  1.00  0.00     0.440 C 
HETATM    8  C10 UNL     1       5.787  -1.562  -0.025  1.00  0.00     0.320 C 
HETATM    9  O4  UNL     1       5.370  -0.558  -0.898  1.00  0.00    -0.297 OA
HETATM   10  C11 UNL     1       4.373   1.607  -0.775  1.00  0.00     0.166 C 
HETATM   11  S2  UNL     1       2.871   1.266  -1.792  1.00  0.00    -0.123 SA
ENDROOT
BRANCH   1  12
HETATM   12  C6  UNL     1       1.270  -0.861  -1.044  1.00  0.00     0.044 C 
BRANCH  12  13
HETATM   13  C5  UNL     1       0.553  -1.041  -2.362  1.00  0.00     0.013 C 
BRANCH  13  14
HETATM   14  C4  UNL     1      -0.878  -1.423  -2.041  1.00  0.00     0.076 C 
BRANCH  14  15
HETATM   15  S1  UNL     1      -1.602  -0.082  -1.069  1.00  0.00    -0.137 SA
BRANCH  15  16
HETATM   16  C3  UNL     1      -3.328  -0.447  -0.623  1.00  0.00     0.195 C 
HETATM   17  O1  UNL     1      -3.325  -1.529   0.236  1.00  0.00    -0.365 OA
HETATM   18  C2  UNL     1      -4.119  -1.253   1.313  1.00  0.00     0.181 C 
HETATM   19  C1  UNL     1      -3.525  -1.871   2.582  1.00  0.00     0.045 C 
HETATM   20  C17 UNL     1      -4.150   0.241   1.485  1.00  0.00     0.195 C 
HETATM   21  C13 UNL     1      -3.876   0.732   0.100  1.00  0.00     0.123 C 
BRANCH  20  22
HETATM   22  O7  UNL     1      -5.385   0.674   1.961  1.00  0.00    -0.363 OA
ATOM     23  H7  UNL     1      -5.405   1.618   2.070  1.00  0.00     0.213 HD
ENDBRANCH  20  22
BRANCH  20  24
HETATM   24  O8  UNL     1      -3.141   0.581   2.397  1.00  0.00    -0.363 OA
ATOM     25  H8  UNL     1      -3.161   1.525   2.506  1.00  0.00     0.213 HD
ENDBRANCH  20  24
BRANCH  21  26
HETATM   26  C14 UNL     1      -5.094   1.324  -0.575  1.00  0.00     0.062 C 
HETATM   27  C15 UNL     1      -4.654   1.751  -1.973  1.00  0.00     0.046 C 
HETATM   28  C16 UNL     1      -6.211   0.342  -0.735  1.00  0.00     0.046 C 
BRANCH  26  29
HETATM   29  O6  UNL     1      -5.451   2.475   0.112  1.00  0.00    -0.390 OA
ATOM     30  H6  UNL     1      -6.216   2.847  -0.312  1.00  0.00     0.210 HD
ENDBRANCH  26  29
ENDBRANCH  21  26
ENDBRANCH  15  16
ENDBRANCH  14  15
ENDBRANCH  13  14
ENDBRANCH  12  13
ENDBRANCH   1  12
BRANCH  10  31
HETATM   31  C12 UNL     1       4.112   2.730   0.197  1.00  0.00     0.186 C 
BRANCH  31  32
HETATM   32  O5  UNL     1       5.203   2.782   1.064  1.00  0.00    -0.399 OA
ATOM     33  H5  UNL     1       5.039   3.489   1.676  1.00  0.00     0.209 HD
ENDBRANCH  31  32
ENDBRANCH  10  31
BRANCH   7  34
HETATM   34  N2  UNL     1       6.633  -1.238   2.255  1.00  0.00    -0.045 N 
ATOM     35  H23 UNL     1       7.438  -0.705   1.925  1.00  0.00     0.277 HD
ATOM     36  H22 UNL     1       6.478  -0.756   3.141  1.00  0.00     0.277 HD
ATOM     37  H21 UNL     1       6.868  -2.220   2.399  1.00  0.00     0.277 HD
ENDBRANCH   7  34
BRANCH   8  38
HETATM   38  O3  UNL     1       7.137  -1.844  -0.131  1.00  0.00    -0.367 OA
ATOM     39  H3  UNL     1       7.316  -2.141  -1.015  1.00  0.00     0.212 HD
ENDBRANCH   8  38
TORSDOF 13
