REMARK  15 active torsions:
REMARK  status: ('A' for Active; 'I' for Inactive)
REMARK    1  A    between atoms: O1_2  and  C2_3 
REMARK    2  A    between atoms: C2_3  and  C3_5 
REMARK    3  A    between atoms: C7_9  and  S1_10 
REMARK    4  A    between atoms: S1_10  and  C8_11 
REMARK    5  A    between atoms: C8_11  and  C9_12 
REMARK    6  A    between atoms: C9_12  and  N1_13 
REMARK    7  A    between atoms: C9_12  and  C24_46 
REMARK       I    between atoms: N1_13  and  C10_15 
REMARK    8  A    between atoms: C10_15  and  C11_17 
REMARK    9  A    between atoms: C14_20  and  N2_21 
REMARK       I    between atoms: N2_21  and  C15_23 
REMARK       I    between atoms: C15_23  and  N4_27 
REMARK   10  A    between atoms: N4_27  and  S2_29 
REMARK   11  A    between atoms: S2_29  and  C16_32 
REMARK   12  A    between atoms: C19_35  and  N5_36 
REMARK   13  A    between atoms: N6_38  and  O6_40 
REMARK   14  A    between atoms: C24_46  and  O8_48 
REMARK   15  A    between atoms: O8_48  and  C25_49 
ROOT
HETATM    1  C11 UNL     1       0.635  -0.080  -0.664  1.00  0.00     0.032 A 
HETATM    2  C12 UNL     1       0.960  -0.445   0.629  1.00  0.00     0.019 A 
HETATM    3  C13 UNL     1       2.269  -0.556   1.052  1.00  0.00     0.031 A 
HETATM    4  C14 UNL     1       3.324  -0.304   0.189  1.00  0.00     0.049 A 
HETATM    5  C22 UNL     1       3.010   0.059  -1.101  1.00  0.00     0.031 A 
HETATM    6  C23 UNL     1       1.683   0.168  -1.519  1.00  0.00     0.019 A 
ENDROOT
BRANCH   1   7
HETATM    7  C10 UNL     1      -0.725   0.070  -1.156  1.00  0.00     0.252 C 
HETATM    8  N1  UNL     1      -1.824   0.450  -0.340  1.00  0.00    -0.342 N 
ATOM      9  H1  UNL     1      -1.649   0.630   0.649  1.00  0.00     0.163 HD
HETATM   10  O3  UNL     1      -0.984  -0.143  -2.383  1.00  0.00    -0.268 OA
BRANCH   8  11
HETATM   11  C9  UNL     1      -3.161   0.595  -0.824  1.00  0.00     0.194 C 
BRANCH  11  12
HETATM   12  C8  UNL     1      -4.220  -0.033   0.034  1.00  0.00     0.114 C 
BRANCH  12  13
HETATM   13  S1  UNL     1      -4.041  -1.802   0.255  1.00  0.00    -0.127 SA
BRANCH  13  14
HETATM   14  C7  UNL     1      -5.329  -2.451   1.292  1.00  0.00     0.001 A 
HETATM   15  C6  UNL     1      -5.123  -2.522   2.647  1.00  0.00     0.018 A 
HETATM   16  C5  UNL     1      -6.103  -3.020   3.511  1.00  0.00     0.002 A 
HETATM   17  C4  UNL     1      -7.313  -3.452   2.973  1.00  0.00     0.017 A 
HETATM   18  C3  UNL     1      -7.536  -3.387   1.602  1.00  0.00     0.040 A 
HETATM   19  C31 UNL     1      -6.536  -2.887   0.793  1.00  0.00     0.036 A 
BRANCH  18  20
HETATM   20  C2  UNL     1      -8.793  -3.829   1.019  1.00  0.00     0.292 C 
HETATM   21  O2  UNL     1      -8.990  -3.764  -0.199  1.00  0.00    -0.259 OA
BRANCH  20  22
HETATM   22  O1  UNL     1      -9.782  -4.331   1.855  1.00  0.00    -0.323 OA
HETATM   23  C1  UNL     1     -11.034  -4.781   1.350  1.00  0.00     0.213 C 
ENDBRANCH  20  22
ENDBRANCH  18  20
ENDBRANCH  13  14
ENDBRANCH  12  13
ENDBRANCH  11  12
BRANCH  11  24
HETATM   24  C24 UNL     1      -3.453   2.080  -0.845  1.00  0.00     0.287 C 
HETATM   25  O7  UNL     1      -2.588   2.931  -0.479  1.00  0.00    -0.262 OA
BRANCH  24  26
HETATM   26  O8  UNL     1      -4.673   2.569  -1.263  1.00  0.00    -0.277 OA
BRANCH  26  27
HETATM   27  C25 UNL     1      -4.981   3.907  -1.303  1.00  0.00     0.079 A 
HETATM   28  C26 UNL     1      -5.493   4.517  -0.188  1.00  0.00     0.037 A 
HETATM   29  C27 UNL     1      -5.808   5.884  -0.223  1.00  0.00     0.003 A 
HETATM   30  C28 UNL     1      -5.611   6.630  -1.366  1.00  0.00     0.000 A 
HETATM   31  C29 UNL     1      -5.092   5.996  -2.481  1.00  0.00     0.003 A 
HETATM   32  C30 UNL     1      -4.777   4.634  -2.450  1.00  0.00     0.037 A 
ENDBRANCH  26  27
ENDBRANCH  24  26
ENDBRANCH  11  24
ENDBRANCH   8  11
ENDBRANCH   1   7
BRANCH   4  33
HETATM   33  N2  UNL     1       4.682  -0.419   0.613  1.00  0.00    -0.192 N 
HETATM   34  C15 UNL     1       5.728  -0.047  -0.260  1.00  0.00     0.686 C 
HETATM   35  N3  UNL     1       6.261   1.124  -0.080  1.00  0.00    -0.234 N 
HETATM   36  N4  UNL     1       6.249  -0.829  -1.308  1.00  0.00    -0.113 N 
ATOM     37  H32 UNL     1       5.883   1.691   0.679  1.00  0.00     0.174 HD
ATOM     38  H31 UNL     1       7.016   1.393  -0.710  1.00  0.00     0.174 HD
ATOM     39  H4  UNL     1       5.880  -0.766  -2.257  1.00  0.00     0.197 HD
ATOM     40  H2  UNL     1       4.897  -0.770   1.546  1.00  0.00     0.184 HD
BRANCH  36  41
HETATM   41  S2  UNL     1       7.554  -1.909  -0.905  1.00  0.00     0.276 S 
HETATM   42  O4  UNL     1       8.007  -2.655  -2.140  1.00  0.00    -0.200 OA
HETATM   43  O5  UNL     1       7.142  -2.846   0.186  1.00  0.00    -0.200 OA
BRANCH  41  44
HETATM   44  C16 UNL     1       8.866  -0.893  -0.335  1.00  0.00     0.080 A 
HETATM   45  C17 UNL     1       9.778  -0.404  -1.223  1.00  0.00     0.027 A 
HETATM   46  C18 UNL     1      10.823   0.405  -0.780  1.00  0.00     0.032 A 
HETATM   47  C19 UNL     1      10.959   0.726   0.548  1.00  0.00     0.050 A 
HETATM   48  C20 UNL     1      10.045   0.237   1.447  1.00  0.00     0.032 A 
HETATM   49  C21 UNL     1       8.996  -0.573   1.011  1.00  0.00     0.027 A 
BRANCH  47  50
HETATM   50  N5  UNL     1      12.035   1.550   0.948  1.00  0.00    -0.282 N 
HETATM   51  N6  UNL     1      13.242   1.184   0.862  1.00  0.00    -0.210 N 
ATOM     52  H6  UNL     1      13.981   1.818   1.165  1.00  0.00     0.215 HD
ATOM     53  H5  UNL     1      11.830   2.477   1.321  1.00  0.00     0.189 HD
BRANCH  51  54
HETATM   54  O6  UNL     1      13.575  -0.052   0.368  1.00  0.00    -0.274 OA
ATOM     55  H6  UNL     1      14.482  -0.327   0.303  1.00  0.00     0.246 HD
ENDBRANCH  51  54
ENDBRANCH  47  50
ENDBRANCH  41  44
ENDBRANCH  36  41
ENDBRANCH   4  33
TORSDOF 15
