REMARK  5 active torsions:
REMARK  status: ('A' for Active; 'I' for Inactive)
REMARK    1  A    between atoms: N2_5  and  C3_6 
REMARK    2  A    between atoms: C7_11  and  C8_12 
REMARK    3  A    between atoms: C8_12  and  C9_13 
REMARK    4  A    between atoms: C10_14  and  N3_15 
REMARK    5  A    between atoms: N4_20  and  O2_21 
ROOT
HETATM    1  C9  UNL     1      -1.935   0.562   0.509  1.00  0.00     0.016 A 
HETATM    2  C10 UNL     1      -2.835  -0.244  -0.197  1.00  0.00     0.043 A 
HETATM    3  C13 UNL     1      -4.044   0.325  -0.523  1.00  0.00     0.050 A 
HETATM    4  C14 UNL     1      -4.325   1.627  -0.160  1.00  0.00     0.125 A 
HETATM    5  N4  UNL     1      -3.436   2.376   0.519  1.00  0.00    -0.240 N 
HETATM    6  C15 UNL     1      -2.239   1.876   0.866  1.00  0.00     0.048 A 
HETATM    7  C16 UNL     1      -1.264   2.712   1.616  1.00  0.00     0.072 C 
ENDROOT
BRANCH   1   8
HETATM    8  C8  UNL     1      -0.679   0.022   0.914  1.00  0.00     0.035 C 
BRANCH   8   9
HETATM    9  C7  UNL     1       0.474   0.021   0.285  1.00  0.00     0.062 A 
HETATM   10  C2  UNL     1       0.885   0.506  -0.921  1.00  0.00     0.054 A 
HETATM   11  C1  UNL     1       0.182   1.146  -1.832  1.00  0.00     0.045 C 
HETATM   12  N1  UNL     1       2.215   0.212  -1.055  1.00  0.00    -0.295 N 
HETATM   13  N2  UNL     1       2.649  -0.417  -0.019  1.00  0.00    -0.252 N 
ATOM     14  H1  UNL     1       2.784   0.458  -1.865  1.00  0.00     0.187 HD
HETATM   15  C6  UNL     1       1.628  -0.563   0.835  1.00  0.00     0.275 A 
HETATM   16  O1  UNL     1       1.666  -1.136   1.974  1.00  0.00    -0.266 OA
BRANCH  13  17
HETATM   17  C3  UNL     1       4.007  -0.914   0.243  1.00  0.00     0.103 C 
HETATM   18  C4  UNL     1       4.891  -0.505  -0.927  1.00  0.00     0.034 C 
HETATM   19  C5  UNL     1       4.518  -0.269   1.506  1.00  0.00     0.034 C 
ENDBRANCH  13  17
ENDBRANCH   8   9
ENDBRANCH   1   8
BRANCH   2  20
HETATM   20  N3  UNL     1      -2.492  -1.582  -0.546  1.00  0.00    -0.389 N 
HETATM   21  C11 UNL     1      -2.186  -2.511   0.531  1.00  0.00     0.149 C 
HETATM   22  C12 UNL     1      -2.443  -2.028  -1.907  1.00  0.00     0.149 C 
ENDBRANCH   2  20
BRANCH   5  23
HETATM   23  O2  UNL     1      -3.715   3.673   0.881  1.00  0.00    -0.283 OA
ATOM     24  H2  UNL     1      -3.088   4.202   1.360  1.00  0.00     0.245 HD
ENDBRANCH   5  23
TORSDOF 5
