REMARK  3 active torsions:
REMARK  status: ('A' for Active; 'I' for Inactive)
REMARK       I    between atoms: C1_2  and  N1_3 
REMARK       I    between atoms: C1_2  and  N2_8 
REMARK    1  A    between atoms: C8_11  and  O2_12 
REMARK    2  A    between atoms: C8_11  and  C9_14 
REMARK    3  A    between atoms: C9_14  and  N3_15 
ROOT
HETATM    1  O1  UNL     1       3.585  -2.114  -0.592  1.00  0.00    -0.247 OA
HETATM    2  C1  UNL     1       3.036  -1.041  -0.117  1.00  0.00     0.320 C 
HETATM    3  N1  UNL     1       3.901  -0.050   0.318  1.00  0.00    -0.334 N 
HETATM    4  C2  UNL     1       5.374  -0.234   0.275  1.00  0.00     0.127 C 
HETATM    5  C3  UNL     1       5.786   1.160  -0.181  1.00  0.00     0.022 C 
HETATM    6  C4  UNL     1       4.933   2.025   0.667  1.00  0.00     0.022 C 
HETATM    7  C5  UNL     1       3.644   1.260   0.842  1.00  0.00     0.127 C 
HETATM    8  N2  UNL     1       1.660  -1.015  -0.104  1.00  0.00    -0.334 N 
HETATM    9  C6  UNL     1       0.824   0.017   0.415  1.00  0.00     0.130 C 
HETATM   10  C7  UNL     1      -0.521  -0.588   0.784  1.00  0.00     0.059 C 
HETATM   11  C8  UNL     1      -1.245  -1.121  -0.435  1.00  0.00     0.087 C 
HETATM   12  C14 UNL     1      -0.229  -1.578  -1.495  1.00  0.00     0.059 C 
HETATM   13  C15 UNL     1       0.929  -2.156  -0.713  1.00  0.00     0.130 C 
ENDROOT
BRANCH  11  14
HETATM   14  O2  UNL     1      -1.893  -2.282  -0.033  1.00  0.00    -0.388 OA
ATOM     15  H2  UNL     1      -2.347  -2.616  -0.798  1.00  0.00     0.210 HD
ENDBRANCH  11  14
BRANCH  11  16
HETATM   16  C9  UNL     1      -2.154  -0.097  -1.019  1.00  0.00     0.310 C 
BRANCH  16  17
HETATM   17  N3  UNL     1      -3.177   0.299  -0.089  1.00  0.00     0.095 N 
HETATM   18  C10 UNL     1      -3.766   1.592  -0.561  1.00  0.00     0.298 C 
HETATM   19  C11 UNL     1      -4.743   1.987   0.516  1.00  0.00     0.198 C 
HETATM   20  O3  UNL     1      -4.909   1.047   1.512  1.00  0.00    -0.388 OA
HETATM   21  C12 UNL     1      -5.185  -0.230   1.061  1.00  0.00     0.198 C 
HETATM   22  C13 UNL     1      -4.321  -0.629  -0.115  1.00  0.00     0.298 C 
ENDBRANCH  16  17
ENDBRANCH  11  16
TORSDOF 3
