REMARK  6 active torsions:
REMARK  status: ('A' for Active; 'I' for Inactive)
REMARK    1  A    between atoms: C2_2  and  C3_3 
REMARK    2  A    between atoms: C4_4  and  C5_5 
REMARK    3  A    between atoms: C5_5  and  N1_6 
REMARK    4  A    between atoms: C10_12  and  O2_13 
REMARK    5  A    between atoms: C10_12  and  C11_15 
REMARK    6  A    between atoms: C11_15  and  N2_16 
ROOT
HETATM    1  N1  UNL     1       1.565   0.137   0.993  1.00  0.00    -0.334 N 
HETATM    2  C6  UNL     1       1.214  -1.275   0.886  1.00  0.00     0.164 C 
HETATM    3  C7  UNL     1      -0.190  -1.505   0.447  1.00  0.00     0.074 C 
HETATM    4  C8  UNL     1      -0.583  -2.913   0.924  1.00  0.00     0.047 C 
HETATM    5  C9  UNL     1      -0.197  -1.587  -1.071  1.00  0.00     0.047 C 
HETATM    6  O1  UNL     1      -1.114  -0.650   0.953  1.00  0.00    -0.334 OA
HETATM    7  C10 UNL     1      -0.868   0.683   0.828  1.00  0.00     0.263 C 
HETATM    8  C16 UNL     1       0.556   1.072   0.760  1.00  0.00     0.285 C 
HETATM    9  O4  UNL     1       0.858   2.240   0.494  1.00  0.00    -0.267 OA
ENDROOT
BRANCH   7  10
HETATM   10  O2  UNL     1      -1.366   1.293   2.007  1.00  0.00    -0.357 OA
ATOM     11  H2  UNL     1      -1.194   2.223   1.920  1.00  0.00     0.213 HD
ENDBRANCH   7  10
BRANCH   7  12
HETATM   12  C11 UNL     1      -1.671   1.278  -0.313  1.00  0.00     0.205 C 
BRANCH  12  13
HETATM   13  N2  UNL     1      -3.088   1.093  -0.067  1.00  0.00    -0.346 N 
HETATM   14  C12 UNL     1      -3.854  -0.075  -0.508  1.00  0.00     0.126 C 
HETATM   15  C13 UNL     1      -5.165   0.593  -0.918  1.00  0.00     0.029 C 
HETATM   16  C14 UNL     1      -5.403   1.487   0.307  1.00  0.00     0.104 C 
HETATM   17  C15 UNL     1      -4.017   1.922   0.606  1.00  0.00     0.220 C 
HETATM   18  O3  UNL     1      -3.686   2.883   1.346  1.00  0.00    -0.273 OA
ENDBRANCH  12  13
ENDBRANCH   7  12
BRANCH   1  19
HETATM   19  C5  UNL     1       2.927   0.433   1.328  1.00  0.00     0.220 C 
BRANCH  19  20
HETATM   20  C4  UNL     1       3.801   0.571   0.204  1.00  0.00    -0.087 C 
HETATM   21  C3  UNL     1       4.522   0.673  -0.748  1.00  0.00    -0.105 C 
BRANCH  21  22
HETATM   22  C2  UNL     1       5.397   0.780  -1.933  1.00  0.00     0.089 C 
HETATM   23  C1  UNL     1       6.601  -0.113  -1.809  1.00  0.00     0.018 C 
ENDBRANCH  21  22
ENDBRANCH  19  20
ENDBRANCH   1  19
TORSDOF 6
