REMARK  4 active torsions:
REMARK  status: ('A' for Active; 'I' for Inactive)
REMARK    1  A    between atoms: C8_13  and  N4_14 
REMARK    2  A    between atoms: N4_14  and  C9_16 
REMARK    3  A    between atoms: C9_16  and  C10_17 
REMARK    4  A    between atoms: C10_17  and  N5_18 
ROOT
HETATM    1  C1  UNL     1       5.629   1.293   0.620  1.00  0.00     0.143 C 
HETATM    2  N1  UNL     1       4.735   0.239   0.934  1.00  0.00    -0.416 N 
HETATM    3  C2  UNL     1       3.468   0.644   1.462  1.00  0.00     0.116 C 
HETATM    4  C3  UNL     1       2.789   1.729   0.703  1.00  0.00     0.024 C 
HETATM    5  C4  UNL     1       1.419   1.265   0.254  1.00  0.00     0.046 C 
HETATM    6  C5  UNL     1       1.550   0.045  -0.554  1.00  0.00     0.008 A 
HETATM    7  C6  UNL     1       2.571  -0.654  -1.185  1.00  0.00     0.021 A 
HETATM    8  N2  UNL     1       2.269  -1.785  -1.858  1.00  0.00    -0.355 N 
ATOM      9  H2  UNL     1       3.026  -2.290  -2.318  1.00  0.00     0.166 HD
HETATM   10  C7  UNL     1       1.022  -2.281  -1.954  1.00  0.00     0.182 A 
HETATM   11  N3  UNL     1       0.047  -1.590  -1.336  1.00  0.00    -0.338 N 
ATOM     12  H3  UNL     1      -0.907  -1.945  -1.394  1.00  0.00     0.168 HD
HETATM   13  C8  UNL     1       0.262  -0.459  -0.647  1.00  0.00     0.110 A 
HETATM   14  C15 UNL     1       4.041  -0.455  -1.320  1.00  0.00     0.077 C 
HETATM   15  C16 UNL     1       4.677  -0.827  -0.013  1.00  0.00     0.122 C 
ENDROOT
BRANCH  13  16
HETATM   16  N4  UNL     1      -0.670   0.201  -0.057  1.00  0.00    -0.374 N 
ATOM     17  H4  UNL     1      -0.459   1.057   0.455  1.00  0.00     0.161 HD
BRANCH  16  18
HETATM   18  C9  UNL     1      -2.042  -0.305  -0.137  1.00  0.00     0.141 C 
BRANCH  18  19
HETATM   19  C10 UNL     1      -2.973   0.770   0.419  1.00  0.00     0.145 C 
BRANCH  19  20
HETATM   20  N5  UNL     1      -4.337   0.288   0.349  1.00  0.00    -0.351 N 
HETATM   21  C11 UNL     1      -5.047  -0.465   1.385  1.00  0.00     0.126 C 
HETATM   22  C12 UNL     1      -6.479  -0.493   0.897  1.00  0.00     0.029 C 
HETATM   23  C13 UNL     1      -6.273  -0.552  -0.616  1.00  0.00     0.104 C 
HETATM   24  C14 UNL     1      -5.197   0.488  -0.771  1.00  0.00     0.219 C 
HETATM   25  O1  UNL     1      -5.067   1.348  -1.677  1.00  0.00    -0.273 OA
ENDBRANCH  19  20
ENDBRANCH  18  19
ENDBRANCH  16  18
ENDBRANCH  13  16
TORSDOF 4
