REMARK  5 active torsions:
REMARK  status: ('A' for Active; 'I' for Inactive)
REMARK    1  A    between atoms: N1_2  and  C2_4 
REMARK    2  A    between atoms: C3_7  and  C4_8 
REMARK    3  A    between atoms: C9_13  and  C10_14 
REMARK    4  A    between atoms: C10_14  and  C11_15 
REMARK    5  A    between atoms: C11_15  and  N3_16 
ROOT
HETATM    1  C2  UNL     1      -2.158   2.292   0.303  1.00  0.00     0.678 A 
HETATM    2  N2  UNL     1      -3.034   1.241   0.385  1.00  0.00    -0.195 N 
ATOM      3  H2  UNL     1      -4.004   1.432   0.637  1.00  0.00     0.184 HD
HETATM    4  C3  UNL     1      -2.671  -0.024   0.148  1.00  0.00     0.036 A 
HETATM    5  C8  UNL     1      -1.334  -0.260  -0.194  1.00  0.00     0.052 A 
HETATM    6  C9  UNL     1      -0.441   0.772  -0.283  1.00  0.00     0.030 A 
HETATM    7  N5  UNL     1      -0.885   2.042  -0.028  1.00  0.00    -0.196 N 
ATOM      8  H5  UNL     1      -0.228   2.819  -0.092  1.00  0.00     0.184 HD
ENDROOT
BRANCH   6   9
HETATM    9  C10 UNL     1       0.972   0.607  -0.624  1.00  0.00     0.078 C 
BRANCH   9  10
HETATM   10  C11 UNL     1       1.526  -0.675  -0.061  1.00  0.00     0.143 C 
BRANCH  10  11
HETATM   11  N3  UNL     1       2.948  -0.799  -0.386  1.00  0.00    -0.268 N 
HETATM   12  C12 UNL     1       3.503  -1.416  -1.528  1.00  0.00     0.245 C 
HETATM   13  O1  UNL     1       2.860  -2.117  -2.384  1.00  0.00    -0.271 OA
HETATM   14  C13 UNL     1       4.943  -1.099  -1.537  1.00  0.00     0.230 C 
HETATM   15  N4  UNL     1       5.200  -0.585  -0.218  1.00  0.00    -0.329 N 
HETATM   16  C14 UNL     1       6.532  -0.406   0.367  1.00  0.00     0.155 C 
HETATM   17  C15 UNL     1       3.987  -0.281   0.434  1.00  0.00     0.327 C 
HETATM   18  O2  UNL     1       3.932   0.332   1.531  1.00  0.00    -0.247 OA
ENDBRANCH  10  11
ENDBRANCH   9  10
ENDBRANCH   6   9
BRANCH   4  19
HETATM   19  C4  UNL     1      -3.594  -1.173   0.230  1.00  0.00    -0.008 C 
HETATM   20  C5  UNL     1      -4.729  -0.896   1.203  1.00  0.00     0.021 C 
HETATM   21  C6  UNL     1      -4.192  -1.368  -1.172  1.00  0.00     0.021 C 
HETATM   22  C7  UNL     1      -2.830  -2.399   0.668  1.00  0.00     0.021 C 
ENDBRANCH   4  19
BRANCH   1  23
HETATM   23  N1  UNL     1      -2.624   3.449   0.555  1.00  0.00    -0.230 N 
HETATM   24  C1  UNL     1      -1.868   4.650   0.519  1.00  0.00     0.165 C 
ATOM     25  H1  UNL     1      -3.612   3.518   0.800  1.00  0.00     0.177 HD
ENDBRANCH   1  23
TORSDOF 5
