REMARK  6 active torsions:
REMARK  status: ('A' for Active; 'I' for Inactive)
REMARK    1  A    between atoms: C2_2  and  O1_4 
REMARK    2  A    between atoms: C2_2  and  C4_6 
REMARK    3  A    between atoms: C4_6  and  O2_7 
REMARK    4  A    between atoms: C4_6  and  C5_9 
REMARK    5  A    between atoms: C4_6  and  C11_16 
REMARK    6  A    between atoms: C5_9  and  N1_10 
ROOT
HETATM    1  C4  UNL     1      -0.163  -0.680   0.578  1.00  0.00     0.124 C 
ENDROOT
BRANCH   1   2
HETATM    2  C2  UNL     1      -0.574  -2.038   0.946  1.00  0.00     0.084 C 
HETATM    3  C1  UNL     1      -1.236  -2.845  -0.142  1.00  0.00     0.049 C 
HETATM    4  C3  UNL     1      -1.353  -2.225   2.204  1.00  0.00     0.049 C 
BRANCH   2   5
HETATM    5  O1  UNL     1       0.663  -2.713   1.202  1.00  0.00    -0.387 OA
ATOM      6  H1  UNL     1       1.080  -2.205   1.888  1.00  0.00     0.210 HD
ENDBRANCH   2   5
ENDBRANCH   1   2
BRANCH   1   7
HETATM    7  O2  UNL     1       0.515  -0.171   1.734  1.00  0.00    -0.384 OA
ATOM      8  H2  UNL     1       0.781   0.709   1.495  1.00  0.00     0.210 HD
ENDBRANCH   1   7
BRANCH   1   9
HETATM    9  C5  UNL     1       0.997  -0.827  -0.419  1.00  0.00     0.314 C 
BRANCH   9  10
HETATM   10  N1  UNL     1       1.643   0.410  -0.700  1.00  0.00     0.093 N 
HETATM   11  C6  UNL     1       2.726   0.198  -1.646  1.00  0.00     0.283 C 
HETATM   12  C7  UNL     1       3.597   1.007  -0.773  1.00  0.00     0.013 A 
HETATM   13  C8  UNL     1       4.348   2.176  -1.131  1.00  0.00     0.014 A 
HETATM   14  C9  UNL     1       5.042   0.871  -0.654  1.00  0.00     0.014 A 
HETATM   15  C10 UNL     1       2.615   0.853   0.307  1.00  0.00     0.283 C 
ENDBRANCH   9  10
ENDBRANCH   1   9
BRANCH   1  16
HETATM   16  C11 UNL     1      -1.110   0.348   0.157  1.00  0.00     0.097 C 
HETATM   17  C12 UNL     1      -2.134   0.661   1.232  1.00  0.00     0.053 C 
HETATM   18  C13 UNL     1      -3.034   1.825   0.877  1.00  0.00     0.175 C 
HETATM   19  F1  UNL     1      -4.364   1.522   1.105  1.00  0.00    -0.249 F 
HETATM   20  C14 UNL     1      -2.841   2.166  -0.524  1.00  0.00     0.032 A 
HETATM   21  C15 UNL     1      -3.604   2.007  -1.705  1.00  0.00     0.020 A 
HETATM   22  C16 UNL     1      -3.083   0.782  -1.228  1.00  0.00     0.063 A 
HETATM   23  C17 UNL     1      -1.739   0.222  -1.178  1.00  0.00     0.138 C 
HETATM   24  O3  UNL     1      -1.282  -0.262  -2.157  1.00  0.00    -0.297 OA
ENDBRANCH   1  16
TORSDOF 6
