REMARK  4 active torsions:
REMARK  status: ('A' for Active; 'I' for Inactive)
REMARK       I    between atoms: C1_2  and  N1_3 
REMARK    1  A    between atoms: C1_2  and  C8_16 
REMARK    2  A    between atoms: N1_3  and  C2_5 
REMARK    3  A    between atoms: C2_5  and  C3_6 
REMARK    4  A    between atoms: C3_6  and  N2_7 
ROOT
HETATM    1  O1  UNL     1      -0.080   0.022   1.555  1.00  0.00    -0.273 OA
HETATM    2  C1  UNL     1      -0.447   0.136   0.350  1.00  0.00     0.226 C 
HETATM    3  N1  UNL     1       0.480   0.251  -0.707  1.00  0.00    -0.356 N 
ATOM      4  H1  UNL     1       0.141   0.346  -1.664  1.00  0.00     0.162 HD
ENDROOT
BRANCH   3   5
HETATM    5  C2  UNL     1       1.893   0.237  -0.457  1.00  0.00     0.167 C 
BRANCH   5   6
HETATM    6  C3  UNL     1       2.414  -1.041   0.152  1.00  0.00     0.088 C 
BRANCH   6   7
HETATM    7  N2  UNL     1       3.795  -0.915   0.378  1.00  0.00    -0.307 N 
HETATM    8  C4  UNL     1       4.222  -0.034   1.385  1.00  0.00     0.088 C 
HETATM    9  C5  UNL     1       5.258   0.908   0.826  1.00  0.00     0.159 C 
HETATM   10  N3  UNL     1       5.383   0.894  -0.592  1.00  0.00    -0.410 N 
HETATM   11  C6  UNL     1       5.465  -0.377  -1.222  1.00  0.00     0.219 C 
ATOM     12  H3  UNL     1       5.412   1.759  -1.132  1.00  0.00     0.153 HD
HETATM   13  C7  UNL     1       4.731  -1.493  -0.476  1.00  0.00     0.342 C 
HETATM   14  F1  UNL     1       4.140  -2.386  -1.322  1.00  0.00    -0.180 F 
HETATM   15  F2  UNL     1       5.721  -2.202   0.221  1.00  0.00    -0.180 F 
ENDBRANCH   6   7
ENDBRANCH   5   6
ENDBRANCH   3   5
BRANCH   2  16
HETATM   16  C8  UNL     1      -1.915   0.143   0.095  1.00  0.00     0.042 C 
HETATM   17  C9  UNL     1      -2.633   0.312   1.419  1.00  0.00     0.024 C 
HETATM   18  C10 UNL     1      -4.101   0.383   1.177  1.00  0.00    -0.013 C 
HETATM   19  C11 UNL     1      -4.568  -0.924   0.557  1.00  0.00     0.009 C 
HETATM   20  C15 UNL     1      -4.430   1.495   0.236  1.00  0.00     0.009 C 
HETATM   21  C12 UNL     1      -3.825  -1.136  -0.737  1.00  0.00    -0.013 C 
HETATM   22  C13 UNL     1      -4.147  -0.032  -1.716  1.00  0.00     0.009 C 
HETATM   23  C17 UNL     1      -2.357  -1.207  -0.460  1.00  0.00     0.024 C 
HETATM   24  C14 UNL     1      -3.740   1.274  -1.096  1.00  0.00    -0.013 C 
HETATM   25  C16 UNL     1      -2.243   1.258  -0.835  1.00  0.00     0.024 C 
ENDBRANCH   2  16
TORSDOF 4
