REMARK  6 active torsions:
REMARK  status: ('A' for Active; 'I' for Inactive)
REMARK    1  A    between atoms: C1_2  and  C2_3 
REMARK       I    between atoms: C1_2  and  N3_19 
REMARK    2  A    between atoms: C2_3  and  C3_4 
REMARK    3  A    between atoms: C2_3  and  N1_10 
REMARK    4  A    between atoms: C3_4  and  C4_5 
REMARK    5  A    between atoms: C4_5  and  C5_6 
REMARK    6  A    between atoms: C14_22  and  O2_23 
ROOT
HETATM    1  C2  UNL     1      -0.199   0.869  -0.456  1.00  0.00     0.317 C 
ENDROOT
BRANCH   1   2
HETATM    2  C1  UNL     1       0.755   0.477   0.552  1.00  0.00     0.253 C 
HETATM    3  O1  UNL     1       0.611   0.928   1.744  1.00  0.00    -0.271 OA
HETATM    4  N3  UNL     1       1.848  -0.370   0.343  1.00  0.00    -0.350 N 
HETATM    5  C12 UNL     1       2.108  -0.950  -0.941  1.00  0.00     0.128 C 
HETATM    6  C16 UNL     1       2.787  -0.722   1.412  1.00  0.00     0.128 C 
HETATM    7  C13 UNL     1       3.558  -0.866  -1.379  1.00  0.00     0.051 C 
HETATM    8  C14 UNL     1       4.410  -1.401  -0.264  1.00  0.00     0.121 C 
HETATM    9  C15 UNL     1       4.193  -0.494   0.928  1.00  0.00     0.051 C 
BRANCH   8  10
HETATM   10  O2  UNL     1       5.717  -1.483  -0.676  1.00  0.00    -0.395 OA
ATOM     11  H2  UNL     1       6.256  -1.821   0.029  1.00  0.00     0.210 HD
ENDBRANCH   8  10
ENDBRANCH   1   2
BRANCH   1  12
HETATM   12  C3  UNL     1      -0.518   2.357  -0.182  1.00  0.00     0.055 C 
BRANCH  12  13
HETATM   13  C4  UNL     1      -1.481   2.918  -1.176  1.00  0.00     0.120 C 
BRANCH  13  14
HETATM   14  C5  UNL     1      -1.751   4.373  -0.815  1.00  0.00     0.388 C 
HETATM   15  F1  UNL     1      -0.591   5.117  -0.838  1.00  0.00    -0.171 F 
HETATM   16  F2  UNL     1      -2.391   4.488   0.395  1.00  0.00    -0.171 F 
HETATM   17  F3  UNL     1      -2.576   4.917  -1.799  1.00  0.00    -0.171 F 
ENDBRANCH  13  14
ENDBRANCH  12  13
ENDBRANCH   1  12
BRANCH   1  18
HETATM   18  N1  UNL     1      -1.446   0.212  -0.463  1.00  0.00     0.125 N 
HETATM   19  C6  UNL     1      -1.440  -1.195  -0.750  1.00  0.00     0.281 C 
HETATM   20  C7  UNL     1      -2.908  -1.558  -0.489  1.00  0.00     0.022 C 
HETATM   21  C8  UNL     1      -2.903  -2.422   0.757  1.00  0.00     0.050 C 
HETATM   22  C11 UNL     1      -3.577  -0.259  -0.016  1.00  0.00     0.064 C 
HETATM   23  C9  UNL     1      -2.408  -1.694   1.937  1.00  0.00     0.058 C 
HETATM   24  N2  UNL     1      -2.067  -0.351   1.817  1.00  0.00    -0.373 N 
HETATM   25  C10 UNL     1      -2.334   0.381   0.642  1.00  0.00     0.322 C 
ATOM     26  H2  UNL     1      -1.611   0.117   2.600  1.00  0.00     0.160 HD
ENDBRANCH   1  18
TORSDOF 6
