REMARK  7 active torsions:
REMARK  status: ('A' for Active; 'I' for Inactive)
REMARK    1  A    between atoms: C3_3  and  N1_5 
REMARK    2  A    between atoms: C7_8  and  C8_9 
REMARK    3  A    between atoms: C7_8  and  C14_20 
REMARK       I    between atoms: C8_9  and  N2_11 
REMARK    4  A    between atoms: N2_11  and  C9_13 
REMARK    5  A    between atoms: C9_13  and  C10_14 
REMARK    6  A    between atoms: C9_13  and  C11_17 
REMARK    7  A    between atoms: C10_14  and  O2_15 
ROOT
HETATM    1  C1  UNL     1      -1.572  -0.296   4.831  1.00  0.00     0.014 C 
HETATM    2  C2  UNL     1      -2.357  -0.242   3.908  1.00  0.00    -0.082 C 
HETATM    3  C3  UNL     1      -3.300  -0.197   2.789  1.00  0.00     0.299 C 
HETATM    4  C4  UNL     1      -4.227  -1.366   2.783  1.00  0.00     0.057 C 
ENDROOT
BRANCH   3   5
HETATM    5  N1  UNL     1      -2.570  -0.005   1.569  1.00  0.00     0.132 N 
HETATM    6  C5  UNL     1      -1.657  -1.080   1.266  1.00  0.00     0.279 C 
HETATM    7  C6  UNL     1      -0.345  -0.817   0.665  1.00  0.00     0.052 C 
HETATM    8  C7  UNL     1      -0.315   0.135  -0.556  1.00  0.00     0.072 C 
HETATM    9  C19 UNL     1      -1.491   0.887  -0.395  1.00  0.00     0.142 C 
HETATM   10  C20 UNL     1      -2.196   1.999  -0.977  1.00  0.00     0.038 C 
HETATM   11  O3  UNL     1      -2.540  -0.030  -0.590  1.00  0.00    -0.350 OA
HETATM   12  C21 UNL     1      -3.384   1.879   0.056  1.00  0.00     0.067 C 
HETATM   13  C22 UNL     1      -3.376   0.419   0.459  1.00  0.00     0.360 C 
BRANCH   8  14
HETATM   14  C8  UNL     1       0.878   1.039  -0.349  1.00  0.00     0.229 C 
HETATM   15  O1  UNL     1       0.740   2.286  -0.280  1.00  0.00    -0.273 OA
HETATM   16  N2  UNL     1       2.200   0.545  -0.222  1.00  0.00    -0.353 N 
ATOM     17  H2  UNL     1       2.338  -0.464  -0.275  1.00  0.00     0.163 HD
BRANCH  16  18
HETATM   18  C9  UNL     1       3.355   1.367  -0.025  1.00  0.00     0.112 C 
BRANCH  18  19
HETATM   19  C10 UNL     1       4.299   1.342  -1.210  1.00  0.00     0.189 C 
BRANCH  19  20
HETATM   20  O2  UNL     1       5.375   2.161  -0.924  1.00  0.00    -0.399 OA
ATOM     21  H2  UNL     1       5.967   2.145  -1.667  1.00  0.00     0.209 HD
ENDBRANCH  19  20
ENDBRANCH  18  19
BRANCH  18  22
HETATM   22  C11 UNL     1       4.183   0.959   1.176  1.00  0.00     0.010 A 
HETATM   23  C12 UNL     1       4.748  -0.450   1.166  1.00  0.00     0.007 A 
HETATM   24  C13 UNL     1       3.721   0.008   2.186  1.00  0.00     0.007 A 
ENDBRANCH  18  22
ENDBRANCH  16  18
ENDBRANCH   8  14
BRANCH   8  25
HETATM   25  C14 UNL     1      -0.038  -0.660  -1.763  1.00  0.00     0.006 C 
HETATM   26  C15 UNL     1       0.030   0.087  -3.054  1.00  0.00     0.006 C 
HETATM   27  C16 UNL     1       0.347  -1.061  -4.026  1.00  0.00     0.000 C 
HETATM   28  C17 UNL     1      -0.270  -2.309  -3.388  1.00  0.00     0.000 C 
HETATM   29  C18 UNL     1      -0.922  -1.808  -2.084  1.00  0.00     0.006 C 
ENDBRANCH   8  25
ENDBRANCH   3   5
TORSDOF 7
