REMARK  6 active torsions:
REMARK  status: ('A' for Active; 'I' for Inactive)
REMARK    1  A    between atoms: N2_14  and  C9_15 
REMARK    2  A    between atoms: C9_15  and  C10_16 
REMARK    3  A    between atoms: C10_16  and  C11_17 
REMARK    4  A    between atoms: C11_17  and  C12_18 
REMARK    5  A    between atoms: C12_18  and  N3_19 
REMARK    6  A    between atoms: N3_19  and  C13_22 
ROOT
HETATM    1  C9  UNL     1       2.155   1.162   0.365  1.00  0.00     0.127 C 
ENDROOT
BRANCH   1   2
HETATM    2  N2  UNL     1       3.164   0.150   0.231  1.00  0.00    -0.342 N 
HETATM    3  C1  UNL     1       3.658  -0.658   1.277  1.00  0.00     0.225 C 
HETATM    4  O1  UNL     1       3.296  -0.642   2.466  1.00  0.00    -0.273 OA
HETATM    5  C2  UNL     1       4.703  -1.547   0.713  1.00  0.00     0.085 C 
HETATM    6  C3  UNL     1       6.000  -0.802   0.809  1.00  0.00     0.062 C 
HETATM    7  C8  UNL     1       4.256  -1.654  -0.753  1.00  0.00     0.046 C 
HETATM    8  C4  UNL     1       6.116   0.237  -0.282  1.00  0.00     0.013 A 
HETATM    9  S1  UNL     1       7.393   1.283  -0.755  1.00  0.00    -0.032 SA
HETATM   10  C6  UNL     1       5.131   0.561  -1.167  1.00  0.00     0.049 A 
HETATM   11  C5  UNL     1       6.606   2.065  -2.040  1.00  0.00     0.288 A 
HETATM   12  O2  UNL     1       7.036   2.988  -2.831  1.00  0.00    -0.260 OA
HETATM   13  N1  UNL     1       5.402   1.497  -2.056  1.00  0.00    -0.318 N 
ATOM     14  H1  UNL     1       4.703   1.780  -2.742  1.00  0.00     0.169 HD
HETATM   15  C7  UNL     1       3.832  -0.222  -1.001  1.00  0.00     0.139 C 
ENDBRANCH   1   2
BRANCH   1  16
HETATM   16  C10 UNL     1       0.742   0.646   0.114  1.00  0.00     0.022 C 
BRANCH  16  17
HETATM   17  C11 UNL     1       0.329  -0.445   1.032  1.00  0.00     0.029 C 
BRANCH  17  18
HETATM   18  C12 UNL     1      -1.054  -0.920   0.741  1.00  0.00     0.233 C 
BRANCH  18  19
HETATM   19  N3  UNL     1      -2.011   0.124   0.894  1.00  0.00    -0.070 N 
ATOM     20  H32 UNL     1      -1.919   0.591   1.796  1.00  0.00     0.277 HD
ATOM     21  H31 UNL     1      -1.804   0.918   0.288  1.00  0.00     0.277 HD
BRANCH  19  22
HETATM   22  C13 UNL     1      -3.382  -0.386   0.679  1.00  0.00     0.190 C 
HETATM   23  C14 UNL     1      -3.571  -0.908  -0.715  1.00  0.00     0.034 C 
HETATM   24  C15 UNL     1      -4.986  -1.048  -1.145  1.00  0.00     0.007 C 
HETATM   25  C16 UNL     1      -5.997  -0.302  -0.368  1.00  0.00    -0.014 C 
HETATM   26  C17 UNL     1      -5.924   1.163  -0.829  1.00  0.00     0.005 C 
HETATM   27  C20 UNL     1      -5.722  -0.134   1.098  1.00  0.00     0.011 C 
HETATM   28  C18 UNL     1      -4.646   1.611  -0.164  1.00  0.00     0.007 C 
HETATM   29  C19 UNL     1      -4.411   0.668   1.018  1.00  0.00     0.016 C 
ENDBRANCH  19  22
ENDBRANCH  18  19
ENDBRANCH  17  18
ENDBRANCH  16  17
ENDBRANCH   1  16
TORSDOF 6
