REMARK  6 active torsions:
REMARK  status: ('A' for Active; 'I' for Inactive)
REMARK    1  A    between atoms: C1_2  and  C2_3 
REMARK       I    between atoms: C1_2  and  N3_22 
REMARK    2  A    between atoms: C2_3  and  N1_4 
REMARK    3  A    between atoms: C9_11  and  N2_12 
REMARK       I    between atoms: N2_12  and  C10_14 
REMARK    4  A    between atoms: C10_14  and  C11_16 
REMARK    5  A    between atoms: C11_16  and  C12_18 
REMARK    6  A    between atoms: N3_22  and  C16_24 
ROOT
HETATM    1  N1  UNL     1       0.801  -1.362  -1.261  1.00  0.00    -0.359 N 
HETATM    2  C3  UNL     1       0.871  -1.750  -2.608  1.00  0.00     0.086 C 
HETATM    3  C4  UNL     1       1.641  -3.080  -2.644  1.00  0.00     0.026 C 
HETATM    4  C5  UNL     1       2.715  -2.963  -1.575  1.00  0.00     0.010 C 
HETATM    5  C6  UNL     1       3.140  -1.503  -1.408  1.00  0.00     0.028 C 
HETATM    6  C7  UNL     1       3.229  -0.939  -2.812  1.00  0.00     0.010 C 
HETATM    7  C8  UNL     1       1.805  -0.763  -3.327  1.00  0.00     0.026 C 
HETATM    8  C9  UNL     1       1.961  -0.768  -0.736  1.00  0.00     0.191 C 
ENDROOT
BRANCH   1   9
HETATM    9  C2  UNL     1      -0.371  -1.462  -0.543  1.00  0.00     0.162 C 
BRANCH   9  10
HETATM   10  C1  UNL     1      -1.471  -0.565  -0.929  1.00  0.00     0.257 C 
HETATM   11  O1  UNL     1      -1.294   0.232  -1.876  1.00  0.00    -0.267 OA
HETATM   12  N3  UNL     1      -2.735  -0.563  -0.270  1.00  0.00    -0.352 N 
ATOM     13  H3  UNL     1      -2.877  -1.215   0.502  1.00  0.00     0.163 HD
BRANCH  12  14
HETATM   14  C16 UNL     1      -3.816   0.302  -0.630  1.00  0.00     0.084 C 
HETATM   15  C17 UNL     1      -5.042  -0.438  -1.133  1.00  0.00     0.025 C 
HETATM   16  C18 UNL     1      -5.905   0.615  -1.843  1.00  0.00     0.002 C 
HETATM   17  C19 UNL     1      -6.317   1.675  -0.877  1.00  0.00     0.000 C 
HETATM   18  C20 UNL     1      -5.224   2.227  -0.025  1.00  0.00     0.002 C 
HETATM   19  C21 UNL     1      -4.227   1.231   0.466  1.00  0.00     0.025 C 
ENDBRANCH  12  14
ENDBRANCH   9  10
ENDBRANCH   1   9
BRANCH   8  20
HETATM   20  N2  UNL     1       2.097  -0.783   0.683  1.00  0.00    -0.333 N 
HETATM   21  C10 UNL     1       2.363   0.430   1.373  1.00  0.00     0.289 C 
HETATM   22  O2  UNL     1       2.481   1.535   0.737  1.00  0.00    -0.264 OA
ATOM     23  H2  UNL     1       2.004  -1.658   1.199  1.00  0.00     0.165 HD
BRANCH  21  24
HETATM   24  C11 UNL     1       2.517   0.502   2.816  1.00  0.00     0.220 C 
HETATM   25  O3  UNL     1       2.398  -0.585   3.456  1.00  0.00    -0.287 OA
BRANCH  24  26
HETATM   26  C12 UNL     1       2.801   1.778   3.516  1.00  0.00     0.065 C 
HETATM   27  C13 UNL     1       4.099   2.400   3.046  1.00  0.00     0.013 C 
HETATM   28  C14 UNL     1       4.742   2.031   4.358  1.00  0.00     0.002 C 
HETATM   29  C15 UNL     1       3.395   1.565   4.877  1.00  0.00     0.013 C 
ENDBRANCH  24  26
ENDBRANCH  21  24
ENDBRANCH   8  20
TORSDOF 6
