REMARK  10 active torsions:
REMARK  status: ('A' for Active; 'I' for Inactive)
REMARK    1  A    between atoms: C2_2  and  C5_5 
REMARK    2  A    between atoms: C5_5  and  C6_6 
REMARK       I    between atoms: C6_6  and  N1_8 
REMARK    3  A    between atoms: N1_8  and  C7_10 
REMARK    4  A    between atoms: C7_10  and  C8_11 
REMARK    5  A    between atoms: C7_10  and  C17_26 
REMARK    6  A    between atoms: C8_11  and  O2_12 
REMARK    7  A    between atoms: C8_11  and  N2_14 
REMARK    8  A    between atoms: N3_17  and  C11_18 
REMARK    9  A    between atoms: C11_18  and  C12_19 
REMARK   10  A    between atoms: C12_19  and  O3_20 
ROOT
HETATM    1  C8  UNL     1       0.036   0.026   0.842  1.00  0.00     0.137 C 
ENDROOT
BRANCH   1   2
HETATM    2  C7  UNL     1      -1.081  -0.750   0.416  1.00  0.00     0.166 C 
BRANCH   2   3
HETATM    3  N1  UNL     1      -2.096   0.124  -0.237  1.00  0.00    -0.348 N 
HETATM    4  C6  UNL     1      -3.333   0.439   0.302  1.00  0.00     0.218 C 
HETATM    5  O1  UNL     1      -3.675  -0.016   1.414  1.00  0.00    -0.274 OA
ATOM      6  H1  UNL     1      -1.863   0.520  -1.148  1.00  0.00     0.163 HD
BRANCH   4   7
HETATM    7  C5  UNL     1      -4.269   1.316  -0.427  1.00  0.00     0.111 C 
BRANCH   7   8
HETATM    8  C2  UNL     1      -5.551   1.556   0.333  1.00  0.00    -0.043 C 
HETATM    9  C1  UNL     1      -5.297   2.213   1.672  1.00  0.00     0.015 C 
HETATM   10  C3  UNL     1      -6.398   2.492  -0.506  1.00  0.00     0.015 C 
HETATM   11  C4  UNL     1      -6.325   0.265   0.485  1.00  0.00     0.015 C 
ENDBRANCH   7   8
ENDBRANCH   4   7
ENDBRANCH   2   3
BRANCH   2  12
HETATM   12  C17 UNL     1      -0.993  -2.019  -0.340  1.00  0.00    -0.023 C 
HETATM   13  C18 UNL     1      -0.532  -1.909  -1.761  1.00  0.00     0.017 C 
HETATM   14  C19 UNL     1      -2.512  -2.498  -0.554  1.00  0.00     0.017 C 
HETATM   15  C20 UNL     1      -0.423  -3.183   0.411  1.00  0.00     0.017 C 
ENDBRANCH   2  12
ENDBRANCH   1   2
BRANCH   1  16
HETATM   16  O2  UNL     1      -0.365   1.202   1.390  1.00  0.00    -0.348 OA
ATOM     17  H2  UNL     1       0.380   1.719   1.674  1.00  0.00     0.219 HD
ENDBRANCH   1  16
BRANCH   1  18
HETATM   18  N2  UNL     1       1.428  -0.043   0.872  1.00  0.00    -0.361 N 
HETATM   19  C9  UNL     1       2.155   1.113   1.546  1.00  0.00     0.144 C 
HETATM   20  C10 UNL     1       3.617   1.014   1.266  1.00  0.00     0.136 C 
HETATM   21  N3  UNL     1       3.908   0.815  -0.115  1.00  0.00    -0.406 N 
HETATM   22  C15 UNL     1       3.285  -0.315  -0.700  1.00  0.00     0.136 C 
HETATM   23  C16 UNL     1       2.360  -0.984   0.361  1.00  0.00     0.144 C 
BRANCH  21  24
HETATM   24  C11 UNL     1       5.214   1.147  -0.544  1.00  0.00     0.154 C 
BRANCH  24  25
HETATM   25  C12 UNL     1       6.322   0.263  -0.028  1.00  0.00     0.074 A 
HETATM   26  C13 UNL     1       7.639   0.427  -0.787  1.00  0.00     0.042 A 
HETATM   27  C14 UNL     1       6.866  -0.807  -0.956  1.00  0.00     0.042 A 
BRANCH  25  28
HETATM   28  O3  UNL     1       6.524   0.163   1.342  1.00  0.00    -0.388 OA
ATOM     29  H3  UNL     1       7.222  -0.394   1.667  1.00  0.00     0.210 HD
ENDBRANCH  25  28
ENDBRANCH  24  25
ENDBRANCH  21  24
ENDBRANCH   1  18
TORSDOF 10
