REMARK  6 active torsions:
REMARK  status: ('A' for Active; 'I' for Inactive)
REMARK    1  A    between atoms: C6_10  and  S1_11 
REMARK    2  A    between atoms: S1_11  and  C7_12 
REMARK    3  A    between atoms: C7_12  and  C8_13 
REMARK       I    between atoms: C8_13  and  N3_15 
REMARK    4  A    between atoms: N3_15  and  C10_17 
REMARK    5  A    between atoms: C10_17  and  C11_18 
REMARK       I    between atoms: C11_18  and  N4_20 
REMARK    6  A    between atoms: N4_20  and  C12_22 
ROOT
HETATM    1  C8  UNL     1       0.189  -1.412  -0.722  1.00  0.00     0.229 C 
HETATM    2  O1  UNL     1      -0.205  -1.161   0.444  1.00  0.00    -0.273 OA
HETATM    3  N3  UNL     1      -0.414  -2.470  -1.438  1.00  0.00    -0.347 N 
HETATM    4  C9  UNL     1       0.026  -2.767  -2.771  1.00  0.00     0.153 C 
ENDROOT
BRANCH   1   5
HETATM    5  C7  UNL     1       1.276  -0.570  -1.279  1.00  0.00     0.183 C 
BRANCH   5   6
HETATM    6  S1  UNL     1       1.814   0.696  -0.117  1.00  0.00    -0.101 SA
BRANCH   6   7
HETATM    7  C6  UNL     1       2.586   0.005   1.313  1.00  0.00     0.093 A 
HETATM    8  N2  UNL     1       2.829  -1.268   1.662  1.00  0.00    -0.293 N 
HETATM    9  N1  UNL     1       3.443  -1.322   2.847  1.00  0.00    -0.303 N 
ATOM     10  H2  UNL     1       2.579  -2.082   1.100  1.00  0.00     0.187 HD
HETATM   11  C5  UNL     1       3.623  -0.092   3.315  1.00  0.00     0.035 A 
ATOM     12  H1  UNL     1       3.730  -2.178   3.321  1.00  0.00     0.186 HD
HETATM   13  C4  UNL     1       4.208   0.563   4.512  1.00  0.00     0.059 C 
HETATM   14  C18 UNL     1       3.086   0.763   2.353  1.00  0.00     0.001 A 
HETATM   15  C3  UNL     1       5.162   1.654   4.087  1.00  0.00     0.010 C 
HETATM   16  C2  UNL     1       4.644   2.485   2.956  1.00  0.00    -0.014 C 
HETATM   17  C1  UNL     1       4.935   3.947   3.180  1.00  0.00     0.010 C 
HETATM   18  C19 UNL     1       3.178   2.218   2.671  1.00  0.00     0.047 C 
ENDBRANCH   6   7
ENDBRANCH   5   6
ENDBRANCH   1   5
BRANCH   3  19
HETATM   19  C10 UNL     1      -1.469  -3.265  -0.852  1.00  0.00     0.227 C 
BRANCH  19  20
HETATM   20  C11 UNL     1      -2.805  -2.721  -1.110  1.00  0.00     0.235 C 
HETATM   21  O2  UNL     1      -3.795  -3.341  -0.642  1.00  0.00    -0.272 OA
HETATM   22  N4  UNL     1      -3.056  -1.541  -1.851  1.00  0.00    -0.355 N 
ATOM     23  H4  UNL     1      -2.267  -1.024  -2.238  1.00  0.00     0.162 HD
BRANCH  22  24
HETATM   24  C12 UNL     1      -4.406  -1.042  -2.078  1.00  0.00     0.084 C 
HETATM   25  C13 UNL     1      -4.722  -0.998  -3.531  1.00  0.00     0.025 C 
HETATM   26  C14 UNL     1      -5.094   0.398  -3.928  1.00  0.00     0.002 C 
HETATM   27  C15 UNL     1      -3.967   1.324  -3.511  1.00  0.00     0.000 C 
HETATM   28  C16 UNL     1      -3.858   1.398  -2.001  1.00  0.00     0.002 C 
HETATM   29  C17 UNL     1      -4.626   0.267  -1.347  1.00  0.00     0.025 C 
ENDBRANCH  22  24
ENDBRANCH  19  20
ENDBRANCH   3  19
TORSDOF 6
