REMARK  9 active torsions:
REMARK  status: ('A' for Active; 'I' for Inactive)
REMARK    1  A    between atoms: O1_2  and  C2_3 
REMARK    2  A    between atoms: C2_3  and  C3_5 
REMARK    3  A    between atoms: C9_11  and  N1_12 
REMARK    4  A    between atoms: N1_12  and  C10_14 
REMARK    5  A    between atoms: C10_14  and  N2_16 
REMARK    6  A    between atoms: C11_18  and  C12_19 
REMARK    7  A    between atoms: C12_19  and  C13_20 
REMARK    8  A    between atoms: C13_20  and  C14_21 
REMARK    9  A    between atoms: C14_21  and  N3_22 
ROOT
HETATM    1  C3  UNL     1      -3.992  -0.058  -0.735  1.00  0.00     0.215 C 
HETATM    2  C4  UNL     1      -4.414   0.759   0.446  1.00  0.00     0.054 C 
HETATM    3  C5  UNL     1      -3.158   1.455   0.959  1.00  0.00    -0.007 C 
HETATM    4  C6  UNL     1      -2.726   2.395  -0.144  1.00  0.00     0.037 C 
HETATM    5  C7  UNL     1      -2.446   1.558  -1.365  1.00  0.00     0.190 C 
HETATM    6  C8  UNL     1      -1.233   0.689  -1.026  1.00  0.00     0.064 C 
HETATM    7  C9  UNL     1      -1.635  -0.268   0.066  1.00  0.00     0.037 C 
HETATM    8  C17 UNL     1      -2.081   0.481   1.304  1.00  0.00     0.036 C 
HETATM    9  C18 UNL     1      -2.869  -1.001  -0.444  1.00  0.00     0.081 C 
HETATM   10  N4  UNL     1      -3.576   0.814  -1.815  1.00  0.00    -0.052 N 
ATOM     11  H41 UNL     1      -4.331   1.409  -2.156  1.00  0.00     0.279 HD
ATOM     12  H42 UNL     1      -3.397   0.310  -2.684  1.00  0.00     0.279 HD
ENDROOT
BRANCH   7  13
HETATM   13  N1  UNL     1      -0.662  -1.264   0.380  1.00  0.00    -0.358 N 
ATOM     14  H1  UNL     1      -0.921  -2.234   0.199  1.00  0.00     0.162 HD
BRANCH  13  15
HETATM   15  C10 UNL     1       0.627  -1.038   0.918  1.00  0.00     0.172 C 
HETATM   16  S1  UNL     1       1.591  -2.358   1.248  1.00  0.00    -0.041 SA
BRANCH  15  17
HETATM   17  N2  UNL     1       1.069   0.253   1.193  1.00  0.00    -0.347 N 
HETATM   18  C11 UNL     1       2.127   0.802   0.840  1.00  0.00     0.063 C 
ATOM     19  H2  UNL     1       0.442   0.824   1.759  1.00  0.00     0.167 HD
BRANCH  18  20
HETATM   20  C12 UNL     1       3.178   0.168   0.017  1.00  0.00     0.046 C 
BRANCH  20  21
HETATM   21  C13 UNL     1       4.392   0.019   0.916  1.00  0.00     0.035 C 
BRANCH  21  22
HETATM   22  C14 UNL     1       5.557  -0.613   0.231  1.00  0.00     0.271 C 
BRANCH  22  23
HETATM   23  N3  UNL     1       6.039   0.108  -0.911  1.00  0.00     0.080 N 
HETATM   24  C15 UNL     1       6.650   1.361  -0.593  1.00  0.00     0.309 C 
HETATM   25  C16 UNL     1       7.062  -0.728  -1.559  1.00  0.00     0.309 C 
ENDBRANCH  22  23
ENDBRANCH  21  22
ENDBRANCH  20  21
ENDBRANCH  18  20
ENDBRANCH  15  17
ENDBRANCH  13  15
ENDBRANCH   7  13
BRANCH   1  26
HETATM   26  C2  UNL     1      -5.169  -0.892  -1.150  1.00  0.00     0.295 C 
HETATM   27  O2  UNL     1      -5.670  -0.793  -2.299  1.00  0.00    -0.262 OA
BRANCH  26  28
HETATM   28  O1  UNL     1      -5.729  -1.789  -0.273  1.00  0.00    -0.325 OA
HETATM   29  C1  UNL     1      -6.837  -2.621  -0.560  1.00  0.00     0.213 C 
ENDBRANCH  26  28
ENDBRANCH   1  26
TORSDOF 9
