REMARK  6 active torsions:
REMARK  status: ('A' for Active; 'I' for Inactive)
REMARK    1  A    between atoms: C3_3  and  O1_4 
REMARK    2  A    between atoms: C4_6  and  C5_7 
REMARK    3  A    between atoms: C12_21  and  O4_22 
REMARK    4  A    between atoms: C15_26  and  S2_27 
REMARK    5  A    between atoms: S2_27  and  N3_30 
REMARK    6  A    between atoms: N3_30  and  C16_32 
ROOT
HETATM    1  C1  UNL     1      -0.233  -4.736  -0.394  1.00  0.00     0.052 C 
HETATM    2  C2  UNL     1      -0.429  -3.284  -0.174  1.00  0.00    -0.017 A 
HETATM    3  C3  UNL     1      -1.626  -2.653  -0.308  1.00  0.00     0.089 A 
HETATM    4  C4  UNL     1      -1.757  -1.277  -0.082  1.00  0.00     0.076 A 
HETATM    5  C12 UNL     1      -0.677  -0.513   0.284  1.00  0.00     0.093 A 
HETATM    6  C13 UNL     1       0.569  -1.143   0.427  1.00  0.00     0.010 A 
HETATM    7  C14 UNL     1       1.697  -0.446   0.789  1.00  0.00     0.040 A 
HETATM    8  C15 UNL     1       2.929  -1.045   0.934  1.00  0.00     0.081 A 
HETATM    9  C20 UNL     1       3.014  -2.400   0.702  1.00  0.00     0.026 A 
HETATM   10  C21 UNL     1       1.889  -3.107   0.339  1.00  0.00     0.014 A 
HETATM   11  C22 UNL     1       0.669  -2.494   0.200  1.00  0.00    -0.014 A 
ENDROOT
BRANCH   4  12
HETATM   12  C5  UNL     1      -3.082  -0.638  -0.229  1.00  0.00     0.131 A 
HETATM   13  N1  UNL     1      -4.067  -1.340   0.272  1.00  0.00    -0.265 N 
HETATM   14  S1  UNL     1      -5.694  -0.792   0.215  1.00  0.00     0.266 S 
ATOM     15  H1  UNL     1      -3.862  -2.239   0.709  1.00  0.00     0.180 HD
HETATM   16  O2  UNL     1      -6.486  -1.746  -0.667  1.00  0.00    -0.200 OA
HETATM   17  O3  UNL     1      -6.305  -0.695   1.578  1.00  0.00    -0.200 OA
HETATM   18  C6  UNL     1      -5.680   0.747  -0.606  1.00  0.00     0.106 A 
HETATM   19  C7  UNL     1      -6.851   1.389  -0.789  1.00  0.00     0.027 A 
HETATM   20  C11 UNL     1      -4.500   1.272  -1.042  1.00  0.00     0.057 A 
HETATM   21  C8  UNL     1      -6.899   2.607  -1.427  1.00  0.00     0.002 A 
HETATM   22  C9  UNL     1      -5.732   3.168  -1.880  1.00  0.00     0.002 A 
HETATM   23  C10 UNL     1      -4.553   2.497  -1.684  1.00  0.00     0.031 A 
HETATM   24  N2  UNL     1      -3.258   0.601  -0.857  1.00  0.00    -0.340 N 
ATOM     25  H2  UNL     1      -2.422   1.064  -1.214  1.00  0.00     0.167 HD
ENDBRANCH   4  12
BRANCH   3  26
HETATM   26  O1  UNL     1      -2.764  -3.317  -0.669  1.00  0.00    -0.359 OA
ATOM     27  H1  UNL     1      -3.600  -2.876  -0.763  1.00  0.00     0.217 HD
ENDBRANCH   3  26
BRANCH   5  28
HETATM   28  O4  UNL     1      -0.817   0.832   0.504  1.00  0.00    -0.359 OA
ATOM     29  H4  UNL     1      -0.070   1.361   0.757  1.00  0.00     0.217 HD
ENDBRANCH   5  28
BRANCH   8  30
HETATM   30  S2  UNL     1       4.367  -0.168   1.393  1.00  0.00     0.276 S 
HETATM   31  O5  UNL     1       4.023   0.914   2.350  1.00  0.00    -0.200 OA
HETATM   32  O6  UNL     1       5.319  -1.149   2.064  1.00  0.00    -0.200 OA
BRANCH  30  33
HETATM   33  N3  UNL     1       5.183   0.419  -0.005  1.00  0.00    -0.112 N 
ATOM     34  H3  UNL     1       5.251  -0.201  -0.812  1.00  0.00     0.197 HD
BRANCH  33  35
HETATM   35  C16 UNL     1       5.707   1.574  -0.099  1.00  0.00     0.691 A 
HETATM   36  N4  UNL     1       5.698   2.502   0.882  1.00  0.00    -0.201 N 
HETATM   37  C17 UNL     1       6.269   3.711   0.728  1.00  0.00     0.107 A 
ATOM     38  H4  UNL     1       5.244   2.280   1.768  1.00  0.00     0.183 HD
HETATM   39  C18 UNL     1       6.890   4.036  -0.463  1.00  0.00     0.035 A 
HETATM   40  C19 UNL     1       6.901   3.086  -1.469  1.00  0.00     0.107 A 
HETATM   41  N5  UNL     1       6.315   1.893  -1.261  1.00  0.00    -0.201 N 
ATOM     42  H5  UNL     1       6.331   1.202  -2.011  1.00  0.00     0.183 HD
ENDBRANCH  33  35
ENDBRANCH  30  33
ENDBRANCH   8  30
TORSDOF 6
