REMARK  10 active torsions:
REMARK  status: ('A' for Active; 'I' for Inactive)
REMARK    1  A    between atoms: N2_11  and  C8_12 
REMARK    2  A    between atoms: C11_21  and  C12_22 
REMARK    3  A    between atoms: C13_23  and  C14_24 
REMARK    4  A    between atoms: C17_27  and  C18_28 
REMARK    5  A    between atoms: C18_28  and  C19_29 
REMARK    6  A    between atoms: C19_29  and  N6_30 
REMARK    7  A    between atoms: N6_30  and  O2_32 
REMARK    8  A    between atoms: C22_38  and  N8_39 
REMARK    9  A    between atoms: N8_39  and  C23_41 
REMARK   10  A    between atoms: C23_41  and  C24_42 
ROOT
HETATM    1  C8  UNL     1      -2.461   3.516  -0.235  1.00  0.00     0.135 A 
HETATM    2  N3  UNL     1      -3.033   4.288  -1.232  1.00  0.00    -0.337 N 
ATOM      3  H3  UNL     1      -3.705   5.018  -0.995  1.00  0.00     0.168 HD
HETATM    4  C9  UNL     1      -2.701   4.071  -2.496  1.00  0.00     0.183 A 
HETATM    5  N4  UNL     1      -1.818   3.119  -2.838  1.00  0.00    -0.338 N 
ATOM      6  H4  UNL     1      -1.586   2.982  -3.822  1.00  0.00     0.168 HD
HETATM    7  C10 UNL     1      -1.226   2.332  -1.895  1.00  0.00     0.126 A 
HETATM    8  N5  UNL     1      -0.354   1.386  -2.266  1.00  0.00    -0.320 N 
ATOM      9  H5  UNL     1      -0.141   1.270  -3.257  1.00  0.00     0.169 HD
HETATM   10  C11 UNL     1       0.248   0.586  -1.372  1.00  0.00     0.165 A 
HETATM   11  N7  UNL     1      -0.042   0.752  -0.089  1.00  0.00    -0.320 N 
ATOM     12  H7  UNL     1       0.415   0.142   0.589  1.00  0.00     0.169 HD
HETATM   13  C22 UNL     1      -0.921   1.696   0.381  1.00  0.00     0.125 A 
HETATM   14  C30 UNL     1      -1.553   2.536  -0.572  1.00  0.00     0.097 A 
ENDROOT
BRANCH  10  15
HETATM   15  C12 UNL     1       1.218  -0.411  -1.821  1.00  0.00    -0.025 C 
HETATM   16  C13 UNL     1       2.038  -1.204  -2.210  1.00  0.00    -0.059 C 
BRANCH  16  17
HETATM   17  C14 UNL     1       3.033  -2.119  -2.703  1.00  0.00     0.018 A 
HETATM   18  C15 UNL     1       3.153  -2.386  -4.062  1.00  0.00     0.022 A 
HETATM   19  C16 UNL     1       4.115  -3.244  -4.552  1.00  0.00     0.022 A 
HETATM   20  C17 UNL     1       4.991  -3.869  -3.721  1.00  0.00     0.019 A 
HETATM   21  C20 UNL     1       4.901  -3.631  -2.358  1.00  0.00     0.022 A 
HETATM   22  C21 UNL     1       3.924  -2.758  -1.873  1.00  0.00     0.022 A 
BRANCH  20  23
HETATM   23  C18 UNL     1       6.036  -4.759  -4.193  1.00  0.00    -0.042 C 
BRANCH  23  24
HETATM   24  C19 UNL     1       6.930  -5.476  -4.581  1.00  0.00     0.037 C 
BRANCH  24  25
HETATM   25  N6  UNL     1       7.984  -6.275  -5.021  1.00  0.00    -0.226 N 
ATOM     26  H6  UNL     1       8.912  -5.861  -5.107  1.00  0.00     0.204 HD
BRANCH  25  27
HETATM   27  O2  UNL     1       7.821  -7.563  -5.334  1.00  0.00    -0.282 OA
ATOM     28  H2  UNL     1       8.539  -8.108  -5.634  1.00  0.00     0.245 HD
ENDBRANCH  25  27
ENDBRANCH  24  25
ENDBRANCH  23  24
ENDBRANCH  20  23
ENDBRANCH  16  17
ENDBRANCH  10  15
BRANCH  13  29
HETATM   29  N8  UNL     1      -1.178   1.841   1.554  1.00  0.00    -0.351 N 
ATOM     30  H8  UNL     1      -1.853   2.602   1.626  1.00  0.00     0.166 HD
BRANCH  29  31
HETATM   31  C23 UNL     1      -0.925   1.390   2.841  1.00  0.00     0.101 C 
BRANCH  31  32
HETATM   32  C24 UNL     1      -0.581  -0.027   3.027  1.00  0.00    -0.021 A 
HETATM   33  C25 UNL     1       0.687  -0.444   3.483  1.00  0.00     0.013 A 
HETATM   34  C26 UNL     1       0.981  -1.762   3.651  1.00  0.00     0.001 A 
HETATM   35  C27 UNL     1       0.027  -2.720   3.371  1.00  0.00     0.000 A 
HETATM   36  C28 UNL     1      -1.219  -2.319   2.923  1.00  0.00     0.001 A 
HETATM   37  C29 UNL     1      -1.523  -1.015   2.752  1.00  0.00     0.013 A 
ENDBRANCH  31  32
ENDBRANCH  29  31
ENDBRANCH  13  29
BRANCH   1  38
HETATM   38  N2  UNL     1      -2.869   3.810   1.079  1.00  0.00    -0.246 N 
HETATM   39  C1  UNL     1      -2.339   4.704   1.892  1.00  0.00     0.333 A 
HETATM   40  O1  UNL     1      -1.304   5.441   1.727  1.00  0.00    -0.246 OA
HETATM   41  N1  UNL     1      -3.064   4.771   3.020  1.00  0.00    -0.306 N 
HETATM   42  C2  UNL     1      -4.073   3.896   2.908  1.00  0.00     0.063 A 
ATOM     43  H1  UNL     1      -2.880   5.378   3.818  1.00  0.00     0.171 HD
HETATM   44  C3  UNL     1      -5.123   3.559   3.759  1.00  0.00     0.032 A 
HETATM   45  C7  UNL     1      -3.949   3.289   1.684  1.00  0.00     0.072 A 
HETATM   46  C4  UNL     1      -6.049   2.621   3.395  1.00  0.00     0.002 A 
HETATM   47  C5  UNL     1      -5.910   2.029   2.173  1.00  0.00     0.002 A 
HETATM   48  C6  UNL     1      -4.888   2.326   1.294  1.00  0.00     0.032 A 
ENDBRANCH   1  38
TORSDOF 10
