REMARK  7 active torsions:
REMARK  status: ('A' for Active; 'I' for Inactive)
REMARK    1  A    between atoms: N2_5  and  C3_6 
REMARK    2  A    between atoms: C6_9  and  C7_10 
REMARK       I    between atoms: C7_10  and  N3_12 
REMARK    3  A    between atoms: C10_16  and  C11_17 
REMARK    4  A    between atoms: C19_28  and  C20_29 
REMARK    5  A    between atoms: C23_35  and  C24_36 
REMARK    6  A    between atoms: C25_37  and  C26_38 
REMARK    7  A    between atoms: C27_41  and  N9_42 
ROOT
HETATM    1  C1  UNL     1      -4.704   0.646  -2.374  1.00  0.00     0.070 C 
HETATM    2  C2  UNL     1      -3.814  -0.128  -1.482  1.00  0.00     0.035 A 
HETATM    3  N1  UNL     1      -2.563   0.152  -1.160  1.00  0.00    -0.298 N 
ATOM      4  H1  UNL     1      -2.050   0.963  -1.507  1.00  0.00     0.187 HD
HETATM    5  N2  UNL     1      -2.058  -0.747  -0.334  1.00  0.00    -0.267 N 
HETATM    6  C18 UNL     1      -3.017  -1.648  -0.109  1.00  0.00     0.131 A 
HETATM    7  C19 UNL     1      -4.168  -1.298  -0.823  1.00  0.00     0.020 A 
ENDROOT
BRANCH   5   8
HETATM    8  C3  UNL     1      -0.732  -0.755   0.181  1.00  0.00     0.056 A 
HETATM    9  C4  UNL     1       0.273  -1.454  -0.521  1.00  0.00     0.032 A 
HETATM   10  C5  UNL     1       1.563  -1.457  -0.051  1.00  0.00     0.019 A 
HETATM   11  C6  UNL     1       1.917  -0.788   1.108  1.00  0.00     0.032 A 
HETATM   12  C16 UNL     1       0.974  -0.110   1.803  1.00  0.00     0.019 A 
HETATM   13  C17 UNL     1      -0.335  -0.116   1.310  1.00  0.00     0.032 A 
BRANCH  11  14
HETATM   14  C7  UNL     1       3.312  -0.821   1.567  1.00  0.00     0.257 C 
HETATM   15  O1  UNL     1       3.587  -0.209   2.619  1.00  0.00    -0.267 OA
HETATM   16  N3  UNL     1       4.302  -1.530   0.830  1.00  0.00    -0.308 N 
HETATM   17  C8  UNL     1       5.440  -1.044   0.509  1.00  0.00     0.126 A 
ATOM     18  H3  UNL     1       4.090  -2.485   0.540  1.00  0.00     0.170 HD
HETATM   19  C9  UNL     1       6.023   0.186   0.743  1.00  0.00     0.077 A 
HETATM   20  N5  UNL     1       6.354  -1.745  -0.216  1.00  0.00    -0.281 N 
HETATM   21  C10 UNL     1       7.292   0.198   0.143  1.00  0.00     0.037 A 
HETATM   22  N4  UNL     1       7.419  -1.010  -0.417  1.00  0.00    -0.301 N 
ATOM     23  H4  UNL     1       8.241  -1.320  -0.935  1.00  0.00     0.187 HD
HETATM   24  C15 UNL     1       6.169  -3.106  -0.689  1.00  0.00     0.179 C 
BRANCH  21  25
HETATM   25  C11 UNL     1       8.256   1.328   0.152  1.00  0.00    -0.007 C 
HETATM   26  C12 UNL     1       8.453   1.735  -1.295  1.00  0.00     0.021 C 
HETATM   27  C13 UNL     1       9.571   0.922   0.781  1.00  0.00     0.021 C 
HETATM   28  C14 UNL     1       7.722   2.508   0.937  1.00  0.00     0.021 C 
ENDBRANCH  21  25
ENDBRANCH  11  14
ENDBRANCH   5   8
BRANCH   7  29
HETATM   29  C20 UNL     1      -5.427  -2.020  -0.883  1.00  0.00     0.031 A 
HETATM   30  C21 UNL     1      -5.570  -3.311  -1.362  1.00  0.00     0.122 A 
HETATM   31  N6  UNL     1      -6.879  -3.581  -1.231  1.00  0.00    -0.308 N 
HETATM   32  N7  UNL     1      -7.527  -2.537  -0.707  1.00  0.00    -0.288 N 
ATOM     33  H6  UNL     1      -7.318  -4.463  -1.495  1.00  0.00     0.186 HD
HETATM   34  C22 UNL     1      -8.944  -2.515  -0.448  1.00  0.00     0.178 C 
HETATM   35  C23 UNL     1      -6.638  -1.531  -0.472  1.00  0.00     0.116 A 
BRANCH  35  36
HETATM   36  C24 UNL     1      -6.997  -0.262   0.072  1.00  0.00    -0.038 C 
HETATM   37  C25 UNL     1      -7.316   0.812   0.506  1.00  0.00    -0.021 C 
BRANCH  37  38
HETATM   38  C26 UNL     1      -7.721   2.113   1.000  1.00  0.00     0.191 A 
HETATM   39  N8  UNL     1      -8.631   2.323   1.954  1.00  0.00    -0.166 N 
HETATM   40  C27 UNL     1      -8.748   3.652   2.138  1.00  0.00     0.692 A 
ATOM     41  H8  UNL     1      -9.148   1.602   2.457  1.00  0.00     0.186 HD
HETATM   42  N10 UNL     1      -7.906   4.291   1.294  1.00  0.00    -0.130 N 
HETATM   43  N11 UNL     1      -7.290   3.329   0.609  1.00  0.00    -0.263 N 
ATOM     44  H10 UNL     1      -7.771   5.298   1.202  1.00  0.00     0.205 HD
ATOM     45  H11 UNL     1      -6.588   3.490  -0.113  1.00  0.00     0.189 HD
BRANCH  40  46
HETATM   46  N9  UNL     1      -9.549   4.207   2.983  1.00  0.00    -0.233 N 
ATOM     47  H92 UNL     1     -10.184   3.725   3.619  1.00  0.00     0.174 HD
ATOM     48  H91 UNL     1      -9.638   5.214   3.122  1.00  0.00     0.174 HD
ENDBRANCH  40  46
ENDBRANCH  37  38
ENDBRANCH  35  36
ENDBRANCH   7  29
TORSDOF 7
