REMARK  6 active torsions:
REMARK  status: ('A' for Active; 'I' for Inactive)
REMARK    1  A    between atoms: S1_2  and  C2_3 
REMARK    2  A    between atoms: C3_6  and  N2_7 
REMARK    3  A    between atoms: C4_12  and  N4_13 
REMARK    4  A    between atoms: N4_13  and  N5_15 
REMARK    5  A    between atoms: N5_15  and  C5_17 
REMARK    6  A    between atoms: C5_17  and  N6_18 
ROOT
HETATM    1  C2  UNL     1      -1.794  -0.611  -0.531  1.00  0.00     0.174 A 
HETATM    2  N1  UNL     1      -1.791  -1.949  -0.512  1.00  0.00    -0.170 N 
ATOM      3  H1  UNL     1      -2.660  -2.441  -0.719  1.00  0.00     0.186 HD
HETATM    4  C3  UNL     1      -0.684  -2.679  -0.230  1.00  0.00     0.692 A 
HETATM    5  N3  UNL     1       0.454  -2.003   0.041  1.00  0.00    -0.021 N 
ATOM      6  H3  UNL     1       1.302  -2.526   0.257  1.00  0.00     0.203 HD
HETATM    7  C4  UNL     1       0.498  -0.658   0.033  1.00  0.00     0.713 A 
HETATM    8  N7  UNL     1      -0.627   0.018  -0.253  1.00  0.00    -0.168 N 
ATOM      9  H7  UNL     1      -0.602   1.038  -0.261  1.00  0.00     0.186 HD
ENDROOT
BRANCH   7  10
HETATM   10  N4  UNL     1       1.600  -0.074   0.297  1.00  0.00    -0.134 N 
ATOM     11  H4  UNL     1       2.425  -0.635   0.509  1.00  0.00     0.205 HD
BRANCH  10  12
HETATM   12  N5  UNL     1       1.699   1.311   0.302  1.00  0.00    -0.297 N 
ATOM     13  H5  UNL     1       1.071   1.842   0.906  1.00  0.00     0.182 HD
BRANCH  12  14
HETATM   14  C5  UNL     1       2.646   2.032  -0.506  1.00  0.00     0.369 C 
BRANCH  14  15
HETATM   15  N6  UNL     1       3.972   1.593  -0.119  1.00  0.00    -0.062 N 
ATOM     16  H63 UNL     1       4.147   1.690   0.881  1.00  0.00     0.276 HD
ATOM     17  H62 UNL     1       4.089   0.581  -0.177  1.00  0.00     0.276 HD
ATOM     18  H61 UNL     1       4.643   2.104  -0.692  1.00  0.00     0.276 HD
ENDBRANCH  14  15
ENDBRANCH  12  14
ENDBRANCH  10  12
ENDBRANCH   7  10
BRANCH   4  19
HETATM   19  N2  UNL     1      -0.735  -3.950  -0.225  1.00  0.00    -0.234 N 
ATOM     20  H22 UNL     1      -1.594  -4.460  -0.430  1.00  0.00     0.174 HD
ATOM     21  H21 UNL     1       0.098  -4.499  -0.013  1.00  0.00     0.174 HD
ENDBRANCH   4  19
BRANCH   1  22
HETATM   22  S1  UNL     1      -3.242   0.364  -0.901  1.00  0.00    -0.097 SA
HETATM   23  C1  UNL     1      -4.191   0.755   0.585  1.00  0.00     0.099 C 
ENDBRANCH   1  22
TORSDOF 6
