REMARK  4 active torsions:
REMARK  status: ('A' for Active; 'I' for Inactive)
REMARK    1  A    between atoms: C1_2  and  N1_3 
REMARK    2  A    between atoms: N1_3  and  N2_5 
REMARK    3  A    between atoms: N2_5  and  C2_7 
REMARK    4  A    between atoms: C3_8  and  O2_9 
ROOT
HETATM    1  C2  UNL     1      -0.112   0.158   0.124  1.00  0.00     0.168 A 
HETATM    2  C3  UNL     1      -1.050   0.943  -0.482  1.00  0.00     0.178 A 
HETATM    3  N3  UNL     1      -2.357   0.557  -0.476  1.00  0.00    -0.287 N 
ATOM      4  H3  UNL     1      -3.055   1.146  -0.929  1.00  0.00     0.172 HD
HETATM    5  C4  UNL     1      -2.741  -0.581   0.114  1.00  0.00     0.329 A 
HETATM    6  O3  UNL     1      -3.972  -0.892   0.091  1.00  0.00    -0.247 OA
HETATM    7  N4  UNL     1      -1.833  -1.352   0.707  1.00  0.00    -0.273 N 
ATOM      8  H4  UNL     1      -2.130  -2.218   1.156  1.00  0.00     0.173 HD
HETATM    9  C5  UNL     1      -0.518  -1.009   0.727  1.00  0.00     0.281 A 
HETATM   10  O4  UNL     1       0.358  -1.731   1.286  1.00  0.00    -0.265 OA
ENDROOT
BRANCH   1  11
HETATM   11  N2  UNL     1       1.253   0.508   0.137  1.00  0.00    -0.290 N 
ATOM     12  H2  UNL     1       1.546   1.359   0.617  1.00  0.00     0.187 HD
BRANCH  11  13
HETATM   13  N1  UNL     1       2.225  -0.295  -0.501  1.00  0.00    -0.277 N 
ATOM     14  H1  UNL     1       1.970  -0.859  -1.312  1.00  0.00     0.189 HD
BRANCH  13  15
HETATM   15  C1  UNL     1       3.548  -0.315  -0.013  1.00  0.00     0.368 C 
HETATM   16  O1  UNL     1       3.858   0.373   0.978  1.00  0.00    -0.282 OA
ENDBRANCH  13  15
ENDBRANCH  11  13
ENDBRANCH   1  11
BRANCH   2  17
HETATM   17  O2  UNL     1      -0.740   2.122  -1.108  1.00  0.00    -0.344 OA
ATOM     18  H2  UNL     1      -1.393   2.668  -1.530  1.00  0.00     0.219 HD
ENDBRANCH   2  17
TORSDOF 4
