REMARK  6 active torsions:
REMARK  status: ('A' for Active; 'I' for Inactive)
REMARK    1  A    between atoms: N1_1  and  C1_4 
REMARK    2  A    between atoms: N4_8  and  N5_9 
REMARK    3  A    between atoms: N5_9  and  N6_11 
REMARK    4  A    between atoms: N7_14  and  C2_15 
REMARK    5  A    between atoms: C2_15  and  C3_16 
REMARK    6  A    between atoms: C3_16  and  C4_17 
ROOT
HETATM    1  C1  UNL     1      -0.943  -1.215  -1.592  1.00  0.00     0.708 A 
HETATM    2  N2  UNL     1      -2.241  -1.634  -1.563  1.00  0.00    -0.112 N 
ATOM      3  H2  UNL     1      -2.699  -2.286  -2.200  1.00  0.00     0.203 HD
HETATM    4  N3  UNL     1      -2.779  -1.004  -0.518  1.00  0.00     0.034 NA
HETATM    5  N4  UNL     1      -1.879  -0.238   0.074  1.00  0.00    -0.084 N 
HETATM    6  N7  UNL     1      -0.758  -0.365  -0.581  1.00  0.00    -0.087 N 
ENDROOT
BRANCH   5   7
HETATM    7  N5  UNL     1      -2.017   0.601   1.191  1.00  0.00    -0.213 N 
ATOM      8  H5  UNL     1      -2.179   0.149   2.091  1.00  0.00     0.211 HD
BRANCH   7   9
HETATM    9  N6  UNL     1      -1.954   1.974   1.186  1.00  0.00    -0.328 N 
ATOM     10  H62 UNL     1      -1.791   2.408   0.277  1.00  0.00     0.178 HD
ATOM     11  H61 UNL     1      -2.054   2.584   1.998  1.00  0.00     0.178 HD
ENDBRANCH   7   9
ENDBRANCH   5   7
BRANCH   6  12
HETATM   12  C2  UNL     1       0.499   0.307  -0.267  1.00  0.00     0.172 C 
BRANCH  12  13
HETATM   13  C3  UNL     1       1.325  -0.565   0.662  1.00  0.00     0.033 C 
BRANCH  13  14
HETATM   14  C4  UNL     1       2.625   0.121   1.073  1.00  0.00     0.088 C 
HETATM   15  S1  UNL     1       3.646   0.542  -0.366  1.00  0.00    -0.098 SA
ENDBRANCH  13  14
ENDBRANCH  12  13
ENDBRANCH   6  12
BRANCH   1  16
HETATM   16  N1  UNL     1      -0.086  -1.635  -2.496  1.00  0.00    -0.232 N 
ATOM     17  H12 UNL     1      -0.227  -2.285  -3.269  1.00  0.00     0.174 HD
ATOM     18  H11 UNL     1       0.884  -1.322  -2.518  1.00  0.00     0.174 HD
ENDBRANCH   1  16
TORSDOF 6
