REMARK  8 active torsions:
REMARK  status: ('A' for Active; 'I' for Inactive)
REMARK    1  A    between atoms: N1_1  and  C1_5 
REMARK    2  A    between atoms: C1_5  and  C2_6 
REMARK    3  A    between atoms: C2_6  and  C3_7 
REMARK    4  A    between atoms: C3_7  and  C4_8 
REMARK    5  A    between atoms: C4_8  and  N2_9 
REMARK    6  A    between atoms: N2_9  and  C5_11 
REMARK    7  A    between atoms: C6_17  and  N5_18 
REMARK    8  A    between atoms: N5_18  and  N6_20 
ROOT
HETATM    1  C5  UNL     1      -1.672  -0.862   0.318  1.00  0.00     0.171 A 
HETATM    2  N3  UNL     1      -1.627  -1.925   1.142  1.00  0.00    -0.222 N 
ATOM      3  H3  UNL     1      -0.983  -2.711   1.056  1.00  0.00     0.198 HD
HETATM    4  O1  UNL     1      -2.529  -1.793   2.060  1.00  0.00    -0.153 OA
HETATM    5  N4  UNL     1      -3.195  -0.701   1.919  1.00  0.00    -0.221 N 
ATOM      6  H4  UNL     1      -3.955  -0.372   2.514  1.00  0.00     0.198 HD
HETATM    7  C6  UNL     1      -2.689  -0.067   0.820  1.00  0.00     0.188 A 
ENDROOT
BRANCH   1   8
HETATM    8  N2  UNL     1      -0.989  -0.567  -0.704  1.00  0.00    -0.372 N 
ATOM      9  H2  UNL     1      -1.226   0.314  -1.161  1.00  0.00     0.161 HD
BRANCH   8  10
HETATM   10  C4  UNL     1       0.067  -1.309  -1.295  1.00  0.00     0.121 C 
BRANCH  10  11
HETATM   11  C3  UNL     1       1.332  -1.047  -0.490  1.00  0.00     0.021 C 
BRANCH  11  12
HETATM   12  C2  UNL     1       1.594   0.443  -0.559  1.00  0.00     0.029 C 
BRANCH  12  13
HETATM   13  C1  UNL     1       2.823   0.845   0.199  1.00  0.00     0.229 C 
BRANCH  13  14
HETATM   14  N1  UNL     1       3.001   2.264   0.085  1.00  0.00    -0.079 N 
ATOM     15  H13 UNL     1       3.025   2.575  -0.886  1.00  0.00     0.274 HD
ATOM     16  H12 UNL     1       2.175   2.784   0.382  1.00  0.00     0.274 HD
ATOM     17  H11 UNL     1       3.837   2.538   0.601  1.00  0.00     0.274 HD
ENDBRANCH  13  14
ENDBRANCH  12  13
ENDBRANCH  11  12
ENDBRANCH  10  11
ENDBRANCH   8  10
ENDBRANCH   1   8
BRANCH   7  18
HETATM   18  N5  UNL     1      -3.085   1.063   0.341  1.00  0.00    -0.287 N 
ATOM     19  H5  UNL     1      -3.846   1.573   0.788  1.00  0.00     0.188 HD
BRANCH  18  20
HETATM   20  N6  UNL     1      -2.464   1.579  -0.791  1.00  0.00    -0.343 N 
ATOM     21  H62 UNL     1      -1.704   1.056  -1.226  1.00  0.00     0.176 HD
ATOM     22  H61 UNL     1      -2.777   2.473  -1.170  1.00  0.00     0.176 HD
ENDBRANCH  18  20
ENDBRANCH   7  18
TORSDOF 8
