REMARK  5 active torsions:
REMARK  status: ('A' for Active; 'I' for Inactive)
REMARK    1  A    between atoms: C2_3  and  N2_4 
REMARK    2  A    between atoms: C2_3  and  C3_8 
REMARK    3  A    between atoms: C3_8  and  N3_9 
REMARK    4  A    between atoms: C3_8  and  N4_13 
REMARK    5  A    between atoms: C4_14  and  O1_15 
ROOT
HETATM    1  N1  UNL     1      -3.104   0.441   1.327  1.00  0.00    -0.195 NA
HETATM    2  C1  UNL     1      -2.448  -0.081   0.526  1.00  0.00     0.096 C 
HETATM    3  C2  UNL     1      -1.661  -0.739  -0.487  1.00  0.00     0.339 C 
ENDROOT
BRANCH   3   4
HETATM    4  N2  UNL     1      -1.703   0.058  -1.725  1.00  0.00    -0.059 N 
ATOM      5  H23 UNL     1      -2.657   0.243  -2.035  1.00  0.00     0.276 HD
ATOM      6  H22 UNL     1      -1.411   1.024  -1.574  1.00  0.00     0.276 HD
ATOM      7  H21 UNL     1      -1.146  -0.408  -2.442  1.00  0.00     0.276 HD
ENDBRANCH   3   4
BRANCH   3   8
HETATM    8  C3  UNL     1      -0.270  -1.061  -0.120  1.00  0.00     0.351 C 
BRANCH   8   9
HETATM    9  N3  UNL     1      -0.237  -1.937   1.042  1.00  0.00    -0.054 N 
ATOM     10  H33 UNL     1      -0.755  -1.543   1.828  1.00  0.00     0.276 HD
ATOM     11  H32 UNL     1      -0.795  -2.778   0.898  1.00  0.00     0.276 HD
ATOM     12  H31 UNL     1       0.725  -2.160   1.296  1.00  0.00     0.276 HD
ENDBRANCH   8   9
BRANCH   8  13
HETATM   13  N4  UNL     1       0.664   0.034  -0.035  1.00  0.00    -0.128 N 
HETATM   14  C4  UNL     1       0.826   0.757   1.075  1.00  0.00     0.176 A 
HETATM   15  C5  UNL     1       1.783   1.708   0.799  1.00  0.00     0.162 A 
HETATM   16  N5  UNL     1       2.167   1.527  -0.465  1.00  0.00    -0.198 N 
HETATM   17  C6  UNL     1       1.481   0.486  -1.005  1.00  0.00     0.681 A 
ATOM     18  H5  UNL     1       2.868   2.085  -0.952  1.00  0.00     0.183 HD
HETATM   19  N6  UNL     1       1.637   0.036  -2.221  1.00  0.00    -0.234 N 
ATOM     20  H62 UNL     1       1.122  -0.746  -2.626  1.00  0.00     0.174 HD
ATOM     21  H61 UNL     1       2.256   0.378  -2.956  1.00  0.00     0.174 HD
BRANCH  14  22
HETATM   22  O1  UNL     1       0.224   0.682   2.330  1.00  0.00    -0.344 OA
ATOM     23  H1  UNL     1       0.339   1.197   3.120  1.00  0.00     0.219 HD
ENDBRANCH  14  22
ENDBRANCH   8  13
ENDBRANCH   3   8
TORSDOF 5
