REMARK  5 active torsions:
REMARK  status: ('A' for Active; 'I' for Inactive)
REMARK    1  A    between atoms: C2_9  and  N5_10 
REMARK    2  A    between atoms: N5_10  and  N6_12 
REMARK    3  A    between atoms: C3_14  and  N7_15 
REMARK    4  A    between atoms: N7_15  and  N8_16 
REMARK    5  A    between atoms: N7_15  and  N9_19 
ROOT
HETATM    1  N5  UNL     1      -0.402  -1.135  -0.052  1.00  0.00    -0.281 N 
ATOM      2  H5  UNL     1      -0.658  -2.115   0.070  1.00  0.00     0.188 HD
ENDROOT
BRANCH   1   3
HETATM    3  C2  UNL     1      -1.398  -0.126   0.023  1.00  0.00     0.179 A 
HETATM    4  C1  UNL     1      -2.731  -0.379   0.256  1.00  0.00     0.179 A 
HETATM    5  N1  UNL     1      -3.320  -1.664   0.456  1.00  0.00    -0.077 NA
HETATM    6  N2  UNL     1      -3.378   0.819   0.260  1.00  0.00    -0.270 N 
HETATM    7  N3  UNL     1      -2.493   1.760   0.041  1.00  0.00    -0.240 N 
ATOM      8  H2  UNL     1      -4.377   0.959   0.408  1.00  0.00     0.190 HD
HETATM    9  N4  UNL     1      -1.298   1.206  -0.103  1.00  0.00    -0.267 N 
ATOM     10  H3  UNL     1      -2.692   2.759  -0.010  1.00  0.00     0.208 HD
ATOM     11  H4  UNL     1      -0.433   1.715  -0.283  1.00  0.00     0.190 HD
ENDBRANCH   1   3
BRANCH   1  12
HETATM   12  N6  UNL     1       0.940  -0.781  -0.295  1.00  0.00    -0.291 N 
HETATM   13  C3  UNL     1       1.454   0.161   0.422  1.00  0.00     0.241 C 
ATOM     14  H6  UNL     1       1.487  -1.254  -1.014  1.00  0.00     0.188 HD
BRANCH  13  15
HETATM   15  N7  UNL     1       2.805   0.515   0.174  1.00  0.00    -0.204 N 
BRANCH  15  16
HETATM   16  N8  UNL     1       3.765  -0.497   0.437  1.00  0.00    -0.324 N 
ATOM     17  H82 UNL     1       3.478  -1.413   0.781  1.00  0.00     0.179 HD
ATOM     18  H81 UNL     1       4.736  -0.242   0.259  1.00  0.00     0.179 HD
ENDBRANCH  15  16
BRANCH  15  19
HETATM   19  N9  UNL     1       3.198   1.771  -0.298  1.00  0.00    -0.324 N 
ATOM     20  H92 UNL     1       2.508   2.498  -0.487  1.00  0.00     0.179 HD
ATOM     21  H91 UNL     1       4.169   2.026  -0.476  1.00  0.00     0.179 HD
ENDBRANCH  15  19
ENDBRANCH  13  15
ENDBRANCH   1  12
TORSDOF 5
