REMARK  13 active torsions:
REMARK  status: ('A' for Active; 'I' for Inactive)
REMARK       I    between atoms: N1_2  and  C3_4 
REMARK    1  A    between atoms: C3_4  and  C4_6 
REMARK    2  A    between atoms: C4_6  and  C5_7 
REMARK    3  A    between atoms: C5_7  and  C6_8 
REMARK    4  A    between atoms: C6_8  and  C7_9 
REMARK    5  A    between atoms: C7_9  and  C8_10 
REMARK    6  A    between atoms: C8_10  and  C9_11 
REMARK    7  A    between atoms: C9_11  and  C10_12 
REMARK    8  A    between atoms: C10_12  and  C11_13 
REMARK    9  A    between atoms: C11_13  and  C12_14 
REMARK   10  A    between atoms: C12_14  and  C13_15 
REMARK   11  A    between atoms: C13_15  and  C14_16 
REMARK   12  A    between atoms: C14_16  and  S1_18 
REMARK   13  A    between atoms: S1_18  and  C15_19 
ROOT
HETATM    1  C11 UNL     1       1.278  -1.191  -0.529  1.00  0.00     0.000 C 
ENDROOT
BRANCH   1   2
HETATM    2  C10 UNL     1      -0.049  -0.507  -0.526  1.00  0.00     0.000 C 
BRANCH   2   3
HETATM    3  C9  UNL     1      -0.920  -1.186  -1.587  1.00  0.00     0.000 C 
BRANCH   3   4
HETATM    4  C8  UNL     1      -2.296  -0.505  -1.600  1.00  0.00     0.004 C 
BRANCH   4   5
HETATM    5  C7  UNL     1      -3.179  -1.123  -2.609  1.00  0.00     0.027 C 
BRANCH   5   6
HETATM    6  C6  UNL     1      -4.519  -0.554  -2.743  1.00  0.00    -0.030 C 
BRANCH   6   7
HETATM    7  C5  UNL     1      -5.529  -0.593  -1.690  1.00  0.00    -0.022 C 
BRANCH   7   8
HETATM    8  C4  UNL     1      -5.314   0.032  -0.372  1.00  0.00     0.129 C 
BRANCH   8   9
HETATM    9  C3  UNL     1      -6.606  -0.143   0.409  1.00  0.00     0.222 C 
HETATM   10  N1  UNL     1      -6.728   0.358   1.726  1.00  0.00    -0.361 N 
HETATM   11  C1  UNL     1      -5.613   1.061   2.365  1.00  0.00     0.152 C 
HETATM   12  C2  UNL     1      -7.973   0.166   2.437  1.00  0.00     0.152 C 
HETATM   13  O1  UNL     1      -7.551  -0.738  -0.140  1.00  0.00    -0.273 OA
ENDBRANCH   8   9
ENDBRANCH   7   8
ENDBRANCH   6   7
ENDBRANCH   5   6
ENDBRANCH   4   5
ENDBRANCH   3   4
ENDBRANCH   2   3
ENDBRANCH   1   2
BRANCH   1  14
HETATM   14  C12 UNL     1       2.265  -0.657   0.448  1.00  0.00     0.008 C 
BRANCH  14  15
HETATM   15  C13 UNL     1       2.651   0.782   0.255  1.00  0.00     0.091 C 
BRANCH  15  16
HETATM   16  C14 UNL     1       3.291   1.063  -1.043  1.00  0.00     0.186 C 
HETATM   17  O2  UNL     1       2.487   1.248  -1.984  1.00  0.00    -0.285 OA
BRANCH  16  18
HETATM   18  S1  UNL     1       4.982   1.172  -1.441  1.00  0.00    -0.085 SA
BRANCH  18  19
HETATM   19  C15 UNL     1       6.182   0.934  -0.186  1.00  0.00     0.086 C 
HETATM   20  C16 UNL     1       6.236   1.985   0.910  1.00  0.00     0.050 C 
HETATM   21  C17 UNL     1       6.769   1.099   2.047  1.00  0.00     0.123 C 
HETATM   22  C18 UNL     1       8.058   0.433   1.658  1.00  0.00     0.034 C 
HETATM   23  O3  UNL     1       5.844   0.041   1.932  1.00  0.00    -0.379 OA
HETATM   24  C19 UNL     1       7.588  -0.774   0.830  1.00  0.00     0.035 C 
HETATM   25  C20 UNL     1       6.131  -0.334   0.597  1.00  0.00     0.136 C 
ENDBRANCH  18  19
ENDBRANCH  16  18
ENDBRANCH  15  16
ENDBRANCH  14  15
ENDBRANCH   1  14
TORSDOF 13
