REMARK  13 active torsions:
REMARK  status: ('A' for Active; 'I' for Inactive)
REMARK    1  A    between atoms: C1_2  and  C2_3 
REMARK    2  A    between atoms: C1_2  and  O2_16 
REMARK    3  A    between atoms: C2_3  and  C3_4 
REMARK    4  A    between atoms: C3_4  and  C4_5 
REMARK    5  A    between atoms: C4_5  and  C5_6 
REMARK    6  A    between atoms: C5_6  and  C6_7 
REMARK    7  A    between atoms: C6_7  and  C7_8 
REMARK    8  A    between atoms: C7_8  and  C8_9 
REMARK    9  A    between atoms: C8_9  and  C9_10 
REMARK   10  A    between atoms: C9_10  and  N1_11 
REMARK   11  A    between atoms: O2_16  and  C14_17 
REMARK   12  A    between atoms: C14_17  and  C15_18 
REMARK   13  A    between atoms: C15_18  and  N2_19 
ROOT
HETATM    1  C2  UNL     1      -1.207  -0.615   0.245  1.00  0.00     0.111 C 
ENDROOT
BRANCH   1   2
HETATM    2  C1  UNL     1      -2.163  -0.096  -0.759  1.00  0.00     0.259 C 
HETATM    3  O1  UNL     1      -2.205  -0.658  -1.877  1.00  0.00    -0.265 OA
BRANCH   2   4
HETATM    4  O2  UNL     1      -3.004   0.997  -0.466  1.00  0.00    -0.316 OA
BRANCH   4   5
HETATM    5  C14 UNL     1      -3.891   1.451  -1.427  1.00  0.00     0.223 C 
BRANCH   5   6
HETATM    6  C15 UNL     1      -4.983   0.521  -1.755  1.00  0.00     0.084 C 
BRANCH   6   7
HETATM    7  N2  UNL     1      -5.936   0.167  -0.794  1.00  0.00    -0.391 N 
HETATM    8  C16 UNL     1      -5.666  -0.600   0.334  1.00  0.00     0.122 C 
HETATM    9  C17 UNL     1      -6.333   0.113   1.534  1.00  0.00     0.020 C 
HETATM   10  C18 UNL     1      -7.545   0.820   0.984  1.00  0.00     0.002 C 
HETATM   11  C19 UNL     1      -8.546  -0.250   0.601  1.00  0.00     0.002 C 
HETATM   12  C20 UNL     1      -8.149  -0.950  -0.680  1.00  0.00     0.020 C 
HETATM   13  C21 UNL     1      -7.164  -0.188  -1.487  1.00  0.00     0.122 C 
ENDBRANCH   6   7
ENDBRANCH   5   6
ENDBRANCH   4   5
ENDBRANCH   2   4
ENDBRANCH   1   2
BRANCH   1  14
HETATM   14  C3  UNL     1       0.199  -0.026   0.094  1.00  0.00     0.013 C 
BRANCH  14  15
HETATM   15  C4  UNL     1       0.774  -0.346  -1.250  1.00  0.00     0.027 C 
BRANCH  15  16
HETATM   16  C5  UNL     1       2.104   0.146  -1.592  1.00  0.00    -0.031 C 
BRANCH  16  17
HETATM   17  C6  UNL     1       3.325  -0.198  -0.894  1.00  0.00    -0.031 C 
BRANCH  17  18
HETATM   18  C7  UNL     1       3.571   0.127   0.512  1.00  0.00     0.028 C 
BRANCH  18  19
HETATM   19  C8  UNL     1       4.964  -0.349   0.950  1.00  0.00     0.034 C 
BRANCH  19  20
HETATM   20  C9  UNL     1       6.072   0.265   0.165  1.00  0.00     0.272 C 
BRANCH  20  21
HETATM   21  N1  UNL     1       7.319  -0.297   0.717  1.00  0.00     0.088 N 
HETATM   22  C10 UNL     1       7.528   0.195   2.070  1.00  0.00     0.272 C 
HETATM   23  C11 UNL     1       8.993   0.459   2.209  1.00  0.00     0.032 C 
HETATM   24  C12 UNL     1       9.592  -0.084   0.930  1.00  0.00     0.032 C 
HETATM   25  C13 UNL     1       8.444   0.144  -0.052  1.00  0.00     0.272 C 
ENDBRANCH  20  21
ENDBRANCH  19  20
ENDBRANCH  18  19
ENDBRANCH  17  18
ENDBRANCH  16  17
ENDBRANCH  15  16
ENDBRANCH  14  15
ENDBRANCH   1  14
TORSDOF 13
