REMARK  19 active torsions:
REMARK  status: ('A' for Active; 'I' for Inactive)
REMARK    1  A    between atoms: C2_2  and  O1_3 
REMARK    2  A    between atoms: O1_3  and  C3_4 
REMARK    3  A    between atoms: C3_4  and  C4_6 
REMARK    4  A    between atoms: C4_6  and  N1_8 
REMARK    5  A    between atoms: N1_8  and  C6_10 
REMARK    6  A    between atoms: C6_10  and  O3_11 
REMARK    7  A    between atoms: C6_10  and  C7_13 
REMARK    8  A    between atoms: C7_13  and  O4_14 
REMARK    9  A    between atoms: C7_13  and  N2_16 
REMARK   10  A    between atoms: N2_16  and  C8_18 
REMARK   11  A    between atoms: C8_18  and  C9_19 
REMARK   12  A    between atoms: C8_18  and  C13_27 
REMARK   13  A    between atoms: C10_20  and  C11_21 
REMARK   14  A    between atoms: C11_21  and  N3_22 
REMARK   15  A    between atoms: C13_27  and  N6_29 
REMARK       I    between atoms: N6_29  and  C15_31 
REMARK   16  A    between atoms: C15_31  and  C16_33 
REMARK   17  A    between atoms: C16_33  and  N7_34 
REMARK   18  A    between atoms: C16_33  and  C17_38 
REMARK   19  A    between atoms: C17_38  and  C18_39 
ROOT
HETATM    1  C8  UNL     1      -0.625   1.590  -0.429  1.00  0.00     0.033 C 
ENDROOT
BRANCH   1   2
HETATM    2  N2  UNL     1      -1.254   0.611  -1.287  1.00  0.00    -0.335 N 
ATOM      3  H2  UNL     1      -0.586  -0.039  -1.702  1.00  0.00     0.168 HD
BRANCH   2   4
HETATM    4  C7  UNL     1      -2.502   0.369  -1.654  1.00  0.00     0.192 C 
BRANCH   4   5
HETATM    5  C6  UNL     1      -3.724  -0.037  -1.018  1.00  0.00     0.193 C 
BRANCH   5   6
HETATM    6  N1  UNL     1      -4.048  -1.303  -0.463  1.00  0.00    -0.332 N 
ATOM      7  H1  UNL     1      -3.311  -2.007  -0.511  1.00  0.00     0.168 HD
BRANCH   6   8
HETATM    8  C4  UNL     1      -5.230  -1.713   0.136  1.00  0.00     0.083 C 
HETATM    9  C5  UNL     1      -5.485  -1.474   1.607  1.00  0.00     0.075 C 
BRANCH   8  10
HETATM   10  C3  UNL     1      -5.729  -3.059  -0.255  1.00  0.00     0.305 C 
HETATM   11  O2  UNL     1      -6.697  -3.128  -1.094  1.00  0.00    -0.258 OA
BRANCH  10  12
HETATM   12  O1  UNL     1      -5.131  -4.196   0.264  1.00  0.00    -0.317 OA
BRANCH  12  13
HETATM   13  C2  UNL     1      -5.574  -5.474  -0.072  1.00  0.00     0.175 C 
HETATM   14  C1  UNL     1      -6.857  -5.799   0.663  1.00  0.00     0.034 C 
ENDBRANCH  12  13
ENDBRANCH  10  12
ENDBRANCH   8  10
ENDBRANCH   6   8
ENDBRANCH   5   6
BRANCH   5  15
HETATM   15  O3  UNL     1      -4.744   0.779  -0.880  1.00  0.00    -0.343 OA
ATOM     16  H3  UNL     1      -4.527   1.626  -1.251  1.00  0.00     0.219 HD
ENDBRANCH   5  15
ENDBRANCH   4   5
BRANCH   4  17
HETATM   17  O4  UNL     1      -2.980   1.470  -2.543  1.00  0.00    -0.343 OA
ATOM     18  H4  UNL     1      -2.172   1.739  -2.964  1.00  0.00     0.219 HD
ENDBRANCH   4  17
ENDBRANCH   2   4
ENDBRANCH   1   2
BRANCH   1  19
HETATM   19  C9  UNL     1      -1.050   2.922  -0.850  1.00  0.00     0.025 C 
HETATM   20  C10 UNL     1      -0.802   4.248  -0.415  1.00  0.00    -0.005 C 
BRANCH  20  21
HETATM   21  C11 UNL     1      -1.332   4.757   0.886  1.00  0.00     0.149 C 
BRANCH  21  22
HETATM   22  N3  UNL     1      -0.992   6.173   1.105  1.00  0.00    -0.363 N 
HETATM   23  C12 UNL     1      -1.824   7.036   0.605  1.00  0.00     0.197 C 
HETATM   24  N4  UNL     1      -1.599   8.432   0.759  1.00  0.00    -0.067 NA
HETATM   25  N5  UNL     1      -3.014   6.632  -0.072  1.00  0.00    -0.067 NA
ATOM     26  H3  UNL     1      -0.157   6.458   1.617  1.00  0.00     0.162 HD
ENDBRANCH  21  22
ENDBRANCH  20  21
ENDBRANCH   1  19
BRANCH   1  27
HETATM   27  C13 UNL     1       0.020   1.048   0.740  1.00  0.00     0.130 C 
HETATM   28  C14 UNL     1       0.758   2.064   1.645  1.00  0.00     0.039 C 
BRANCH  27  29
HETATM   29  N6  UNL     1       1.146   0.171   0.312  1.00  0.00    -0.350 N 
HETATM   30  C15 UNL     1       1.856  -0.704   1.114  1.00  0.00     0.248 C 
HETATM   31  O5  UNL     1       1.599  -0.819   2.330  1.00  0.00    -0.271 OA
ATOM     32  H6  UNL     1       1.420   0.221  -0.669  1.00  0.00     0.163 HD
BRANCH  30  33
HETATM   33  C16 UNL     1       2.979  -1.572   0.614  1.00  0.00     0.275 C 
BRANCH  33  34
HETATM   34  N7  UNL     1       2.662  -1.672  -0.819  1.00  0.00    -0.066 N 
ATOM     35  H73 UNL     1       1.724  -2.010  -1.034  1.00  0.00     0.275 HD
ATOM     36  H72 UNL     1       2.554  -0.781  -1.303  1.00  0.00     0.275 HD
ATOM     37  H71 UNL     1       3.423  -2.260  -1.158  1.00  0.00     0.275 HD
ENDBRANCH  33  34
BRANCH  33  38
HETATM   38  C17 UNL     1       4.343  -0.981   0.676  1.00  0.00     0.047 C 
BRANCH  38  39
HETATM   39  C18 UNL     1       5.507  -1.800   0.322  1.00  0.00    -0.012 C 
HETATM   40  C19 UNL     1       6.763  -0.952   0.398  1.00  0.00     0.005 C 
HETATM   41  C20 UNL     1       7.833  -1.392  -0.585  1.00  0.00     0.000 C 
HETATM   42  C21 UNL     1       7.981  -2.903  -0.636  1.00  0.00     0.000 C 
HETATM   43  C22 UNL     1       6.691  -3.634  -0.750  1.00  0.00     0.000 C 
HETATM   44  C23 UNL     1       5.564  -2.577  -0.931  1.00  0.00     0.005 C 
ENDBRANCH  38  39
ENDBRANCH  33  38
ENDBRANCH  30  33
ENDBRANCH  27  29
ENDBRANCH   1  27
TORSDOF 19
