REMARK  20 active torsions:
REMARK  status: ('A' for Active; 'I' for Inactive)
REMARK       I    between atoms: C2_2  and  N1_4 
REMARK    1  A    between atoms: N1_4  and  C3_6 
REMARK    2  A    between atoms: C5_11  and  C6_12 
REMARK    3  A    between atoms: C6_12  and  N3_13 
REMARK    4  A    between atoms: N3_13  and  C7_16 
REMARK    5  A    between atoms: C7_16  and  C8_17 
REMARK    6  A    between atoms: C7_16  and  C16_29 
REMARK    7  A    between atoms: C8_17  and  C9_18 
REMARK    8  A    between atoms: C9_18  and  C10_19 
REMARK    9  A    between atoms: C10_19  and  C11_20 
REMARK   10  A    between atoms: C11_20  and  C12_21 
REMARK   11  A    between atoms: C12_21  and  C13_22 
REMARK   12  A    between atoms: C13_22  and  C14_23 
REMARK   13  A    between atoms: C14_23  and  C15_24 
REMARK   14  A    between atoms: C15_24  and  N4_25 
REMARK   15  A    between atoms: C16_29  and  O3_30 
REMARK   16  A    between atoms: C16_29  and  C17_32 
REMARK   17  A    between atoms: C17_32  and  N5_33 
REMARK   18  A    between atoms: N5_33  and  C18_35 
REMARK   19  A    between atoms: C23_42  and  C24_43 
REMARK   20  A    between atoms: C24_43  and  O5_44 
ROOT
HETATM    1  C7  UNL     1      -0.607   0.639  -0.827  1.00  0.00     0.216 C 
ENDROOT
BRANCH   1   2
HETATM    2  N3  UNL     1       0.722   0.303  -0.405  1.00  0.00    -0.064 N 
ATOM      3  H32 UNL     1       0.758   0.119   0.598  1.00  0.00     0.277 HD
ATOM      4  H31 UNL     1       1.339   1.114  -0.440  1.00  0.00     0.277 HD
BRANCH   2   5
HETATM    5  C6  UNL     1       1.255  -0.788  -1.153  1.00  0.00     0.286 C 
BRANCH   5   6
HETATM    6  C5  UNL     1       2.586  -1.297  -0.720  1.00  0.00     0.249 C 
HETATM    7  N2  UNL     1       2.541  -2.051   0.519  1.00  0.00    -0.331 N 
HETATM    8  C4  UNL     1       3.786  -2.652   0.867  1.00  0.00     0.245 C 
ATOM      9  H2  UNL     1       1.699  -2.142   1.087  1.00  0.00     0.165 HD
HETATM   10  C3  UNL     1       4.957  -2.074   0.140  1.00  0.00     0.207 C 
HETATM   11  O2  UNL     1       3.869  -3.579   1.708  1.00  0.00    -0.271 OA
HETATM   12  C23 UNL     1       4.656  -0.588   0.026  1.00  0.00     0.179 C 
HETATM   13  O4  UNL     1       3.553  -0.308  -0.746  1.00  0.00    -0.355 OA
BRANCH  10  14
HETATM   14  N1  UNL     1       6.176  -2.270   0.872  1.00  0.00    -0.346 N 
HETATM   15  C2  UNL     1       7.292  -2.855   0.241  1.00  0.00     0.214 C 
HETATM   16  C1  UNL     1       8.549  -3.069   0.981  1.00  0.00     0.117 C 
HETATM   17  O1  UNL     1       7.227  -3.202  -0.959  1.00  0.00    -0.274 OA
ATOM     18  H1  UNL     1       6.235  -1.986   1.850  1.00  0.00     0.163 HD
ENDBRANCH  10  14
BRANCH  12  19
HETATM   19  C24 UNL     1       5.859   0.220  -0.392  1.00  0.00     0.198 C 
BRANCH  19  20
HETATM   20  O5  UNL     1       6.203  -0.023  -1.737  1.00  0.00    -0.398 OA
ATOM     21  H5  UNL     1       6.961   0.486  -2.000  1.00  0.00     0.209 HD
ENDBRANCH  19  20
ENDBRANCH  12  19
ENDBRANCH   5   6
ENDBRANCH   2   5
ENDBRANCH   1   2
BRANCH   1  22
HETATM   22  C8  UNL     1      -1.597  -0.423  -0.566  1.00  0.00     0.036 C 
BRANCH  22  23
HETATM   23  C9  UNL     1      -1.794  -0.883   0.807  1.00  0.00     0.002 C 
BRANCH  23  24
HETATM   24  C10 UNL     1      -2.857  -1.975   0.946  1.00  0.00     0.000 C 
BRANCH  24  25
HETATM   25  C11 UNL     1      -4.195  -1.491   0.494  1.00  0.00     0.000 C 
BRANCH  25  26
HETATM   26  C12 UNL     1      -5.312  -2.491   0.613  1.00  0.00     0.000 C 
BRANCH  26  27
HETATM   27  C13 UNL     1      -5.036  -3.713  -0.221  1.00  0.00     0.002 C 
BRANCH  27  28
HETATM   28  C14 UNL     1      -6.173  -4.713  -0.138  1.00  0.00     0.027 C 
BRANCH  28  29
HETATM   29  C15 UNL     1      -5.817  -5.893  -1.015  1.00  0.00     0.229 C 
BRANCH  29  30
HETATM   30  N4  UNL     1      -6.924  -6.851  -0.944  1.00  0.00    -0.079 N 
ATOM     31  H43 UNL     1      -7.153  -7.123   0.012  1.00  0.00     0.274 HD
ATOM     32  H42 UNL     1      -7.824  -6.435  -1.185  1.00  0.00     0.274 HD
ATOM     33  H41 UNL     1      -6.684  -7.647  -1.535  1.00  0.00     0.274 HD
ENDBRANCH  29  30
ENDBRANCH  28  29
ENDBRANCH  27  28
ENDBRANCH  26  27
ENDBRANCH  25  26
ENDBRANCH  24  25
ENDBRANCH  23  24
ENDBRANCH  22  23
ENDBRANCH   1  22
BRANCH   1  34
HETATM   34  C16 UNL     1      -0.933   2.048  -0.568  1.00  0.00     0.166 C 
BRANCH  34  35
HETATM   35  O3  UNL     1      -2.245   2.369  -0.979  1.00  0.00    -0.392 OA
ATOM     36  H3  UNL     1      -2.456   3.280  -0.812  1.00  0.00     0.210 HD
ENDBRANCH  34  35
BRANCH  34  37
HETATM   37  C17 UNL     1      -0.679   2.575   0.824  1.00  0.00     0.148 C 
BRANCH  37  38
HETATM   38  N5  UNL     1      -0.861   3.995   0.906  1.00  0.00    -0.413 N 
ATOM     39  H5  UNL     1      -1.649   4.388   1.420  1.00  0.00     0.153 HD
BRANCH  38  40
HETATM   40  C18 UNL     1       0.067   4.837   0.265  1.00  0.00     0.106 C 
HETATM   41  C19 UNL     1       0.157   6.105   1.174  1.00  0.00     0.056 C 
HETATM   42  C20 UNL     1      -1.195   6.713   0.852  1.00  0.00     0.274 C 
HETATM   43  N6  UNL     1      -1.308   6.570  -0.563  1.00  0.00     0.086 N 
HETATM   44  C21 UNL     1      -1.120   7.749  -1.337  1.00  0.00     0.310 C 
HETATM   45  C22 UNL     1      -0.422   5.504  -0.992  1.00  0.00     0.296 C 
ENDBRANCH  38  40
ENDBRANCH  37  38
ENDBRANCH  34  37
ENDBRANCH   1  34
TORSDOF 20
