REMARK  20 active torsions:
REMARK  status: ('A' for Active; 'I' for Inactive)
REMARK    1  A    between atoms: C3_5  and  N2_6 
REMARK    2  A    between atoms: C5_13  and  O2_14 
REMARK    3  A    between atoms: O2_14  and  C6_15 
REMARK    4  A    between atoms: C6_15  and  C7_16 
REMARK    5  A    between atoms: C7_16  and  C8_17 
REMARK    6  A    between atoms: C8_17  and  C9_18 
REMARK    7  A    between atoms: C9_18  and  C10_19 
REMARK    8  A    between atoms: C10_19  and  C11_20 
REMARK    9  A    between atoms: C11_20  and  C12_21 
REMARK   10  A    between atoms: C12_21  and  C13_22 
REMARK   11  A    between atoms: C13_22  and  C14_23 
REMARK   12  A    between atoms: C14_23  and  C15_24 
REMARK   13  A    between atoms: C15_24  and  C16_25 
REMARK   14  A    between atoms: C16_25  and  C17_26 
REMARK       I    between atoms: C17_26  and  N4_28 
REMARK   15  A    between atoms: N4_28  and  C18_30 
REMARK   16  A    between atoms: C18_30  and  C19_31 
REMARK   17  A    between atoms: C20_33  and  C21_34 
REMARK   18  A    between atoms: C21_34  and  O5_35 
REMARK   19  A    between atoms: C22_37  and  O6_38 
REMARK   20  A    between atoms: C23_40  and  N5_41 
ROOT
HETATM    1  C14 UNL     1       0.451  -4.079  -2.629  1.00  0.00     0.004 C 
ENDROOT
BRANCH   1   2
HETATM    2  C13 UNL     1      -0.583  -3.047  -3.043  1.00  0.00     0.027 C 
BRANCH   2   3
HETATM    3  C12 UNL     1      -1.965  -3.343  -2.661  1.00  0.00    -0.031 C 
BRANCH   3   4
HETATM    4  C11 UNL     1      -2.423  -3.529  -1.292  1.00  0.00    -0.031 C 
BRANCH   4   5
HETATM    5  C10 UNL     1      -2.383  -2.462  -0.275  1.00  0.00     0.027 C 
BRANCH   5   6
HETATM    6  C9  UNL     1      -1.041  -1.976   0.077  1.00  0.00     0.004 C 
BRANCH   6   7
HETATM    7  C8  UNL     1      -1.068  -0.901   1.162  1.00  0.00     0.002 C 
BRANCH   7   8
HETATM    8  C7  UNL     1      -1.869   0.316   0.736  1.00  0.00     0.027 C 
BRANCH   8   9
HETATM    9  C6  UNL     1      -1.817   1.289   1.870  1.00  0.00     0.176 C 
BRANCH   9  10
HETATM   10  O2  UNL     1      -2.503   2.477   1.728  1.00  0.00    -0.344 OA
BRANCH  10  11
HETATM   11  C5  UNL     1      -3.856   2.613   1.538  1.00  0.00     0.160 A 
HETATM   12  C2  UNL     1      -4.491   2.714   0.328  1.00  0.00     0.061 A 
HETATM   13  C1  UNL     1      -3.715   2.712  -0.937  1.00  0.00     0.072 C 
HETATM   14  N1  UNL     1      -5.849   2.844   0.250  1.00  0.00    -0.193 N 
HETATM   15  C3  UNL     1      -6.576   2.874   1.378  1.00  0.00     0.679 A 
ATOM     16  H1  UNL     1      -6.307   2.918  -0.659  1.00  0.00     0.184 HD
HETATM   17  N3  UNL     1      -5.980   2.778   2.569  1.00  0.00    -0.154 N 
HETATM   18  C4  UNL     1      -4.661   2.651   2.669  1.00  0.00     0.295 A 
ATOM     19  H3  UNL     1      -6.547   2.803   3.417  1.00  0.00     0.187 HD
HETATM   20  O1  UNL     1      -4.120   2.562   3.795  1.00  0.00    -0.265 OA
BRANCH  15  21
HETATM   21  N2  UNL     1      -7.861   2.996   1.311  1.00  0.00    -0.234 N 
ATOM     22  H22 UNL     1      -8.316   3.069   0.401  1.00  0.00     0.174 HD
ATOM     23  H21 UNL     1      -8.413   3.019   2.168  1.00  0.00     0.174 HD
ENDBRANCH  15  21
ENDBRANCH  10  11
ENDBRANCH   9  10
ENDBRANCH   8   9
ENDBRANCH   7   8
ENDBRANCH   6   7
ENDBRANCH   5   6
ENDBRANCH   4   5
ENDBRANCH   3   4
ENDBRANCH   2   3
ENDBRANCH   1   2
BRANCH   1  24
HETATM   24  C15 UNL     1       1.827  -3.709  -3.110  1.00  0.00     0.010 C 
BRANCH  24  25
HETATM   25  C16 UNL     1       2.384  -2.427  -2.640  1.00  0.00     0.103 C 
BRANCH  25  26
HETATM   26  C17 UNL     1       2.584  -2.299  -1.177  1.00  0.00     0.217 C 
HETATM   27  O3  UNL     1       2.342  -3.254  -0.385  1.00  0.00    -0.274 OA
HETATM   28  N4  UNL     1       3.059  -1.098  -0.590  1.00  0.00    -0.359 N 
ATOM     29  H4  UNL     1       3.271  -0.302  -1.191  1.00  0.00     0.162 HD
BRANCH  28  30
HETATM   30  C18 UNL     1       3.248  -0.975   0.820  1.00  0.00     0.156 C 
BRANCH  30  31
HETATM   31  C19 UNL     1       3.765   0.389   1.219  1.00  0.00     0.166 C 
HETATM   32  O4  UNL     1       2.909   1.421   0.847  1.00  0.00    -0.372 OA
HETATM   33  C20 UNL     1       3.675   2.548   1.135  1.00  0.00     0.176 C 
HETATM   34  C22 UNL     1       5.095   2.253   0.761  1.00  0.00     0.175 C 
HETATM   35  C23 UNL     1       5.041   0.749   0.511  1.00  0.00     0.160 C 
BRANCH  33  36
HETATM   36  C21 UNL     1       3.143   3.781   0.437  1.00  0.00     0.198 C 
BRANCH  36  37
HETATM   37  O5  UNL     1       3.983   4.848   0.796  1.00  0.00    -0.398 OA
ATOM     38  H5  UNL     1       3.649   5.622   0.358  1.00  0.00     0.209 HD
ENDBRANCH  36  37
ENDBRANCH  33  36
BRANCH  34  39
HETATM   39  O6  UNL     1       5.556   2.954  -0.331  1.00  0.00    -0.391 OA
ATOM     40  H6  UNL     1       6.457   2.767  -0.568  1.00  0.00     0.210 HD
ENDBRANCH  34  39
BRANCH  35  41
HETATM   41  N5  UNL     1       6.182   0.130   1.086  1.00  0.00    -0.333 N 
HETATM   42  N6  UNL     1       6.529  -0.999   0.717  1.00  0.00    -0.349 N 
ATOM     43  H62 UNL     1       5.983  -1.472  -0.003  1.00  0.00     0.176 HD
ATOM     44  H61 UNL     1       7.349  -1.444   1.130  1.00  0.00     0.176 HD
ATOM     45  H5  UNL     1       6.717   0.617   1.805  1.00  0.00     0.180 HD
ENDBRANCH  35  41
ENDBRANCH  30  31
ENDBRANCH  28  30
ENDBRANCH  25  26
ENDBRANCH  24  25
ENDBRANCH   1  24
TORSDOF 20
