REMARK  22 active torsions:
REMARK  status: ('A' for Active; 'I' for Inactive)
REMARK    1  A    between atoms: N1_1  and  C1_5 
REMARK    2  A    between atoms: C1_5  and  C2_6 
REMARK    3  A    between atoms: C2_6  and  C3_7 
REMARK    4  A    between atoms: C3_7  and  C4_8 
REMARK    5  A    between atoms: C4_8  and  N2_9 
REMARK    6  A    between atoms: C4_8  and  C5_13 
REMARK    7  A    between atoms: C6_14  and  C7_15 
REMARK    8  A    between atoms: C7_15  and  O1_16 
REMARK    9  A    between atoms: C7_15  and  C8_18 
REMARK   10  A    between atoms: C8_18  and  C9_19 
REMARK   11  A    between atoms: C9_19  and  O2_20 
REMARK   12  A    between atoms: C10_22  and  C11_23 
REMARK   13  A    between atoms: C11_23  and  C12_24 
REMARK   14  A    between atoms: C12_24  and  C13_25 
REMARK   15  A    between atoms: C13_25  and  C14_26 
REMARK   16  A    between atoms: C15_29  and  C16_30 
REMARK   17  A    between atoms: C16_30  and  C17_31 
REMARK   18  A    between atoms: C17_31  and  C18_33 
REMARK   19  A    between atoms: C18_33  and  C19_34 
REMARK   20  A    between atoms: C18_33  and  N5_40 
REMARK   21  A    between atoms: C19_34  and  N4_35 
REMARK       I    between atoms: N5_40  and  C24_41 
REMARK   22  A    between atoms: C25_44  and  O4_45 
ROOT
HETATM    1  C12 UNL     1       0.736  -0.276  -0.332  1.00  0.00     0.004 C 
ENDROOT
BRANCH   1   2
HETATM    2  C11 UNL     1       2.137  -0.677  -0.530  1.00  0.00     0.003 C 
BRANCH   2   3
HETATM    3  C10 UNL     1       2.635  -1.488   0.327  1.00  0.00     0.032 C 
HETATM    4  C9  UNL     1       3.853  -2.131   0.585  1.00  0.00     0.046 C 
BRANCH   4   5
HETATM    5  C8  UNL     1       4.941  -2.272  -0.398  1.00  0.00     0.100 C 
BRANCH   5   6
HETATM    6  C7  UNL     1       6.230  -2.082   0.426  1.00  0.00     0.146 C 
BRANCH   6   7
HETATM    7  C6  UNL     1       7.498  -2.244  -0.290  1.00  0.00     0.003 C 
HETATM    8  C5  UNL     1       8.580  -1.730   0.341  1.00  0.00     0.004 C 
BRANCH   8   9
HETATM    9  C4  UNL     1       9.929  -1.832  -0.272  1.00  0.00     0.206 C 
BRANCH   9  10
HETATM   10  C3  UNL     1      10.826  -0.785   0.326  1.00  0.00     0.038 C 
BRANCH  10  11
HETATM   11  C2  UNL     1      10.560   0.607  -0.080  1.00  0.00     0.029 C 
BRANCH  11  12
HETATM   12  C1  UNL     1       9.225   1.192   0.206  1.00  0.00     0.230 C 
BRANCH  12  13
HETATM   13  N1  UNL     1       9.263   2.587  -0.254  1.00  0.00    -0.079 N 
ATOM     14  H13 UNL     1      10.031   3.122   0.151  1.00  0.00     0.274 HD
ATOM     15  H12 UNL     1       9.541   2.680  -1.231  1.00  0.00     0.274 HD
ATOM     16  H11 UNL     1       8.346   2.989  -0.058  1.00  0.00     0.274 HD
ENDBRANCH  12  13
ENDBRANCH  11  12
ENDBRANCH  10  11
ENDBRANCH   9  10
BRANCH   9  17
HETATM   17  N2  UNL     1      10.430  -3.143   0.247  1.00  0.00    -0.072 N 
ATOM     18  H23 UNL     1      11.421  -3.302   0.065  1.00  0.00     0.275 HD
ATOM     19  H22 UNL     1      10.484  -3.185   1.265  1.00  0.00     0.275 HD
ATOM     20  H21 UNL     1       9.821  -3.854  -0.159  1.00  0.00     0.275 HD
ENDBRANCH   9  17
ENDBRANCH   8   9
ENDBRANCH   6   7
BRANCH   6  21
HETATM   21  O1  UNL     1       6.118  -0.666   0.768  1.00  0.00    -0.391 OA
ATOM     22  H1  UNL     1       5.296  -0.561   1.232  1.00  0.00     0.210 HD
ENDBRANCH   6  21
ENDBRANCH   5   6
ENDBRANCH   4   5
BRANCH   4  23
HETATM   23  O2  UNL     1       3.863  -3.153   1.572  1.00  0.00    -0.365 OA
ATOM     24  H2  UNL     1       3.161  -3.062   2.206  1.00  0.00     0.217 HD
ENDBRANCH   4  23
ENDBRANCH   2   3
ENDBRANCH   1   2
BRANCH   1  25
HETATM   25  C13 UNL     1       0.050   0.529  -1.097  1.00  0.00     0.048 C 
BRANCH  25  26
HETATM   26  C14 UNL     1      -1.360   0.810  -0.683  1.00  0.00     0.107 A 
HETATM   27  N3  UNL     1      -2.416   1.328  -1.287  1.00  0.00    -0.342 N 
HETATM   28  C15 UNL     1      -3.421   1.545  -0.449  1.00  0.00     0.069 A 
ATOM     29  H3  UNL     1      -2.454   1.537  -2.285  1.00  0.00     0.167 HD
HETATM   30  C25 UNL     1      -2.968   1.128   0.812  1.00  0.00     0.165 A 
HETATM   31  N8  UNL     1      -1.715   0.681   0.646  1.00  0.00    -0.322 N 
ATOM     32  H8  UNL     1      -1.119   0.305   1.383  1.00  0.00     0.169 HD
BRANCH  28  33
HETATM   33  C16 UNL     1      -4.802   2.101  -0.538  1.00  0.00     0.143 C 
BRANCH  33  34
HETATM   34  C17 UNL     1      -5.743   1.033  -0.256  1.00  0.00     0.169 C 
HETATM   35  O3  UNL     1      -5.286  -0.125  -0.197  1.00  0.00    -0.294 OA
BRANCH  34  36
HETATM   36  C18 UNL     1      -7.212   1.137  -0.014  1.00  0.00     0.253 C 
BRANCH  36  37
HETATM   37  C19 UNL     1      -7.900   2.049  -0.980  1.00  0.00     0.169 C 
BRANCH  37  38
HETATM   38  N4  UNL     1      -9.355   2.112  -0.716  1.00  0.00    -0.387 N 
HETATM   39  C20 UNL     1     -10.321   1.609  -1.625  1.00  0.00     0.081 C 
HETATM   40  C21 UNL     1     -11.496   1.561  -1.036  1.00  0.00    -0.008 C 
HETATM   41  C22 UNL     1     -11.423   2.043   0.346  1.00  0.00     0.048 C 
HETATM   42  C23 UNL     1     -10.044   2.642   0.412  1.00  0.00     0.126 C 
ENDBRANCH  37  38
ENDBRANCH  36  37
BRANCH  36  43
HETATM   43  N5  UNL     1      -7.809  -0.068   0.117  1.00  0.00    -0.406 NA
HETATM   44  C24 UNL     1      -8.348  -1.108   0.238  1.00  0.00     0.270 C 
HETATM   45  N6  UNL     1      -7.641  -2.330  -0.068  1.00  0.00    -0.053 NA
HETATM   46  N7  UNL     1      -9.697  -1.326   0.707  1.00  0.00    -0.053 NA
ENDBRANCH  36  43
ENDBRANCH  34  36
ENDBRANCH  33  34
ENDBRANCH  28  33
BRANCH  30  47
HETATM   47  O4  UNL     1      -3.654   1.153   2.001  1.00  0.00    -0.345 OA
ATOM     48  H4  UNL     1      -3.347   0.871   2.855  1.00  0.00     0.219 HD
ENDBRANCH  30  47
ENDBRANCH  25  26
ENDBRANCH   1  25
TORSDOF 22
