REMARK  18 active torsions:
REMARK  status: ('A' for Active; 'I' for Inactive)
REMARK    1  A    between atoms: C2_2  and  C3_4 
REMARK    2  A    between atoms: C3_4  and  C4_5 
REMARK    3  A    between atoms: C3_4  and  N2_9 
REMARK    4  A    between atoms: C4_5  and  C5_6 
REMARK    5  A    between atoms: N2_9  and  C6_12 
REMARK    6  A    between atoms: C6_12  and  C8_14 
REMARK    7  A    between atoms: C8_14  and  N3_15 
REMARK    8  A    between atoms: C8_14  and  C19_38 
REMARK    9  A    between atoms: N3_15  and  C9_17 
REMARK   10  A    between atoms: C9_17  and  C10_18 
REMARK   11  A    between atoms: C9_17  and  C11_20 
REMARK   12  A    between atoms: C11_20  and  C12_22 
REMARK       I    between atoms: C12_22  and  N4_24 
REMARK   13  A    between atoms: N4_24  and  C13_26 
REMARK   14  A    between atoms: C13_26  and  C14_27 
REMARK   15  A    between atoms: C13_26  and  C18_31 
REMARK   16  A    between atoms: C14_27  and  C15_28 
REMARK   17  A    between atoms: C18_31  and  N5_32 
REMARK   18  A    between atoms: C18_31  and  O6_36 
ROOT
HETATM    1  N3  UNL     1      -0.503  -1.015   1.252  1.00  0.00    -0.399 N 
ATOM      2  H3  UNL     1      -0.438  -0.836   2.254  1.00  0.00     0.154 HD
ENDROOT
BRANCH   1   3
HETATM    3  C8  UNL     1      -1.818  -1.014   0.882  1.00  0.00     0.112 C 
BRANCH   3   4
HETATM    4  C6  UNL     1      -2.290   0.115  -0.049  1.00  0.00     0.205 C 
HETATM    5  C7  UNL     1      -1.721  -0.071  -1.469  1.00  0.00     0.042 C 
BRANCH   4   6
HETATM    6  N2  UNL     1      -3.721   0.151  -0.224  1.00  0.00    -0.058 N 
ATOM      7  H22 UNL     1      -4.206   0.126   0.673  1.00  0.00     0.278 HD
ATOM      8  H21 UNL     1      -4.069  -0.723  -0.618  1.00  0.00     0.278 HD
BRANCH   6   9
HETATM    9  C3  UNL     1      -4.140   1.299  -1.023  1.00  0.00     0.263 C 
BRANCH   9  10
HETATM   10  C2  UNL     1      -3.872   2.601  -0.355  1.00  0.00     0.154 C 
HETATM   11  C1  UNL     1      -3.880   3.925  -1.002  1.00  0.00     0.093 C 
HETATM   12  O1  UNL     1      -3.616   2.596   0.855  1.00  0.00    -0.296 OA
ENDBRANCH   9  10
BRANCH   9  13
HETATM   13  C4  UNL     1      -5.671   1.176  -1.067  1.00  0.00     0.140 C 
BRANCH  13  14
HETATM   14  C5  UNL     1      -6.308   2.233  -1.821  1.00  0.00     0.233 C 
HETATM   15  N1  UNL     1      -7.377   3.000  -1.257  1.00  0.00    -0.062 NA
HETATM   16  O2  UNL     1      -5.973   2.547  -3.009  1.00  0.00    -0.277 OA
ENDBRANCH  13  14
ENDBRANCH   9  13
ENDBRANCH   6   9
ENDBRANCH   4   6
ENDBRANCH   3   4
BRANCH   3  17
HETATM   17  C19 UNL     1      -2.333  -2.312   0.275  1.00  0.00     0.010 C 
HETATM   18  C20 UNL     1      -1.922  -3.561   0.997  1.00  0.00     0.007 C 
HETATM   19  C21 UNL     1      -2.245  -4.712   0.015  1.00  0.00     0.000 C 
HETATM   20  C22 UNL     1      -3.719  -4.808  -0.210  1.00  0.00     0.000 C 
HETATM   21  C23 UNL     1      -4.373  -3.781   0.651  1.00  0.00     0.000 C 
HETATM   22  C24 UNL     1      -3.848  -2.358   0.399  1.00  0.00     0.007 C 
ENDBRANCH   3  17
ENDBRANCH   1   3
BRANCH   1  23
HETATM   23  C9  UNL     1       0.739  -1.171   0.749  1.00  0.00     0.219 C 
BRANCH  23  24
HETATM   24  C10 UNL     1       1.540  -2.102   1.639  1.00  0.00     0.264 C 
HETATM   25  O3  UNL     1       1.118  -2.357   2.744  1.00  0.00    -0.304 OA
ENDBRANCH  23  24
BRANCH  23  26
HETATM   26  C11 UNL     1       1.632   0.005   0.565  1.00  0.00     0.245 C 
HETATM   27  O4  UNL     1       1.196   1.062  -0.016  1.00  0.00    -0.284 OA
BRANCH  26  28
HETATM   28  C12 UNL     1       3.006   0.138   0.965  1.00  0.00     0.290 C 
HETATM   29  O5  UNL     1       3.546  -0.654   1.766  1.00  0.00    -0.264 OA
HETATM   30  N4  UNL     1       3.844   1.217   0.440  1.00  0.00    -0.346 N 
ATOM     31  H4  UNL     1       3.457   1.880  -0.232  1.00  0.00     0.163 HD
BRANCH  30  32
HETATM   32  C13 UNL     1       5.205   1.347   0.865  1.00  0.00     0.141 C 
BRANCH  32  33
HETATM   33  C14 UNL     1       6.136   0.384   0.177  1.00  0.00     0.033 C 
BRANCH  33  34
HETATM   34  C15 UNL     1       6.227   0.417  -1.291  1.00  0.00    -0.021 C 
HETATM   35  C16 UNL     1       6.694   1.667  -1.951  1.00  0.00     0.009 C 
HETATM   36  C17 UNL     1       7.213  -0.698  -1.698  1.00  0.00     0.009 C 
ENDBRANCH  33  34
ENDBRANCH  32  33
BRANCH  32  37
HETATM   37  C18 UNL     1       5.766   2.705   0.929  1.00  0.00     0.339 C 
BRANCH  37  38
HETATM   38  N5  UNL     1       5.018   3.613   1.780  1.00  0.00    -0.051 N 
ATOM     39  H53 UNL     1       4.038   3.643   1.498  1.00  0.00     0.277 HD
ATOM     40  H52 UNL     1       4.916   3.223   2.717  1.00  0.00     0.277 HD
ATOM     41  H51 UNL     1       5.407   4.555   1.824  1.00  0.00     0.277 HD
ENDBRANCH  37  38
BRANCH  37  42
HETATM   42  O6  UNL     1       7.092   2.637   1.381  1.00  0.00    -0.368 OA
ATOM     43  H6  UNL     1       7.454   3.514   1.422  1.00  0.00     0.212 HD
ENDBRANCH  37  42
ENDBRANCH  32  37
ENDBRANCH  30  32
ENDBRANCH  26  28
ENDBRANCH  23  26
ENDBRANCH   1  23
TORSDOF 18
