REMARK  1 active torsions:
REMARK  status: ('A' for Active; 'I' for Inactive)
REMARK    1  A    between atoms: N1_1  and  C1_5 
ROOT
HETATM    1  C1  UNL     1       1.108   0.165  -0.412  1.00  0.00     0.255 C 
HETATM    2  C2  UNL     1       0.018  -0.774  -0.784  1.00  0.00     0.284 C 
HETATM    3  C3  UNL     1      -0.878  -1.255   0.326  1.00  0.00     0.273 C 
HETATM    4  N2  UNL     1      -1.380  -0.045   0.894  1.00  0.00    -0.039 N 
ATOM      5  H21 UNL     1      -0.935   0.183   1.783  1.00  0.00     0.279 HD
ATOM      6  H22 UNL     1      -2.336  -0.142   1.236  1.00  0.00     0.279 HD
HETATM    7  C4  UNL     1      -1.247   1.008  -0.072  1.00  0.00     0.456 A 
HETATM    8  C5  UNL     1       0.097   1.281  -0.575  1.00  0.00     0.319 A 
HETATM    9  N3  UNL     1      -0.749   0.331  -1.315  1.00  0.00     0.141 N 
ENDROOT
BRANCH   1  10
HETATM   10  N1  UNL     1       1.633  -0.003   0.915  1.00  0.00    -0.071 N 
ATOM     11  H13 UNL     1       0.879   0.046   1.600  1.00  0.00     0.274 HD
ATOM     12  H12 UNL     1       1.938  -0.967   1.053  1.00  0.00     0.274 HD
ATOM     13  H11 UNL     1       2.381   0.642   1.170  1.00  0.00     0.274 HD
ENDBRANCH   1  10
TORSDOF 1
