REMARK  7 active torsions:
REMARK  status: ('A' for Active; 'I' for Inactive)
REMARK    1  A    between atoms: C1_2  and  N1_3 
REMARK    2  A    between atoms: C1_2  and  N4_15 
REMARK    3  A    between atoms: N1_3  and  C2_5 
REMARK    4  A    between atoms: C2_5  and  C3_6 
REMARK    5  A    between atoms: C3_6  and  N2_7 
REMARK    6  A    between atoms: N4_15  and  C8_17 
REMARK    7  A    between atoms: C8_17  and  C9_18 
ROOT
HETATM    1  N1  UNL     1       0.661   0.791  -0.069  1.00  0.00    -0.366 N 
ATOM      2  H1  UNL     1       0.602  -0.013  -0.694  1.00  0.00     0.161 HD
ENDROOT
BRANCH   1   3
HETATM    3  C1  UNL     1       1.815   1.033   0.703  1.00  0.00     0.167 C 
HETATM    4  S1  UNL     1       1.898   2.344   1.693  1.00  0.00    -0.041 SA
BRANCH   3   5
HETATM    5  N4  UNL     1       2.915   0.128   0.609  1.00  0.00    -0.367 N 
ATOM      6  H4  UNL     1       3.746   0.290   1.178  1.00  0.00     0.161 HD
BRANCH   5   7
HETATM    7  C8  UNL     1       2.876  -1.009  -0.273  1.00  0.00     0.126 C 
BRANCH   7   8
HETATM    8  C9  UNL     1       4.081  -1.873  -0.066  1.00  0.00     0.003 A 
HETATM    9  C10 UNL     1       5.429  -1.230  -0.283  1.00  0.00     0.007 A 
HETATM   10  C11 UNL     1       4.996  -1.716   1.062  1.00  0.00     0.007 A 
ENDBRANCH   7   8
ENDBRANCH   5   7
ENDBRANCH   3   5
ENDBRANCH   1   3
BRANCH   1  11
HETATM   11  C2  UNL     1      -0.434   1.722   0.056  1.00  0.00     0.141 C 
BRANCH  11  12
HETATM   12  C3  UNL     1      -1.631   1.395  -0.753  1.00  0.00     0.136 C 
BRANCH  12  13
HETATM   13  N2  UNL     1      -2.277   0.168  -0.483  1.00  0.00    -0.408 N 
HETATM   14  C4  UNL     1      -3.477  -0.087  -1.206  1.00  0.00     0.144 C 
HETATM   15  C5  UNL     1      -4.665   0.417  -0.385  1.00  0.00     0.251 C 
HETATM   16  N3  UNL     1      -4.622   0.022   0.984  1.00  0.00    -0.072 N 
HETATM   17  C6  UNL     1      -3.379   0.441   1.604  1.00  0.00     0.251 C 
ATOM     18  H32 UNL     1      -5.434   0.361   1.500  1.00  0.00     0.277 HD
ATOM     19  H31 UNL     1      -4.778  -0.980   1.092  1.00  0.00     0.277 HD
HETATM   20  C7  UNL     1      -2.265  -0.295   0.853  1.00  0.00     0.144 C 
ENDBRANCH  12  13
ENDBRANCH  11  12
ENDBRANCH   1  11
TORSDOF 7
