REMARK  6 active torsions:
REMARK  status: ('A' for Active; 'I' for Inactive)
REMARK    1  A    between atoms: C2_2  and  N1_3 
REMARK    2  A    between atoms: N1_3  and  C3_4 
REMARK    3  A    between atoms: C3_4  and  C4_5 
REMARK    4  A    between atoms: C4_5  and  O1_6 
REMARK    5  A    between atoms: O1_6  and  N2_7 
REMARK    6  A    between atoms: C10_15  and  O3_16 
ROOT
HETATM    1  N1  UNL     1      -1.644  -0.269   0.022  1.00  0.00    -0.063 N 
HETATM    2  C8  UNL     1      -1.481   0.580  -1.119  1.00  0.00     0.240 C 
HETATM    3  C9  UNL     1      -2.440   1.747  -0.959  1.00  0.00     0.061 C 
HETATM    4  C10 UNL     1      -3.567   1.118  -0.162  1.00  0.00     0.145 C 
HETATM    5  C11 UNL     1      -2.802   0.221   0.768  1.00  0.00     0.269 C 
ENDROOT
BRANCH   1   6
HETATM    6  C2  UNL     1      -1.827  -1.620  -0.443  1.00  0.00     0.233 C 
HETATM    7  C1  UNL     1      -3.188  -1.882  -1.024  1.00  0.00     0.035 C 
ENDBRANCH   1   6
BRANCH   1   8
HETATM    8  C3  UNL     1      -0.548  -0.251   0.949  1.00  0.00     0.266 C 
BRANCH   8   9
HETATM    9  C4  UNL     1       0.783   0.082   0.348  1.00  0.00     0.248 C 
BRANCH   9  10
HETATM   10  O1  UNL     1       1.731  -0.242   1.332  1.00  0.00    -0.130 OA
BRANCH  10  11
HETATM   11  N2  UNL     1       2.986  -0.201   0.903  1.00  0.00     0.253 N 
HETATM   12  O2  UNL     1       3.803  -0.181   1.988  1.00  0.00    -0.016 OA
HETATM   13  C5  UNL     1       3.326   0.948   0.109  1.00  0.00     0.381 C 
HETATM   14  C6  UNL     1       4.779   0.634  -0.230  1.00  0.00     0.060 C 
HETATM   15  C7  UNL     1       4.748  -0.891  -0.216  1.00  0.00     0.157 C 
HETATM   16  N3  UNL     1       3.360  -1.249   0.074  1.00  0.00     0.045 NA
ENDBRANCH  10  11
ENDBRANCH   9  10
ENDBRANCH   8   9
ENDBRANCH   1   8
BRANCH   4  17
HETATM   17  O3  UNL     1      -4.242   2.055   0.621  1.00  0.00    -0.394 OA
ATOM     18  H3  UNL     1      -4.948   1.661   1.120  1.00  0.00     0.210 HD
ENDBRANCH   4  17
TORSDOF 6
