REMARK  17 active torsions:
REMARK  status: ('A' for Active; 'I' for Inactive)
REMARK    1  A    between atoms: O1_2  and  C2_3 
REMARK       I    between atoms: C2_3  and  N1_5 
REMARK    2  A    between atoms: N1_5  and  N2_7 
REMARK    3  A    between atoms: N2_7  and  C3_8 
REMARK    4  A    between atoms: C3_8  and  O3_9 
REMARK    5  A    between atoms: C3_8  and  N3_11 
REMARK    6  A    between atoms: N3_11  and  N4_12 
REMARK    7  A    between atoms: N3_11  and  C6_16 
REMARK       I    between atoms: N4_12  and  C4_13 
REMARK    8  A    between atoms: C7_21  and  C8_22 
REMARK    9  A    between atoms: C8_22  and  C9_23 
REMARK   10  A    between atoms: C8_22  and  C20_48 
REMARK   11  A    between atoms: C9_23  and  N7_24 
REMARK   12  A    between atoms: C11_30  and  C12_31 
REMARK   13  A    between atoms: C12_31  and  O5_32 
REMARK   14  A    between atoms: C12_31  and  N10_34 
REMARK   15  A    between atoms: N10_34  and  C13_36 
REMARK   16  A    between atoms: C15_40  and  C16_41 
REMARK   17  A    between atoms: C20_48  and  O10_50 
ROOT
HETATM    1  C8  UNL     1       0.165   0.925  -0.991  1.00  0.00     0.181 C 
ENDROOT
BRANCH   1   2
HETATM    2  C7  UNL     1      -0.711   0.148  -0.004  1.00  0.00     0.157 A 
HETATM    3  N6  UNL     1      -0.561  -0.112   1.270  1.00  0.00    -0.279 N 
HETATM    4  N5  UNL     1      -1.640  -0.841   1.648  1.00  0.00    -0.261 N 
ATOM      5  H6  UNL     1       0.217   0.178   1.863  1.00  0.00     0.189 HD
HETATM    6  C6  UNL     1      -2.452  -1.021   0.577  1.00  0.00     0.277 A 
ATOM      7  H5  UNL     1      -1.813  -1.197   2.588  1.00  0.00     0.190 HD
HETATM    8  O11 UNL     1      -1.809  -0.390  -0.392  1.00  0.00    -0.261 OA
BRANCH   6   9
HETATM    9  N3  UNL     1      -3.684  -1.682   0.411  1.00  0.00    -0.137 N 
BRANCH   9  10
HETATM   10  C3  UNL     1      -4.667  -1.361   1.506  1.00  0.00     0.376 C 
BRANCH  10  11
HETATM   11  N2  UNL     1      -5.834  -0.753   0.837  1.00  0.00    -0.081 NA
BRANCH  11  12
HETATM   12  N1  UNL     1      -6.705  -0.152   1.682  1.00  0.00    -0.245 N 
HETATM   13  C2  UNL     1      -7.682   0.730   1.118  1.00  0.00     0.376 C 
HETATM   14  O2  UNL     1      -7.725   0.939  -0.106  1.00  0.00    -0.237 OA
ATOM     15  H1  UNL     1      -6.666  -0.322   2.687  1.00  0.00     0.188 HD
BRANCH  13  16
HETATM   16  O1  UNL     1      -8.574   1.348   1.969  1.00  0.00    -0.308 OA
HETATM   17  C1  UNL     1      -9.574   2.249   1.457  1.00  0.00     0.215 C 
ENDBRANCH  13  16
ENDBRANCH  11  12
ENDBRANCH  10  11
BRANCH  10  18
HETATM   18  O3  UNL     1      -4.161  -0.365   2.321  1.00  0.00    -0.359 OA
ATOM     19  H3  UNL     1      -3.410  -0.756   2.752  1.00  0.00     0.213 HD
ENDBRANCH  10  18
ENDBRANCH   9  10
BRANCH   9  20
HETATM   20  N4  UNL     1      -4.121  -2.490  -0.538  1.00  0.00    -0.278 NA
HETATM   21  C4  UNL     1      -4.562  -3.308  -1.503  1.00  0.00     0.309 C 
HETATM   22  C5  UNL     1      -5.829  -4.203  -1.122  1.00  0.00     0.137 C 
HETATM   23  O4  UNL     1      -4.269  -3.583  -2.641  1.00  0.00    -0.256 OA
ENDBRANCH   9  20
ENDBRANCH   6   9
ENDBRANCH   1   2
BRANCH   1  24
HETATM   24  C9  UNL     1       0.973   1.907  -0.259  1.00  0.00     0.162 C 
BRANCH  24  25
HETATM   25  N7  UNL     1       1.862   2.636  -1.177  1.00  0.00    -0.296 N 
HETATM   26  S1  UNL     1       1.555   4.106  -1.974  1.00  0.00     0.071 SA
HETATM   27  N8  UNL     1       2.950   4.301  -2.778  1.00  0.00    -0.299 N 
HETATM   28  C10 UNL     1       3.686   3.246  -2.450  1.00  0.00     0.155 A 
ATOM     29  H8  UNL     1       3.206   5.068  -3.400  1.00  0.00     0.177 HD
HETATM   30  N9  UNL     1       5.015   3.152  -3.037  1.00  0.00    -0.080 NA
HETATM   31  C11 UNL     1       3.118   2.332  -1.582  1.00  0.00     0.135 A 
BRANCH  31  32
HETATM   32  C12 UNL     1       3.869   1.187  -1.119  1.00  0.00     0.168 C 
BRANCH  32  33
HETATM   33  O5  UNL     1       5.072   1.062  -1.616  1.00  0.00    -0.344 OA
ATOM     34  H5  UNL     1       5.566   0.309  -1.312  1.00  0.00     0.219 HD
ENDBRANCH  32  33
BRANCH  32  35
HETATM   35  N10 UNL     1       3.603   0.136  -0.211  1.00  0.00    -0.353 N 
ATOM     36  H10 UNL     1       2.722   0.031   0.293  1.00  0.00     0.162 HD
BRANCH  35  37
HETATM   37  C13 UNL     1       4.794  -0.834  -0.068  1.00  0.00     0.210 C 
HETATM   38  C14 UNL     1       4.699  -1.686   1.045  1.00  0.00     0.251 C 
HETATM   39  O6  UNL     1       3.853  -2.545   1.523  1.00  0.00    -0.271 OA
HETATM   40  N11 UNL     1       5.956  -1.286   1.547  1.00  0.00    -0.294 N 
HETATM   41  C15 UNL     1       7.118  -1.493   2.356  1.00  0.00     0.112 C 
HETATM   42  C19 UNL     1       5.837  -0.050   0.768  1.00  0.00     0.187 C 
HETATM   43  C17 UNL     1       8.336  -1.274   1.916  1.00  0.00     0.020 C 
HETATM   44  C18 UNL     1       8.665  -0.797   0.549  1.00  0.00     0.105 C 
HETATM   45  S2  UNL     1       7.368   0.201  -0.181  1.00  0.00    -0.137 SA
BRANCH  41  46
HETATM   46  C16 UNL     1       6.948  -1.979   3.713  1.00  0.00     0.226 C 
HETATM   47  O7  UNL     1       5.796  -2.190   4.176  1.00  0.00    -0.643 OA
HETATM   48  O8  UNL     1       8.048  -2.207   4.506  1.00  0.00    -0.643 OA
ENDBRANCH  41  46
ENDBRANCH  35  37
ENDBRANCH  32  35
ENDBRANCH  31  32
ENDBRANCH  24  25
ENDBRANCH   1  24
BRANCH   1  49
HETATM   49  C20 UNL     1      -0.890   1.620  -1.842  1.00  0.00     0.272 C 
HETATM   50  O9  UNL     1      -0.987   2.826  -1.855  1.00  0.00    -0.264 OA
BRANCH  49  51
HETATM   51  O10 UNL     1      -1.749   0.833  -2.595  1.00  0.00    -0.326 OA
HETATM   52  C21 UNL     1      -2.750   1.482  -3.372  1.00  0.00     0.213 C 
ENDBRANCH  49  51
ENDBRANCH   1  49
TORSDOF 17
