REMARK  15 active torsions:
REMARK  status: ('A' for Active; 'I' for Inactive)
REMARK    1  A    between atoms: O1_2  and  C2_3 
REMARK    2  A    between atoms: C2_3  and  O2_4 
REMARK    3  A    between atoms: N1_9  and  C5_10 
REMARK    4  A    between atoms: C6_16  and  C7_17 
REMARK    5  A    between atoms: C7_17  and  O4_18 
REMARK    6  A    between atoms: C7_17  and  N4_20 
REMARK    7  A    between atoms: N4_20  and  C8_22 
REMARK    8  A    between atoms: C9_23  and  N5_24 
REMARK       I    between atoms: N5_24  and  C10_26 
REMARK    9  A    between atoms: C10_26  and  C11_28 
REMARK   10  A    between atoms: C14_34  and  C15_35 
REMARK   11  A    between atoms: N7_41  and  C18_42 
REMARK   12  A    between atoms: C18_42  and  O10_43 
REMARK   13  A    between atoms: C18_42  and  C19_45 
REMARK   14  A    between atoms: C19_45  and  O11_46 
REMARK   15  A    between atoms: C20_48  and  C21_49 
ROOT
HETATM    1  C5  UNL     1       2.069   1.516  -1.823  1.00  0.00     0.179 A 
HETATM    2  N2  UNL     1       2.888   1.677  -2.881  1.00  0.00    -0.222 N 
ATOM      3  H2  UNL     1       3.899   1.546  -2.891  1.00  0.00     0.198 HD
HETATM    4  O3  UNL     1       2.151   2.028  -3.877  1.00  0.00    -0.155 OA
HETATM    5  N3  UNL     1       0.902   2.110  -3.550  1.00  0.00    -0.238 N 
ATOM      6  H3  UNL     1       0.131   2.369  -4.165  1.00  0.00     0.196 HD
HETATM    7  C6  UNL     1       0.812   1.790  -2.248  1.00  0.00     0.129 A 
ENDROOT
BRANCH   7   8
HETATM    8  C7  UNL     1      -0.494   1.754  -1.471  1.00  0.00     0.271 C 
BRANCH   8   9
HETATM    9  O4  UNL     1      -1.119   2.934  -1.817  1.00  0.00    -0.371 OA
ATOM     10  H4  UNL     1      -1.935   2.912  -1.331  1.00  0.00     0.212 HD
ENDBRANCH   8   9
BRANCH   8  11
HETATM   11  N4  UNL     1      -1.170   0.614  -1.906  1.00  0.00    -0.382 N 
ATOM     12  H4  UNL     1      -0.711   0.057  -2.627  1.00  0.00     0.156 HD
BRANCH  11  13
HETATM   13  C8  UNL     1      -2.383   0.166  -1.467  1.00  0.00     0.144 C 
HETATM   14  C9  UNL     1      -2.498  -0.130   0.024  1.00  0.00     0.202 C 
HETATM   15  C13 UNL     1      -3.259   1.081   0.517  1.00  0.00     0.246 C 
HETATM   16  O7  UNL     1      -3.166   1.513   1.691  1.00  0.00    -0.271 OA
HETATM   17  N6  UNL     1      -4.045   1.593  -0.544  1.00  0.00    -0.319 N 
HETATM   18  C14 UNL     1      -5.043   2.569  -0.840  1.00  0.00     0.199 C 
HETATM   19  C17 UNL     1      -3.679   0.803  -1.728  1.00  0.00     0.175 C 
HETATM   20  C16 UNL     1      -4.689   3.318  -2.079  1.00  0.00     0.112 C 
HETATM   21  S3  UNL     1      -3.730   2.063  -3.016  1.00  0.00    -0.139 SA
BRANCH  14  22
HETATM   22  N5  UNL     1      -3.358  -1.258   0.276  1.00  0.00    -0.339 N 
HETATM   23  C10 UNL     1      -2.928  -2.290   1.143  1.00  0.00     0.287 C 
HETATM   24  O5  UNL     1      -1.795  -2.200   1.680  1.00  0.00    -0.264 OA
ATOM     25  H5  UNL     1      -4.274  -1.312  -0.169  1.00  0.00     0.163 HD
BRANCH  23  26
HETATM   26  C11 UNL     1      -3.733  -3.457   1.446  1.00  0.00     0.212 C 
HETATM   27  C12 UNL     1      -3.244  -4.509   2.358  1.00  0.00     0.102 C 
HETATM   28  O6  UNL     1      -4.863  -3.576   0.927  1.00  0.00    -0.288 OA
ENDBRANCH  23  26
ENDBRANCH  14  22
BRANCH  18  29
HETATM   29  C15 UNL     1      -6.411   2.004  -0.871  1.00  0.00     0.197 C 
HETATM   30  O8  UNL     1      -7.381   2.759  -1.118  1.00  0.00    -0.646 OA
HETATM   31  O9  UNL     1      -6.691   0.668  -0.639  1.00  0.00    -0.646 OA
ENDBRANCH  18  29
ENDBRANCH  11  13
ENDBRANCH   8  11
ENDBRANCH   7   8
BRANCH   1  32
HETATM   32  N1  UNL     1       2.498   1.149  -0.506  1.00  0.00    -0.217 N 
HETATM   33  C4  UNL     1       2.685   2.236   0.387  1.00  0.00     0.167 C 
HETATM   34  S1  UNL     1       3.491   1.893   1.946  1.00  0.00    -0.028 SA
HETATM   35  S2  UNL     1       2.230   3.764   0.101  1.00  0.00    -0.050 SA
HETATM   36  C2  UNL     1       4.335   0.276   1.569  1.00  0.00     0.256 C 
HETATM   37  C20 UNL     1       3.210  -0.557   1.003  1.00  0.00     0.280 C 
HETATM   38  N7  UNL     1       2.701  -0.161  -0.236  1.00  0.00    -0.266 N 
BRANCH  36  39
HETATM   39  O1  UNL     1       5.320   0.618   0.673  1.00  0.00    -0.349 OA
HETATM   40  C1  UNL     1       6.157  -0.385   0.272  1.00  0.00     0.206 C 
ENDBRANCH  36  39
BRANCH  36  41
HETATM   41  O2  UNL     1       4.825  -0.248   2.762  1.00  0.00    -0.349 OA
HETATM   42  C3  UNL     1       5.630   0.682   3.374  1.00  0.00     0.206 C 
ENDBRANCH  36  41
BRANCH  37  43
HETATM   43  C21 UNL     1       2.179  -0.633   2.091  1.00  0.00     0.205 C 
HETATM   44  O12 UNL     1       0.987  -0.286   1.962  1.00  0.00    -0.646 OA
HETATM   45  O13 UNL     1       2.561  -1.121   3.336  1.00  0.00    -0.646 OA
ENDBRANCH  37  43
BRANCH  38  46
HETATM   46  C18 UNL     1       2.074  -1.134  -1.028  1.00  0.00     0.261 C 
BRANCH  46  47
HETATM   47  O10 UNL     1       0.975  -1.780  -0.449  1.00  0.00    -0.373 OA
ATOM     48  H10 UNL     1       0.550  -2.439  -0.985  1.00  0.00     0.212 HD
ENDBRANCH  46  47
BRANCH  46  49
HETATM   49  C19 UNL     1       3.009  -2.244  -1.455  1.00  0.00     0.219 C 
BRANCH  49  50
HETATM   50  O11 UNL     1       2.239  -3.118  -2.237  1.00  0.00    -0.397 OA
ATOM     51  H11 UNL     1       2.826  -3.815  -2.505  1.00  0.00     0.209 HD
ENDBRANCH  49  50
ENDBRANCH  46  49
ENDBRANCH  38  46
ENDBRANCH   1  32
TORSDOF 15
