REMARK  4 active torsions:
REMARK  status: ('A' for Active; 'I' for Inactive)
REMARK    1  A    between atoms: N4_12  and  C5_13 
REMARK    2  A    between atoms: C5_13  and  C6_14 
REMARK    3  A    between atoms: C7_17  and  N6_18 
REMARK       I    between atoms: N6_18  and  C8_20 
REMARK       I    between atoms: C8_20  and  N7_22 
REMARK    4  A    between atoms: N7_22  and  N8_24 
ROOT
HETATM    1  N1  UNL     1      -3.289  -0.181   0.832  1.00  0.00    -0.234 N 
ATOM      2  H11 UNL     1      -2.899   0.761   0.822  1.00  0.00     0.174 HD
ATOM      3  H12 UNL     1      -4.258  -0.073   1.132  1.00  0.00     0.174 HD
HETATM    4  C1  UNL     1      -2.673  -1.273   0.527  1.00  0.00     0.698 A 
HETATM    5  N2  UNL     1      -3.196  -2.537   0.540  1.00  0.00    -0.198 N 
ATOM      6  H2  UNL     1      -4.153  -2.779   0.796  1.00  0.00     0.183 HD
HETATM    7  C2  UNL     1      -2.249  -3.405   0.162  1.00  0.00     0.156 A 
HETATM    8  C3  UNL     1      -1.092  -2.680  -0.100  1.00  0.00     0.164 A 
HETATM    9  N3  UNL     1       0.120  -3.099  -0.508  1.00  0.00    -0.335 N 
ATOM     10  H3  UNL     1       0.310  -4.087  -0.677  1.00  0.00     0.168 HD
HETATM   11  C4  UNL     1       1.061  -2.174  -0.683  1.00  0.00     0.203 A 
HETATM   12  N4  UNL     1       0.810  -0.852  -0.460  1.00  0.00    -0.170 N 
HETATM   13  C7  UNL     1      -0.405  -0.444  -0.054  1.00  0.00     0.712 A 
HETATM   14  N9  UNL     1      -1.393  -1.416   0.131  1.00  0.00     0.040 N 
ENDROOT
BRANCH  13  15
HETATM   15  N6  UNL     1      -0.743   0.709   0.163  1.00  0.00    -0.139 N 
HETATM   16  C8  UNL     1      -0.396   1.997   0.187  1.00  0.00     0.352 C 
HETATM   17  O2  UNL     1       0.167   2.537   1.215  1.00  0.00    -0.245 OA
HETATM   18  N7  UNL     1      -0.603   2.923  -0.897  1.00  0.00    -0.258 N 
ATOM     19  H7  UNL     1      -1.042   2.600  -1.759  1.00  0.00     0.191 HD
ATOM     20  H6  UNL     1      -1.720   0.671   0.454  1.00  0.00     0.189 HD
BRANCH  18  21
HETATM   21  N8  UNL     1      -0.211   4.253  -0.782  1.00  0.00    -0.341 N 
ATOM     22  H82 UNL     1       0.227   4.560   0.087  1.00  0.00     0.177 HD
ATOM     23  H81 UNL     1      -0.358   4.909  -1.550  1.00  0.00     0.177 HD
ENDBRANCH  18  21
ENDBRANCH  13  15
BRANCH  12  24
HETATM   24  C5  UNL     1       1.938   0.039  -0.676  1.00  0.00     0.247 C 
BRANCH  24  25
HETATM   25  C6  UNL     1       2.758   0.174   0.564  1.00  0.00     0.249 C 
HETATM   26  N5  UNL     1       3.908   0.975   0.635  1.00  0.00    -0.061 NA
HETATM   27  O1  UNL     1       2.392  -0.464   1.585  1.00  0.00    -0.275 OA
ENDBRANCH  24  25
ENDBRANCH  12  24
TORSDOF 4
