REMARK  14 active torsions:
REMARK  status: ('A' for Active; 'I' for Inactive)
REMARK    1  A    between atoms: O1_2  and  N1_3 
REMARK    2  A    between atoms: N1_3  and  C2_5 
REMARK    3  A    between atoms: C2_5  and  C3_6 
REMARK    4  A    between atoms: C2_5  and  C13_32 
REMARK       I    between atoms: C3_6  and  N2_8 
REMARK    5  A    between atoms: C6_13  and  N4_14 
REMARK    6  A    between atoms: N6_21  and  C8_22 
REMARK    7  A    between atoms: C8_22  and  O4_23 
REMARK    8  A    between atoms: C9_25  and  O5_26 
REMARK    9  A    between atoms: C11_28  and  C12_29 
REMARK   10  A    between atoms: C14_35  and  O8_36 
REMARK   11  A    between atoms: O8_36  and  S1_37 
REMARK   12  A    between atoms: N8_41  and  C15_42 
REMARK   13  A    between atoms: C18_45  and  S2_46 
REMARK   14  A    between atoms: S2_46  and  N9_47 
ROOT
HETATM    1  C2  UNL     1      -0.309   0.516  -0.245  1.00  0.00     0.168 C 
ENDROOT
BRANCH   1   2
HETATM    2  N1  UNL     1      -0.485   1.718  -0.590  1.00  0.00    -0.258 N 
ATOM      3  H1  UNL     1      -1.447   2.027  -0.729  1.00  0.00     0.194 HD
BRANCH   2   4
HETATM    4  O1  UNL     1       0.495   2.635  -0.792  1.00  0.00    -0.285 OA
HETATM    5  C1  UNL     1       0.914   3.092  -2.051  1.00  0.00     0.237 C 
ENDBRANCH   2   4
ENDBRANCH   1   2
BRANCH   1   6
HETATM    6  C3  UNL     1      -1.345  -0.448  -0.033  1.00  0.00     0.281 C 
HETATM    7  O2  UNL     1      -1.030  -1.656   0.291  1.00  0.00    -0.265 OA
HETATM    8  N2  UNL     1      -2.757  -0.170  -0.164  1.00  0.00    -0.285 N 
HETATM    9  C4  UNL     1      -3.633  -1.205  -0.587  1.00  0.00     0.152 A 
HETATM   10  C11 UNL     1      -3.246   1.103   0.241  1.00  0.00     0.243 C 
HETATM   11  C5  UNL     1      -4.916  -1.255  -0.086  1.00  0.00     0.155 A 
HETATM   12  C7  UNL     1      -3.223  -2.200  -1.460  1.00  0.00     0.290 A 
HETATM   13  N3  UNL     1      -5.766  -2.235  -0.413  1.00  0.00    -0.174 N 
HETATM   14  N6  UNL     1      -5.325  -0.143   0.744  1.00  0.00    -0.314 N 
HETATM   15  C6  UNL     1      -5.335  -3.182  -1.256  1.00  0.00     0.680 A 
ATOM     16  H3  UNL     1      -6.712  -2.260  -0.032  1.00  0.00     0.186 HD
HETATM   17  N5  UNL     1      -4.096  -3.172  -1.771  1.00  0.00    -0.154 N 
ATOM     18  H5  UNL     1      -3.812  -3.915  -2.409  1.00  0.00     0.187 HD
HETATM   19  C9  UNL     1      -4.744   1.139   0.473  1.00  0.00     0.259 C 
HETATM   20  O3  UNL     1      -2.096  -2.229  -1.964  1.00  0.00    -0.265 OA
BRANCH  15  21
HETATM   21  N4  UNL     1      -6.145  -4.139  -1.582  1.00  0.00    -0.234 N 
ATOM     22  H42 UNL     1      -7.087  -4.147  -1.191  1.00  0.00     0.174 HD
ATOM     23  H41 UNL     1      -5.817  -4.860  -2.224  1.00  0.00     0.174 HD
ENDBRANCH  15  21
BRANCH  14  24
HETATM   24  C8  UNL     1      -6.285  -0.350   1.774  1.00  0.00     0.294 C 
BRANCH  24  25
HETATM   25  O4  UNL     1      -5.787  -1.306   2.690  1.00  0.00    -0.382 OA
ATOM     26  H4  UNL     1      -6.428  -1.444   3.378  1.00  0.00     0.211 HD
ENDBRANCH  24  25
ENDBRANCH  14  24
BRANCH  19  27
HETATM   27  O5  UNL     1      -5.399   1.731  -0.614  1.00  0.00    -0.369 OA
HETATM   28  C10 UNL     1      -6.051   2.912  -0.261  1.00  0.00     0.204 C 
ENDBRANCH  19  27
BRANCH  10  29
HETATM   29  C12 UNL     1      -2.675   1.459   1.602  1.00  0.00     0.201 C 
HETATM   30  O6  UNL     1      -2.866   2.610   2.067  1.00  0.00    -0.646 OA
HETATM   31  O7  UNL     1      -1.948   0.564   2.363  1.00  0.00    -0.646 OA
ENDBRANCH  10  29
ENDBRANCH   1   6
BRANCH   1  32
HETATM   32  C13 UNL     1       1.093   0.068  -0.043  1.00  0.00     0.158 A 
HETATM   33  N7  UNL     1       1.513  -1.164   0.324  1.00  0.00    -0.302 N 
HETATM   34  C14 UNL     1       2.855  -1.199   0.408  1.00  0.00     0.266 A 
ATOM     35  H7  UNL     1       0.898  -1.956   0.511  1.00  0.00     0.171 HD
HETATM   36  N8  UNL     1       3.271   0.039   0.086  1.00  0.00    -0.217 N 
HETATM   37  N10 UNL     1       2.216   0.794  -0.183  1.00  0.00    -0.273 N 
ATOM     38  H10 UNL     1       2.250   1.776  -0.455  1.00  0.00     0.189 HD
BRANCH  34  39
HETATM   39  O8  UNL     1       3.669  -2.279   0.754  1.00  0.00    -0.177 OA
BRANCH  39  40
HETATM   40  S1  UNL     1       2.912  -3.756   1.124  1.00  0.00     0.259 S 
HETATM   41  O9  UNL     1       1.532  -3.508   1.699  1.00  0.00    -0.572 OA
HETATM   42  O10 UNL     1       3.709  -4.543   2.095  1.00  0.00    -0.572 OA
HETATM   43  O11 UNL     1       2.689  -4.578  -0.335  1.00  0.00    -0.572 OA
ENDBRANCH  39  40
ENDBRANCH  34  39
BRANCH  36  44
HETATM   44  C15 UNL     1       4.647   0.398   0.063  1.00  0.00     0.060 A 
HETATM   45  C16 UNL     1       5.191   1.006  -1.049  1.00  0.00     0.033 A 
HETATM   46  C17 UNL     1       6.539   1.366  -1.091  1.00  0.00     0.027 A 
HETATM   47  C18 UNL     1       7.371   1.124  -0.020  1.00  0.00     0.079 A 
HETATM   48  C19 UNL     1       6.837   0.518   1.092  1.00  0.00     0.027 A 
HETATM   49  C20 UNL     1       5.504   0.169   1.118  1.00  0.00     0.033 A 
BRANCH  47  50
HETATM   50  S2  UNL     1       9.054   1.593  -0.120  1.00  0.00     0.256 S 
HETATM   51  O12 UNL     1       9.555   1.975   1.254  1.00  0.00    -0.201 OA
HETATM   52  O13 UNL     1       9.130   2.772  -1.051  1.00  0.00    -0.201 OA
BRANCH  50  53
HETATM   53  N9  UNL     1      10.023   0.318  -0.767  1.00  0.00    -0.324 N 
ATOM     54  H92 UNL     1       9.647  -0.587  -1.050  1.00  0.00     0.169 HD
ATOM     55  H91 UNL     1      11.004   0.591  -0.825  1.00  0.00     0.169 HD
ENDBRANCH  50  53
ENDBRANCH  47  50
ENDBRANCH  36  44
ENDBRANCH   1  32
TORSDOF 14
