REMARK  20 active torsions:
REMARK  status: ('A' for Active; 'I' for Inactive)
REMARK    1  A    between atoms: O1_2  and  C2_3 
REMARK    2  A    between atoms: C2_3  and  C3_5 
REMARK    3  A    between atoms: C6_8  and  O3_9 
REMARK    4  A    between atoms: O3_9  and  C7_10 
REMARK    5  A    between atoms: C8_11  and  C9_12 
REMARK    6  A    between atoms: C9_12  and  O4_13 
REMARK    7  A    between atoms: C13_20  and  O7_21 
REMARK    8  A    between atoms: C14_23  and  O8_24 
REMARK    9  A    between atoms: O8_24  and  C15_25 
REMARK   10  A    between atoms: C15_25  and  C16_26 
REMARK   11  A    between atoms: C16_26  and  C17_27 
REMARK   12  A    between atoms: C17_27  and  C18_28 
REMARK   13  A    between atoms: C18_28  and  O9_30 
REMARK   14  A    between atoms: C20_33  and  C21_34 
REMARK   15  A    between atoms: C21_34  and  O11_35 
REMARK   16  A    between atoms: C21_34  and  C22_37 
REMARK   17  A    between atoms: C23_39  and  N1_40 
REMARK   18  A    between atoms: C24_44  and  C25_45 
REMARK   19  A    between atoms: C25_45  and  O14_47 
REMARK   20  A    between atoms: C27_50  and  O16_51 
ROOT
HETATM    1  C7  UNL     1       2.795   1.738  -1.304  1.00  0.00     0.195 C 
HETATM    2  C8  UNL     1       3.092   3.078  -0.599  1.00  0.00     0.180 C 
HETATM    3  O5  UNL     1       2.143   3.100   0.384  1.00  0.00    -0.348 OA
HETATM    4  C10 UNL     1       0.959   2.615  -0.181  1.00  0.00     0.298 C 
HETATM    5  O6  UNL     1       0.531   1.551   0.578  1.00  0.00    -0.339 OA
HETATM    6  C11 UNL     1      -0.188   0.721  -0.225  1.00  0.00     0.144 C 
HETATM    7  C12 UNL     1       0.437   0.806  -1.584  1.00  0.00     0.091 C 
HETATM    8  C13 UNL     1       1.326   1.978  -1.508  1.00  0.00     0.139 C 
HETATM    9  C14 UNL     1      -1.645   0.973  -0.157  1.00  0.00     0.297 C 
HETATM   10  O10 UNL     1      -2.133   0.221   0.918  1.00  0.00    -0.347 OA
HETATM   11  C20 UNL     1      -1.380  -0.943   0.948  1.00  0.00     0.190 C 
HETATM   12  C27 UNL     1      -0.106  -0.736   0.206  1.00  0.00     0.189 C 
ENDROOT
BRANCH   9  13
HETATM   13  O8  UNL     1      -1.916   2.300   0.116  1.00  0.00    -0.358 OA
BRANCH  13  14
HETATM   14  C15 UNL     1      -2.788   2.861  -0.821  1.00  0.00     0.171 C 
BRANCH  14  15
HETATM   15  C16 UNL     1      -3.012   4.288  -0.444  1.00  0.00     0.029 C 
BRANCH  15  16
HETATM   16  C17 UNL     1      -3.948   5.009  -1.386  1.00  0.00     0.033 C 
BRANCH  16  17
HETATM   17  C18 UNL     1      -4.072   6.433  -0.876  1.00  0.00     0.114 C 
HETATM   18  C19 UNL     1      -4.636   6.345   0.538  1.00  0.00     0.039 C 
BRANCH  17  19
HETATM   19  O9  UNL     1      -4.908   7.195  -1.690  1.00  0.00    -0.396 OA
ATOM     20  H9  UNL     1      -4.986   8.086  -1.371  1.00  0.00     0.210 HD
ENDBRANCH  17  19
ENDBRANCH  16  17
ENDBRANCH  15  16
ENDBRANCH  14  15
ENDBRANCH  13  14
ENDBRANCH   9  13
BRANCH  12  21
HETATM   21  O16 UNL     1      -0.146  -1.577  -0.931  1.00  0.00    -0.390 OA
ATOM     22  H16 UNL     1      -0.095  -2.487  -0.662  1.00  0.00     0.210 HD
ENDBRANCH  12  21
BRANCH   8  23
HETATM   23  O7  UNL     1       1.115   2.887  -2.562  1.00  0.00    -0.382 OA
ATOM     24  H7  UNL     1       0.186   3.039  -2.691  1.00  0.00     0.210 HD
ENDBRANCH   8  23
BRANCH  11  25
HETATM   25  C21 UNL     1      -2.263  -2.006   0.280  1.00  0.00     0.205 C 
BRANCH  25  26
HETATM   26  O11 UNL     1      -1.652  -3.244   0.228  1.00  0.00    -0.388 OA
ATOM     27  H11 UNL     1      -2.199  -3.902  -0.185  1.00  0.00     0.210 HD
ENDBRANCH  25  26
BRANCH  25  28
HETATM   28  C22 UNL     1      -3.504  -2.125   1.138  1.00  0.00     0.295 C 
HETATM   29  O12 UNL     1      -3.130  -2.532   2.387  1.00  0.00    -0.323 OA
HETATM   30  C23 UNL     1      -4.209  -3.191   2.915  1.00  0.00     0.360 C 
HETATM   31  C24 UNL     1      -5.104  -3.456   1.747  1.00  0.00     0.280 C 
HETATM   32  O15 UNL     1      -4.414  -3.032   0.611  1.00  0.00    -0.339 OA
BRANCH  30  33
HETATM   33  N1  UNL     1      -3.722  -4.412   3.531  1.00  0.00    -0.050 N 
ATOM     34  H13 UNL     1      -3.179  -4.990   2.890  1.00  0.00     0.277 HD
ATOM     35  H12 UNL     1      -2.986  -4.244   4.217  1.00  0.00     0.277 HD
ATOM     36  H11 UNL     1      -4.525  -4.903   3.924  1.00  0.00     0.277 HD
ENDBRANCH  30  33
BRANCH  31  37
HETATM   37  C25 UNL     1      -5.482  -4.862   1.577  1.00  0.00     0.292 C 
HETATM   38  O13 UNL     1      -5.163  -5.461   0.520  1.00  0.00    -0.262 OA
BRANCH  37  39
HETATM   39  O14 UNL     1      -6.186  -5.589   2.528  1.00  0.00    -0.324 OA
HETATM   40  C26 UNL     1      -6.500  -6.925   2.272  1.00  0.00     0.213 C 
ENDBRANCH  37  39
ENDBRANCH  31  37
ENDBRANCH  25  28
ENDBRANCH  11  25
BRANCH   1  41
HETATM   41  O3  UNL     1       3.034   0.709  -0.447  1.00  0.00    -0.350 OA
BRANCH  41  42
HETATM   42  C6  UNL     1       4.020  -0.173  -0.882  1.00  0.00     0.260 C 
HETATM   43  C5  UNL     1       3.493  -1.581  -0.936  1.00  0.00     0.061 C 
HETATM   44  C4  UNL     1       4.572  -2.593  -1.245  1.00  0.00     0.021 C 
HETATM   45  C3  UNL     1       5.712  -2.450  -0.282  1.00  0.00     0.109 C 
HETATM   46  C28 UNL     1       6.087  -0.963  -0.227  1.00  0.00     0.185 C 
HETATM   47  O17 UNL     1       5.009  -0.188   0.125  1.00  0.00    -0.360 OA
BRANCH  45  48
HETATM   48  C2  UNL     1       6.927  -3.157  -0.724  1.00  0.00     0.264 C 
HETATM   49  O2  UNL     1       6.919  -3.785  -1.797  1.00  0.00    -0.265 OA
BRANCH  48  50
HETATM   50  O1  UNL     1       8.063  -3.120   0.047  1.00  0.00    -0.326 OA
HETATM   51  C1  UNL     1       9.262  -3.774  -0.318  1.00  0.00     0.213 C 
ENDBRANCH  48  50
ENDBRANCH  45  48
ENDBRANCH  41  42
ENDBRANCH   1  41
BRANCH   2  52
HETATM   52  C9  UNL     1       4.494   3.262  -0.183  1.00  0.00     0.198 C 
BRANCH  52  53
HETATM   53  O4  UNL     1       4.567   4.548   0.419  1.00  0.00    -0.398 OA
ATOM     54  H4  UNL     1       5.471   4.667   0.687  1.00  0.00     0.209 HD
ENDBRANCH  52  53
ENDBRANCH   2  52
TORSDOF 20
