REMARK  2 active torsions:
REMARK  status: ('A' for Active; 'I' for Inactive)
REMARK    1  A    between atoms: C5_6  and  C6_7 
REMARK    2  A    between atoms: N2_8  and  N3_10 
ROOT
HETATM    1  C1  UNL     1      -1.547  -1.113  -1.093  1.00  0.00     0.296 C 
HETATM    2  N1  UNL     1      -0.746   0.026  -0.646  1.00  0.00     0.003 N 
HETATM    3  C2  UNL     1      -1.193   1.252  -1.250  1.00  0.00     0.296 C 
HETATM    4  C3  UNL     1       0.643  -0.204  -1.043  1.00  0.00     0.261 C 
HETATM    5  C4  UNL     1       1.160  -1.096   0.061  1.00  0.00     0.058 C 
HETATM    6  C5  UNL     1       0.398  -0.609   1.251  1.00  0.00     0.148 C 
HETATM    7  N4  UNL     1      -0.761   0.024   0.718  1.00  0.00    -0.037 NA
ENDROOT
BRANCH   6   8
HETATM    8  C6  UNL     1       1.188   0.319   2.101  1.00  0.00     0.102 C 
HETATM    9  N2  UNL     1       1.399   1.510   1.748  1.00  0.00    -0.321 N 
ATOM     10  H2  UNL     1       1.021   1.847   0.862  1.00  0.00     0.185 HD
BRANCH   9  11
HETATM   11  N3  UNL     1       2.144   2.377   2.554  1.00  0.00    -0.346 N 
ATOM     12  H32 UNL     1       2.514   2.025   3.437  1.00  0.00     0.176 HD
ATOM     13  H31 UNL     1       2.315   3.341   2.268  1.00  0.00     0.176 HD
ENDBRANCH   9  11
ENDBRANCH   6   8
TORSDOF 2
