REMARK  0 active torsions:
REMARK  status: ('A' for Active; 'I' for Inactive)
ROOT
HETATM    1  C1  UNL     1      -1.312  -0.516   0.879  1.00  0.00     0.011 C 
HETATM    2  C2  UNL     1      -1.748   0.286  -0.313  1.00  0.00     0.011 C 
HETATM    3  C3  UNL     1      -0.534   1.160  -0.710  1.00  0.00     0.079 C 
HETATM    4  S1  UNL     1       0.786  -0.059  -0.832  1.00  0.00    -0.144 SA
HETATM    5  C4  UNL     1      -0.249  -1.474   0.475  1.00  0.00     0.079 C 
HETATM    6  C5  UNL     1       2.004   0.757   0.344  1.00  0.00     0.138 A 
HETATM    7  N1  UNL     1       2.463  -0.209  -0.431  1.00  0.00    -0.347 N 
ATOM      8  H1  UNL     1       3.307  -0.734  -0.659  1.00  0.00     0.172 HD
ENDROOT
TORSDOF 0
