REMARK  6 active torsions:
REMARK  status: ('A' for Active; 'I' for Inactive)
REMARK    1  A    between atoms: C3_3  and  C4_4 
REMARK    2  A    between atoms: C8_10  and  C9_11 
REMARK    3  A    between atoms: C12_14  and  C13_15 
REMARK    4  A    between atoms: C13_15  and  C14_17 
REMARK    5  A    between atoms: C14_17  and  N2_19 
REMARK    6  A    between atoms: N4_31  and  O3_32 
ROOT
HETATM    1  C9  UNL     1      -1.463   0.361  -0.411  1.00  0.00     0.038 C 
HETATM    2  C10 UNL     1      -1.058   1.802  -0.578  1.00  0.00     0.011 C 
HETATM    3  C11 UNL     1       0.032   2.064   0.424  1.00  0.00     0.013 C 
HETATM    4  C12 UNL     1       0.538   0.735   0.862  1.00  0.00     0.059 C 
HETATM    5  C22 UNL     1      -0.358  -0.339   0.271  1.00  0.00     0.023 C 
ENDROOT
BRANCH   1   6
HETATM    6  C8  UNL     1      -2.759   0.307   0.294  1.00  0.00     0.031 A 
HETATM    7  N1  UNL     1      -3.833  -0.119  -0.376  1.00  0.00    -0.359 N 
HETATM    8  C3  UNL     1      -5.074  -0.202   0.206  1.00  0.00     0.042 A 
ATOM      9  H1  UNL     1      -3.728  -0.392  -1.353  1.00  0.00     0.165 HD
HETATM   10  C2  UNL     1      -5.239   0.160   1.514  1.00  0.00     0.059 A 
HETATM   11  C1  UNL     1      -6.516   0.100   2.199  1.00  0.00     0.073 C 
HETATM   12  N4  UNL     1      -4.119   0.591   2.169  1.00  0.00    -0.237 N 
HETATM   13  C23 UNL     1      -2.922   0.668   1.601  1.00  0.00     0.148 A 
BRANCH   8  14
HETATM   14  C4  UNL     1      -6.241  -0.681  -0.569  1.00  0.00    -0.007 C 
HETATM   15  C5  UNL     1      -5.722  -1.002  -1.987  1.00  0.00     0.021 C 
HETATM   16  C6  UNL     1      -6.798  -1.996  -0.065  1.00  0.00     0.021 C 
HETATM   17  C7  UNL     1      -7.304   0.368  -0.779  1.00  0.00     0.021 C 
ENDBRANCH   8  14
BRANCH  12  18
HETATM   18  O3  UNL     1      -4.246   0.964   3.487  1.00  0.00    -0.283 OA
ATOM     19  H3  UNL     1      -3.468   1.263   3.942  1.00  0.00     0.245 HD
ENDBRANCH  12  18
ENDBRANCH   1   6
BRANCH   4  20
HETATM   20  C13 UNL     1       1.958   0.459   0.646  1.00  0.00     0.164 C 
HETATM   21  O1  UNL     1       2.678   0.267   1.643  1.00  0.00    -0.294 OA
BRANCH  20  22
HETATM   22  C14 UNL     1       2.682   0.372  -0.633  1.00  0.00     0.230 C 
HETATM   23 BR1  UNL     1       2.510   1.847  -1.822  1.00  0.00    -0.060 Br
BRANCH  22  24
HETATM   24  N2  UNL     1       4.082   0.057  -0.444  1.00  0.00    -0.323 N 
HETATM   25  C15 UNL     1       4.556  -1.215  -0.924  1.00  0.00     0.254 C 
HETATM   26  O2  UNL     1       3.902  -1.927  -1.725  1.00  0.00    -0.271 OA
HETATM   27  C16 UNL     1       5.879  -1.659  -0.425  1.00  0.00     0.309 C 
HETATM   28  C17 UNL     1       6.357  -2.862  -1.234  1.00  0.00     0.053 C 
HETATM   29  N3  UNL     1       6.889  -0.643  -0.553  1.00  0.00     0.099 N 
HETATM   30  C18 UNL     1       7.890  -0.761   0.464  1.00  0.00     0.311 C 
HETATM   31  C19 UNL     1       6.372   0.684  -0.622  1.00  0.00     0.297 C 
HETATM   32  C20 UNL     1       5.067   0.863   0.170  1.00  0.00     0.113 C 
HETATM   33  C21 UNL     1       4.826   2.307   0.327  1.00  0.00     0.034 C 
ENDBRANCH  22  24
ENDBRANCH  20  22
ENDBRANCH   4  20
TORSDOF 6
