REMARK  6 active torsions:
REMARK  status: ('A' for Active; 'I' for Inactive)
REMARK    1  A    between atoms: C2_2  and  C4_4 
REMARK       I    between atoms: N2_10  and  C8_11 
REMARK    2  A    between atoms: C8_11  and  O3_13 
REMARK    3  A    between atoms: O3_13  and  C9_14 
REMARK    4  A    between atoms: C9_14  and  C10_15 
REMARK    5  A    between atoms: C20_27  and  C21_28 
REMARK    6  A    between atoms: C21_28  and  O5_29 
ROOT
HETATM    1  C4  UNL     1      -2.506  -0.958   0.263  1.00  0.00     0.036 C 
HETATM    2  C5  UNL     1      -1.705  -1.933   1.006  1.00  0.00     0.359 C 
HETATM    3  O1  UNL     1      -2.424  -2.570   1.831  1.00  0.00    -0.259 OA
HETATM    4  N1  UNL     1      -0.382  -2.384   1.094  1.00  0.00     0.079 N 
HETATM    5  C6  UNL     1      -0.282  -3.346   2.196  1.00  0.00     0.296 C 
HETATM    6  C7  UNL     1       0.416  -1.191   1.448  1.00  0.00     0.387 C 
HETATM    7  N2  UNL     1       0.451  -0.233   0.376  1.00  0.00    -0.293 N 
HETATM    8  C8  UNL     1       1.517   0.690   0.518  1.00  0.00     0.365 C 
HETATM    9  O2  UNL     1       1.653   1.577  -0.357  1.00  0.00    -0.238 OA
HETATM   10  C16 UNL     1      -0.372  -0.050  -0.782  1.00  0.00     0.130 C 
HETATM   11  C17 UNL     1      -0.081  -1.171  -1.750  1.00  0.00     0.024 C 
HETATM   12  C18 UNL     1       0.154  -2.428  -1.416  1.00  0.00     0.085 C 
HETATM   13 BR1  UNL     1       0.487  -3.594  -2.868  1.00  0.00    -0.045 Br
HETATM   14  C19 UNL     1       0.174  -2.964  -0.070  1.00  0.00     0.368 C 
HETATM   15  O4  UNL     1       0.771  -4.090   0.025  1.00  0.00    -0.258 OA
HETATM   16  C20 UNL     1      -1.844   0.101  -0.512  1.00  0.00     0.108 C 
ENDROOT
BRANCH   8  17
HETATM   17  O3  UNL     1       2.410   0.661   1.566  1.00  0.00    -0.299 OA
BRANCH  17  18
HETATM   18  C9  UNL     1       3.474   1.561   1.728  1.00  0.00     0.219 C 
BRANCH  18  19
HETATM   19  C10 UNL     1       4.440   1.512   0.598  1.00  0.00    -0.034 A 
HETATM   20  C11 UNL     1       5.277   0.422   0.443  1.00  0.00     0.009 A 
HETATM   21  C12 UNL     1       6.204   0.299  -0.564  1.00  0.00     0.001 A 
HETATM   22  C13 UNL     1       6.311   1.322  -1.479  1.00  0.00     0.000 A 
HETATM   23  C14 UNL     1       5.481   2.437  -1.350  1.00  0.00     0.001 A 
HETATM   24  C15 UNL     1       4.562   2.527  -0.328  1.00  0.00     0.009 A 
ENDBRANCH  18  19
ENDBRANCH  17  18
ENDBRANCH   8  17
BRANCH  16  25
HETATM   25  C21 UNL     1      -1.948   1.445   0.169  1.00  0.00     0.056 C 
HETATM   26  C22 UNL     1      -2.575   2.490  -0.284  1.00  0.00    -0.058 C 
HETATM   27  C23 UNL     1      -3.282   2.459  -1.586  1.00  0.00     0.045 C 
HETATM   28  C24 UNL     1      -2.567   3.740   0.546  1.00  0.00     0.045 C 
BRANCH  25  29
HETATM   29  O5  UNL     1      -1.304   1.566   1.409  1.00  0.00    -0.364 OA
ATOM     30  H5  UNL     1      -1.369   2.411   1.837  1.00  0.00     0.217 HD
ENDBRANCH  25  29
ENDBRANCH  16  25
BRANCH   1  31
HETATM   31  C2  UNL     1      -3.657  -1.644  -0.354  1.00  0.00    -0.059 C 
HETATM   32  C1  UNL     1      -3.604  -2.933  -0.564  1.00  0.00     0.019 C 
HETATM   33  C3  UNL     1      -4.922  -0.960  -0.753  1.00  0.00     0.048 C 
ENDBRANCH   1  31
TORSDOF 6
