REMARK  6 active torsions:
REMARK  status: ('A' for Active; 'I' for Inactive)
REMARK    1  A    between atoms: C2_2  and  C3_3 
REMARK    2  A    between atoms: C9_9  and  C10_10 
REMARK    3  A    between atoms: N1_17  and  C15_18 
REMARK    4  A    between atoms: C15_18  and  C16_19 
REMARK    5  A    between atoms: C16_19  and  O3_21 
REMARK    6  A    between atoms: O3_21  and  C17_22 
ROOT
HETATM    1  C3  UNL     1      -1.326   1.400   0.152  1.00  0.00     0.013 C 
HETATM    2  C4  UNL     1      -2.501   1.790  -0.725  1.00  0.00     0.013 C 
HETATM    3  C5  UNL     1      -3.755   1.705   0.146  1.00  0.00    -0.018 C 
HETATM    4  C6  UNL     1      -5.005   1.654  -0.707  1.00  0.00     0.010 C 
HETATM    5  C7  UNL     1      -3.665   0.462   1.053  1.00  0.00     0.010 C 
HETATM    6  C8  UNL     1      -2.805  -0.477   0.353  1.00  0.00     0.000 C 
HETATM    7  C9  UNL     1      -2.664  -1.860   0.830  1.00  0.00     0.032 C 
HETATM    8  C12 UNL     1      -1.384  -2.307   0.113  1.00  0.00     0.131 C 
HETATM    9  C13 UNL     1      -0.856  -1.021  -0.579  1.00  0.00     0.102 C 
HETATM   10  C14 UNL     1       0.522  -1.130  -0.960  1.00  0.00     0.227 C 
HETATM   11  O1  UNL     1       0.900  -0.711  -2.082  1.00  0.00    -0.273 OA
HETATM   12  N1  UNL     1       1.529  -1.697  -0.137  1.00  0.00    -0.329 N 
HETATM   13  C21 UNL     1       1.245  -1.951   1.266  1.00  0.00     0.267 C 
HETATM   14  S1  UNL     1      -0.270  -2.865   1.344  1.00  0.00     0.166 S 
HETATM   15  O4  UNL     1      -0.863  -2.767   2.744  1.00  0.00    -0.226 OA
HETATM   16  O5  UNL     1      -0.006  -4.335   1.128  1.00  0.00    -0.226 OA
HETATM   17  C22 UNL     1      -1.318  -0.036   0.391  1.00  0.00     0.012 C 
ENDROOT
BRANCH  12  18
HETATM   18  C15 UNL     1       2.850  -2.041  -0.659  1.00  0.00     0.238 C 
BRANCH  18  19
HETATM   19  C16 UNL     1       3.791  -0.935  -0.543  1.00  0.00     0.277 C 
HETATM   20  O2  UNL     1       4.965  -1.112  -0.972  1.00  0.00    -0.263 OA
BRANCH  19  21
HETATM   21  O3  UNL     1       3.513   0.305   0.001  1.00  0.00    -0.310 OA
BRANCH  21  22
HETATM   22  C17 UNL     1       4.478   1.338   0.084  1.00  0.00     0.060 C 
HETATM   23  C18 UNL     1       5.670   0.895   0.919  1.00  0.00     0.045 C 
HETATM   24  C19 UNL     1       3.840   2.511   0.797  1.00  0.00     0.045 C 
HETATM   25  C20 UNL     1       4.986   1.771  -1.261  1.00  0.00     0.045 C 
ENDBRANCH  21  22
ENDBRANCH  19  21
ENDBRANCH  18  19
ENDBRANCH  12  18
BRANCH   7  26
HETATM   26  C10 UNL     1      -3.785  -2.681   0.249  1.00  0.00    -0.013 C 
HETATM   27  C11 UNL     1      -4.491  -3.457   1.032  1.00  0.00     0.052 C 
HETATM   28 BR1  UNL     1      -5.910  -4.493   0.289  1.00  0.00    -0.064 Br
ENDBRANCH   7  26
BRANCH   1  29
HETATM   29  C2  UNL     1      -0.076   2.060  -0.218  1.00  0.00    -0.032 C 
HETATM   30  C1  UNL     1       0.053   2.716  -1.350  1.00  0.00     0.007 C 
ENDBRANCH   1  29
TORSDOF 6
