REMARK  12 active torsions:
REMARK  status: ('A' for Active; 'I' for Inactive)
REMARK    1  A    between atoms: C2_2  and  N1_3 
REMARK    2  A    between atoms: N2_7  and  C6_8 
REMARK    3  A    between atoms: C6_8  and  C7_9 
REMARK    4  A    between atoms: C7_9  and  C8_10 
REMARK    5  A    between atoms: C8_10  and  N3_11 
REMARK    6  A    between atoms: N3_11  and  C10_13 
REMARK    7  A    between atoms: N3_11  and  C14_21 
REMARK    8  A    between atoms: C10_13  and  C11_14 
REMARK    9  A    between atoms: C11_14  and  C12_15 
REMARK   10  A    between atoms: C12_15  and  N4_16 
REMARK   11  A    between atoms: C14_21  and  C15_22 
REMARK   12  A    between atoms: C15_22  and  S1_23 
ROOT
HETATM    1  N3  UNL     1       1.529   0.074   0.279  1.00  0.00    -0.070 N 
HETATM    2  C9  UNL     1       1.119   1.127  -0.658  1.00  0.00     0.272 C 
ENDROOT
BRANCH   1   3
HETATM    3  C8  UNL     1       0.598  -0.194   1.311  1.00  0.00     0.238 C 
BRANCH   3   4
HETATM    4  C7  UNL     1      -0.817   0.222   1.150  1.00  0.00     0.044 C 
BRANCH   4   5
HETATM    5  C6  UNL     1      -1.549  -0.392  -0.006  1.00  0.00     0.115 C 
BRANCH   5   6
HETATM    6  N2  UNL     1      -2.904   0.054  -0.075  1.00  0.00    -0.229 NA
HETATM    7  C5  UNL     1      -3.754  -0.430   0.983  1.00  0.00     0.115 C 
HETATM    8  C4  UNL     1      -4.633   0.715   1.425  1.00  0.00     0.036 C 
HETATM    9  C3  UNL     1      -5.785   1.009   0.534  1.00  0.00     0.126 C 
HETATM   10  N1  UNL     1      -5.962   0.153  -0.591  1.00  0.00    -0.358 N 
HETATM   11  C17 UNL     1      -4.969  -0.292  -1.510  1.00  0.00     0.184 C 
HETATM   12  N7  UNL     1      -3.545  -0.261  -1.279  1.00  0.00    -0.295 N 
HETATM   13  S2  UNL     1      -5.467  -0.888  -2.949  1.00  0.00    -0.040 SA
ATOM     14  H7  UNL     1      -2.946  -0.491  -2.072  1.00  0.00     0.183 HD
BRANCH  10  15
HETATM   15  C2  UNL     1      -7.317  -0.351  -0.875  1.00  0.00     0.120 C 
HETATM   16  C1  UNL     1      -8.219   0.778  -1.319  1.00  0.00     0.026 C 
ENDBRANCH  10  15
ENDBRANCH   5   6
ENDBRANCH   4   5
ENDBRANCH   3   4
ENDBRANCH   1   3
BRANCH   1  17
HETATM   17  C10 UNL     1       2.718   0.650   0.942  1.00  0.00     0.238 C 
BRANCH  17  18
HETATM   18  C11 UNL     1       3.948   0.608   0.105  1.00  0.00     0.047 C 
BRANCH  18  19
HETATM   19  C12 UNL     1       5.079   1.277   0.922  1.00  0.00     0.123 C 
BRANCH  19  20
HETATM   20  N4  UNL     1       6.311   1.282   0.203  1.00  0.00    -0.367 N 
HETATM   21  C13 UNL     1       6.943   2.372  -0.063  1.00  0.00     0.196 C 
HETATM   22  N5  UNL     1       6.481   3.660   0.329  1.00  0.00    -0.067 NA
HETATM   23  N6  UNL     1       8.159   2.255  -0.782  1.00  0.00    -0.067 NA
ATOM     24  H4  UNL     1       6.704   0.394  -0.110  1.00  0.00     0.161 HD
ENDBRANCH  19  20
ENDBRANCH  18  19
ENDBRANCH  17  18
ENDBRANCH   1  17
BRANCH   1  25
HETATM   25  C14 UNL     1       1.907  -1.042  -0.546  1.00  0.00     0.249 C 
BRANCH  25  26
HETATM   26  C15 UNL     1       2.213  -2.318   0.176  1.00  0.00     0.136 C 
BRANCH  26  27
HETATM   27  S1  UNL     1       2.687  -3.494  -1.114  1.00  0.00     0.012 S 
HETATM   28  C16 UNL     1       3.080  -5.062  -0.394  1.00  0.00     0.127 C 
HETATM   29  O1  UNL     1       4.016  -2.857  -1.916  1.00  0.00    -0.258 OA
ENDBRANCH  26  27
ENDBRANCH  25  26
ENDBRANCH   1  25
TORSDOF 12
