REMARK  12 active torsions:
REMARK  status: ('A' for Active; 'I' for Inactive)
REMARK    1  A    between atoms: C2_2  and  N1_3 
REMARK    2  A    between atoms: N1_3  and  C3_4 
REMARK       I    between atoms: N1_3  and  C5_6 
REMARK    3  A    between atoms: C5_6  and  C6_8 
REMARK    4  A    between atoms: C9_11  and  N2_12 
REMARK       I    between atoms: N2_12  and  C10_14 
REMARK       I    between atoms: C10_14  and  N4_22 
REMARK    5  A    between atoms: N3_15  and  C11_17 
REMARK    6  A    between atoms: C11_17  and  C12_18 
REMARK    7  A    between atoms: C12_18  and  S1_19 
REMARK    8  A    between atoms: N4_22  and  C14_24 
REMARK    9  A    between atoms: C14_24  and  C15_25 
REMARK   10  A    between atoms: C16_26  and  C17_27 
REMARK   11  A    between atoms: C17_27  and  C18_28 
REMARK   12  A    between atoms: C18_28  and  N5_29 
ROOT
HETATM    1  N2  UNL     1       0.417  -0.014  -1.373  1.00  0.00    -0.197 N 
ATOM      2  H2  UNL     1       0.631  -0.042  -2.370  1.00  0.00     0.180 HD
HETATM    3  C10 UNL     1       1.431   0.436  -0.499  1.00  0.00     0.671 C 
HETATM    4  N3  UNL     1       1.532   1.705  -0.285  1.00  0.00    -0.226 N 
ATOM      5  H3  UNL     1       0.888   2.349  -0.744  1.00  0.00     0.177 HD
HETATM    6  N4  UNL     1       2.337  -0.439   0.148  1.00  0.00    -0.223 N 
ATOM      7  H4  UNL     1       2.490  -0.326   1.150  1.00  0.00     0.178 HD
ENDROOT
BRANCH   1   8
HETATM    8  C9  UNL     1      -0.907  -0.440  -0.958  1.00  0.00     0.300 C 
HETATM    9  C8  UNL     1      -0.860  -1.617  -0.023  1.00  0.00     0.057 C 
HETATM   10  C7  UNL     1      -1.924  -1.313   0.962  1.00  0.00     0.047 C 
HETATM   11  C6  UNL     1      -2.632  -0.106   0.478  1.00  0.00     0.279 C 
HETATM   12  N7  UNL     1      -1.614   0.599  -0.260  1.00  0.00    -0.041 N 
ATOM     13  H72 UNL     1      -1.971   1.341  -0.862  1.00  0.00     0.280 HD
ATOM     14  H71 UNL     1      -1.020   1.198   0.313  1.00  0.00     0.280 HD
BRANCH  11  15
HETATM   15  C5  UNL     1      -3.795  -0.320  -0.389  1.00  0.00     0.250 C 
HETATM   16  N1  UNL     1      -5.048  -0.857   0.002  1.00  0.00    -0.351 N 
HETATM   17  O1  UNL     1      -3.676   0.008  -1.603  1.00  0.00    -0.271 OA
BRANCH  16  18
HETATM   18  C2  UNL     1      -6.080  -1.033  -1.039  1.00  0.00     0.121 C 
HETATM   19  C1  UNL     1      -6.895   0.242  -1.107  1.00  0.00     0.026 C 
ENDBRANCH  16  18
BRANCH  16  20
HETATM   20  C3  UNL     1      -5.443  -1.222   1.330  1.00  0.00     0.121 C 
HETATM   21  C4  UNL     1      -6.105  -0.025   2.047  1.00  0.00     0.026 C 
ENDBRANCH  16  20
ENDBRANCH  11  15
ENDBRANCH   1   8
BRANCH   4  22
HETATM   22  C11 UNL     1       2.567   2.226   0.613  1.00  0.00     0.150 C 
BRANCH  22  23
HETATM   23  C12 UNL     1       2.479   3.716   0.777  1.00  0.00     0.128 C 
BRANCH  23  24
HETATM   24  S1  UNL     1       0.934   4.233   1.454  1.00  0.00     0.012 S 
HETATM   25  C13 UNL     1       0.869   6.001   1.636  1.00  0.00     0.127 C 
HETATM   26  O2  UNL     1      -0.291   3.818   0.377  1.00  0.00    -0.258 OA
ENDBRANCH  23  24
ENDBRANCH  22  23
ENDBRANCH   4  22
BRANCH   6  27
HETATM   27  C14 UNL     1       3.059  -1.490  -0.547  1.00  0.00     0.165 C 
BRANCH  27  28
HETATM   28  C15 UNL     1       4.048  -0.926  -1.477  1.00  0.00    -0.011 C 
HETATM   29  C16 UNL     1       5.347  -1.096  -1.474  1.00  0.00    -0.027 C 
BRANCH  29  30
HETATM   30  C17 UNL     1       6.099  -1.920  -0.496  1.00  0.00     0.048 C 
BRANCH  30  31
HETATM   31  C18 UNL     1       6.827  -3.021  -1.241  1.00  0.00     0.142 C 
BRANCH  31  32
HETATM   32  N5  UNL     1       7.576  -3.858  -0.357  1.00  0.00    -0.343 N 
HETATM   33  N6  UNL     1       8.298  -4.728  -0.850  1.00  0.00    -0.349 N 
ATOM     34  H62 UNL     1       8.348  -4.834  -1.863  1.00  0.00     0.176 HD
ATOM     35  H61 UNL     1       8.832  -5.325  -0.219  1.00  0.00     0.176 HD
ATOM     36  H5  UNL     1       7.515  -3.739   0.654  1.00  0.00     0.179 HD
ENDBRANCH  31  32
ENDBRANCH  30  31
ENDBRANCH  29  30
ENDBRANCH  27  28
ENDBRANCH   6  27
TORSDOF 12
