REMARK  4 active torsions:
REMARK  status: ('A' for Active; 'I' for Inactive)
REMARK    1  A    between atoms: N1_1  and  C1_4 
REMARK    2  A    between atoms: C2_7  and  C3_8 
REMARK    3  A    between atoms: C3_8  and  S1_9 
REMARK    4  A    between atoms: S1_9  and  C4_11 
ROOT
HETATM    1  C1  UNL     1      -3.454   1.331   0.025  1.00  0.00     0.675 A 
HETATM    2  N2  UNL     1      -2.205   0.899  -0.112  1.00  0.00    -0.195 N 
ATOM      3  H2  UNL     1      -1.473   1.597  -0.245  1.00  0.00     0.184 HD
HETATM    4  C2  UNL     1      -1.837  -0.398  -0.088  1.00  0.00     0.040 A 
HETATM    5  C9  UNL     1      -2.838  -1.321   0.093  1.00  0.00     0.044 A 
HETATM    6  C10 UNL     1      -4.132  -0.892   0.237  1.00  0.00     0.108 A 
HETATM    7  N4  UNL     1      -4.427   0.419   0.202  1.00  0.00    -0.202 N 
ATOM      8  H4  UNL     1      -5.394   0.724   0.310  1.00  0.00     0.183 HD
ENDROOT
BRANCH   4   9
HETATM    9  C3  UNL     1      -0.425  -0.696  -0.254  1.00  0.00     0.173 C 
BRANCH   9  10
HETATM   10  S1  UNL     1       0.588  -0.784   1.112  1.00  0.00     0.072 S 
HETATM   11  O1  UNL     1       0.333  -1.835   2.291  1.00  0.00    -0.251 OA
BRANCH  10  12
HETATM   12  C4  UNL     1       2.239  -0.420   0.730  1.00  0.00     0.100 A 
HETATM   13  C5  UNL     1       2.653   0.894   0.814  1.00  0.00     0.039 A 
HETATM   14  C6  UNL     1       3.972   1.255   0.519  1.00  0.00     0.004 A 
HETATM   15  C7  UNL     1       4.855   0.266   0.139  1.00  0.00     0.017 A 
HETATM   16  C8  UNL     1       4.413  -1.048   0.062  1.00  0.00     0.089 A 
HETATM   17  N3  UNL     1       3.140  -1.350   0.354  1.00  0.00    -0.359 N 
ATOM     18  H3  UNL     1       2.841  -2.323   0.289  1.00  0.00     0.166 HD
ENDBRANCH  10  12
ENDBRANCH   9  10
ENDBRANCH   4   9
BRANCH   1  19
HETATM   19  N1  UNL     1      -3.786   2.582  -0.001  1.00  0.00    -0.234 N 
ATOM     20  H12 UNL     1      -3.048   3.273  -0.135  1.00  0.00     0.174 HD
ATOM     21  H11 UNL     1      -4.745   2.914   0.104  1.00  0.00     0.174 HD
ENDBRANCH   1  19
TORSDOF 4
