REMARK  17 active torsions:
REMARK  status: ('A' for Active; 'I' for Inactive)
REMARK    1  A    between atoms: C8_10  and  C9_11 
REMARK    2  A    between atoms: C12_18  and  C13_19 
REMARK    3  A    between atoms: C13_19  and  O2_21 
REMARK    4  A    between atoms: O2_21  and  C14_22 
REMARK    5  A    between atoms: C14_22  and  C15_23 
REMARK    6  A    between atoms: C15_23  and  C16_24 
REMARK    7  A    between atoms: C16_24  and  C17_25 
REMARK    8  A    between atoms: C17_25  and  C18_26 
REMARK    9  A    between atoms: C22_30  and  S1_31 
REMARK   10  A    between atoms: S1_31  and  C23_34 
REMARK   11  A    between atoms: C23_34  and  C24_35 
REMARK   12  A    between atoms: C24_35  and  N3_36 
REMARK   13  A    between atoms: N3_36  and  C25_37 
REMARK   14  A    between atoms: N3_36  and  C28_40 
REMARK   15  A    between atoms: C25_37  and  C26_38 
REMARK   16  A    between atoms: C28_40  and  C29_41 
REMARK   17  A    between atoms: C29_41  and  C30_42 
ROOT
HETATM    1  C1  UNL     1      -3.048  -3.853  -2.853  1.00  0.00     0.017 C 
HETATM    2  C2  UNL     1      -2.408  -3.577  -1.866  1.00  0.00    -0.082 C 
HETATM    3  C3  UNL     1      -1.655  -3.258  -0.663  1.00  0.00    -0.002 A 
HETATM    4  C4  UNL     1      -0.881  -2.216  -0.543  1.00  0.00     0.076 A 
HETATM    5  C5  UNL     1      -0.242  -2.173   0.859  1.00  0.00     0.088 A 
HETATM    6  C6  UNL     1      -0.700  -3.394   1.398  1.00  0.00     0.032 A 
HETATM    7  C7  UNL     1      -1.540  -4.017   0.549  1.00  0.00     0.043 A 
HETATM    8  N1  UNL     1      -0.013  -4.000   2.555  1.00  0.00    -0.345 N 
ATOM      9  H1  UNL     1      -0.505  -4.497   3.298  1.00  0.00     0.167 HD
HETATM   10  C8  UNL     1       1.302  -3.839   2.540  1.00  0.00     0.121 C 
HETATM   11  N2  UNL     1       1.865  -2.879   1.692  1.00  0.00    -0.344 N 
ATOM     12  H2  UNL     1       2.881  -2.793   1.692  1.00  0.00     0.167 HD
HETATM   13  C11 UNL     1       1.168  -2.051   0.868  1.00  0.00     0.047 C 
HETATM   14  C12 UNL     1       1.934  -0.900   0.392  1.00  0.00     0.063 C 
HETATM   15  C20 UNL     1       1.280   0.280   0.574  1.00  0.00     0.021 C 
HETATM   16  C21 UNL     1      -0.072   0.232   1.088  1.00  0.00     0.022 C 
HETATM   17  C22 UNL     1      -0.829  -0.853   1.300  1.00  0.00     0.062 C 
ENDROOT
BRANCH  17  18
HETATM   18  S1  UNL     1      -2.361  -0.662   2.032  1.00  0.00     0.196 S 
HETATM   19  O3  UNL     1      -3.267  -1.859   1.821  1.00  0.00    -0.218 OA
HETATM   20  O4  UNL     1      -2.082  -0.747   3.570  1.00  0.00    -0.218 OA
BRANCH  18  21
HETATM   21  C23 UNL     1      -3.225   0.777   1.795  1.00  0.00     0.131 C 
BRANCH  21  22
HETATM   22  C24 UNL     1      -3.716   1.388   0.560  1.00  0.00     0.102 C 
BRANCH  22  23
HETATM   23  N3  UNL     1      -4.610   0.783  -0.296  1.00  0.00    -0.370 N 
BRANCH  23  24
HETATM   24  C25 UNL     1      -4.349  -0.179  -1.247  1.00  0.00     0.063 C 
BRANCH  24  25
HETATM   25  C26 UNL     1      -3.685   0.211  -2.526  1.00  0.00     0.040 C 
HETATM   26  C27 UNL     1      -2.351   0.866  -2.394  1.00  0.00     0.010 C 
ENDBRANCH  24  25
ENDBRANCH  23  24
BRANCH  23  27
HETATM   27  C28 UNL     1      -5.990   0.799   0.178  1.00  0.00     0.127 C 
BRANCH  27  28
HETATM   28  C29 UNL     1      -6.612   2.146   0.231  1.00  0.00     0.020 C 
BRANCH  28  29
HETATM   29  C30 UNL     1      -6.689   2.876  -1.079  1.00  0.00    -0.003 C 
HETATM   30  C31 UNL     1      -7.359   4.222  -0.763  1.00  0.00     0.005 C 
ENDBRANCH  28  29
ENDBRANCH  27  28
ENDBRANCH  23  27
ENDBRANCH  22  23
ENDBRANCH  21  22
ENDBRANCH  18  21
ENDBRANCH  17  18
BRANCH  14  31
HETATM   31  C13 UNL     1       3.223  -1.054  -0.182  1.00  0.00     0.295 C 
HETATM   32  O1  UNL     1       3.750  -2.180  -0.307  1.00  0.00    -0.259 OA
BRANCH  31  33
HETATM   33  O2  UNL     1       3.977   0.028  -0.636  1.00  0.00    -0.317 OA
BRANCH  33  34
HETATM   34  C14 UNL     1       5.257  -0.143  -1.205  1.00  0.00     0.179 C 
BRANCH  34  35
HETATM   35  C15 UNL     1       5.896   1.172  -1.598  1.00  0.00     0.027 C 
BRANCH  35  36
HETATM   36  C16 UNL     1       6.007   2.002  -0.332  1.00  0.00     0.002 C 
BRANCH  36  37
HETATM   37  C17 UNL     1       6.642   3.318  -0.646  1.00  0.00    -0.000 C 
BRANCH  37  38
HETATM   38  C18 UNL     1       8.032   3.174  -1.212  1.00  0.00    -0.005 C 
HETATM   39  C19 UNL     1       8.966   2.485  -0.267  1.00  0.00     0.005 C 
ENDBRANCH  37  38
ENDBRANCH  36  37
ENDBRANCH  35  36
ENDBRANCH  34  35
ENDBRANCH  33  34
ENDBRANCH  31  33
ENDBRANCH  14  31
BRANCH  10  40
HETATM   40  C9  UNL     1       2.176  -4.409   3.609  1.00  0.00     0.167 C 
HETATM   41  C10 UNL     1       3.449  -4.922   2.972  1.00  0.00     0.059 C 
HETATM   42 CL1  UNL     1       2.528  -3.286   4.908  1.00  0.00    -0.093 Cl
HETATM   43 CL2  UNL     1       1.304  -5.858   4.215  1.00  0.00    -0.093 Cl
ENDBRANCH  10  40
TORSDOF 17
