REMARK  4 active torsions:
REMARK  status: ('A' for Active; 'I' for Inactive)
REMARK    1  A    between atoms: C1_4  and  C2_5 
REMARK    2  A    between atoms: C1_4  and  N6_13 
REMARK    3  A    between atoms: N2_6  and  N3_8 
REMARK    4  A    between atoms: N6_13  and  C4_15 
ROOT
HETATM    1  N1  UNL     1       1.060  -0.427  -2.435  1.00  0.00    -0.384 N 
ATOM      2  H11 UNL     1       1.906  -0.927  -2.709  1.00  0.00     0.157 HD
ATOM      3  H12 UNL     1       0.511   0.076  -3.132  1.00  0.00     0.157 HD
HETATM    4  C1  UNL     1       0.667  -0.416  -1.221  1.00  0.00     0.131 C 
ENDROOT
BRANCH   4   5
HETATM    5  C2  UNL     1      -0.541   0.299  -0.830  1.00  0.00     0.155 C 
HETATM    6  N2  UNL     1      -0.888   0.276   0.400  1.00  0.00    -0.306 N 
ATOM      7  H2  UNL     1      -0.300  -0.244   1.051  1.00  0.00     0.186 HD
BRANCH   6   8
HETATM    8  N3  UNL     1      -2.016   0.914   0.910  1.00  0.00    -0.276 N 
HETATM    9  C3  UNL     1      -3.138   0.310   0.872  1.00  0.00     0.215 C 
HETATM   10  N4  UNL     1      -3.215  -0.979   0.320  1.00  0.00    -0.065 NA
HETATM   11  N5  UNL     1      -4.282   0.968   1.394  1.00  0.00    -0.065 NA
ATOM     12  H3  UNL     1      -1.945   1.851   1.308  1.00  0.00     0.189 HD
ENDBRANCH   6   8
ENDBRANCH   4   5
BRANCH   4  13
HETATM   13  N6  UNL     1       1.431  -1.116  -0.252  1.00  0.00    -0.173 N 
ATOM     14  H6  UNL     1       1.070  -1.981   0.151  1.00  0.00     0.186 HD
BRANCH  13  15
HETATM   15  C4  UNL     1       2.582  -0.663   0.122  1.00  0.00     0.715 A 
HETATM   16  N7  UNL     1       3.347  -1.287   1.036  1.00  0.00    -0.115 N 
HETATM   17  N8  UNL     1       4.461  -0.553   1.185  1.00  0.00    -0.213 N 
ATOM     18  H7  UNL     1       3.123  -2.154   1.524  1.00  0.00     0.207 HD
HETATM   19  N9  UNL     1       4.411   0.496   0.400  1.00  0.00    -0.213 N 
ATOM     20  H8  UNL     1       5.231  -0.778   1.815  1.00  0.00     0.210 HD
HETATM   21  N10 UNL     1       3.248   0.422  -0.254  1.00  0.00    -0.115 N 
ATOM     22  H9  UNL     1       5.119   1.224   0.307  1.00  0.00     0.210 HD
ATOM     23  H10 UNL     1       2.920   1.100  -0.942  1.00  0.00     0.207 HD
ENDBRANCH  13  15
ENDBRANCH   4  13
TORSDOF 4
