REMARK  10 active torsions:
REMARK  status: ('A' for Active; 'I' for Inactive)
REMARK    1  A    between atoms: C2_2  and  C3_3 
REMARK    2  A    between atoms: C3_3  and  C4_4 
REMARK    3  A    between atoms: C4_4  and  C5_5 
REMARK    4  A    between atoms: C5_5  and  N1_6 
REMARK    5  A    between atoms: N1_6  and  C6_7 
REMARK    6  A    between atoms: N1_6  and  C7_11 
REMARK    7  A    between atoms: C9_13  and  C10_14 
REMARK    8  A    between atoms: C14_20  and  C18_27 
REMARK    9  A    between atoms: C15_21  and  N4_22 
REMARK   10  A    between atoms: N4_22  and  C16_25 
ROOT
HETATM    1  C7  UNL     1       0.762  -0.425   0.578  1.00  0.00     0.108 A 
HETATM    2  C8  UNL     1      -0.442  -0.957   1.258  1.00  0.00     0.041 A 
HETATM    3  C9  UNL     1      -1.659  -0.311   1.774  1.00  0.00     0.088 C 
HETATM    4  C18 UNL     1      -0.497   0.137   0.289  1.00  0.00     0.054 A 
HETATM    5  C19 UNL     1      -1.015   0.962   1.504  1.00  0.00     0.145 C 
HETATM    6  O1  UNL     1      -1.484   2.167   1.382  1.00  0.00    -0.296 OA
ENDROOT
BRANCH   1   7
HETATM    7  N1  UNL     1       1.669  -1.254  -0.113  1.00  0.00    -0.371 N 
BRANCH   7   8
HETATM    8  C5  UNL     1       2.671  -0.652  -0.963  1.00  0.00     0.124 C 
BRANCH   8   9
HETATM    9  C4  UNL     1       3.654   0.087  -0.079  1.00  0.00     0.020 C 
BRANCH   9  10
HETATM   10  C3  UNL     1       4.745   0.750  -0.892  1.00  0.00     0.001 C 
BRANCH  10  11
HETATM   11  C2  UNL     1       5.689   1.465   0.031  1.00  0.00    -0.004 C 
HETATM   12  C1  UNL     1       6.795   2.143  -0.746  1.00  0.00     0.005 C 
ENDBRANCH  10  11
ENDBRANCH   9  10
ENDBRANCH   8   9
ENDBRANCH   7   8
BRANCH   7  13
HETATM   13  C6  UNL     1       1.633  -2.663   0.049  1.00  0.00     0.171 C 
HETATM   14  N2  UNL     1       2.480  -3.223   0.856  1.00  0.00    -0.395 N 
ATOM     15  H22 UNL     1       3.154  -2.646   1.358  1.00  0.00     0.156 HD
ATOM     16  H21 UNL     1       2.454  -4.236   0.972  1.00  0.00     0.156 HD
ENDBRANCH   7  13
ENDBRANCH   1   7
BRANCH   4  17
HETATM   17  C14 UNL     1      -1.500  -0.090  -0.742  1.00  0.00     0.043 C 
HETATM   18  C13 UNL     1      -1.526  -1.493  -1.348  1.00  0.00     0.017 A 
HETATM   19  C11 UNL     1      -2.337  -2.447  -0.573  1.00  0.00     0.082 A 
HETATM   20  C12 UNL     1      -2.647  -2.178  -1.945  1.00  0.00     0.032 A 
HETATM   21  N3  UNL     1      -2.972  -2.021   0.610  1.00  0.00    -0.410 N 
HETATM   22  C10 UNL     1      -2.925  -0.613   0.959  1.00  0.00     0.119 C 
ATOM     23  H3  UNL     1      -3.456  -2.689   1.210  1.00  0.00     0.154 HD
HETATM   24  C15 UNL     1      -2.944   0.111  -0.336  1.00  0.00     0.214 C 
BRANCH  24  25
HETATM   25  N4  UNL     1      -3.512   1.379  -0.476  1.00  0.00    -0.069 N 
ATOM     26  H42 UNL     1      -3.020   2.060   0.102  1.00  0.00     0.277 HD
ATOM     27  H41 UNL     1      -3.312   1.763  -1.400  1.00  0.00     0.277 HD
BRANCH  25  28
HETATM   28  C16 UNL     1      -4.906   1.412  -0.211  1.00  0.00     0.228 C 
HETATM   29  C17 UNL     1      -5.407   2.846  -0.401  1.00  0.00     0.034 C 
ENDBRANCH  25  28
ENDBRANCH  24  25
ENDBRANCH   4  17
TORSDOF 10
