REMARK  10 active torsions:
REMARK  status: ('A' for Active; 'I' for Inactive)
REMARK    1  A    between atoms: C3_8  and  N3_9 
REMARK    2  A    between atoms: C6_15  and  C7_16 
REMARK    3  A    between atoms: C7_16  and  C8_17 
REMARK    4  A    between atoms: C8_17  and  C9_18 
REMARK    5  A    between atoms: C9_18  and  C10_19 
REMARK    6  A    between atoms: C10_19  and  C11_20 
REMARK    7  A    between atoms: C11_20  and  O1_21 
REMARK    8  A    between atoms: S1_23  and  C12_24 
REMARK    9  A    between atoms: C12_24  and  C13_25 
REMARK   10  A    between atoms: C13_25  and  C14_26 
ROOT
HETATM    1  N1  UNL     1      -1.789  -3.684  -1.351  1.00  0.00    -0.389 N 
ATOM      2  H11 UNL     1      -1.400  -4.506  -0.889  1.00  0.00     0.157 HD
ATOM      3  H12 UNL     1      -1.946  -3.915  -2.332  1.00  0.00     0.157 HD
HETATM    4  C1  UNL     1      -2.049  -2.546  -0.831  1.00  0.00     0.077 C 
HETATM    5  N2  UNL     1      -2.587  -1.408  -1.471  1.00  0.00    -0.365 N 
ATOM      6  H2  UNL     1      -2.857  -1.339  -2.452  1.00  0.00     0.162 HD
HETATM    7  C2  UNL     1      -2.685  -0.363  -0.484  1.00  0.00     0.167 C 
HETATM    8  C3  UNL     1      -2.860  -1.157   0.823  1.00  0.00     0.226 C 
HETATM    9  C4  UNL     1      -1.816  -2.204   0.623  1.00  0.00     0.087 C 
HETATM   10  C5  UNL     1      -0.417  -1.809   0.883  1.00  0.00     0.029 C 
HETATM   11  C6  UNL     1       0.027  -0.448   0.477  1.00  0.00     0.040 C 
HETATM   12  S1  UNL     1      -1.170   0.458  -0.369  1.00  0.00    -0.190 SA
ENDROOT
BRANCH  11  13
HETATM   13  C7  UNL     1       1.246  -0.594  -0.453  1.00  0.00     0.014 C 
BRANCH  13  14
HETATM   14  C8  UNL     1       1.758   0.731  -0.913  1.00  0.00     0.001 C 
BRANCH  14  15
HETATM   15  C9  UNL     1       2.939   0.551  -1.808  1.00  0.00     0.002 C 
BRANCH  15  16
HETATM   16  C10 UNL     1       4.096  -0.156  -1.155  1.00  0.00     0.026 C 
BRANCH  16  17
HETATM   17  C11 UNL     1       4.585   0.620   0.062  1.00  0.00     0.164 C 
BRANCH  17  18
HETATM   18  O1  UNL     1       4.986   1.884  -0.401  1.00  0.00    -0.401 OA
ATOM     19  H1  UNL     1       5.291   2.368   0.358  1.00  0.00     0.209 HD
ENDBRANCH  17  18
ENDBRANCH  16  17
ENDBRANCH  15  16
ENDBRANCH  14  15
ENDBRANCH  13  14
ENDBRANCH  11  13
BRANCH  12  20
HETATM   20  C12 UNL     1      -1.254   2.161   0.013  1.00  0.00     0.076 C 
BRANCH  20  21
HETATM   21  C13 UNL     1      -1.921   2.456   1.334  1.00  0.00     0.122 C 
BRANCH  21  22
HETATM   22  C14 UNL     1      -1.955   3.919   1.589  1.00  0.00     0.173 C 
HETATM   23  O2  UNL     1      -2.462   4.381   2.629  1.00  0.00    -0.648 OA
HETATM   24  O3  UNL     1      -1.410   4.763   0.644  1.00  0.00    -0.648 OA
ENDBRANCH  21  22
ENDBRANCH  20  21
ENDBRANCH  12  20
BRANCH   8  25
HETATM   25  N3  UNL     1      -4.159  -1.810   0.832  1.00  0.00    -0.071 N 
ATOM     26  H33 UNL     1      -4.921  -1.150   0.679  1.00  0.00     0.274 HD
ATOM     27  H32 UNL     1      -4.301  -2.393   0.007  1.00  0.00     0.274 HD
ATOM     28  H31 UNL     1      -4.275  -2.336   1.698  1.00  0.00     0.274 HD
ENDBRANCH   8  25
TORSDOF 10
