REMARK  12 active torsions:
REMARK  status: ('A' for Active; 'I' for Inactive)
REMARK    1  A    between atoms: C2_2  and  C3_3 
REMARK    2  A    between atoms: C3_3  and  C4_4 
REMARK    3  A    between atoms: C4_4  and  N2_8 
REMARK    4  A    between atoms: C7_14  and  C8_15 
REMARK    5  A    between atoms: C8_15  and  N5_20 
REMARK    6  A    between atoms: N4_16  and  O1_18 
REMARK    7  A    between atoms: N5_20  and  C10_22 
REMARK    8  A    between atoms: C10_22  and  C11_23 
REMARK    9  A    between atoms: C11_23  and  N6_24 
REMARK   10  A    between atoms: N6_24  and  C12_27 
REMARK   11  A    between atoms: C12_27  and  C13_28 
REMARK   12  A    between atoms: C13_28  and  O2_29 
ROOT
HETATM    1  C8  UNL     1      -0.121   1.529   0.204  1.00  0.00     0.150 C 
HETATM    2  N4  UNL     1       0.200   2.568  -0.471  1.00  0.00    -0.253 N 
ATOM      3  H4  UNL     1      -0.241   3.453  -0.220  1.00  0.00     0.195 HD
ENDROOT
BRANCH   1   4
HETATM    4  C7  UNL     1      -1.090   1.631   1.297  1.00  0.00     0.357 C 
HETATM    5  N2  UNL     1      -2.281   0.841   1.110  1.00  0.00    -0.335 N 
HETATM    6  C5  UNL     1      -3.018   1.488   0.062  1.00  0.00     0.154 C 
HETATM    7  C6  UNL     1      -2.704   2.964   0.325  1.00  0.00     0.255 C 
HETATM    8  N3  UNL     1      -1.688   2.978   1.363  1.00  0.00    -0.045 N 
ATOM      9  H32 UNL     1      -1.015   3.740   1.280  1.00  0.00     0.280 HD
ATOM     10  H31 UNL     1      -2.036   3.237   2.286  1.00  0.00     0.280 HD
BRANCH   5  11
HETATM   11  C4  UNL     1      -2.605  -0.323   1.846  1.00  0.00     0.078 C 
HETATM   12  N1  UNL     1      -2.004  -0.629   2.947  1.00  0.00    -0.389 N 
ATOM     13  H12 UNL     1      -2.238  -1.468   3.478  1.00  0.00     0.157 HD
ATOM     14  H11 UNL     1      -1.281   0.020   3.256  1.00  0.00     0.157 HD
BRANCH  11  15
HETATM   15  C3  UNL     1      -3.668  -1.277   1.392  1.00  0.00     0.102 C 
BRANCH  15  16
HETATM   16  C2  UNL     1      -3.244  -1.842   0.084  1.00  0.00    -0.029 C 
HETATM   17  C1  UNL     1      -4.009  -1.655  -0.979  1.00  0.00     0.007 C 
ENDBRANCH  15  16
ENDBRANCH  11  15
ENDBRANCH   5  11
ENDBRANCH   1   4
BRANCH   1  18
HETATM   18  N5  UNL     1       0.466   0.289  -0.116  1.00  0.00    -0.369 N 
HETATM   19  C9  UNL     1       0.125  -0.459  -1.306  1.00  0.00     0.151 C 
BRANCH  18  20
HETATM   20  C10 UNL     1       1.457  -0.267   0.779  1.00  0.00     0.151 C 
BRANCH  20  21
HETATM   21  C11 UNL     1       2.851  -0.292   0.174  1.00  0.00     0.252 C 
BRANCH  21  22
HETATM   22  N6  UNL     1       2.916  -1.072  -1.015  1.00  0.00    -0.072 N 
ATOM     23  H62 UNL     1       2.592  -2.025  -0.850  1.00  0.00     0.277 HD
ATOM     24  H61 UNL     1       2.211  -0.777  -1.690  1.00  0.00     0.277 HD
BRANCH  22  25
HETATM   25  C12 UNL     1       4.218  -1.061  -1.590  1.00  0.00     0.258 C 
BRANCH  25  26
HETATM   26  C13 UNL     1       5.210  -1.804  -0.736  1.00  0.00     0.191 C 
BRANCH  26  27
HETATM   27  O2  UNL     1       6.479  -1.781  -1.327  1.00  0.00    -0.399 OA
ATOM     28  H2  UNL     1       7.105  -2.250  -0.788  1.00  0.00     0.209 HD
ENDBRANCH  26  27
ENDBRANCH  25  26
ENDBRANCH  22  25
ENDBRANCH  21  22
ENDBRANCH  20  21
ENDBRANCH  18  20
ENDBRANCH   1  18
BRANCH   2  29
HETATM   29  O1  UNL     1       1.096   2.572  -1.509  1.00  0.00    -0.288 OA
ATOM     30  H1  UNL     1       1.334   3.343  -2.010  1.00  0.00     0.244 HD
ENDBRANCH   2  29
TORSDOF 12
