REMARK  9 active torsions:
REMARK  status: ('A' for Active; 'I' for Inactive)
REMARK    1  A    between atoms: C2_2  and  N1_3 
REMARK    2  A    between atoms: N1_3  and  C3_4 
REMARK    3  A    between atoms: N1_3  and  C6_11 
REMARK    4  A    between atoms: C3_4  and  C4_5 
REMARK    5  A    between atoms: C4_5  and  N2_6 
REMARK    6  A    between atoms: C6_11  and  C7_12 
REMARK    7  A    between atoms: C7_12  and  N5_13 
REMARK    8  A    between atoms: N5_13  and  C8_15 
REMARK    9  A    between atoms: C9_18  and  N7_19 
ROOT
HETATM    1  C8  UNL     1      -3.024   0.292   0.047  1.00  0.00     0.700 A 
HETATM    2  N6  UNL     1      -3.245  -1.002   0.307  1.00  0.00    -0.022 N 
ATOM      3  H6  UNL     1      -2.450  -1.618   0.479  1.00  0.00     0.203 HD
HETATM    4  C9  UNL     1      -4.507  -1.517   0.348  1.00  0.00     0.692 A 
HETATM    5  N8  UNL     1      -5.530  -0.673   0.116  1.00  0.00    -0.175 N 
ATOM      6  H8  UNL     1      -6.482  -1.038   0.142  1.00  0.00     0.186 HD
HETATM    7  C10 UNL     1      -5.345   0.641  -0.150  1.00  0.00     0.143 A 
HETATM    8  C11 UNL     1      -6.235   1.664  -0.412  1.00  0.00     0.051 A 
HETATM    9  C12 UNL     1      -5.493   2.797  -0.611  1.00  0.00     0.022 A 
HETATM   10  C13 UNL     1      -4.178   2.428  -0.463  1.00  0.00     0.117 A 
HETATM   11  N9  UNL     1      -4.064   1.110  -0.180  1.00  0.00    -0.142 N 
ENDROOT
BRANCH   1  12
HETATM   12  N5  UNL     1      -1.834   0.746   0.006  1.00  0.00    -0.220 N 
ATOM     13  H5  UNL     1      -1.671   1.733  -0.192  1.00  0.00     0.178 HD
BRANCH  12  14
HETATM   14  C7  UNL     1      -0.726  -0.131   0.238  1.00  0.00     0.182 C 
BRANCH  14  15
HETATM   15  C6  UNL     1       0.608   0.530  -0.025  1.00  0.00     0.078 C 
BRANCH  15  16
HETATM   16  N1  UNL     1       1.744  -0.247   0.163  1.00  0.00    -0.391 N 
BRANCH  16  17
HETATM   17  C2  UNL     1       2.023  -1.328  -0.712  1.00  0.00     0.117 C 
HETATM   18  C1  UNL     1       1.585  -1.157  -2.138  1.00  0.00     0.026 C 
ENDBRANCH  16  17
BRANCH  16  19
HETATM   19  C3  UNL     1       2.204  -0.435   1.504  1.00  0.00     0.141 C 
BRANCH  19  20
HETATM   20  C4  UNL     1       3.714  -0.418   1.624  1.00  0.00     0.141 C 
BRANCH  20  21
HETATM   21  N2  UNL     1       4.320   0.802   1.219  1.00  0.00    -0.365 N 
HETATM   22  C5  UNL     1       5.336   0.801   0.450  1.00  0.00     0.197 C 
HETATM   23  N3  UNL     1       5.874  -0.421  -0.014  1.00  0.00    -0.067 NA
HETATM   24  N4  UNL     1       5.949   2.013   0.041  1.00  0.00    -0.067 NA
ATOM     25  H2  UNL     1       3.937   1.689   1.548  1.00  0.00     0.161 HD
ENDBRANCH  20  21
ENDBRANCH  19  20
ENDBRANCH  16  19
ENDBRANCH  15  16
ENDBRANCH  14  15
ENDBRANCH  12  14
ENDBRANCH   1  12
BRANCH   4  26
HETATM   26  N7  UNL     1      -4.735  -2.760   0.597  1.00  0.00    -0.234 N 
ATOM     27  H72 UNL     1      -3.960  -3.399   0.773  1.00  0.00     0.174 HD
ATOM     28  H71 UNL     1      -5.679  -3.145   0.628  1.00  0.00     0.174 HD
ENDBRANCH   4  26
TORSDOF 9
