REMARK  22 active torsions:
REMARK  status: ('A' for Active; 'I' for Inactive)
REMARK    1  A    between atoms: N1_1  and  N2_4 
REMARK    2  A    between atoms: N2_4  and  C1_5 
REMARK    3  A    between atoms: C2_6  and  N3_7 
REMARK    4  A    between atoms: C3_11  and  N4_12 
REMARK    5  A    between atoms: C4_16  and  O1_17 
REMARK    6  A    between atoms: C5_19  and  N5_20 
REMARK    7  A    between atoms: C6_24  and  N6_25 
REMARK    8  A    between atoms: N6_25  and  C7_28 
REMARK    9  A    between atoms: C7_28  and  C8_29 
REMARK   10  A    between atoms: C8_29  and  C9_30 
REMARK   11  A    between atoms: C9_30  and  C10_31 
REMARK   12  A    between atoms: C10_31  and  N7_32 
REMARK   13  A    between atoms: N7_32  and  C11_35 
REMARK   14  A    between atoms: C11_35  and  C12_36 
REMARK   15  A    between atoms: C12_36  and  C13_37 
REMARK   16  A    between atoms: C13_37  and  C14_38 
REMARK   17  A    between atoms: C13_37  and  C15_41 
REMARK   18  A    between atoms: C13_37  and  C16_44 
REMARK   19  A    between atoms: C14_38  and  O2_39 
REMARK   20  A    between atoms: C15_41  and  O3_42 
REMARK   21  A    between atoms: C16_44  and  O4_45 
REMARK   22  A    between atoms: C17_47  and  O5_48 
ROOT
HETATM    1  C1  UNL     1      -4.929  -0.556   1.167  1.00  0.00     0.162 C 
HETATM    2  C2  UNL     1      -5.868  -0.195   0.075  1.00  0.00     0.239 C 
HETATM    3  C3  UNL     1      -5.353  -0.150  -1.306  1.00  0.00     0.246 C 
HETATM    4  C4  UNL     1      -4.317   0.766  -1.713  1.00  0.00     0.183 C 
HETATM    5  C5  UNL     1      -3.516   1.540  -0.762  1.00  0.00     0.247 C 
HETATM    6  C6  UNL     1      -2.970   0.883   0.442  1.00  0.00     0.248 C 
HETATM    7  C17 UNL     1      -3.953   0.503   1.493  1.00  0.00     0.174 C 
ENDROOT
BRANCH   6   8
HETATM    8  N6  UNL     1      -1.922  -0.072   0.246  1.00  0.00    -0.066 N 
ATOM      9  H62 UNL     1      -1.721  -0.567   1.115  1.00  0.00     0.277 HD
ATOM     10  H61 UNL     1      -2.250  -0.852  -0.324  1.00  0.00     0.277 HD
BRANCH   8  11
HETATM   11  C7  UNL     1      -0.707   0.493  -0.313  1.00  0.00     0.233 C 
BRANCH  11  12
HETATM   12  C8  UNL     1       0.371  -0.556  -0.463  1.00  0.00     0.029 C 
BRANCH  12  13
HETATM   13  C9  UNL     1       1.635   0.026  -1.046  1.00  0.00     0.029 C 
BRANCH  13  14
HETATM   14  C10 UNL     1       2.219   1.113  -0.192  1.00  0.00     0.232 C 
BRANCH  14  15
HETATM   15  N7  UNL     1       3.410   1.642  -0.779  1.00  0.00    -0.075 N 
ATOM     16  H72 UNL     1       3.217   1.996  -1.716  1.00  0.00     0.277 HD
ATOM     17  H71 UNL     1       3.679   2.510  -0.316  1.00  0.00     0.277 HD
BRANCH  15  18
HETATM   18  C11 UNL     1       4.528   0.719  -0.809  1.00  0.00     0.233 C 
BRANCH  18  19
HETATM   19  C12 UNL     1       5.035   0.435   0.556  1.00  0.00     0.043 C 
BRANCH  19  20
HETATM   20  C13 UNL     1       6.205  -0.480   0.680  1.00  0.00     0.025 C 
BRANCH  20  21
HETATM   21  C14 UNL     1       6.513  -0.570   2.179  1.00  0.00     0.177 C 
BRANCH  21  22
HETATM   22  O2  UNL     1       7.568  -1.375   2.484  1.00  0.00    -0.400 OA
ATOM     23  H2  UNL     1       7.759  -1.431   3.413  1.00  0.00     0.209 HD
ENDBRANCH  21  22
ENDBRANCH  20  21
BRANCH  20  24
HETATM   24  C15 UNL     1       5.933  -1.877   0.198  1.00  0.00     0.177 C 
BRANCH  24  25
HETATM   25  O3  UNL     1       5.585  -2.008  -1.116  1.00  0.00    -0.400 OA
ATOM     26  H3  UNL     1       5.413  -2.891  -1.421  1.00  0.00     0.209 HD
ENDBRANCH  24  25
ENDBRANCH  20  24
BRANCH  20  27
HETATM   27  C16 UNL     1       7.425   0.046  -0.042  1.00  0.00     0.177 C 
BRANCH  27  28
HETATM   28  O4  UNL     1       7.861   1.260   0.421  1.00  0.00    -0.400 OA
ATOM     29  H4  UNL     1       8.627   1.590  -0.033  1.00  0.00     0.209 HD
ENDBRANCH  27  28
ENDBRANCH  20  27
ENDBRANCH  19  20
ENDBRANCH  18  19
ENDBRANCH  15  18
ENDBRANCH  14  15
ENDBRANCH  13  14
ENDBRANCH  12  13
ENDBRANCH  11  12
ENDBRANCH   8  11
ENDBRANCH   6   8
BRANCH   5  30
HETATM   30  N5  UNL     1      -4.218   2.764  -0.392  1.00  0.00    -0.070 N 
ATOM     31  H53 UNL     1      -4.478   3.316  -1.209  1.00  0.00     0.274 HD
ATOM     32  H52 UNL     1      -5.154   2.573  -0.035  1.00  0.00     0.274 HD
ATOM     33  H51 UNL     1      -3.660   3.303   0.270  1.00  0.00     0.274 HD
ENDBRANCH   5  30
BRANCH   7  34
HETATM   34  O5  UNL     1      -3.198   0.037   2.596  1.00  0.00    -0.392 OA
ATOM     35  H5  UNL     1      -2.570   0.718   2.806  1.00  0.00     0.210 HD
ENDBRANCH   7  34
BRANCH   4  36
HETATM   36  O1  UNL     1      -3.421   0.080  -2.577  1.00  0.00    -0.391 OA
ATOM     37  H1  UNL     1      -2.738   0.684  -2.845  1.00  0.00     0.210 HD
ENDBRANCH   4  36
BRANCH   1  38
HETATM   38  N2  UNL     1      -4.366  -1.889   1.075  1.00  0.00    -0.139 NA
BRANCH  38  39
HETATM   39  N1  UNL     1      -5.426  -2.831   1.142  1.00  0.00    -0.348 N 
ATOM     40  H12 UNL     1      -6.413  -2.594   1.239  1.00  0.00     0.172 HD
ATOM     41  H11 UNL     1      -5.030  -3.769   1.077  1.00  0.00     0.172 HD
ENDBRANCH  38  39
ENDBRANCH   1  38
BRANCH   3  42
HETATM   42  N4  UNL     1      -5.026  -1.543  -1.681  1.00  0.00    -0.070 N 
ATOM     43  H43 UNL     1      -4.388  -1.997  -1.027  1.00  0.00     0.274 HD
ATOM     44  H42 UNL     1      -5.809  -2.186  -1.563  1.00  0.00     0.274 HD
ATOM     45  H41 UNL     1      -4.670  -1.512  -2.636  1.00  0.00     0.274 HD
ENDBRANCH   3  42
BRANCH   2  46
HETATM   46  N3  UNL     1      -6.630   0.973   0.475  1.00  0.00    -0.071 N 
ATOM     47  H33 UNL     1      -7.105   0.840   1.368  1.00  0.00     0.274 HD
ATOM     48  H32 UNL     1      -6.032   1.753   0.747  1.00  0.00     0.274 HD
ATOM     49  H31 UNL     1      -7.275   1.221  -0.275  1.00  0.00     0.274 HD
ENDBRANCH   2  46
TORSDOF 22
