REMARK  18 active torsions:
REMARK  status: ('A' for Active; 'I' for Inactive)
REMARK    1  A    between atoms: N1_1  and  C1_5 
REMARK    2  A    between atoms: C1_5  and  N2_6 
REMARK    3  A    between atoms: N2_6  and  N3_8 
REMARK    4  A    between atoms: N3_8  and  C2_10 
REMARK    5  A    between atoms: C2_10  and  C3_11 
REMARK    6  A    between atoms: N4_12  and  C4_14 
REMARK    7  A    between atoms: C6_16  and  C7_17 
REMARK    8  A    between atoms: C7_17  and  N5_18 
REMARK    9  A    between atoms: N5_18  and  C8_21 
REMARK   10  A    between atoms: C8_21  and  C9_22 
REMARK   11  A    between atoms: C9_22  and  O1_23 
REMARK   12  A    between atoms: C10_25  and  O2_26 
REMARK   13  A    between atoms: C11_28  and  O3_29 
REMARK   14  A    between atoms: O3_29  and  C12_30 
REMARK   15  A    between atoms: C13_31  and  N6_32 
REMARK   16  A    between atoms: C15_37  and  N7_38 
REMARK   17  A    between atoms: C16_42  and  O4_43 
REMARK   18  A    between atoms: C17_45  and  N8_46 
ROOT
HETATM    1  C4  UNL     1       0.860   0.247   0.345  1.00  0.00     0.112 C 
HETATM    2  C5  UNL     1       1.586   1.099  -0.613  1.00  0.00     0.036 C 
HETATM    3  C6  UNL     1       0.816   2.465  -0.328  1.00  0.00     0.044 C 
HETATM    4  C10 UNL     1      -0.525   1.821  -0.872  1.00  0.00     0.154 C 
HETATM    5  C11 UNL     1      -0.700   0.718   0.084  1.00  0.00     0.173 C 
ENDROOT
BRANCH   5   6
HETATM    6  O3  UNL     1      -1.407  -0.284  -0.469  1.00  0.00    -0.372 OA
BRANCH   6   7
HETATM    7  C12 UNL     1      -2.149  -1.181   0.244  1.00  0.00     0.185 C 
HETATM    8  C13 UNL     1      -3.382  -0.398   0.852  1.00  0.00     0.216 C 
HETATM    9  C14 UNL     1      -4.601  -1.184   0.916  1.00  0.00     0.070 C 
HETATM   10  C15 UNL     1      -4.938  -1.990  -0.283  1.00  0.00     0.216 C 
HETATM   11  C16 UNL     1      -3.793  -2.007  -1.287  1.00  0.00     0.181 C 
HETATM   12  C17 UNL     1      -2.544  -2.370  -0.439  1.00  0.00     0.244 C 
BRANCH   8  13
HETATM   13  N6  UNL     1      -2.979  -0.165   2.258  1.00  0.00    -0.072 N 
ATOM     14  H63 UNL     1      -2.719  -1.008   2.769  1.00  0.00     0.274 HD
ATOM     15  H62 UNL     1      -2.081   0.307   2.369  1.00  0.00     0.274 HD
ATOM     16  H61 UNL     1      -3.774   0.340   2.650  1.00  0.00     0.274 HD
ENDBRANCH   8  13
BRANCH  10  17
HETATM   17  N7  UNL     1      -6.194  -1.559  -0.890  1.00  0.00    -0.072 N 
ATOM     18  H73 UNL     1      -6.956  -1.566  -0.212  1.00  0.00     0.274 HD
ATOM     19  H72 UNL     1      -6.180  -0.562  -1.105  1.00  0.00     0.274 HD
ATOM     20  H71 UNL     1      -6.426  -2.113  -1.714  1.00  0.00     0.274 HD
ENDBRANCH  10  17
BRANCH  11  21
HETATM   21  O4  UNL     1      -4.095  -2.900  -2.262  1.00  0.00    -0.391 OA
ATOM     22  H4  UNL     1      -3.381  -2.911  -2.888  1.00  0.00     0.210 HD
ENDBRANCH  11  21
BRANCH  12  23
HETATM   23  N8  UNL     1      -2.885  -3.549   0.348  1.00  0.00    -0.070 N 
ATOM     24  H83 UNL     1      -2.106  -3.768   0.969  1.00  0.00     0.274 HD
ATOM     25  H82 UNL     1      -3.609  -3.299   1.021  1.00  0.00     0.274 HD
ATOM     26  H81 UNL     1      -3.167  -4.399  -0.140  1.00  0.00     0.274 HD
ENDBRANCH  12  23
ENDBRANCH   6   7
ENDBRANCH   5   6
BRANCH   1  27
HETATM   27  N4  UNL     1       0.827  -1.161   0.179  1.00  0.00    -0.393 N 
HETATM   28  C3  UNL     1       1.938  -1.897  -0.090  1.00  0.00     0.077 C 
ATOM     29  H4  UNL     1      -0.068  -1.642   0.265  1.00  0.00     0.159 HD
BRANCH  28  30
HETATM   30  C2  UNL     1       3.151  -2.153   0.760  1.00  0.00     0.183 C 
BRANCH  30  31
HETATM   31  N3  UNL     1       3.747  -3.352   0.209  1.00  0.00    -0.335 N 
ATOM     32  H3  UNL     1       3.143  -4.174   0.230  1.00  0.00     0.180 HD
BRANCH  31  33
HETATM   33  N2  UNL     1       4.955  -3.565  -0.323  1.00  0.00    -0.315 N 
ATOM     34  H2  UNL     1       5.238  -4.515  -0.562  1.00  0.00     0.181 HD
BRANCH  33  35
HETATM   35  C1  UNL     1       5.862  -2.475  -0.563  1.00  0.00     0.368 C 
BRANCH  35  36
HETATM   36  N1  UNL     1       7.082  -2.848   0.205  1.00  0.00    -0.062 N 
ATOM     37  H13 UNL     1       6.913  -3.044   1.192  1.00  0.00     0.276 HD
ATOM     38  H12 UNL     1       7.459  -3.767  -0.027  1.00  0.00     0.276 HD
ATOM     39  H11 UNL     1       7.725  -2.075   0.035  1.00  0.00     0.276 HD
ENDBRANCH  35  36
ENDBRANCH  33  35
ENDBRANCH  31  33
ENDBRANCH  30  31
ENDBRANCH  28  30
ENDBRANCH   1  27
BRANCH   4  40
HETATM   40  O2  UNL     1      -1.503   2.633  -1.228  1.00  0.00    -0.392 OA
ATOM     41  H2  UNL     1      -2.307   2.247  -1.554  1.00  0.00     0.210 HD
ENDBRANCH   4  40
BRANCH   3  42
HETATM   42  C7  UNL     1       1.250   3.444  -1.349  1.00  0.00     0.239 C 
BRANCH  42  43
HETATM   43  N5  UNL     1       0.590   4.747  -0.947  1.00  0.00    -0.073 N 
ATOM     44  H52 UNL     1       0.405   5.431  -1.681  1.00  0.00     0.277 HD
ATOM     45  H51 UNL     1      -0.390   4.715  -0.666  1.00  0.00     0.277 HD
BRANCH  43  46
HETATM   46  C8  UNL     1       1.648   5.118   0.144  1.00  0.00     0.258 C 
BRANCH  46  47
HETATM   47  C9  UNL     1       1.286   6.355   0.830  1.00  0.00     0.191 C 
BRANCH  47  48
HETATM   48  O1  UNL     1      -0.029   6.162   1.373  1.00  0.00    -0.399 OA
ATOM     49  H1  UNL     1      -0.265   6.967   1.819  1.00  0.00     0.209 HD
ENDBRANCH  47  48
ENDBRANCH  46  47
ENDBRANCH  43  46
ENDBRANCH  42  43
ENDBRANCH   3  42
TORSDOF 18
