REMARK  20 active torsions:
REMARK  status: ('A' for Active; 'I' for Inactive)
REMARK    1  A    between atoms: N1_1  and  C1_5 
REMARK    2  A    between atoms: C1_5  and  C2_6 
REMARK    3  A    between atoms: C2_6  and  C3_7 
REMARK    4  A    between atoms: C2_6  and  N3_18 
REMARK    5  A    between atoms: C3_7  and  O1_8 
REMARK    6  A    between atoms: O1_8  and  C4_9 
REMARK    7  A    between atoms: C4_9  and  C5_10 
REMARK    8  A    between atoms: C5_10  and  N2_11 
REMARK    9  A    between atoms: N2_11  and  C6_14 
REMARK   10  A    between atoms: C6_14  and  C7_15 
REMARK   11  A    between atoms: C7_15  and  O2_16 
REMARK   12  A    between atoms: N3_18  and  C8_20 
REMARK   13  A    between atoms: C8_20  and  C9_21 
REMARK   14  A    between atoms: C10_24  and  O3_25 
REMARK   15  A    between atoms: O3_25  and  C11_26 
REMARK   16  A    between atoms: C12_30  and  N6_31 
REMARK   17  A    between atoms: C14_36  and  N7_37 
REMARK   18  A    between atoms: C15_41  and  N8_42 
REMARK   19  A    between atoms: C16_46  and  O4_47 
REMARK   20  A    between atoms: C17_49  and  O5_50 
ROOT
HETATM    1  C9  UNL     1      -1.517  -0.699  -0.405  1.00  0.00     0.127 C 
HETATM    2  N4  UNL     1      -1.815   0.624  -0.036  1.00  0.00    -0.387 N 
ATOM      3  H4  UNL     1      -1.246   1.403  -0.367  1.00  0.00     0.156 HD
HETATM    4  C10 UNL     1      -2.944   0.844   0.820  1.00  0.00     0.253 C 
HETATM    5  C15 UNL     1      -2.719   0.104   2.092  1.00  0.00     0.262 C 
HETATM    6  C16 UNL     1      -2.220  -1.289   1.929  1.00  0.00     0.183 C 
HETATM    7  C17 UNL     1      -2.077  -1.760   0.508  1.00  0.00     0.173 C 
ENDROOT
BRANCH   1   8
HETATM    8  C8  UNL     1      -0.037  -0.919  -0.639  1.00  0.00     0.141 C 
BRANCH   8   9
HETATM    9  N3  UNL     1       0.735  -0.652   0.517  1.00  0.00    -0.411 N 
ATOM     10  H3  UNL     1       0.304  -0.356   1.393  1.00  0.00     0.153 HD
BRANCH   9  11
HETATM   11  C2  UNL     1       2.143  -0.818   0.395  1.00  0.00     0.125 C 
BRANCH  11  12
HETATM   12  C1  UNL     1       2.516  -2.251   0.077  1.00  0.00     0.256 C 
BRANCH  12  13
HETATM   13  N1  UNL     1       3.922  -2.514   0.145  1.00  0.00    -0.077 N 
ATOM     14  H13 UNL     1       4.437  -1.868  -0.454  1.00  0.00     0.274 HD
ATOM     15  H12 UNL     1       4.294  -2.240   1.054  1.00  0.00     0.274 HD
ATOM     16  H11 UNL     1       4.173  -3.479  -0.069  1.00  0.00     0.274 HD
ENDBRANCH  12  13
ENDBRANCH  11  12
BRANCH  11  17
HETATM   17  C3  UNL     1       2.804   0.092  -0.579  1.00  0.00     0.194 C 
BRANCH  17  18
HETATM   18  O1  UNL     1       4.170  -0.171  -0.590  1.00  0.00    -0.387 OA
BRANCH  18  19
HETATM   19  C4  UNL     1       4.826   0.660  -1.493  1.00  0.00     0.195 C 
BRANCH  19  20
HETATM   20  C5  UNL     1       6.305   0.317  -1.436  1.00  0.00     0.258 C 
BRANCH  20  21
HETATM   21  N2  UNL     1       6.826   0.532  -0.096  1.00  0.00    -0.071 N 
ATOM     22  H22 UNL     1       6.637   1.481   0.226  1.00  0.00     0.277 HD
ATOM     23  H21 UNL     1       6.285   0.016   0.598  1.00  0.00     0.277 HD
BRANCH  21  24
HETATM   24  C6  UNL     1       8.219   0.221  -0.004  1.00  0.00     0.258 C 
BRANCH  24  25
HETATM   25  C7  UNL     1       8.635   0.485   1.450  1.00  0.00     0.191 C 
BRANCH  25  26
HETATM   26  O2  UNL     1       8.418   1.799   1.792  1.00  0.00    -0.399 OA
ATOM     27  H2  UNL     1       8.675   1.962   2.692  1.00  0.00     0.209 HD
ENDBRANCH  25  26
ENDBRANCH  24  25
ENDBRANCH  21  24
ENDBRANCH  20  21
ENDBRANCH  19  20
ENDBRANCH  18  19
ENDBRANCH  17  18
ENDBRANCH  11  17
ENDBRANCH   9  11
ENDBRANCH   8   9
ENDBRANCH   1   8
BRANCH   7  28
HETATM   28  O5  UNL     1      -3.245  -2.345   0.016  1.00  0.00    -0.391 OA
ATOM     29  H5  UNL     1      -3.598  -3.014   0.591  1.00  0.00     0.210 HD
ENDBRANCH   7  28
BRANCH   4  30
HETATM   30  O3  UNL     1      -4.095   0.533   0.147  1.00  0.00    -0.330 OA
BRANCH  30  31
HETATM   31  C11 UNL     1      -4.953   1.571  -0.086  1.00  0.00     0.356 C 
HETATM   32  N5  UNL     1      -5.209   1.860  -1.458  1.00  0.00    -0.018 N 
HETATM   33  C12 UNL     1      -6.294   0.958  -1.802  1.00  0.00     0.385 C 
ATOM     34  H52 UNL     1      -5.400   2.843  -1.653  1.00  0.00     0.282 HD
ATOM     35  H51 UNL     1      -4.392   1.787  -2.064  1.00  0.00     0.282 HD
HETATM   36  C13 UNL     1      -7.129   0.828  -0.536  1.00  0.00     0.099 C 
HETATM   37  C14 UNL     1      -6.294   1.481   0.542  1.00  0.00     0.243 C 
BRANCH  33  38
HETATM   38  N6  UNL     1      -5.803  -0.339  -2.167  1.00  0.00    -0.050 N 
ATOM     39  H63 UNL     1      -5.115  -0.280  -2.917  1.00  0.00     0.276 HD
ATOM     40  H62 UNL     1      -5.208  -0.732  -1.437  1.00  0.00     0.276 HD
ATOM     41  H61 UNL     1      -6.565  -0.973  -2.409  1.00  0.00     0.276 HD
ENDBRANCH  33  38
BRANCH  37  42
HETATM   42  N7  UNL     1      -6.855   2.787   0.809  1.00  0.00    -0.071 N 
ATOM     43  H73 UNL     1      -6.220   3.355   1.370  1.00  0.00     0.274 HD
ATOM     44  H72 UNL     1      -6.879   3.359  -0.035  1.00  0.00     0.274 HD
ATOM     45  H71 UNL     1      -7.777   2.725   1.241  1.00  0.00     0.274 HD
ENDBRANCH  37  42
ENDBRANCH  30  31
ENDBRANCH   4  30
BRANCH   6  46
HETATM   46  O4  UNL     1      -3.060  -2.215   2.591  1.00  0.00    -0.391 OA
ATOM     47  H4  UNL     1      -2.742  -3.104   2.487  1.00  0.00     0.210 HD
ENDBRANCH   6  46
BRANCH   5  48
HETATM   48  N8  UNL     1      -1.754   0.901   2.875  1.00  0.00    -0.068 N 
ATOM     49  H83 UNL     1      -0.893   1.104   2.368  1.00  0.00     0.275 HD
ATOM     50  H82 UNL     1      -2.049   1.867   3.016  1.00  0.00     0.275 HD
ATOM     51  H81 UNL     1      -1.600   0.394   3.747  1.00  0.00     0.275 HD
ENDBRANCH   5  48
TORSDOF 20
