REMARK  21 active torsions:
REMARK  status: ('A' for Active; 'I' for Inactive)
REMARK    1  A    between atoms: C1_4  and  N2_5 
REMARK    2  A    between atoms: C1_4  and  O1_10 
REMARK    3  A    between atoms: N2_5  and  N3_7 
REMARK    4  A    between atoms: O1_10  and  C2_11 
REMARK    5  A    between atoms: C3_12  and  O2_13 
REMARK    6  A    between atoms: C4_15  and  C5_16 
REMARK    7  A    between atoms: C5_16  and  N4_17 
REMARK    8  A    between atoms: C6_21  and  O3_22 
REMARK    9  A    between atoms: C7_24  and  N5_25 
REMARK   10  A    between atoms: C8_29  and  O4_30 
REMARK   11  A    between atoms: C9_32  and  N6_33 
REMARK   12  A    between atoms: N6_33  and  C10_35 
REMARK   13  A    between atoms: C10_35  and  C11_36 
REMARK   14  A    between atoms: C11_36  and  N7_37 
REMARK   15  A    between atoms: N7_37  and  C12_40 
REMARK   16  A    between atoms: C12_40  and  C13_41 
REMARK   17  A    between atoms: C13_41  and  N8_42 
REMARK   18  A    between atoms: N8_42  and  C14_45 
REMARK   19  A    between atoms: C14_45  and  C15_46 
REMARK   20  A    between atoms: C15_46  and  N9_47 
REMARK   21  A    between atoms: N9_47  and  N10_48 
ROOT
HETATM    1  C2  UNL     1      -2.542  -0.675  -0.491  1.00  0.00     0.186 C 
HETATM    2  C3  UNL     1      -3.985  -0.354  -0.590  1.00  0.00     0.158 C 
HETATM    3  C4  UNL     1      -4.290   1.034  -1.046  1.00  0.00     0.073 C 
HETATM    4  C6  UNL     1      -3.709   2.166  -0.341  1.00  0.00     0.159 C 
HETATM    5  C7  UNL     1      -3.195   2.029   1.042  1.00  0.00     0.243 C 
HETATM    6  C8  UNL     1      -1.985   1.138   1.203  1.00  0.00     0.176 C 
HETATM    7  C9  UNL     1      -1.624   0.395  -0.021  1.00  0.00     0.139 C 
ENDROOT
BRANCH   7   8
HETATM    8  N6  UNL     1      -0.300  -0.158   0.097  1.00  0.00    -0.411 N 
ATOM      9  H6  UNL     1      -0.051  -1.067  -0.294  1.00  0.00     0.153 HD
BRANCH   8  10
HETATM   10  C10 UNL     1       0.647   0.661   0.805  1.00  0.00     0.142 C 
BRANCH  10  11
HETATM   11  C11 UNL     1       2.034  -0.010   0.722  1.00  0.00     0.251 C 
BRANCH  11  12
HETATM   12  N7  UNL     1       2.352  -0.088  -0.669  1.00  0.00    -0.072 N 
ATOM     13  H72 UNL     1       1.627  -0.577  -1.194  1.00  0.00     0.277 HD
ATOM     14  H71 UNL     1       2.283   0.823  -1.122  1.00  0.00     0.277 HD
BRANCH  12  15
HETATM   15  C12 UNL     1       3.641  -0.682  -0.870  1.00  0.00     0.259 C 
BRANCH  15  16
HETATM   16  C13 UNL     1       4.708   0.250  -0.362  1.00  0.00     0.259 C 
BRANCH  16  17
HETATM   17  N8  UNL     1       5.986  -0.415  -0.605  1.00  0.00    -0.072 N 
ATOM     18  H82 UNL     1       6.030  -1.349  -0.196  1.00  0.00     0.277 HD
ATOM     19  H81 UNL     1       6.111  -0.688  -1.580  1.00  0.00     0.277 HD
BRANCH  17  20
HETATM   20  C14 UNL     1       7.036   0.455  -0.128  1.00  0.00     0.250 C 
BRANCH  20  21
HETATM   21  C15 UNL     1       8.396  -0.207  -0.375  1.00  0.00     0.161 C 
BRANCH  21  22
HETATM   22  N9  UNL     1       9.430   0.689   0.117  1.00  0.00    -0.147 NA
BRANCH  22  23
HETATM   23  N10 UNL     1      10.693   0.170  -0.070  1.00  0.00    -0.348 N 
ATOM     24 2H10 UNL     1      10.865  -0.737  -0.504  1.00  0.00     0.172 HD
ATOM     25 1H10 UNL     1      11.418   0.799   0.275  1.00  0.00     0.172 HD
ENDBRANCH  22  23
ENDBRANCH  21  22
ENDBRANCH  20  21
ENDBRANCH  17  20
ENDBRANCH  16  17
ENDBRANCH  15  16
ENDBRANCH  12  15
ENDBRANCH  11  12
ENDBRANCH  10  11
ENDBRANCH   8  10
ENDBRANCH   7   8
BRANCH   1  26
HETATM   26  O1  UNL     1      -2.371  -1.904   0.186  1.00  0.00    -0.311 OA
BRANCH  26  27
HETATM   27  C1  UNL     1      -2.909  -3.104  -0.315  1.00  0.00     0.232 C 
HETATM   28  N1  UNL     1      -2.799  -3.240  -1.590  1.00  0.00    -0.364 N 
ATOM     29  H12 UNL     1      -3.189  -4.110  -1.953  1.00  0.00     0.159 HD
ATOM     30  H11 UNL     1      -2.360  -2.535  -2.182  1.00  0.00     0.159 HD
BRANCH  27  31
HETATM   31  N2  UNL     1      -3.514  -4.076   0.500  1.00  0.00    -0.272 N 
ATOM     32  H2  UNL     1      -3.168  -4.230   1.447  1.00  0.00     0.190 HD
BRANCH  31  33
HETATM   33  N3  UNL     1      -4.577  -4.827   0.025  1.00  0.00    -0.342 N 
ATOM     34  H32 UNL     1      -4.910  -4.661  -0.925  1.00  0.00     0.176 HD
ATOM     35  H31 UNL     1      -5.016  -5.532   0.617  1.00  0.00     0.176 HD
ENDBRANCH  31  33
ENDBRANCH  27  31
ENDBRANCH  26  27
ENDBRANCH   1  26
BRANCH   6  36
HETATM   36  O4  UNL     1      -2.091   0.319   2.332  1.00  0.00    -0.391 OA
ATOM     37  H4  UNL     1      -1.330  -0.241   2.433  1.00  0.00     0.210 HD
ENDBRANCH   6  36
BRANCH   2  38
HETATM   38  O2  UNL     1      -4.731  -0.767   0.512  1.00  0.00    -0.392 OA
ATOM     39  H2  UNL     1      -5.656  -0.561   0.449  1.00  0.00     0.210 HD
ENDBRANCH   2  38
BRANCH   5  40
HETATM   40  N5  UNL     1      -4.196   1.740   2.051  1.00  0.00    -0.070 N 
ATOM     41  H53 UNL     1      -4.936   2.441   2.021  1.00  0.00     0.274 HD
ATOM     42  H52 UNL     1      -4.726   0.908   1.790  1.00  0.00     0.274 HD
ATOM     43  H51 UNL     1      -3.842   1.646   3.003  1.00  0.00     0.274 HD
ENDBRANCH   5  40
BRANCH   3  44
HETATM   44  C5  UNL     1      -5.815   1.147  -1.231  1.00  0.00     0.239 C 
BRANCH  44  45
HETATM   45  N4  UNL     1      -6.517   0.892  -0.013  1.00  0.00    -0.079 N 
ATOM     46  H43 UNL     1      -6.257  -0.011   0.384  1.00  0.00     0.274 HD
ATOM     47  H42 UNL     1      -6.188   1.497   0.739  1.00  0.00     0.274 HD
ATOM     48  H41 UNL     1      -7.527   0.967  -0.136  1.00  0.00     0.274 HD
ENDBRANCH  44  45
ENDBRANCH   3  44
BRANCH   4  49
HETATM   49  O3  UNL     1      -4.700   3.184  -0.278  1.00  0.00    -0.393 OA
ATOM     50  H3  UNL     1      -4.321   3.923   0.182  1.00  0.00     0.210 HD
ENDBRANCH   4  49
TORSDOF 21
