REMARK  2 active torsions:
REMARK  status: ('A' for Active; 'I' for Inactive)
REMARK    1  A    between atoms: N1_2  and  C2_4 
REMARK    2  A    between atoms: C6_9  and  O2_10 
ROOT
HETATM    1  C2  UNL     1       2.447  -0.391   0.486  1.00  0.00     0.123 C 
HETATM    2  C3  UNL     1       1.386   0.462   1.116  1.00  0.00     0.195 C 
HETATM    3  O1  UNL     1       0.472   0.999   0.270  1.00  0.00    -0.380 OA
HETATM    4  C4  UNL     1      -0.234   0.115  -0.509  1.00  0.00     0.173 C 
HETATM    5  C5  UNL     1      -1.617   0.622  -0.852  1.00  0.00     0.098 C 
HETATM    6  C6  UNL     1      -2.698  -0.028  -0.033  1.00  0.00     0.285 C 
HETATM    7  O3  UNL     1      -2.566  -1.380   0.114  1.00  0.00    -0.251 OA
HETATM    8  N2  UNL     1      -1.472  -1.905  -0.477  1.00  0.00    -0.063 NA
HETATM    9  C8  UNL     1      -0.246  -1.287   0.041  1.00  0.00     0.270 C 
HETATM   10  O4  UNL     1       0.832  -1.961  -0.454  1.00  0.00    -0.363 OA
HETATM   11  C9  UNL     1       2.033  -1.779   0.152  1.00  0.00     0.197 C 
ENDROOT
BRANCH   1  12
HETATM   12  N1  UNL     1       3.129   0.222  -0.609  1.00  0.00    -0.417 N 
HETATM   13  C1  UNL     1       3.865   1.405  -0.289  1.00  0.00     0.140 C 
ATOM     14  H1  UNL     1       3.093  -0.158  -1.555  1.00  0.00     0.153 HD
ENDBRANCH   1  12
BRANCH   6  15
HETATM   15  O2  UNL     1      -3.900   0.226  -0.691  1.00  0.00    -0.364 OA
HETATM   16  C7  UNL     1      -4.775   0.992   0.095  1.00  0.00     0.204 C 
ENDBRANCH   6  15
TORSDOF 2
