REMARK  0 active torsions:
REMARK  status: ('A' for Active; 'I' for Inactive)
ROOT
HETATM    1  C1  UNL     1      -4.461  -1.463   0.175  1.00  0.00     0.309 C 
HETATM    2  N1  UNL     1      -3.332  -0.623   0.388  1.00  0.00     0.085 N 
HETATM    3  C2  UNL     1      -2.099  -1.114  -0.129  1.00  0.00     0.272 C 
HETATM    4  C3  UNL     1      -1.858  -2.521   0.340  1.00  0.00     0.030 C 
HETATM    5  C4  UNL     1      -0.787  -3.230  -0.469  1.00  0.00     0.002 C 
HETATM    6  C5  UNL     1       0.414  -3.536   0.383  1.00  0.00     0.000 C 
HETATM    7  C6  UNL     1       1.678  -2.972  -0.255  1.00  0.00     0.000 C 
HETATM    8  C7  UNL     1       2.198  -1.905   0.678  1.00  0.00     0.000 C 
HETATM    9  C8  UNL     1       3.575  -1.434   0.334  1.00  0.00     0.000 C 
HETATM   10  C9  UNL     1       3.616  -0.258  -0.582  1.00  0.00     0.002 C 
HETATM   11  C10 UNL     1       3.782   1.063   0.166  1.00  0.00     0.027 C 
HETATM   12  C11 UNL     1       2.460   1.752   0.310  1.00  0.00     0.232 C 
HETATM   13  N2  UNL     1       2.393   3.007  -0.413  1.00  0.00    -0.075 N 
ATOM     14  H21 UNL     1       3.028   3.041  -1.211  1.00  0.00     0.277 HD
ATOM     15  H22 UNL     1       2.792   3.788   0.108  1.00  0.00     0.277 HD
HETATM   16  C12 UNL     1       0.989   3.227  -0.789  1.00  0.00     0.233 C 
HETATM   17  C13 UNL     1       0.274   3.787   0.411  1.00  0.00     0.055 C 
HETATM   18  C14 UNL     1      -1.199   3.518   0.411  1.00  0.00     0.234 C 
HETATM   19  N3  UNL     1      -1.541   2.166   0.036  1.00  0.00    -0.073 N 
ATOM     20  H31 UNL     1      -0.719   1.562   0.017  1.00  0.00     0.277 HD
ATOM     21  H32 UNL     1      -1.802   2.104  -0.948  1.00  0.00     0.277 HD
HETATM   22  C15 UNL     1      -2.578   1.631   0.899  1.00  0.00     0.262 C 
HETATM   23  C16 UNL     1      -3.563   0.766   0.116  1.00  0.00     0.299 C 
ENDROOT
TORSDOF 0
