REMARK  0 active torsions:
REMARK  status: ('A' for Active; 'I' for Inactive)
ROOT
HETATM    1  O1  UNL     1       0.822   3.554  -1.439  1.00  0.00    -0.267 OA
HETATM    2  C1  UNL     1       0.971   2.366  -0.987  1.00  0.00     0.257 A 
HETATM    3  N1  UNL     1       2.187   1.842  -0.866  1.00  0.00    -0.322 N 
ATOM      4  H1  UNL     1       3.007   2.387  -1.134  1.00  0.00     0.169 HD
HETATM    5  C2  UNL     1       2.335   0.597  -0.392  1.00  0.00     0.046 A 
HETATM    6  C3  UNL     1       3.613   0.055  -0.268  1.00  0.00     0.030 A 
HETATM    7  C4  UNL     1       3.804  -1.213   0.212  1.00  0.00     0.002 A 
HETATM    8  C5  UNL     1       2.703  -1.923   0.564  1.00  0.00     0.001 A 
HETATM    9  C6  UNL     1       1.386  -1.430   0.462  1.00  0.00     0.014 A 
HETATM   10  C7  UNL     1       1.212  -0.172  -0.016  1.00  0.00     0.004 A 
HETATM   11  C8  UNL     1      -0.054   0.377  -0.143  1.00  0.00     0.020 A 
HETATM   12  C9  UNL     1      -0.159   1.667  -0.638  1.00  0.00     0.045 A 
HETATM   13  C10 UNL     1      -1.408   2.231  -0.772  1.00  0.00     0.019 A 
HETATM   14  C11 UNL     1      -2.523   1.520  -0.420  1.00  0.00     0.018 A 
HETATM   15  C12 UNL     1      -2.406   0.233   0.074  1.00  0.00     0.030 A 
HETATM   16  C13 UNL     1      -3.585  -0.405   0.402  1.00  0.00     0.114 A 
HETATM   17  S1  UNL     1      -5.046   0.328   0.217  1.00  0.00    -0.059 SA
HETATM   18  N2  UNL     1      -3.473  -1.652   0.880  1.00  0.00    -0.343 N 
ATOM     19  H2  UNL     1      -4.319  -2.161   1.136  1.00  0.00     0.167 HD
HETATM   20  C14 UNL     1      -2.290  -2.247   1.031  1.00  0.00     0.182 A 
HETATM   21  N3  UNL     1      -1.178  -1.579   0.695  1.00  0.00    -0.351 N 
ATOM     22  H3  UNL     1      -0.285  -2.055   0.819  1.00  0.00     0.166 HD
HETATM   23  C15 UNL     1      -1.155  -0.353   0.216  1.00  0.00     0.058 A 
ENDROOT
TORSDOF 0
