REMARK  13 active torsions:
REMARK  status: ('A' for Active; 'I' for Inactive)
REMARK    1  A    between atoms: C2_2  and  C3_3 
REMARK    2  A    between atoms: C3_3  and  N1_4 
REMARK    3  A    between atoms: N1_4  and  C4_6 
REMARK    4  A    between atoms: C4_6  and  O1_7 
REMARK    5  A    between atoms: C4_6  and  N2_9 
REMARK    6  A    between atoms: N2_9  and  C5_11 
REMARK    7  A    between atoms: C5_11  and  O2_12 
REMARK    8  A    between atoms: C5_11  and  C6_14 
REMARK    9  A    between atoms: C6_14  and  O3_15 
REMARK   10  A    between atoms: O3_15  and  C7_16 
REMARK   11  A    between atoms: C7_16  and  C8_18 
REMARK   12  A    between atoms: C8_18  and  C9_19 
REMARK   13  A    between atoms: C11_21  and  C12_22 
ROOT
HETATM    1  C6  UNL     1       2.296  -0.480   0.317  1.00  0.00     0.262 C 
ENDROOT
BRANCH   1   2
HETATM    2  C5  UNL     1       2.683  -1.861   0.496  1.00  0.00     0.143 C 
BRANCH   2   3
HETATM    3  N2  UNL     1       3.918  -2.470   0.353  1.00  0.00    -0.305 N 
ATOM      4  H2  UNL     1       3.936  -3.473   0.540  1.00  0.00     0.171 HD
BRANCH   3   5
HETATM    5  C4  UNL     1       5.145  -1.904  -0.012  1.00  0.00     0.218 C 
BRANCH   5   6
HETATM    6  N1  UNL     1       5.416  -0.566  -0.325  1.00  0.00    -0.353 N 
ATOM      7  H1  UNL     1       4.682   0.142  -0.307  1.00  0.00     0.163 HD
BRANCH   6   8
HETATM    8  C3  UNL     1       6.812  -0.220  -0.683  1.00  0.00     0.149 C 
BRANCH   8   9
HETATM    9  C2  UNL     1       6.876   1.219  -0.972  1.00  0.00    -0.018 C 
HETATM   10  C1  UNL     1       7.649   2.048  -0.284  1.00  0.00     0.008 C 
ENDBRANCH   8   9
ENDBRANCH   6   8
ENDBRANCH   5   6
BRANCH   5  11
HETATM   11  O1  UNL     1       6.169  -2.712  -0.072  1.00  0.00    -0.332 OA
ATOM     12  H1  UNL     1       5.985  -3.620   0.140  1.00  0.00     0.220 HD
ENDBRANCH   5  11
ENDBRANCH   3   5
ENDBRANCH   2   3
BRANCH   2  13
HETATM   13  O2  UNL     1       1.724  -2.671   0.847  1.00  0.00    -0.348 OA
ATOM     14  H2  UNL     1       0.877  -2.253   0.945  1.00  0.00     0.219 HD
ENDBRANCH   2  13
ENDBRANCH   1   2
BRANCH   1  15
HETATM   15  O3  UNL     1       0.925  -0.228   0.620  1.00  0.00    -0.313 OA
BRANCH  15  16
HETATM   16  C7  UNL     1       0.343  -0.384   1.852  1.00  0.00     0.259 C 
HETATM   17  O4  UNL     1       1.048  -0.773   2.813  1.00  0.00    -0.265 OA
BRANCH  16  18
HETATM   18  C8  UNL     1      -1.101  -0.109   2.095  1.00  0.00     0.121 C 
BRANCH  18  19
HETATM   19  C9  UNL     1      -1.809   0.348   0.847  1.00  0.00    -0.020 A 
HETATM   20  C10 UNL     1      -1.273   1.607   0.232  1.00  0.00     0.017 C 
HETATM   21  C11 UNL     1      -3.306   0.203   0.753  1.00  0.00     0.026 A 
HETATM   22  C16 UNL     1      -2.420  -0.713   0.009  1.00  0.00    -0.032 A 
HETATM   23  C17 UNL     1      -2.208  -0.580  -1.471  1.00  0.00     0.016 C 
HETATM   24  C18 UNL     1      -2.365  -2.129   0.530  1.00  0.00     0.016 C 
BRANCH  21  25
HETATM   25  C12 UNL     1      -4.073   1.174  -0.068  1.00  0.00    -0.019 C 
HETATM   26  C13 UNL     1      -5.390   1.217  -0.081  1.00  0.00    -0.091 C 
HETATM   27  C14 UNL     1      -6.108   2.205  -0.917  1.00  0.00     0.042 C 
HETATM   28  C15 UNL     1      -6.174   0.269   0.748  1.00  0.00     0.042 C 
ENDBRANCH  21  25
ENDBRANCH  18  19
ENDBRANCH  16  18
ENDBRANCH  15  16
ENDBRANCH   1  15
TORSDOF 13
