REMARK  9 active torsions:
REMARK  status: ('A' for Active; 'I' for Inactive)
REMARK    1  A    between atoms: C2_2  and  N1_3 
REMARK    2  A    between atoms: N1_3  and  C3_4 
REMARK    3  A    between atoms: N1_3  and  C5_6 
REMARK    4  A    between atoms: C5_6  and  C6_7 
REMARK    5  A    between atoms: C6_7  and  N2_8 
REMARK    6  A    between atoms: N2_8  and  C7_10 
REMARK    7  A    between atoms: C7_10  and  N3_12 
REMARK    8  A    between atoms: N3_12  and  N4_14 
REMARK    9  A    between atoms: C8_16  and  C9_17 
ROOT
HETATM    1  N3  UNL     1       0.712   1.428   0.974  1.00  0.00    -0.277 N 
ATOM      2  H3  UNL     1       0.376   2.143   1.620  1.00  0.00     0.189 HD
ENDROOT
BRANCH   1   3
HETATM    3  C7  UNL     1       1.832   1.694   0.125  1.00  0.00     0.186 C 
HETATM    4  S1  UNL     1       2.523   3.166   0.186  1.00  0.00    -0.040 SA
BRANCH   3   5
HETATM    5  N2  UNL     1       2.320   0.723  -0.788  1.00  0.00    -0.364 N 
ATOM      6  H2  UNL     1       1.854  -0.182  -0.855  1.00  0.00     0.162 HD
BRANCH   5   7
HETATM    7  C6  UNL     1       3.446   0.991  -1.609  1.00  0.00     0.152 C 
BRANCH   7   8
HETATM    8  C5  UNL     1       4.729   1.069  -0.917  1.00  0.00     0.292 C 
BRANCH   8   9
HETATM    9  N1  UNL     1       5.318  -0.050  -0.321  1.00  0.00     0.089 N 
BRANCH   9  10
HETATM   10  C2  UNL     1       6.404   0.542   0.550  1.00  0.00     0.268 C 
HETATM   11  C1  UNL     1       7.442  -0.518   0.778  1.00  0.00     0.037 C 
ENDBRANCH   9  10
BRANCH   9  12
HETATM   12  C3  UNL     1       4.624  -1.027   0.363  1.00  0.00     0.268 C 
HETATM   13  C4  UNL     1       3.959  -2.050  -0.514  1.00  0.00     0.037 C 
ENDBRANCH   9  12
ENDBRANCH   8   9
ENDBRANCH   7   8
ENDBRANCH   5   7
ENDBRANCH   3   5
ENDBRANCH   1   3
BRANCH   1  14
HETATM   14  N4  UNL     1       0.107   0.235   0.916  1.00  0.00    -0.309 N 
HETATM   15  C8  UNL     1      -1.036  -0.191   0.703  1.00  0.00     0.116 C 
ATOM     16  H4  UNL     1       0.762  -0.526   1.095  1.00  0.00     0.186 HD
BRANCH  15  17
HETATM   17  C9  UNL     1      -2.210   0.664   0.412  1.00  0.00    -0.016 C 
HETATM   18  C10 UNL     1      -2.120   2.134   0.327  1.00  0.00     0.052 C 
HETATM   19  C11 UNL     1      -3.360   0.045   0.218  1.00  0.00     0.054 C 
HETATM   20  C12 UNL     1      -4.658   0.647  -0.080  1.00  0.00     0.069 C 
HETATM   21  O1  UNL     1      -3.393  -1.370   0.296  1.00  0.00    -0.350 OA
HETATM   22  C13 UNL     1      -5.233  -0.141  -1.264  1.00  0.00    -0.010 C 
HETATM   23  C14 UNL     1      -6.490   0.615  -1.669  1.00  0.00     0.010 C 
HETATM   24  C15 UNL     1      -5.477  -1.570  -0.913  1.00  0.00     0.036 C 
HETATM   25  C16 UNL     1      -4.631  -2.047   0.243  1.00  0.00     0.124 C 
HETATM   26  C17 UNL     1      -5.361  -1.980   1.572  1.00  0.00     0.040 C 
ENDBRANCH  15  17
ENDBRANCH   1  14
TORSDOF 9
