REMARK  7 active torsions:
REMARK  status: ('A' for Active; 'I' for Inactive)
REMARK    1  A    between atoms: C5_5  and  C6_6 
REMARK    2  A    between atoms: C6_6  and  C7_7 
REMARK    3  A    between atoms: C7_7  and  C8_8 
REMARK    4  A    between atoms: C8_8  and  N1_9 
REMARK    5  A    between atoms: C11_12  and  N2_13 
REMARK    6  A    between atoms: N2_13  and  C12_15 
REMARK    7  A    between atoms: C12_15  and  C13_16 
ROOT
HETATM    1  N1  UNL     1      -0.225   1.155   0.624  1.00  0.00    -0.393 N 
HETATM    2  C9  UNL     1       0.136  -0.054   1.246  1.00  0.00     0.123 C 
HETATM    3  C10 UNL     1       1.592   0.058   1.762  1.00  0.00     0.044 C 
HETATM    4  C11 UNL     1       2.313   0.958   0.785  1.00  0.00     0.079 C 
HETATM    5  C17 UNL     1       1.759   0.715  -0.606  1.00  0.00     0.044 C 
HETATM    6  C18 UNL     1       0.390   1.360  -0.673  1.00  0.00     0.123 C 
ENDROOT
BRANCH   4   7
HETATM    7  N2  UNL     1       3.738   0.856   0.830  1.00  0.00    -0.414 N 
ATOM      8  H2  UNL     1       4.333   1.642   1.090  1.00  0.00     0.153 HD
BRANCH   7   9
HETATM    9  C12 UNL     1       4.270  -0.424   0.485  1.00  0.00     0.147 C 
BRANCH   9  10
HETATM   10  C13 UNL     1       5.797  -0.305   0.559  1.00  0.00     0.164 C 
HETATM   11  C14 UNL     1       6.273   0.726  -0.468  1.00  0.00     0.265 C 
HETATM   12  N3  UNL     1       7.407   0.146  -1.204  1.00  0.00    -0.071 N 
HETATM   13  C15 UNL     1       8.324  -0.355  -0.193  1.00  0.00     0.258 C 
ATOM     14  H32 UNL     1       7.131  -0.558  -1.889  1.00  0.00     0.277 HD
ATOM     15  H31 UNL     1       7.840   0.794  -1.862  1.00  0.00     0.277 HD
HETATM   16  C16 UNL     1       7.692  -1.613   0.387  1.00  0.00     0.196 C 
HETATM   17  O1  UNL     1       6.315  -1.551   0.229  1.00  0.00    -0.381 OA
ENDBRANCH   9  10
ENDBRANCH   7   9
ENDBRANCH   4   7
BRANCH   1  18
HETATM   18  C8  UNL     1      -1.461   1.758   0.803  1.00  0.00     0.058 C 
BRANCH  18  19
HETATM   19  C7  UNL     1      -2.701   1.180   0.223  1.00  0.00     0.044 C 
BRANCH  19  20
HETATM   20  C6  UNL     1      -3.020  -0.158   0.733  1.00  0.00     0.009 C 
BRANCH  20  21
HETATM   21  C5  UNL     1      -4.302  -0.753   0.138  1.00  0.00    -0.014 C 
HETATM   22  C4  UNL     1      -4.251  -0.914  -1.318  1.00  0.00     0.004 C 
HETATM   23  C3  UNL     1      -5.259  -0.206  -2.158  1.00  0.00     0.000 C 
HETATM   24  C2  UNL     1      -6.672  -0.571  -1.848  1.00  0.00     0.000 C 
HETATM   25  C1  UNL     1      -7.290   0.305  -0.806  1.00  0.00     0.000 C 
HETATM   26  C20 UNL     1      -6.190   0.945   0.010  1.00  0.00     0.000 C 
HETATM   27  C19 UNL     1      -5.473  -0.115   0.762  1.00  0.00     0.004 C 
ENDBRANCH  20  21
ENDBRANCH  19  20
ENDBRANCH  18  19
ENDBRANCH   1  18
TORSDOF 7
