REMARK  8 active torsions:
REMARK  status: ('A' for Active; 'I' for Inactive)
REMARK    1  A    between atoms: C2_2  and  C4_4 
REMARK    2  A    between atoms: C4_4  and  N1_5 
REMARK    3  A    between atoms: C6_7  and  O1_8 
REMARK    4  A    between atoms: C8_11  and  C9_12 
REMARK    5  A    between atoms: C8_11  and  C10_15 
REMARK    6  A    between atoms: C9_12  and  O2_13 
REMARK    7  A    between atoms: C11_16  and  C12_17 
REMARK    8  A    between atoms: C12_17  and  N2_18 
ROOT
HETATM    1  N1  UNL     1       2.895   0.583  -0.287  1.00  0.00     0.092 N 
HETATM    2  C5  UNL     1       3.430  -0.555  -0.959  1.00  0.00     0.303 C 
HETATM    3  C6  UNL     1       2.232  -1.457  -1.404  1.00  0.00     0.147 C 
HETATM    4  C7  UNL     1       1.261  -1.333  -0.265  1.00  0.00     0.051 C 
HETATM    5  C8  UNL     1       0.493  -0.064  -0.245  1.00  0.00     0.027 C 
HETATM    6  C20 UNL     1       1.619   0.981  -0.768  1.00  0.00     0.288 C 
ENDROOT
BRANCH   5   7
HETATM    7  C9  UNL     1       0.339   0.429   1.169  1.00  0.00     0.179 C 
BRANCH   7   8
HETATM    8  O2  UNL     1      -0.280  -0.436   2.021  1.00  0.00    -0.400 OA
ATOM      9  H2  UNL     1      -0.377  -0.125   2.913  1.00  0.00     0.209 HD
ENDBRANCH   7   8
ENDBRANCH   5   7
BRANCH   5  10
HETATM   10  C10 UNL     1      -0.569   0.153  -1.206  1.00  0.00    -0.015 C 
HETATM   11  C11 UNL     1      -1.746  -0.638  -1.459  1.00  0.00     0.011 C 
BRANCH  11  12
HETATM   12  C12 UNL     1      -2.788  -0.957  -0.471  1.00  0.00     0.177 C 
HETATM   13  C17 UNL     1      -2.619  -2.172   0.344  1.00  0.00     0.046 C 
HETATM   14  C18 UNL     1      -3.797  -2.870  -0.253  1.00  0.00     0.006 C 
HETATM   15  C19 UNL     1      -3.890  -1.767  -1.261  1.00  0.00     0.046 C 
BRANCH  12  16
HETATM   16  N2  UNL     1      -3.402   0.197   0.138  1.00  0.00     0.101 N 
HETATM   17  C13 UNL     1      -4.454  -0.105   1.044  1.00  0.00     0.274 C 
HETATM   18  C14 UNL     1      -4.972   1.293   1.412  1.00  0.00     0.032 C 
HETATM   19  C15 UNL     1      -4.615   2.133   0.221  1.00  0.00     0.032 C 
HETATM   20  C16 UNL     1      -3.959   1.146  -0.758  1.00  0.00     0.274 C 
ENDBRANCH  12  16
ENDBRANCH  11  12
ENDBRANCH   5  10
BRANCH   3  21
HETATM   21  O1  UNL     1       2.707  -2.766  -1.448  1.00  0.00    -0.394 OA
ATOM     22  H1  UNL     1       1.979  -3.314  -1.718  1.00  0.00     0.210 HD
ENDBRANCH   3  21
BRANCH   1  23
HETATM   23  C4  UNL     1       3.790   1.689  -0.303  1.00  0.00     0.276 C 
BRANCH  23  24
HETATM   24  C2  UNL     1       5.012   1.630   0.530  1.00  0.00     0.006 C 
HETATM   25  C1  UNL     1       5.997   0.543   0.265  1.00  0.00     0.011 C 
HETATM   26  C3  UNL     1       4.677   1.724   2.018  1.00  0.00     0.011 C 
ENDBRANCH  23  24
ENDBRANCH   1  23
TORSDOF 8
