REMARK  5 active torsions:
REMARK  status: ('A' for Active; 'I' for Inactive)
REMARK    1  A    between atoms: N1_2  and  C3_4 
REMARK    2  A    between atoms: C4_7  and  N3_8 
REMARK    3  A    between atoms: C9_17  and  N6_18 
REMARK    4  A    between atoms: C10_21  and  N7_22 
REMARK    5  A    between atoms: N7_22  and  N8_23 
REMARK       I    between atoms: N7_22  and  C11_27 
ROOT
HETATM    1  C3  UNL     1      -1.268  -0.519  -0.487  1.00  0.00     0.169 A 
HETATM    2  N2  UNL     1       0.010  -1.002  -0.309  1.00  0.00    -0.173 N 
ATOM      3  H2  UNL     1       0.202  -1.966  -0.580  1.00  0.00     0.186 HD
HETATM    4  C4  UNL     1       1.011  -0.280   0.198  1.00  0.00     0.684 A 
HETATM    5  N5  UNL     1       0.704   0.988   0.541  1.00  0.00    -0.174 N 
ATOM      6  H5  UNL     1       1.443   1.572   0.934  1.00  0.00     0.186 HD
HETATM    7  C9  UNL     1      -0.527   1.531   0.394  1.00  0.00     0.165 A 
HETATM    8  C10 UNL     1      -1.551   0.779  -0.128  1.00  0.00     0.323 A 
ENDROOT
BRANCH   8   9
HETATM    9  N7  UNL     1      -2.825   1.302  -0.336  1.00  0.00     0.234 N 
HETATM   10  O1  UNL     1      -3.845   0.370  -0.261  1.00  0.00    -0.027 OA
HETATM   11  C11 UNL     1      -3.215   2.444   0.400  1.00  0.00     0.521 C 
HETATM   12  N9  UNL     1      -3.529   2.300   1.776  1.00  0.00    -0.021 NA
HETATM   13  O2  UNL     1      -3.316   3.612  -0.076  1.00  0.00    -0.230 OA
BRANCH   9  14
HETATM   14  N8  UNL     1      -2.896   1.701  -1.709  1.00  0.00    -0.196 N 
ATOM     15  H82 UNL     1      -2.146   1.612  -2.394  1.00  0.00     0.193 HD
ATOM     16  H81 UNL     1      -3.829   2.084  -1.861  1.00  0.00     0.193 HD
ENDBRANCH   9  14
ENDBRANCH   8   9
BRANCH   1  17
HETATM   17  N1  UNL     1      -2.215  -1.427  -1.008  1.00  0.00    -0.373 N 
HETATM   18  C1  UNL     1      -2.949  -2.379  -0.201  1.00  0.00     0.150 C 
HETATM   19  C2  UNL     1      -2.467  -1.437  -2.428  1.00  0.00     0.150 C 
ENDBRANCH   1  17
BRANCH   7  20
HETATM   20  N6  UNL     1      -0.715   2.767   0.721  1.00  0.00    -0.383 N 
ATOM     21  H62 UNL     1       0.045   3.325   1.109  1.00  0.00     0.157 HD
ATOM     22  H61 UNL     1      -1.643   3.176   0.610  1.00  0.00     0.157 HD
ENDBRANCH   7  20
BRANCH   4  23
HETATM   23  N3  UNL     1       2.326  -0.794   0.352  1.00  0.00    -0.208 N 
HETATM   24  C5  UNL     1       3.055  -0.578   1.574  1.00  0.00     0.186 C 
HETATM   25  C6  UNL     1       4.299   0.189   1.204  1.00  0.00     0.080 C 
HETATM   26  N4  UNL     1       5.064  -0.522   0.260  1.00  0.00    -0.379 N 
HETATM   27  C7  UNL     1       4.476  -1.418  -0.637  1.00  0.00     0.080 C 
ATOM     28  H4  UNL     1       6.074  -0.380   0.230  1.00  0.00     0.164 HD
HETATM   29  C8  UNL     1       2.991  -1.522  -0.685  1.00  0.00     0.186 C 
ENDBRANCH   4  23
TORSDOF 5
