REMARK  7 active torsions:
REMARK  status: ('A' for Active; 'I' for Inactive)
REMARK    1  A    between atoms: C2_2  and  N1_3 
REMARK    2  A    between atoms: C2_2  and  C3_7 
REMARK    3  A    between atoms: N2_9  and  C5_10 
REMARK    4  A    between atoms: C5_10  and  C6_11 
REMARK    5  A    between atoms: C6_11  and  N3_12 
REMARK    6  A    between atoms: C9_19  and  N6_20 
REMARK    7  A    between atoms: C10_25  and  N8_26 
ROOT
HETATM    1  N8  UNL     1       1.789   0.772   1.463  1.00  0.00    -0.277 N 
ATOM      2  H8  UNL     1       0.926   0.312   1.173  1.00  0.00     0.179 HD
HETATM    3  C11 UNL     1       1.699   1.809   2.382  1.00  0.00     0.183 C 
HETATM    4  N9  UNL     1       1.642   2.670   3.140  1.00  0.00    -0.172 NA
ENDROOT
BRANCH   1   5
HETATM    5  C10 UNL     1       2.897   0.356   0.955  1.00  0.00     0.161 A 
HETATM    6  N7  UNL     1       4.054   0.923   1.300  1.00  0.00    -0.174 N 
HETATM    7  C9  UNL     1       5.206   0.489   0.778  1.00  0.00     0.679 A 
ATOM      8  H7  UNL     1       4.060   1.694   1.968  1.00  0.00     0.186 HD
HETATM    9  N5  UNL     1       5.180  -0.519  -0.092  1.00  0.00    -0.174 N 
HETATM   10  C8  UNL     1       4.052  -1.110  -0.462  1.00  0.00     0.152 A 
ATOM     11  H5  UNL     1       6.060  -0.849  -0.488  1.00  0.00     0.186 HD
HETATM   12  N4  UNL     1       3.815  -2.116  -1.301  1.00  0.00    -0.336 N 
HETATM   13  C12 UNL     1       2.832  -0.685   0.060  1.00  0.00     0.126 A 
HETATM   14  C7  UNL     1       2.508  -2.319  -1.310  1.00  0.00     0.185 A 
ATOM     15  H4  UNL     1       4.511  -2.634  -1.837  1.00  0.00     0.168 HD
HETATM   16  N3  UNL     1       1.873  -1.446  -0.476  1.00  0.00    -0.335 N 
BRANCH   7  17
HETATM   17  N6  UNL     1       6.339   1.026   1.100  1.00  0.00    -0.234 N 
ATOM     18  H62 UNL     1       7.218   0.695   0.702  1.00  0.00     0.174 HD
ATOM     19  H61 UNL     1       6.359   1.798   1.766  1.00  0.00     0.174 HD
ENDBRANCH   7  17
BRANCH  16  20
HETATM   20  C6  UNL     1       0.453  -1.352  -0.226  1.00  0.00     0.152 C 
BRANCH  20  21
HETATM   21  C5  UNL     1      -0.240  -0.435  -1.201  1.00  0.00     0.170 C 
BRANCH  21  22
HETATM   22  N2  UNL     1      -1.645  -0.326  -0.968  1.00  0.00    -0.286 N 
HETATM   23  C4  UNL     1      -2.308   0.539  -0.196  1.00  0.00     0.140 A 
HETATM   24  C3  UNL     1      -3.661   0.280  -0.267  1.00  0.00     0.074 A 
HETATM   25  N11 UNL     1      -3.774  -0.769  -1.108  1.00  0.00    -0.287 N 
HETATM   26  N10 UNL     1      -2.556  -1.106  -1.508  1.00  0.00    -0.241 N 
ATOM     27  H11 UNL     1      -4.644  -1.223  -1.387  1.00  0.00     0.188 HD
ATOM     28  H10 UNL     1      -2.352  -1.871  -2.151  1.00  0.00     0.208 HD
BRANCH  24  29
HETATM   29  C2  UNL     1      -4.784   0.994   0.430  1.00  0.00     0.231 C 
HETATM   30  C1  UNL     1      -5.240   0.224   1.647  1.00  0.00     0.046 C 
BRANCH  29  31
HETATM   31  N1  UNL     1      -5.854   1.237  -0.501  1.00  0.00    -0.070 N 
ATOM     32  H13 UNL     1      -6.313   0.366  -0.768  1.00  0.00     0.275 HD
ATOM     33  H12 UNL     1      -6.639   1.702  -0.045  1.00  0.00     0.275 HD
ATOM     34  H11 UNL     1      -5.546   1.757  -1.323  1.00  0.00     0.275 HD
ENDBRANCH  29  31
ENDBRANCH  24  29
ENDBRANCH  21  22
ENDBRANCH  20  21
ENDBRANCH  16  20
ENDBRANCH   1   5
TORSDOF 7
