REMARK  8 active torsions:
REMARK  status: ('A' for Active; 'I' for Inactive)
REMARK    1  A    between atoms: N1_2  and  C2_4 
REMARK    2  A    between atoms: C3_7  and  S1_8 
REMARK    3  A    between atoms: C5_12  and  N4_13 
REMARK    4  A    between atoms: N4_13  and  C6_15 
REMARK    5  A    between atoms: C6_15  and  C7_16 
REMARK    6  A    between atoms: C6_15  and  C8_19 
REMARK    7  A    between atoms: C7_16  and  O1_17 
REMARK    8  A    between atoms: C9_26  and  N8_27 
ROOT
HETATM    1  C6  UNL     1       1.490   0.401  -0.280  1.00  0.00     0.192 C 
ENDROOT
BRANCH   1   2
HETATM    2  N4  UNL     1       0.383  -0.497  -0.296  1.00  0.00    -0.212 N 
ATOM      3  H4  UNL     1       0.596  -1.493  -0.346  1.00  0.00     0.178 HD
BRANCH   2   4
HETATM    4  C5  UNL     1      -0.851  -0.170  -0.253  1.00  0.00     0.695 A 
HETATM    5  N3  UNL     1      -1.283   1.103  -0.184  1.00  0.00    -0.169 N 
HETATM    6  C3  UNL     1      -2.613   1.393  -0.140  1.00  0.00     0.174 A 
ATOM      7  H3  UNL     1      -0.603   1.863  -0.164  1.00  0.00     0.186 HD
HETATM    8  N2  UNL     1      -3.535   0.409  -0.164  1.00  0.00    -0.169 N 
HETATM    9  C2  UNL     1      -3.114  -0.866  -0.233  1.00  0.00     0.694 A 
ATOM     10  H2  UNL     1      -4.531   0.627  -0.131  1.00  0.00     0.186 HD
HETATM   11  N10 UNL     1      -1.786  -1.137  -0.276  1.00  0.00    -0.022 N 
ATOM     12  H10 UNL     1      -1.485  -2.110  -0.328  1.00  0.00     0.203 HD
BRANCH   6  13
HETATM   13  S1  UNL     1      -3.183   3.084  -0.049  1.00  0.00    -0.097 SA
HETATM   14  C4  UNL     1      -3.360   3.649   1.650  1.00  0.00     0.099 C 
ENDBRANCH   6  13
BRANCH   9  15
HETATM   15  N1  UNL     1      -3.974  -1.816  -0.257  1.00  0.00    -0.230 N 
HETATM   16  C1  UNL     1      -3.590  -3.217  -0.330  1.00  0.00     0.165 C 
ATOM     17  H1  UNL     1      -4.966  -1.581  -0.224  1.00  0.00     0.177 HD
ENDBRANCH   9  15
ENDBRANCH   2   4
ENDBRANCH   1   2
BRANCH   1  18
HETATM   18  C7  UNL     1       1.771   0.984  -1.670  1.00  0.00     0.197 C 
BRANCH  18  19
HETATM   19  O1  UNL     1       2.063  -0.041  -2.572  1.00  0.00    -0.398 OA
ATOM     20  H1  UNL     1       2.237   0.320  -3.433  1.00  0.00     0.209 HD
ENDBRANCH  18  19
ENDBRANCH   1  18
BRANCH   1  21
HETATM   21  C8  UNL     1       2.704  -0.415   0.051  1.00  0.00     0.138 A 
HETATM   22  N5  UNL     1       2.810  -1.595  -0.623  1.00  0.00    -0.272 N 
HETATM   23  N6  UNL     1       3.846  -2.368  -0.389  1.00  0.00    -0.227 N 
ATOM     24  H5  UNL     1       2.097  -1.873  -1.297  1.00  0.00     0.190 HD
HETATM   25  N7  UNL     1       4.787  -2.024   0.488  1.00  0.00    -0.118 N 
ATOM     26  H6  UNL     1       3.932  -3.252  -0.891  1.00  0.00     0.209 HD
HETATM   27  C9  UNL     1       4.673  -0.854   1.149  1.00  0.00     0.693 A 
ATOM     28  H7  UNL     1       5.584  -2.638   0.658  1.00  0.00     0.207 HD
HETATM   29  N9  UNL     1       3.623  -0.041   0.930  1.00  0.00    -0.176 N 
ATOM     30  H9  UNL     1       3.536   0.844   1.430  1.00  0.00     0.185 HD
BRANCH  27  31
HETATM   31  N8  UNL     1       5.593  -0.508   2.011  1.00  0.00    -0.233 N 
ATOM     32  H82 UNL     1       6.389  -1.124   2.177  1.00  0.00     0.174 HD
ATOM     33  H81 UNL     1       5.507   0.377   2.511  1.00  0.00     0.174 HD
ENDBRANCH  27  31
ENDBRANCH   1  21
TORSDOF 8
