REMARK  4 active torsions:
REMARK  status: ('A' for Active; 'I' for Inactive)
REMARK       I    between atoms: C2_2  and  N1_4 
REMARK    1  A    between atoms: N1_4  and  S1_6 
REMARK    2  A    between atoms: S1_6  and  O4_9 
REMARK    3  A    between atoms: O4_9  and  C3_10 
REMARK    4  A    between atoms: C3_10  and  C4_11 
ROOT
HETATM    1  C4  UNL     1      -1.005  -0.437   0.321  1.00  0.00     0.060 C 
HETATM    2  C5  UNL     1      -1.818  -0.660   1.425  1.00  0.00     0.130 C 
HETATM    3  N2  UNL     1      -1.246  -1.559   2.364  1.00  0.00    -0.082 NA
HETATM    4  N3  UNL     1      -3.047  -0.147   1.709  1.00  0.00    -0.331 N 
ATOM      5  H3  UNL     1      -3.375  -0.297   2.663  1.00  0.00     0.168 HD
HETATM    6  C6  UNL     1      -3.898   0.537   0.900  1.00  0.00     0.140 C 
HETATM    7  N4  UNL     1      -5.124   0.905   1.503  1.00  0.00    -0.081 NA
HETATM    8  C7  UNL     1      -3.737   0.926  -0.417  1.00  0.00     0.114 C 
HETATM    9  C8  UNL     1      -4.719   1.819  -0.974  1.00  0.00     0.105 C 
HETATM   10  N5  UNL     1      -5.533   2.537  -1.430  1.00  0.00    -0.191 NA
HETATM   11  C9  UNL     1      -2.695   0.515  -1.240  1.00  0.00     0.121 C 
HETATM   12  N6  UNL     1      -3.003   0.640  -2.619  1.00  0.00    -0.096 NA
HETATM   13  C10 UNL     1      -1.439   0.020  -0.907  1.00  0.00     0.209 C 
HETATM   14  O5  UNL     1      -0.600  -0.022  -1.813  1.00  0.00    -0.286 OA
ENDROOT
BRANCH   1  15
HETATM   15  C3  UNL     1       0.411  -0.737   0.544  1.00  0.00     0.238 C 
BRANCH  15  16
HETATM   16  O4  UNL     1       1.248  -0.515  -0.542  1.00  0.00    -0.254 OA
BRANCH  16  17
HETATM   17  S1  UNL     1       2.785  -0.943  -0.049  1.00  0.00     0.364 S 
HETATM   18  O2  UNL     1       2.988  -2.375  -0.475  1.00  0.00    -0.175 OA
HETATM   19  O3  UNL     1       2.952  -0.902   1.448  1.00  0.00    -0.175 OA
BRANCH  17  20
HETATM   20  N1  UNL     1       4.036   0.007  -0.726  1.00  0.00    -0.232 N 
HETATM   21  C2  UNL     1       5.352  -0.146  -0.245  1.00  0.00     0.228 C 
HETATM   22  C1  UNL     1       6.479   0.632  -0.777  1.00  0.00     0.118 C 
HETATM   23  O1  UNL     1       5.582  -0.977   0.679  1.00  0.00    -0.273 OA
ATOM     24  H1  UNL     1       3.832   0.676  -1.469  1.00  0.00     0.183 HD
ENDBRANCH  17  20
ENDBRANCH  16  17
ENDBRANCH  15  16
ENDBRANCH   1  15
TORSDOF 4
