REMARK  18 active torsions:
REMARK  status: ('A' for Active; 'I' for Inactive)
REMARK    1  A    between atoms: S1_2  and  C2_3 
REMARK    2  A    between atoms: C4_5  and  O1_6 
REMARK    3  A    between atoms: C5_8  and  C6_9 
REMARK    4  A    between atoms: C6_9  and  O2_10 
REMARK    5  A    between atoms: C7_13  and  N1_14 
REMARK    6  A    between atoms: C8_15  and  C9_16 
REMARK       I    between atoms: C9_16  and  N2_18 
REMARK    7  A    between atoms: N2_18  and  C10_20 
REMARK    8  A    between atoms: C11_25  and  S2_26 
REMARK    9  A    between atoms: S2_26  and  C12_27 
REMARK   10  A    between atoms: N8_32  and  C13_33 
REMARK   11  A    between atoms: C13_33  and  O5_34 
REMARK   12  A    between atoms: O5_34  and  C14_35 
REMARK   13  A    between atoms: C14_35  and  C15_36 
REMARK   14  A    between atoms: C14_35  and  C16_39 
REMARK   15  A    between atoms: C15_36  and  O6_37 
REMARK   16  A    between atoms: C16_39  and  O7_40 
REMARK   17  A    between atoms: C18_49  and  N12_50 
REMARK   18  A    between atoms: C19_55  and  N14_56 
ROOT
HETATM    1  N1  UNL     1      -2.821  -0.595   0.052  1.00  0.00    -0.283 N 
HETATM    2  C8  UNL     1      -2.023  -0.270  -0.973  1.00  0.00     0.182 A 
HETATM    3  N11 UNL     1      -1.667  -1.459  -1.563  1.00  0.00    -0.332 N 
ATOM      4  H11 UNL     1      -1.059  -1.549  -2.377  1.00  0.00     0.168 HD
HETATM    5  C17 UNL     1      -2.231  -2.475  -0.917  1.00  0.00     0.124 A 
HETATM    6  C18 UNL     1      -2.181  -3.859  -1.114  1.00  0.00     0.145 A 
HETATM    7  N13 UNL     1      -2.870  -4.640  -0.274  1.00  0.00    -0.175 N 
ATOM      8  H13 UNL     1      -2.842  -5.651  -0.410  1.00  0.00     0.186 HD
HETATM    9  C19 UNL     1      -3.596  -4.146   0.739  1.00  0.00     0.679 A 
HETATM   10  N15 UNL     1      -3.636  -2.806   0.920  1.00  0.00    -0.174 N 
ATOM     11  H15 UNL     1      -4.186  -2.425   1.690  1.00  0.00     0.186 HD
HETATM   12  C20 UNL     1      -2.969  -1.962   0.111  1.00  0.00     0.158 A 
ENDROOT
BRANCH   2  13
HETATM   13  C9  UNL     1      -1.548   1.028  -1.468  1.00  0.00     0.304 C 
HETATM   14  O4  UNL     1      -1.814   2.147  -1.017  1.00  0.00    -0.263 OA
HETATM   15  N2  UNL     1      -0.668   0.969  -2.616  1.00  0.00    -0.150 N 
ATOM     16  H2  UNL     1      -1.048   0.736  -3.534  1.00  0.00     0.188 HD
BRANCH  15  17
HETATM   17  C10 UNL     1       0.594   1.209  -2.487  1.00  0.00     0.714 A 
HETATM   18  N3  UNL     1       1.379   1.144  -3.576  1.00  0.00    -0.129 N 
HETATM   19  N4  UNL     1       2.700   1.384  -3.509  1.00  0.00    -0.264 N 
ATOM     20  H3  UNL     1       0.962   0.907  -4.476  1.00  0.00     0.205 HD
HETATM   21  C11 UNL     1       3.224   1.694  -2.315  1.00  0.00     0.182 A 
ATOM     22  H4  UNL     1       3.286   1.332  -4.342  1.00  0.00     0.189 HD
HETATM   23  N9  UNL     1       2.436   1.761  -1.220  1.00  0.00    -0.264 N 
HETATM   24  N10 UNL     1       1.130   1.522  -1.296  1.00  0.00    -0.129 N 
ATOM     25  H9  UNL     1       2.850   1.999  -0.319  1.00  0.00     0.189 HD
ATOM     26  H10 UNL     1       0.544   1.576  -0.463  1.00  0.00     0.205 HD
BRANCH  21  27
HETATM   27  S2  UNL     1       4.977   2.026  -2.157  1.00  0.00    -0.013 SA
BRANCH  27  28
HETATM   28  C12 UNL     1       5.394   2.416  -0.467  1.00  0.00     0.182 A 
HETATM   29  N5  UNL     1       5.404   3.610   0.124  1.00  0.00    -0.264 N 
HETATM   30  N6  UNL     1       5.769   3.501   1.389  1.00  0.00    -0.006 NA
ATOM     31  H5  UNL     1       5.163   4.487  -0.337  1.00  0.00     0.186 HD
HETATM   32  N7  UNL     1       5.992   2.210   1.593  1.00  0.00    -0.002 NA
HETATM   33  N8  UNL     1       5.767   1.539   0.472  1.00  0.00    -0.232 N 
BRANCH  33  34
HETATM   34  C13 UNL     1       5.929   0.095   0.386  1.00  0.00     0.317 C 
BRANCH  34  35
HETATM   35  O5  UNL     1       7.220  -0.237   0.018  1.00  0.00    -0.361 OA
BRANCH  35  36
HETATM   36  C14 UNL     1       7.338  -1.608  -0.052  1.00  0.00     0.170 C 
BRANCH  36  37
HETATM   37  C15 UNL     1       8.373  -2.095   0.938  1.00  0.00     0.198 C 
BRANCH  37  38
HETATM   38  O6  UNL     1       8.477  -3.479   0.851  1.00  0.00    -0.398 OA
ATOM     39  H6  UNL     1       9.127  -3.785   1.473  1.00  0.00     0.209 HD
ENDBRANCH  37  38
ENDBRANCH  36  37
BRANCH  36  40
HETATM   40  C16 UNL     1       7.705  -2.015  -1.470  1.00  0.00     0.198 C 
BRANCH  40  41
HETATM   41  O7  UNL     1       6.708  -1.588  -2.342  1.00  0.00    -0.398 OA
ATOM     42  H7  UNL     1       6.937  -1.842  -3.228  1.00  0.00     0.209 HD
ENDBRANCH  40  41
ENDBRANCH  36  40
ENDBRANCH  35  36
ENDBRANCH  34  35
ENDBRANCH  33  34
ENDBRANCH  27  28
ENDBRANCH  21  27
ENDBRANCH  15  17
ENDBRANCH   2  13
BRANCH   1  43
HETATM   43  C7  UNL     1      -3.470   0.252   0.990  1.00  0.00     0.253 C 
HETATM   44  C2  UNL     1      -4.777   0.839   0.647  1.00  0.00     0.077 C 
HETATM   45  C3  UNL     1      -5.906   0.164   1.450  1.00  0.00     0.034 C 
HETATM   46  C4  UNL     1      -4.697   2.253   1.189  1.00  0.00     0.171 C 
HETATM   47  C5  UNL     1      -3.484   2.183   2.081  1.00  0.00     0.178 C 
HETATM   48  O3  UNL     1      -2.635   1.245   1.486  1.00  0.00    -0.354 OA
BRANCH  44  49
HETATM   49  S1  UNL     1      -5.215   0.903  -1.079  1.00  0.00    -0.157 SA
HETATM   50  C1  UNL     1      -6.618   1.958  -1.431  1.00  0.00     0.091 C 
ENDBRANCH  44  49
BRANCH  46  51
HETATM   51  O1  UNL     1      -5.821   2.637   1.904  1.00  0.00    -0.391 OA
ATOM     52  H1  UNL     1      -5.771   3.523   2.244  1.00  0.00     0.210 HD
ENDBRANCH  46  51
BRANCH  47  53
HETATM   53  C6  UNL     1      -2.902   3.543   2.230  1.00  0.00     0.198 C 
BRANCH  53  54
HETATM   54  O2  UNL     1      -3.836   4.369   2.829  1.00  0.00    -0.398 OA
ATOM     55  H2  UNL     1      -3.464   5.238   2.924  1.00  0.00     0.209 HD
ENDBRANCH  53  54
ENDBRANCH  47  53
ENDBRANCH   1  43
BRANCH   6  56
HETATM   56  N12 UNL     1      -1.482  -4.347  -2.092  1.00  0.00    -0.383 N 
ATOM     57 2H12 UNL     1      -0.957  -3.752  -2.732  1.00  0.00     0.157 HD
ATOM     58 1H12 UNL     1      -1.446  -5.356  -2.236  1.00  0.00     0.157 HD
ENDBRANCH   6  56
BRANCH   9  59
HETATM   59  N14 UNL     1      -4.233  -4.962   1.509  1.00  0.00    -0.234 N 
ATOM     60 2H14 UNL     1      -4.203  -5.972   1.373  1.00  0.00     0.174 HD
ATOM     61 1H14 UNL     1      -4.785  -4.586   2.280  1.00  0.00     0.174 HD
ENDBRANCH   9  59
TORSDOF 18
