REMARK  16 active torsions:
REMARK  status: ('A' for Active; 'I' for Inactive)
REMARK    1  A    between atoms: C3_4  and  C4_5 
REMARK    2  A    between atoms: C4_5  and  O1_6 
REMARK    3  A    between atoms: O1_6  and  C5_7 
REMARK    4  A    between atoms: C5_7  and  C6_8 
REMARK    5  A    between atoms: C6_8  and  O2_9 
REMARK    6  A    between atoms: C6_8  and  C7_11 
REMARK       I    between atoms: N5_18  and  C8_19 
REMARK    7  A    between atoms: C8_19  and  C9_21 
REMARK    8  A    between atoms: C9_21  and  O5_22 
REMARK    9  A    between atoms: C9_21  and  C10_24 
REMARK   10  A    between atoms: C11_28  and  C12_29 
REMARK   11  A    between atoms: C13_31  and  C14_32 
REMARK   12  A    between atoms: C15_38  and  C16_39 
REMARK   13  A    between atoms: C18_45  and  O8_46 
REMARK   14  A    between atoms: C19_48  and  O9_49 
REMARK   15  A    between atoms: C21_53  and  O11_54 
REMARK   16  A    between atoms: C22_56  and  O12_57 
ROOT
HETATM    1  N1  UNL     1       4.873  -2.336  -2.878  1.00  0.00    -0.190 NA
HETATM    2  C1  UNL     1       4.681  -1.750  -1.896  1.00  0.00     0.122 C 
HETATM    3  C2  UNL     1       4.420  -1.033  -0.681  1.00  0.00     0.167 A 
HETATM    4  C3  UNL     1       5.417  -0.705   0.254  1.00  0.00     0.090 A 
HETATM    5  N3  UNL     1       4.738  -0.056   1.206  1.00  0.00    -0.285 N 
ATOM      6  H3  UNL     1       5.153   0.332   2.053  1.00  0.00     0.188 HD
HETATM    7  N4  UNL     1       3.440   0.014   0.895  1.00  0.00    -0.232 N 
ATOM      8  H4  UNL     1       2.723   0.461   1.466  1.00  0.00     0.209 HD
HETATM    9  N5  UNL     1       3.227  -0.581  -0.260  1.00  0.00    -0.195 N 
HETATM   10  C8  UNL     1       1.999  -0.741  -0.970  1.00  0.00     0.278 C 
HETATM   11  O4  UNL     1       1.979  -1.341  -2.076  1.00  0.00    -0.268 OA
ENDROOT
BRANCH   4  12
HETATM   12  C4  UNL     1       6.848  -1.064   0.110  1.00  0.00     0.229 C 
BRANCH  12  13
HETATM   13  O1  UNL     1       7.578  -0.619   1.141  1.00  0.00    -0.382 OA
BRANCH  13  14
HETATM   14  C5  UNL     1       7.699   0.675   1.465  1.00  0.00     0.209 C 
BRANCH  14  15
HETATM   15  C6  UNL     1       8.279   1.604   0.431  1.00  0.00     0.230 C 
BRANCH  15  16
HETATM   16  O2  UNL     1       7.462   1.616  -0.682  1.00  0.00    -0.384 OA
ATOM     17  H2  UNL     1       7.828   2.202  -1.334  1.00  0.00     0.210 HD
ENDBRANCH  15  16
BRANCH  15  18
HETATM   18  C7  UNL     1       8.460   2.975   1.000  1.00  0.00     0.262 C 
HETATM   19  N2  UNL     1       9.261   3.204   2.143  1.00  0.00    -0.060 NA
HETATM   20  O3  UNL     1       7.900   3.976   0.471  1.00  0.00    -0.274 OA
ENDBRANCH  15  18
ENDBRANCH  14  15
ENDBRANCH  13  14
ENDBRANCH  12  13
ENDBRANCH   4  12
BRANCH  10  21
HETATM   21  C9  UNL     1       0.712  -0.227  -0.466  1.00  0.00     0.268 C 
BRANCH  21  22
HETATM   22  O5  UNL     1       0.928   0.385   0.756  1.00  0.00    -0.382 OA
ATOM     23  H5  UNL     1       0.099   0.716   1.081  1.00  0.00     0.210 HD
ENDBRANCH  21  22
BRANCH  21  24
HETATM   24  C10 UNL     1      -0.201  -1.446  -0.288  1.00  0.00     0.360 C 
HETATM   25  N6  UNL     1      -1.442  -0.991   0.255  1.00  0.00    -0.033 N 
HETATM   26  C11 UNL     1      -2.401  -2.090   0.333  1.00  0.00     0.279 C 
ATOM     27  H62 UNL     1      -1.316  -0.534   1.158  1.00  0.00     0.281 HD
ATOM     28  H61 UNL     1      -1.816  -0.198  -0.266  1.00  0.00     0.281 HD
HETATM   29  C22 UNL     1      -2.540  -2.654  -1.081  1.00  0.00     0.179 C 
HETATM   30  C23 UNL     1      -1.153  -3.202  -1.421  1.00  0.00     0.205 C 
HETATM   31  O13 UNL     1      -0.308  -2.123  -1.493  1.00  0.00    -0.354 OA
BRANCH  26  32
HETATM   32  C12 UNL     1      -3.721  -1.513   0.718  1.00  0.00     0.124 A 
HETATM   33  O6  UNL     1      -4.639  -1.271  -0.208  1.00  0.00    -0.304 OA
HETATM   34  C13 UNL     1      -5.812  -0.760   0.071  1.00  0.00     0.144 A 
HETATM   35  C19 UNL     1      -6.137  -0.450   1.377  1.00  0.00     0.155 A 
HETATM   36  C20 UNL     1      -5.226  -0.680   2.375  1.00  0.00     0.243 A 
HETATM   37  O10 UNL     1      -5.518  -0.400   3.557  1.00  0.00    -0.282 OA
HETATM   38  C21 UNL     1      -3.992  -1.227   2.013  1.00  0.00     0.151 A 
BRANCH  34  39
HETATM   39  C14 UNL     1      -6.774  -0.518  -0.986  1.00  0.00     0.124 A 
HETATM   40  N7  UNL     1      -7.448  -1.418  -1.732  1.00  0.00    -0.237 N 
HETATM   41  O7  UNL     1      -8.217  -0.801  -2.569  1.00  0.00    -0.156 OA
ATOM     42  H7  UNL     1      -7.364  -2.431  -1.648  1.00  0.00     0.197 HD
HETATM   43  N8  UNL     1      -8.083   0.475  -2.412  1.00  0.00    -0.237 N 
HETATM   44  C15 UNL     1      -7.181   0.714  -1.422  1.00  0.00     0.119 A 
ATOM     45  H8  UNL     1      -8.576   1.190  -2.946  1.00  0.00     0.197 HD
BRANCH  44  46
HETATM   46  C16 UNL     1      -6.743   2.016  -0.939  1.00  0.00     0.116 A 
HETATM   47  N9  UNL     1      -7.438   2.997  -0.353  1.00  0.00    -0.347 N 
HETATM   48  C17 UNL     1      -6.588   4.002  -0.096  1.00  0.00     0.183 A 
ATOM     49  H9  UNL     1      -8.435   2.983  -0.140  1.00  0.00     0.167 HD
HETATM   50  N10 UNL     1      -5.357   3.699  -0.501  1.00  0.00    -0.331 N 
HETATM   51  C18 UNL     1      -5.438   2.459  -1.030  1.00  0.00     0.170 A 
ATOM     52  H10 UNL     1      -4.524   4.283  -0.427  1.00  0.00     0.168 HD
BRANCH  51  53
HETATM   53  O8  UNL     1      -4.320   1.822  -1.558  1.00  0.00    -0.344 OA
ATOM     54  H8  UNL     1      -3.422   2.127  -1.621  1.00  0.00     0.219 HD
ENDBRANCH  51  53
ENDBRANCH  44  46
ENDBRANCH  34  39
BRANCH  35  55
HETATM   55  O9  UNL     1      -7.399   0.094   1.644  1.00  0.00    -0.355 OA
ATOM     56  H9  UNL     1      -7.623   0.307   2.542  1.00  0.00     0.218 HD
ENDBRANCH  35  55
BRANCH  38  57
HETATM   57  O11 UNL     1      -3.113  -1.446   3.048  1.00  0.00    -0.355 OA
ATOM     58  H11 UNL     1      -3.303  -1.245   3.957  1.00  0.00     0.218 HD
ENDBRANCH  38  57
ENDBRANCH  26  32
BRANCH  29  59
HETATM   59  O12 UNL     1      -2.902  -1.669  -1.978  1.00  0.00    -0.391 OA
ATOM     60  H12 UNL     1      -2.988  -2.020  -2.857  1.00  0.00     0.210 HD
ENDBRANCH  29  59
ENDBRANCH  21  24
ENDBRANCH  10  21
TORSDOF 16
