REMARK  9 active torsions:
REMARK  status: ('A' for Active; 'I' for Inactive)
REMARK    1  A    between atoms: N1_1  and  C1_4 
REMARK    2  A    between atoms: C5_16  and  C6_17 
REMARK    3  A    between atoms: N8_23  and  C8_25 
REMARK    4  A    between atoms: C8_25  and  C9_26 
REMARK    5  A    between atoms: C9_26  and  O1_27 
REMARK    6  A    between atoms: C10_29  and  C11_30 
REMARK    7  A    between atoms: C11_30  and  N10_35 
REMARK    8  A    between atoms: N9_31  and  O2_33 
REMARK    9  A    between atoms: N10_35  and  N11_37 
ROOT
HETATM    1  C6  UNL     1      -0.429   0.662  -0.648  1.00  0.00     0.096 A 
HETATM    2  N6  UNL     1       0.023   1.785  -1.226  1.00  0.00    -0.296 N 
ATOM      3  H6  UNL     1      -0.556   2.599  -1.433  1.00  0.00     0.187 HD
HETATM    4  N7  UNL     1       1.334   1.701  -1.497  1.00  0.00    -0.284 N 
ATOM      5  H7  UNL     1       1.896   2.431  -1.935  1.00  0.00     0.188 HD
HETATM    6  C7  UNL     1       1.782   0.520  -1.106  1.00  0.00     0.132 A 
HETATM    7  N8  UNL     1       2.948   0.021  -1.169  1.00  0.00    -0.372 N 
ATOM      8  H8  UNL     1       3.067  -0.923  -0.801  1.00  0.00     0.161 HD
HETATM    9  C10 UNL     1       0.678  -0.153  -0.567  1.00  0.00     0.086 A 
ENDROOT
BRANCH   1  10
HETATM   10  C5  UNL     1      -1.777   0.353  -0.184  1.00  0.00     0.107 A 
HETATM   11  C1  UNL     1      -2.856   1.195  -0.272  1.00  0.00     0.130 A 
HETATM   12  N2  UNL     1      -4.068   0.830   0.182  1.00  0.00    -0.324 N 
HETATM   13  C2  UNL     1      -4.308  -0.361   0.745  1.00  0.00     0.152 A 
ATOM     14  H2  UNL     1      -4.840   1.491   0.093  1.00  0.00     0.169 HD
HETATM   15  N3  UNL     1      -5.340  -1.010   1.274  1.00  0.00    -0.335 N 
HETATM   16  C4  UNL     1      -3.229  -1.235   0.847  1.00  0.00     0.152 A 
HETATM   17  C3  UNL     1      -4.971  -2.249   1.707  1.00  0.00     0.183 A 
ATOM     18  H3  UNL     1      -6.284  -0.631   1.347  1.00  0.00     0.168 HD
HETATM   19  N4  UNL     1      -3.661  -2.357   1.428  1.00  0.00    -0.335 N 
ATOM     20  H4  UNL     1      -3.083  -3.173   1.630  1.00  0.00     0.168 HD
HETATM   21  N5  UNL     1      -2.033  -0.845   0.386  1.00  0.00    -0.334 N 
ATOM     22  H5  UNL     1      -1.257  -1.502   0.472  1.00  0.00     0.168 HD
BRANCH  11  23
HETATM   23  N1  UNL     1      -2.755   2.351  -0.786  1.00  0.00    -0.384 N 
ATOM     24  H12 UNL     1      -3.557   2.977  -0.851  1.00  0.00     0.157 HD
ATOM     25  H11 UNL     1      -1.836   2.628  -1.130  1.00  0.00     0.157 HD
ENDBRANCH  11  23
ENDBRANCH   1  10
BRANCH   9  26
HETATM   26  C11 UNL     1       0.768  -1.517  -0.069  1.00  0.00     0.155 C 
HETATM   27  N9  UNL     1       0.172  -2.455  -0.706  1.00  0.00    -0.251 N 
ATOM     28  H9  UNL     1      -0.361  -2.257  -1.553  1.00  0.00     0.196 HD
BRANCH  27  29
HETATM   29  O2  UNL     1       0.271  -3.733  -0.218  1.00  0.00    -0.288 OA
ATOM     30  H2  UNL     1      -0.171  -4.429  -0.690  1.00  0.00     0.244 HD
ENDBRANCH  27  29
BRANCH  26  31
HETATM   31  N10 UNL     1       1.511  -1.790   1.113  1.00  0.00    -0.290 N 
ATOM     32  H10 UNL     1       2.235  -2.508   1.102  1.00  0.00     0.188 HD
BRANCH  31  33
HETATM   33  N11 UNL     1       1.255  -1.080   2.289  1.00  0.00    -0.344 N 
ATOM     34 2H11 UNL     1       0.528  -0.365   2.283  1.00  0.00     0.176 HD
ATOM     35 1H11 UNL     1       1.788  -1.276   3.137  1.00  0.00     0.176 HD
ENDBRANCH  31  33
ENDBRANCH  26  31
ENDBRANCH   9  26
BRANCH   7  36
HETATM   36  C8  UNL     1       4.106   0.656  -1.705  1.00  0.00     0.147 C 
BRANCH  36  37
HETATM   37  C9  UNL     1       4.660   1.764  -0.829  1.00  0.00     0.183 C 
BRANCH  37  38
HETATM   38  O1  UNL     1       5.027   1.290   0.420  1.00  0.00    -0.399 OA
ATOM     39  H1  UNL     1       5.374   1.984   0.969  1.00  0.00     0.209 HD
ENDBRANCH  37  38
ENDBRANCH  36  37
ENDBRANCH   7  36
TORSDOF 9
