REMARK  5 active torsions:
REMARK  status: ('A' for Active; 'I' for Inactive)
REMARK    1  A    between atoms: C8_19  and  N6_20 
REMARK    2  A    between atoms: N6_20  and  C9_22 
REMARK    3  A    between atoms: C9_22  and  C10_23 
REMARK    4  A    between atoms: C10_23  and  C11_24 
REMARK    5  A    between atoms: C11_24  and  C12_25 
ROOT
HETATM    1  N1  UNL     1      -2.372  -0.767   2.689  1.00  0.00    -0.079 NA
HETATM    2  C1  UNL     1      -2.212  -0.328   1.310  1.00  0.00     0.159 C 
HETATM    3  N2  UNL     1      -2.668   0.815   1.064  1.00  0.00    -0.354 N 
ATOM      4  H2  UNL     1      -3.087   1.268   1.876  1.00  0.00     0.166 HD
HETATM    5  C2  UNL     1      -2.720   1.600  -0.103  1.00  0.00     0.089 C 
HETATM    6  C3  UNL     1      -4.175   1.937  -0.409  1.00  0.00     0.276 C 
HETATM    7  N3  UNL     1      -5.087   1.308   0.503  1.00  0.00    -0.069 N 
ATOM      8  H31 UNL     1      -5.281   1.914   1.300  1.00  0.00     0.277 HD
ATOM      9  H32 UNL     1      -4.638   0.532   0.989  1.00  0.00     0.277 HD
HETATM   10  C4  UNL     1      -6.312   0.880  -0.129  1.00  0.00     0.260 C 
HETATM   11  C5  UNL     1      -6.444  -0.627  -0.152  1.00  0.00     0.259 C 
HETATM   12  N4  UNL     1      -5.539  -1.166  -1.172  1.00  0.00    -0.072 N 
ATOM     13  H41 UNL     1      -5.189  -0.440  -1.797  1.00  0.00     0.277 HD
ATOM     14  H42 UNL     1      -6.032  -1.731  -1.864  1.00  0.00     0.277 HD
HETATM   15  C6  UNL     1      -4.450  -1.911  -0.524  1.00  0.00     0.251 C 
HETATM   16  C7  UNL     1      -3.198  -1.718  -1.326  1.00  0.00     0.148 C 
HETATM   17  N5  UNL     1      -1.979  -1.812  -0.620  1.00  0.00    -0.372 N 
ATOM     18  H5  UNL     1      -1.308  -2.447  -1.052  1.00  0.00     0.161 HD
HETATM   19  C8  UNL     1      -1.552  -1.273   0.433  1.00  0.00     0.139 C 
ENDROOT
BRANCH  19  20
HETATM   20  N6  UNL     1      -0.207  -1.639   0.873  1.00  0.00    -0.374 N 
ATOM     21  H6  UNL     1      -0.051  -2.072   1.783  1.00  0.00     0.161 HD
BRANCH  20  22
HETATM   22  C9  UNL     1       0.889  -1.370  -0.017  1.00  0.00     0.121 C 
BRANCH  22  23
HETATM   23  C10 UNL     1       2.161  -1.834   0.657  1.00  0.00     0.023 C 
BRANCH  23  24
HETATM   24  C11 UNL     1       3.364  -1.590  -0.207  1.00  0.00     0.064 C 
BRANCH  24  25
HETATM   25  C12 UNL     1       3.551  -0.126  -0.535  1.00  0.00     0.382 C 
HETATM   26  N7  UNL     1       3.724   0.649   0.679  1.00  0.00    -0.045 N 
HETATM   27  C13 UNL     1       5.031   0.460   1.260  1.00  0.00     0.262 C 
ATOM     28  H72 UNL     1       3.530   1.637   0.518  1.00  0.00     0.279 HD
ATOM     29  H71 UNL     1       2.986   0.448   1.354  1.00  0.00     0.279 HD
HETATM   30  C14 UNL     1       5.753   1.770   1.413  1.00  0.00     0.260 C 
HETATM   31  N8  UNL     1       5.796   2.539   0.198  1.00  0.00    -0.072 N 
HETATM   32  C15 UNL     1       6.254   1.742  -0.916  1.00  0.00     0.260 C 
ATOM     33  H82 UNL     1       4.895   2.975  -0.000  1.00  0.00     0.277 HD
ATOM     34  H81 UNL     1       6.358   3.383   0.310  1.00  0.00     0.277 HD
HETATM   35  C16 UNL     1       5.031   1.336  -1.731  1.00  0.00     0.262 C 
HETATM   36  N9  UNL     1       4.738  -0.035  -1.382  1.00  0.00    -0.045 N 
ATOM     37  H92 UNL     1       5.542  -0.491  -0.950  1.00  0.00     0.279 HD
ATOM     38  H91 UNL     1       4.651  -0.622  -2.212  1.00  0.00     0.279 HD
ENDBRANCH  24  25
ENDBRANCH  23  24
ENDBRANCH  22  23
ENDBRANCH  20  22
ENDBRANCH  19  20
TORSDOF 5
