REMARK  15 active torsions:
REMARK  status: ('A' for Active; 'I' for Inactive)
REMARK    1  A    between atoms: O1_2  and  C2_3 
REMARK    2  A    between atoms: C4_5  and  O2_6 
REMARK    3  A    between atoms: C6_9  and  O3_10 
REMARK    4  A    between atoms: O3_10  and  C7_11 
REMARK    5  A    between atoms: C7_11  and  C8_12 
REMARK    6  A    between atoms: C8_12  and  C9_13 
REMARK    7  A    between atoms: C8_12  and  C10_16 
REMARK    8  A    between atoms: C9_13  and  O4_14 
REMARK    9  A    between atoms: C11_17  and  O5_18 
REMARK   10  A    between atoms: C12_20  and  O6_21 
REMARK   11  A    between atoms: C14_23  and  O7_24 
REMARK   12  A    between atoms: C15_26  and  O8_27 
REMARK   13  A    between atoms: C17_29  and  C18_30 
REMARK   14  A    between atoms: C18_30  and  O9_31 
REMARK   15  A    between atoms: C18_30  and  C19_33 
ROOT
HETATM    1  C10 UNL     1      -1.366   0.091   0.070  1.00  0.00    -0.002 A 
HETATM    2  C11 UNL     1      -1.503   1.013  -0.977  1.00  0.00     0.109 A 
HETATM    3  C12 UNL     1      -2.401   2.048  -0.968  1.00  0.00     0.138 A 
HETATM    4  C14 UNL     1      -3.208   2.182   0.124  1.00  0.00     0.136 A 
HETATM    5  C15 UNL     1      -3.123   1.285   1.205  1.00  0.00     0.114 A 
HETATM    6  C17 UNL     1      -2.226   0.280   1.161  1.00  0.00     0.023 A 
ENDROOT
BRANCH   1   7
HETATM    7  C8  UNL     1      -0.375  -0.953  -0.108  1.00  0.00     0.070 C 
BRANCH   7   8
HETATM    8  C7  UNL     1       1.084  -0.458   0.072  1.00  0.00     0.187 C 
BRANCH   8   9
HETATM    9  O3  UNL     1       1.961  -1.526   0.226  1.00  0.00    -0.350 OA
BRANCH   9  10
HETATM   10  C6  UNL     1       3.335  -1.485   0.270  1.00  0.00     0.074 A 
HETATM   11  C5  UNL     1       4.036  -2.681   0.483  1.00  0.00     0.073 A 
HETATM   12  C4  UNL     1       5.404  -2.736   0.531  1.00  0.00     0.070 A 
HETATM   13  C3  UNL     1       6.116  -1.577   0.364  1.00  0.00     0.073 A 
HETATM   14  C2  UNL     1       5.476  -0.353   0.147  1.00  0.00     0.073 A 
HETATM   15  C20 UNL     1       4.113  -0.350   0.110  1.00  0.00     0.073 A 
BRANCH  12  16
HETATM   16  O2  UNL     1       6.113  -3.902   0.742  1.00  0.00    -0.361 OA
ATOM     17  H2  UNL     1       5.619  -4.705   0.858  1.00  0.00     0.217 HD
ENDBRANCH  12  16
BRANCH  14  18
HETATM   18  O1  UNL     1       6.231   0.785  -0.023  1.00  0.00    -0.356 OA
HETATM   19  C1  UNL     1       5.743   2.074  -0.257  1.00  0.00     0.210 C 
ENDBRANCH  14  18
ENDBRANCH   9  10
ENDBRANCH   8   9
ENDBRANCH   7   8
BRANCH   7  20
HETATM   20  C9  UNL     1      -0.475  -1.788  -1.318  1.00  0.00     0.175 C 
BRANCH  20  21
HETATM   21  O4  UNL     1       0.390  -2.908  -1.172  1.00  0.00    -0.400 OA
ATOM     22  H4  UNL     1       0.326  -3.446  -1.952  1.00  0.00     0.209 HD
ENDBRANCH  20  21
ENDBRANCH   7  20
ENDBRANCH   1   7
BRANCH   2  23
HETATM   23  O5  UNL     1      -0.693   0.902  -2.099  1.00  0.00    -0.357 OA
ATOM     24  H5  UNL     1      -0.786   1.527  -2.809  1.00  0.00     0.217 HD
ENDBRANCH   2  23
BRANCH   6  25
HETATM   25  C18 UNL     1      -2.154  -0.767   2.202  1.00  0.00     0.215 C 
BRANCH  25  26
HETATM   26  O9  UNL     1      -2.397  -1.976   1.357  1.00  0.00    -0.384 OA
ATOM     27  H9  UNL     1      -2.351  -2.649   2.026  1.00  0.00     0.211 HD
ENDBRANCH  25  26
BRANCH  25  28
HETATM   28  C19 UNL     1      -3.227  -0.893   3.173  1.00  0.00     0.267 C 
HETATM   29  O10 UNL     1      -3.179  -0.285   4.238  1.00  0.00    -0.304 OA
ENDBRANCH  25  28
ENDBRANCH   6  25
BRANCH   3  30
HETATM   30  O6  UNL     1      -2.517   2.965  -2.026  1.00  0.00    -0.351 OA
HETATM   31  C13 UNL     1      -3.468   2.653  -3.024  1.00  0.00     0.210 C 
ENDBRANCH   3  30
BRANCH   5  32
HETATM   32  O8  UNL     1      -4.020   1.576   2.226  1.00  0.00    -0.352 OA
HETATM   33  C16 UNL     1      -5.404   1.161   2.043  1.00  0.00     0.210 C 
ENDBRANCH   5  32
BRANCH   4  34
HETATM   34  O7  UNL     1      -4.112   3.206   0.162  1.00  0.00    -0.356 OA
ATOM     35  H7  UNL     1      -4.674   3.299   0.922  1.00  0.00     0.218 HD
ENDBRANCH   4  34
TORSDOF 15
