REMARK  13 active torsions:
REMARK  status: ('A' for Active; 'I' for Inactive)
REMARK    1  A    between atoms: O1_2  and  C2_3 
REMARK    2  A    between atoms: C2_3  and  C3_5 
REMARK    3  A    between atoms: C3_5  and  C4_6 
REMARK    4  A    between atoms: C4_6  and  N1_7 
REMARK    5  A    between atoms: C4_6  and  C17_31 
REMARK    6  A    between atoms: N1_7  and  C5_9 
REMARK    7  A    between atoms: C6_10  and  C7_11 
REMARK    8  A    between atoms: C7_11  and  O3_12 
REMARK    9  A    between atoms: C7_11  and  O4_14 
REMARK   10  A    between atoms: C9_17  and  C10_18 
REMARK   11  A    between atoms: C10_18  and  O6_19 
REMARK   12  A    between atoms: C10_18  and  N2_21 
REMARK   13  A    between atoms: N2_21  and  C11_23 
ROOT
HETATM    1  C5  UNL     1      -0.483  -0.632   1.029  1.00  0.00     0.114 A 
HETATM    2  C6  UNL     1       0.502  -1.087   0.196  1.00  0.00     0.138 A 
HETATM    3  O5  UNL     1       1.653  -0.401   0.220  1.00  0.00    -0.307 OA
HETATM    4  C9  UNL     1       1.857   0.628   0.969  1.00  0.00     0.105 A 
HETATM    5  C15 UNL     1       0.895   1.124   1.827  1.00  0.00     0.094 A 
HETATM    6  C16 UNL     1      -0.315   0.478   1.863  1.00  0.00     0.203 A 
HETATM    7  O7  UNL     1      -1.230   0.882   2.624  1.00  0.00    -0.286 OA
ENDROOT
BRANCH   1   8
HETATM    8  N1  UNL     1      -1.741  -1.250   1.023  1.00  0.00    -0.370 N 
ATOM      9  H1  UNL     1      -1.804  -2.198   1.393  1.00  0.00     0.160 HD
BRANCH   8  10
HETATM   10  C4  UNL     1      -2.968  -0.634   0.525  1.00  0.00     0.192 C 
BRANCH  10  11
HETATM   11  C3  UNL     1      -2.841  -0.043  -0.828  1.00  0.00     0.147 C 
BRANCH  11  12
HETATM   12  C2  UNL     1      -4.111   0.573  -1.282  1.00  0.00     0.260 C 
HETATM   13  O2  UNL     1      -4.817   0.064  -2.189  1.00  0.00    -0.265 OA
BRANCH  12  14
HETATM   14  O1  UNL     1      -4.571   1.752  -0.707  1.00  0.00    -0.326 OA
HETATM   15  C1  UNL     1      -5.757   2.402  -1.071  1.00  0.00     0.213 C 
ENDBRANCH  12  14
ENDBRANCH  11  12
ENDBRANCH  10  11
BRANCH  10  16
HETATM   16  C17 UNL     1      -4.078  -1.596   0.568  1.00  0.00     0.197 C 
HETATM   17  O8  UNL     1      -3.851  -2.770   0.939  1.00  0.00    -0.646 OA
HETATM   18  O9  UNL     1      -5.348  -1.234   0.216  1.00  0.00    -0.646 OA
ENDBRANCH  10  16
ENDBRANCH   8  10
ENDBRANCH   1   8
BRANCH   2  19
HETATM   19  C7  UNL     1       0.451  -2.236  -0.710  1.00  0.00     0.317 C 
BRANCH  19  20
HETATM   20  O3  UNL     1       1.716  -2.947  -0.519  1.00  0.00    -0.365 OA
ATOM     21  H3  UNL     1       1.683  -3.693  -1.107  1.00  0.00     0.213 HD
ENDBRANCH  19  20
BRANCH  19  22
HETATM   22  O4  UNL     1      -0.539  -3.157  -0.501  1.00  0.00    -0.360 OA
HETATM   23  C8  UNL     1      -1.051  -3.532  -1.742  1.00  0.00     0.205 C 
ENDBRANCH  19  22
ENDBRANCH   2  19
BRANCH   4  24
HETATM   24  C10 UNL     1       3.172   1.339   0.935  1.00  0.00     0.276 C 
BRANCH  24  25
HETATM   25  O6  UNL     1       2.981   2.716   0.863  1.00  0.00    -0.371 OA
ATOM     26  H6  UNL     1       3.816   3.168   0.841  1.00  0.00     0.212 HD
ENDBRANCH  24  25
BRANCH  24  27
HETATM   27  N2  UNL     1       3.997   0.789  -0.080  1.00  0.00    -0.358 N 
ATOM     28  H2  UNL     1       3.638   0.032  -0.662  1.00  0.00     0.162 HD
BRANCH  27  29
HETATM   29  C11 UNL     1       5.342   1.283  -0.306  1.00  0.00     0.037 A 
HETATM   30  C12 UNL     1       5.892   2.246   0.444  1.00  0.00     0.037 A 
HETATM   31  C13 UNL     1       7.169   2.642   0.144  1.00  0.00     0.052 A 
HETATM   32  S1  UNL     1       7.573   1.654  -1.183  1.00  0.00    -0.111 SA
HETATM   33  C14 UNL     1       6.126   0.772  -1.324  1.00  0.00     0.078 A 
ENDBRANCH  27  29
ENDBRANCH  24  27
ENDBRANCH   4  24
TORSDOF 13
