REMARK  15 active torsions:
REMARK  status: ('A' for Active; 'I' for Inactive)
REMARK       I    between atoms: C2_2  and  N1_4 
REMARK    1  A    between atoms: N1_4  and  O2_5 
REMARK    2  A    between atoms: N1_4  and  C9_13 
REMARK    3  A    between atoms: O2_5  and  C3_6 
REMARK    4  A    between atoms: C3_6  and  C5_8 
REMARK    5  A    between atoms: N2_15  and  N3_17 
REMARK    6  A    between atoms: C11_19  and  N4_20 
REMARK    7  A    between atoms: C11_19  and  C14_30 
REMARK    8  A    between atoms: N4_20  and  C12_22 
REMARK    9  A    between atoms: C12_22  and  C13_23 
REMARK   10  A    between atoms: C13_23  and  O4_24 
REMARK   11  A    between atoms: N5_26  and  O5_28 
REMARK   12  A    between atoms: C14_30  and  N6_31 
REMARK   13  A    between atoms: C14_30  and  C16_35 
REMARK   14  A    between atoms: C16_35  and  O6_36 
REMARK   15  A    between atoms: C16_35  and  O7_38 
ROOT
HETATM    1  N6  UNL     1      -3.074   1.001  -1.629  1.00  0.00    -0.312 N 
ATOM      2  H6  UNL     1      -3.040   0.008  -1.859  1.00  0.00     0.172 HD
HETATM    3  C15 UNL     1      -3.411   1.907  -2.640  1.00  0.00     0.178 C 
HETATM    4  N7  UNL     1      -3.703   2.644  -3.487  1.00  0.00    -0.172 NA
ENDROOT
BRANCH   1   5
HETATM    5  C14 UNL     1      -2.774   1.401  -0.287  1.00  0.00     0.215 C 
BRANCH   5   6
HETATM    6  C11 UNL     1      -2.504   0.322   0.661  1.00  0.00     0.121 C 
HETATM    7  N3  UNL     1      -1.325   0.174   1.156  1.00  0.00    -0.286 N 
ATOM      8  H3  UNL     1      -1.220  -0.598   1.815  1.00  0.00     0.188 HD
BRANCH   7   9
HETATM    9  N2  UNL     1      -0.195   0.904   0.924  1.00  0.00    -0.286 N 
HETATM   10  C9  UNL     1       0.997   0.371   0.799  1.00  0.00     0.123 C 
HETATM   11  C10 UNL     1       1.026  -1.125   0.950  1.00  0.00     0.093 C 
ATOM     12  H2  UNL     1      -0.282   1.917   0.844  1.00  0.00     0.188 HD
BRANCH  10  13
HETATM   13  N1  UNL     1       2.151   1.124   0.562  1.00  0.00    -0.175 N 
HETATM   14  C2  UNL     1       2.084   2.536   0.484  1.00  0.00     0.245 C 
HETATM   15  C1  UNL     1       0.895   3.369   0.660  1.00  0.00     0.120 C 
HETATM   16  O1  UNL     1       3.186   3.147   0.233  1.00  0.00    -0.271 OA
BRANCH  13  17
HETATM   17  O2  UNL     1       3.368   0.602   0.384  1.00  0.00    -0.259 OA
BRANCH  17  18
HETATM   18  C3  UNL     1       3.594  -0.174  -0.709  1.00  0.00     0.184 C 
HETATM   19  C4  UNL     1       4.014   0.692  -1.918  1.00  0.00     0.047 C 
BRANCH  18  20
HETATM   20  C5  UNL     1       4.617  -1.197  -0.566  1.00  0.00    -0.003 A 
HETATM   21  C6  UNL     1       4.911  -1.972   0.536  1.00  0.00     0.036 A 
HETATM   22  C7  UNL     1       5.937  -2.814   0.211  1.00  0.00     0.142 A 
HETATM   23  O3  UNL     1       6.261  -2.571  -1.030  1.00  0.00    -0.334 OA
HETATM   24  C8  UNL     1       5.503  -1.618  -1.530  1.00  0.00     0.151 A 
ENDBRANCH  18  20
ENDBRANCH  17  18
ENDBRANCH  13  17
ENDBRANCH  10  13
ENDBRANCH   7   9
BRANCH   6  25
HETATM   25  N4  UNL     1      -3.473  -0.613   1.111  1.00  0.00    -0.369 N 
ATOM     26  H4  UNL     1      -3.744  -0.544   2.092  1.00  0.00     0.161 HD
BRANCH  25  27
HETATM   27  C12 UNL     1      -4.112  -1.638   0.351  1.00  0.00     0.206 C 
BRANCH  27  28
HETATM   28  C13 UNL     1      -3.270  -2.750  -0.080  1.00  0.00     0.153 C 
HETATM   29  N5  UNL     1      -3.550  -3.961   0.239  1.00  0.00    -0.250 N 
ATOM     30  H5  UNL     1      -4.378  -4.145   0.805  1.00  0.00     0.196 HD
BRANCH  28  31
HETATM   31  O4  UNL     1      -2.148  -2.513  -0.845  1.00  0.00    -0.347 OA
ATOM     32  H4  UNL     1      -1.600  -3.237  -1.125  1.00  0.00     0.219 HD
ENDBRANCH  28  31
BRANCH  29  33
HETATM   33  O5  UNL     1      -2.775  -5.004  -0.156  1.00  0.00    -0.288 OA
ATOM     34  H5  UNL     1      -2.982  -5.901   0.080  1.00  0.00     0.244 HD
ENDBRANCH  29  33
ENDBRANCH  27  28
ENDBRANCH  25  27
ENDBRANCH   6  25
ENDBRANCH   5   6
BRANCH   5  35
HETATM   35  C16 UNL     1      -3.827   2.368   0.210  1.00  0.00     0.284 C 
BRANCH  35  36
HETATM   36  O6  UNL     1      -3.846   3.492  -0.608  1.00  0.00    -0.369 OA
ATOM     37  H6  UNL     1      -4.507   4.099  -0.296  1.00  0.00     0.212 HD
ENDBRANCH  35  36
BRANCH  35  38
HETATM   38  O7  UNL     1      -5.099   1.821   0.195  1.00  0.00    -0.369 OA
ATOM     39  H7  UNL     1      -5.760   2.428   0.507  1.00  0.00     0.212 HD
ENDBRANCH  35  38
ENDBRANCH   5  35
ENDBRANCH   1   5
TORSDOF 15
