REMARK  2 active torsions:
REMARK  status: ('A' for Active; 'I' for Inactive)
REMARK    1  A    between atoms: C1_2  and  C2_4 
REMARK    2  A    between atoms: C4_6  and  O3_7 
ROOT
HETATM    1  C2  UNL     1       0.074   0.579  -0.255  1.00  0.00     0.118 A 
HETATM    2  C3  UNL     1      -0.513  -0.688  -0.739  1.00  0.00     0.050 A 
HETATM    3  C4  UNL     1      -0.861  -0.158   0.623  1.00  0.00     0.133 A 
ENDROOT
BRANCH   1   4
HETATM    4  C1  UNL     1       1.512   0.590   0.104  1.00  0.00     0.179 C 
HETATM    5  O1  UNL     1       2.238   1.621  -0.090  1.00  0.00    -0.648 OA
HETATM    6  O2  UNL     1       2.137  -0.516   0.666  1.00  0.00    -0.648 OA
ENDBRANCH   1   4
BRANCH   3   7
HETATM    7  O3  UNL     1      -2.194   0.230   0.755  1.00  0.00    -0.395 OA
ATOM      8  H3  UNL     1      -2.794  -0.243   1.319  1.00  0.00     0.210 HD
ENDBRANCH   3   7
TORSDOF 2
