REMARK  1 active torsions:
REMARK  status: ('A' for Active; 'I' for Inactive)
REMARK    1  A    between atoms: C2_2  and  C3_3 
ROOT
HETATM    1  C1  UNL     1      -1.449  -0.768  -0.418  1.00  0.00     0.027 C 
HETATM    2  C2  UNL     1      -0.138  -0.160  -0.012  1.00  0.00     0.045 A 
HETATM    3  C4  UNL     1       0.009   0.797   1.092  1.00  0.00     0.021 A 
HETATM    4  C5  UNL     1      -0.043   1.327  -0.294  1.00  0.00     0.021 A 
ENDROOT
BRANCH   2   5
HETATM    5  C3  UNL     1       1.067  -0.988  -0.315  1.00  0.00     0.181 C 
HETATM    6  O1  UNL     1       0.921  -1.876  -1.205  1.00  0.00    -0.647 OA
HETATM    7  O2  UNL     1       2.263  -0.805   0.328  1.00  0.00    -0.647 OA
ENDBRANCH   2   5
TORSDOF 1
