REMARK  11 active torsions:
REMARK  status: ('A' for Active; 'I' for Inactive)
REMARK    1  A    between atoms: S1_2  and  C2_3 
REMARK    2  A    between atoms: C2_3  and  C3_4 
REMARK    3  A    between atoms: C3_4  and  C4_5 
REMARK    4  A    between atoms: C4_5  and  N1_6 
REMARK    5  A    between atoms: C4_5  and  C5_10 
REMARK       I    between atoms: C5_10  and  N2_12 
REMARK    6  A    between atoms: N2_12  and  N3_14 
REMARK    7  A    between atoms: C6_16  and  C7_17 
REMARK    8  A    between atoms: C7_17  and  C8_18 
REMARK       I    between atoms: C8_18  and  N4_20 
REMARK    9  A    between atoms: N4_20  and  C9_22 
REMARK   10  A    between atoms: C9_22  and  C10_23 
REMARK   11  A    between atoms: C9_22  and  C12_26 
ROOT
HETATM    1  C7  UNL     1      -1.313  -1.505   1.038  1.00  0.00     0.164 C 
HETATM    2  C13 UNL     1      -2.511  -2.293   0.530  1.00  0.00     0.153 C 
HETATM    3  C14 UNL     1      -2.119  -3.560  -0.085  1.00  0.00     0.069 C 
HETATM    4  N6  UNL     1      -1.799  -4.569  -0.556  1.00  0.00    -0.197 NA
HETATM    5  C15 UNL     1      -3.491  -2.564   1.624  1.00  0.00     0.140 C 
HETATM    6  N7  UNL     1      -2.921  -3.099   2.817  1.00  0.00    -0.379 N 
ATOM      7  H7  UNL     1      -3.492  -3.440   3.590  1.00  0.00     0.157 HD
HETATM    8  C16 UNL     1      -1.488  -3.123   2.851  1.00  0.00     0.384 C 
HETATM    9  N8  UNL     1      -0.943  -3.049   4.198  1.00  0.00    -0.035 N 
ATOM     10  H81 UNL     1      -1.011  -3.921   4.723  1.00  0.00     0.281 HD
ATOM     11  H82 UNL     1      -1.498  -2.485   4.842  1.00  0.00     0.281 HD
HETATM   12  C17 UNL     1       0.425  -2.569   4.012  1.00  0.00     0.261 C 
HETATM   13  C18 UNL     1       0.513  -2.167   2.528  1.00  0.00     0.106 C 
HETATM   14  C19 UNL     1       1.303  -3.211   1.832  1.00  0.00     0.034 C 
HETATM   15  N9  UNL     1      -0.846  -2.043   2.219  1.00  0.00    -0.342 N 
ENDROOT
BRANCH   1  16
HETATM   16  C6  UNL     1      -0.311  -1.393  -0.063  1.00  0.00     0.122 C 
HETATM   17  N3  UNL     1       0.616  -0.513  -0.068  1.00  0.00    -0.310 N 
ATOM     18  H3  UNL     1       0.648   0.126   0.726  1.00  0.00     0.185 HD
BRANCH  17  19
HETATM   19  N2  UNL     1       1.573  -0.343  -1.037  1.00  0.00    -0.269 N 
HETATM   20  C5  UNL     1       2.237   0.884  -1.232  1.00  0.00     0.266 C 
HETATM   21  O1  UNL     1       1.962   1.867  -0.511  1.00  0.00    -0.269 OA
ATOM     22  H2  UNL     1       1.812  -1.133  -1.637  1.00  0.00     0.190 HD
BRANCH  20  23
HETATM   23  C4  UNL     1       3.283   1.072  -2.288  1.00  0.00     0.277 C 
BRANCH  23  24
HETATM   24  C3  UNL     1       2.886   2.111  -3.271  1.00  0.00     0.053 C 
BRANCH  24  25
HETATM   25  C2  UNL     1       3.873   2.341  -4.351  1.00  0.00     0.076 C 
BRANCH  25  26
HETATM   26  S1  UNL     1       5.484   2.921  -3.878  1.00  0.00    -0.173 SA
HETATM   27  C1  UNL     1       6.513   1.778  -2.976  1.00  0.00     0.089 C 
ENDBRANCH  25  26
ENDBRANCH  24  25
ENDBRANCH  23  24
BRANCH  23  28
HETATM   28  N1  UNL     1       3.451  -0.192  -3.007  1.00  0.00    -0.066 N 
ATOM     29  H13 UNL     1       2.624  -0.453  -3.544  1.00  0.00     0.275 HD
ATOM     30  H12 UNL     1       4.103  -0.118  -3.788  1.00  0.00     0.275 HD
ATOM     31  H11 UNL     1       3.724  -0.906  -2.332  1.00  0.00     0.275 HD
ENDBRANCH  23  28
ENDBRANCH  20  23
ENDBRANCH  17  19
ENDBRANCH   1  16
BRANCH   1  32
HETATM   32  C8  UNL     1      -1.795  -0.116   1.258  1.00  0.00     0.254 C 
HETATM   33  O2  UNL     1      -1.689   0.345   2.446  1.00  0.00    -0.270 OA
HETATM   34  N4  UNL     1      -2.346   0.697   0.264  1.00  0.00    -0.339 N 
ATOM     35  H4  UNL     1      -2.432   0.329  -0.683  1.00  0.00     0.163 HD
BRANCH  34  36
HETATM   36  C9  UNL     1      -2.798   2.043   0.535  1.00  0.00     0.243 C 
BRANCH  36  37
HETATM   37  C10 UNL     1      -2.112   3.038  -0.337  1.00  0.00     0.154 C 
HETATM   38  C11 UNL     1      -2.334   4.484  -0.298  1.00  0.00     0.093 C 
HETATM   39  O3  UNL     1      -1.297   2.591  -1.146  1.00  0.00    -0.296 OA
ENDBRANCH  36  37
BRANCH  36  40
HETATM   40  C12 UNL     1      -4.257   2.188   0.319  1.00  0.00     0.261 C 
HETATM   41  N5  UNL     1      -4.867   3.433   0.552  1.00  0.00    -0.060 NA
HETATM   42  O4  UNL     1      -4.960   1.226  -0.066  1.00  0.00    -0.274 OA
ENDBRANCH  36  40
ENDBRANCH  34  36
ENDBRANCH   1  32
TORSDOF 11
