REMARK  16 active torsions:
REMARK  status: ('A' for Active; 'I' for Inactive)
REMARK    1  A    between atoms: O1_2  and  C2_3 
REMARK       I    between atoms: C2_3  and  N1_5 
REMARK    2  A    between atoms: N1_5  and  C3_6 
REMARK    3  A    between atoms: C3_6  and  C4_7 
REMARK    4  A    between atoms: C3_6  and  C11_14 
REMARK    5  A    between atoms: C4_7  and  C5_8 
REMARK       I    between atoms: C11_14  and  N2_16 
REMARK    6  A    between atoms: N2_16  and  C12_18 
REMARK    7  A    between atoms: C12_18  and  C14_20 
REMARK    8  A    between atoms: C14_20  and  O4_21 
REMARK    9  A    between atoms: C14_20  and  N3_23 
REMARK   10  A    between atoms: N3_23  and  C15_25 
REMARK   11  A    between atoms: C15_25  and  O5_26 
REMARK   12  A    between atoms: C15_25  and  C16_28 
REMARK   13  A    between atoms: C16_28  and  O6_29 
REMARK   14  A    between atoms: C16_28  and  C17_31 
REMARK       I    between atoms: C17_31  and  N4_33 
REMARK   15  A    between atoms: N4_33  and  C18_35 
REMARK   16  A    between atoms: N7_41  and  N8_42 
ROOT
HETATM    1  C14 UNL     1       1.335   1.214  -1.252  1.00  0.00     0.140 C 
ENDROOT
BRANCH   1   2
HETATM    2  C12 UNL     1       0.767   0.469  -0.149  1.00  0.00     0.155 C 
HETATM    3  C13 UNL     1       1.424   0.896   1.183  1.00  0.00     0.041 C 
BRANCH   2   4
HETATM    4  N2  UNL     1      -0.675   0.888  -0.018  1.00  0.00    -0.347 N 
HETATM    5  C11 UNL     1      -1.589  -0.044   0.467  1.00  0.00     0.254 C 
HETATM    6  O3  UNL     1      -1.199  -1.224   0.782  1.00  0.00    -0.270 OA
ATOM      7  H2  UNL     1      -0.973   1.828  -0.277  1.00  0.00     0.163 HD
BRANCH   5   8
HETATM    8  C3  UNL     1      -3.054   0.227   0.669  1.00  0.00     0.265 C 
BRANCH   8   9
HETATM    9  N1  UNL     1      -3.694  -0.898   1.127  1.00  0.00    -0.375 NA
HETATM   10  C2  UNL     1      -4.327  -2.011   1.579  1.00  0.00     0.435 C 
HETATM   11  O2  UNL     1      -4.672  -2.276   2.747  1.00  0.00    -0.221 OA
BRANCH  10  12
HETATM   12  O1  UNL     1      -4.654  -3.022   0.625  1.00  0.00    -0.298 OA
HETATM   13  C1  UNL     1      -5.312  -4.184   1.036  1.00  0.00     0.216 C 
ENDBRANCH  10  12
ENDBRANCH   8   9
BRANCH   8  14
HETATM   14  C4  UNL     1      -3.533   0.684  -0.720  1.00  0.00     0.088 C 
BRANCH  14  15
HETATM   15  C5  UNL     1      -4.975   0.995  -0.724  1.00  0.00    -0.055 A 
HETATM   16  C6  UNL     1      -5.513   2.229  -0.428  1.00  0.00     0.007 A 
HETATM   17  C7  UNL     1      -6.869   2.476  -0.427  1.00  0.00     0.001 A 
HETATM   18  C8  UNL     1      -7.696   1.409  -0.746  1.00  0.00     0.000 A 
HETATM   19  C9  UNL     1      -7.204   0.161  -1.051  1.00  0.00     0.001 A 
HETATM   20  C10 UNL     1      -5.842  -0.056  -1.042  1.00  0.00     0.007 A 
ENDBRANCH  14  15
ENDBRANCH   8  14
ENDBRANCH   5   8
ENDBRANCH   2   4
ENDBRANCH   1   2
BRANCH   1  21
HETATM   21  O4  UNL     1       0.485   2.071  -1.792  1.00  0.00    -0.348 OA
ATOM     22  H4  UNL     1       0.858   2.560  -2.516  1.00  0.00     0.219 HD
ENDBRANCH   1  21
BRANCH   1  23
HETATM   23  N3  UNL     1       2.575   1.217  -1.846  1.00  0.00    -0.321 N 
ATOM     24  H3  UNL     1       2.640   1.908  -2.593  1.00  0.00     0.169 HD
BRANCH  23  25
HETATM   25  C15 UNL     1       3.760   0.513  -1.681  1.00  0.00     0.156 C 
BRANCH  25  26
HETATM   26  O5  UNL     1       4.790   1.036  -2.398  1.00  0.00    -0.347 OA
ATOM     27  H5  UNL     1       5.601   0.554  -2.285  1.00  0.00     0.219 HD
ENDBRANCH  25  26
BRANCH  25  28
HETATM   28  C16 UNL     1       4.193  -0.657  -0.938  1.00  0.00     0.285 C 
BRANCH  28  29
HETATM   29  O6  UNL     1       3.233  -1.556  -0.574  1.00  0.00    -0.378 OA
ATOM     30  H6  UNL     1       3.516  -2.321  -0.088  1.00  0.00     0.211 HD
ENDBRANCH  28  29
BRANCH  28  31
HETATM   31  C17 UNL     1       4.974  -0.246   0.309  1.00  0.00     0.272 C 
HETATM   32  O7  UNL     1       4.640  -0.766   1.412  1.00  0.00    -0.269 OA
HETATM   33  N4  UNL     1       5.997   0.658   0.230  1.00  0.00    -0.154 N 
ATOM     34  H4  UNL     1       5.752   1.546  -0.208  1.00  0.00     0.187 HD
BRANCH  33  35
HETATM   35  C18 UNL     1       7.194   0.569   0.612  1.00  0.00     0.722 A 
HETATM   36  N5  UNL     1       8.073   1.615   0.434  1.00  0.00    -0.183 N 
HETATM   37  C19 UNL     1       9.229   1.235   0.933  1.00  0.00     0.217 A 
ATOM     38  H5  UNL     1       7.866   2.514  -0.002  1.00  0.00     0.185 HD
HETATM   39  N6  UNL     1       9.098   0.007   1.407  1.00  0.00    -0.260 N 
HETATM   40  N7  UNL     1       7.847  -0.406   1.210  1.00  0.00    -0.026 N 
ATOM     41  H6  UNL     1       9.837  -0.537   1.852  1.00  0.00     0.190 HD
BRANCH  40  42
HETATM   42  N8  UNL     1       7.443  -1.687   1.615  1.00  0.00    -0.309 N 
ATOM     43  H82 UNL     1       6.485  -2.003   1.464  1.00  0.00     0.179 HD
ATOM     44  H81 UNL     1       7.949  -2.442   2.078  1.00  0.00     0.179 HD
ENDBRANCH  40  42
ENDBRANCH  33  35
ENDBRANCH  28  31
ENDBRANCH  25  28
ENDBRANCH  23  25
ENDBRANCH   1  23
TORSDOF 16
