REMARK  6 active torsions:
REMARK  status: ('A' for Active; 'I' for Inactive)
REMARK    1  A    between atoms: C2_2  and  O1_5 
REMARK    2  A    between atoms: O1_5  and  C5_6 
REMARK       I    between atoms: C5_6  and  N1_8 
REMARK    3  A    between atoms: N1_8  and  S1_10 
REMARK    4  A    between atoms: S1_10  and  C6_11 
REMARK    5  A    between atoms: C6_11  and  C7_12 
REMARK    6  A    between atoms: C10_17  and  O3_18 
ROOT
HETATM    1  S1  UNL     1       0.830  -0.091   1.500  1.00  0.00    -0.049 SA
ENDROOT
BRANCH   1   2
HETATM    2  N1  UNL     1      -0.861  -0.411   1.799  1.00  0.00    -0.276 N 
HETATM    3  C5  UNL     1      -1.820  -0.054   0.823  1.00  0.00     0.371 C 
HETATM    4  O2  UNL     1      -1.557   0.488  -0.273  1.00  0.00    -0.238 OA
ATOM      5  H1  UNL     1      -1.154  -0.852   2.671  1.00  0.00     0.179 HD
BRANCH   3   6
HETATM    6  O1  UNL     1      -3.151  -0.323   1.096  1.00  0.00    -0.293 OA
BRANCH   6   7
HETATM    7  C2  UNL     1      -4.123   0.018   0.138  1.00  0.00     0.061 C 
HETATM    8  C1  UNL     1      -5.478  -0.391   0.724  1.00  0.00     0.046 C 
HETATM    9  C3  UNL     1      -3.935  -0.782  -1.153  1.00  0.00     0.046 C 
HETATM   10  C4  UNL     1      -4.190   1.482  -0.163  1.00  0.00     0.046 C 
ENDBRANCH   6   7
ENDBRANCH   3   6
ENDBRANCH   1   2
BRANCH   1  11
HETATM   11  C6  UNL     1       1.250  -0.538  -0.201  1.00  0.00     0.131 C 
BRANCH  11  12
HETATM   12  C7  UNL     1       2.736  -0.279  -0.376  1.00  0.00     0.153 C 
HETATM   13  C8  UNL     1       3.576  -1.078   0.557  1.00  0.00     0.146 C 
HETATM   14  N2  UNL     1       4.812  -0.487   0.953  1.00  0.00    -0.414 N 
HETATM   15  C9  UNL     1       5.281   0.587   0.151  1.00  0.00     0.174 C 
ATOM     16  H2  UNL     1       5.330  -0.817   1.767  1.00  0.00     0.153 HD
HETATM   17  C10 UNL     1       4.226   1.383  -0.534  1.00  0.00     0.274 C 
HETATM   18  O4  UNL     1       2.931   1.079  -0.084  1.00  0.00    -0.352 OA
BRANCH  17  19
HETATM   19  O3  UNL     1       4.205   1.151  -1.918  1.00  0.00    -0.370 OA
ATOM     20  H3  UNL     1       3.532   1.659  -2.355  1.00  0.00     0.212 HD
ENDBRANCH  17  19
ENDBRANCH  11  12
ENDBRANCH   1  11
TORSDOF 6
