REMARK  4 active torsions:
REMARK  status: ('A' for Active; 'I' for Inactive)
REMARK    1  A    between atoms: C2_2  and  O1_3 
REMARK    2  A    between atoms: C2_2  and  C3_5 
REMARK    3  A    between atoms: N1_7  and  O2_9 
REMARK    4  A    between atoms: O2_9  and  C5_10 
ROOT
HETATM    1  C5  UNL     1       2.879   0.943  -0.116  1.00  0.00     0.169 C 
HETATM    2  C6  UNL     1       3.201   2.057   0.830  1.00  0.00     0.065 C 
HETATM    3  C7  UNL     1       3.073  -0.381   0.627  1.00  0.00     0.065 C 
HETATM    4  C8  UNL     1       3.850   0.922  -1.221  1.00  0.00     0.099 C 
HETATM    5  N2  UNL     1       4.619   0.903  -2.096  1.00  0.00    -0.194 NA
ENDROOT
BRANCH   1   6
HETATM    6  O2  UNL     1       1.605   1.006  -0.676  1.00  0.00    -0.255 OA
BRANCH   6   7
HETATM    7  N1  UNL     1       0.425   0.990  -0.014  1.00  0.00    -0.268 N 
HETATM    8  C4  UNL     1      -0.466   0.135  -0.332  1.00  0.00     0.067 C 
HETATM    9  C3  UNL     1      -1.795   0.008   0.309  1.00  0.00     0.096 C 
HETATM   10  C9  UNL     1      -0.446  -0.924  -1.372  1.00  0.00     0.271 C 
HETATM   11  C12 UNL     1      -2.466  -1.068  -0.553  1.00  0.00     0.143 C 
HETATM   12  C11 UNL     1      -2.362  -2.431   0.049  1.00  0.00     0.108 C 
HETATM   13  O3  UNL     1      -1.789  -1.000  -1.764  1.00  0.00    -0.355 OA
HETATM   14  C10 UNL     1      -0.924  -2.808   0.156  1.00  0.00     0.075 C 
HETATM   15  N3  UNL     1      -0.025  -2.136  -0.706  1.00  0.00    -0.349 N 
HETATM   16  N4  UNL     1      -0.540  -3.709   1.004  1.00  0.00    -0.389 N 
ATOM     17  H3  UNL     1       0.914  -2.505  -0.856  1.00  0.00     0.163 HD
ATOM     18  H42 UNL     1       0.444  -3.967   1.077  1.00  0.00     0.157 HD
ATOM     19  H41 UNL     1      -1.188  -4.193   1.625  1.00  0.00     0.157 HD
ATOM     20  H1  UNL     1       0.249   1.659   0.736  1.00  0.00     0.194 HD
BRANCH   9  21
HETATM   21  C2  UNL     1      -2.631   1.260   0.133  1.00  0.00     0.126 C 
HETATM   22  C1  UNL     1      -2.004   2.479   0.721  1.00  0.00     0.040 C 
BRANCH  21  23
HETATM   23  O1  UNL     1      -2.936   1.389  -1.221  1.00  0.00    -0.395 OA
ATOM     24  H1  UNL     1      -3.335   0.613  -1.596  1.00  0.00     0.210 HD
ENDBRANCH  21  23
ENDBRANCH   9  21
ENDBRANCH   6   7
ENDBRANCH   1   6
TORSDOF 4
