REMARK  4 active torsions:
REMARK  status: ('A' for Active; 'I' for Inactive)
REMARK    1  A    between atoms: O1_2  and  C2_3 
REMARK    2  A    between atoms: N3_8  and  O2_9 
REMARK    3  A    between atoms: C4_11  and  C5_12 
REMARK    4  A    between atoms: C6_13  and  C7_14 
ROOT
HETATM    1  C2  UNL     1      -2.057  -0.748   0.102  1.00  0.00     0.174 A 
HETATM    2  N1  UNL     1      -3.253  -0.146   0.191  1.00  0.00    -0.307 N 
ATOM      3  H1  UNL     1      -4.152  -0.625   0.232  1.00  0.00     0.170 HD
HETATM    4  C3  UNL     1      -3.083   1.178   0.217  1.00  0.00     0.221 A 
HETATM    5  N2  UNL     1      -4.088   2.177   0.304  1.00  0.00    -0.061 NA
HETATM    6  N3  UNL     1      -1.740   1.392   0.141  1.00  0.00    -0.191 N 
HETATM    7  C4  UNL     1      -1.067   0.233   0.069  1.00  0.00     0.116 A 
ENDROOT
BRANCH   7   8
HETATM    8  C5  UNL     1       0.360  -0.042  -0.025  1.00  0.00     0.039 C 
HETATM    9  C6  UNL     1       1.288   0.898  -0.056  1.00  0.00     0.032 C 
BRANCH   9  10
HETATM   10  C7  UNL     1       2.700   0.497  -0.152  1.00  0.00     0.032 A 
HETATM   11  C8  UNL     1       3.758   1.389  -0.193  1.00  0.00     0.031 A 
HETATM   12  C9  UNL     1       4.893   0.602  -0.283  1.00  0.00     0.019 A 
HETATM   13  C10 UNL     1       4.521  -0.725  -0.296  1.00  0.00     0.088 A 
HETATM   14  N4  UNL     1       3.185  -0.757  -0.216  1.00  0.00    -0.366 N 
ATOM     15  H4  UNL     1       2.619  -1.605  -0.205  1.00  0.00     0.165 HD
ENDBRANCH   9  10
ENDBRANCH   7   8
BRANCH   1  16
HETATM   16  O1  UNL     1      -1.818  -2.131   0.051  1.00  0.00    -0.339 OA
HETATM   17  C1  UNL     1      -2.913  -3.014   0.093  1.00  0.00     0.211 C 
ENDBRANCH   1  16
BRANCH   6  18
HETATM   18  O2  UNL     1      -1.193   2.645   0.142  1.00  0.00    -0.280 OA
ATOM     19  H2  UNL     1      -0.256   2.794   0.089  1.00  0.00     0.245 HD
ENDBRANCH   6  18
TORSDOF 4
