REMARK  3 active torsions:
REMARK  status: ('A' for Active; 'I' for Inactive)
REMARK    1  A    between atoms: C1_1  and  C10_16 
REMARK    2  A    between atoms: N1_2  and  N2_4 
REMARK    3  A    between atoms: N2_4  and  C2_6 
ROOT
HETATM    1  N2  UNL     1       0.017  -0.043  -1.226  1.00  0.00    -0.303 N 
ATOM      2  H2  UNL     1      -0.125   0.111  -2.224  1.00  0.00     0.186 HD
ENDROOT
BRANCH   1   3
HETATM    3  N1  UNL     1       1.286   0.096  -0.733  1.00  0.00    -0.309 N 
HETATM    4  C1  UNL     1       1.944  -0.772  -0.058  1.00  0.00     0.136 C 
ATOM      5  H1  UNL     1       1.756   0.981  -0.922  1.00  0.00     0.186 HD
BRANCH   4   6
HETATM    6  C10 UNL     1       3.295  -0.451   0.389  1.00  0.00     0.049 A 
HETATM    7  C11 UNL     1       3.984   0.721   0.166  1.00  0.00     0.032 A 
HETATM    8  C12 UNL     1       5.213   0.644   0.738  1.00  0.00     0.019 A 
HETATM    9  C13 UNL     1       5.276  -0.601   1.322  1.00  0.00     0.088 A 
HETATM   10  N4  UNL     1       4.117  -1.238   1.100  1.00  0.00    -0.365 N 
ATOM     11  H4  UNL     1       3.894  -2.179   1.423  1.00  0.00     0.165 HD
ENDBRANCH   4   6
ENDBRANCH   1   3
BRANCH   1  12
HETATM   12  C2  UNL     1      -1.134  -0.393  -0.427  1.00  0.00     0.056 A 
HETATM   13  C3  UNL     1      -2.324   0.169  -0.540  1.00  0.00     0.016 A 
HETATM   14  C4  UNL     1      -2.782   1.180  -1.392  1.00  0.00     0.016 A 
HETATM   15  C8  UNL     1      -3.206  -0.384   0.362  1.00  0.00     0.040 A 
HETATM   16  C5  UNL     1      -4.074   1.645  -1.367  1.00  0.00     0.001 A 
HETATM   17  C6  UNL     1      -4.938   1.085  -0.465  1.00  0.00     0.002 A 
HETATM   18  C7  UNL     1      -4.518   0.089   0.387  1.00  0.00     0.030 A 
HETATM   19  N3  UNL     1      -2.622  -1.292   1.060  1.00  0.00    -0.383 N 
HETATM   20  C9  UNL     1      -1.252  -1.389   0.631  1.00  0.00     0.179 A 
ATOM     21  H3  UNL     1      -3.057  -1.850   1.795  1.00  0.00     0.160 HD
ENDBRANCH   1  12
TORSDOF 3
