REMARK  6 active torsions:
REMARK  status: ('A' for Active; 'I' for Inactive)
REMARK    1  A    between atoms: C2_2  and  C3_3 
REMARK    2  A    between atoms: C2_2  and  C11_30 
REMARK    3  A    between atoms: C3_3  and  N1_4 
REMARK    4  A    between atoms: N3_10  and  N4_11 
REMARK    5  A    between atoms: N5_15  and  N6_17 
REMARK    6  A    between atoms: C8_20  and  N7_21 
REMARK       I    between atoms: N7_21  and  C9_23 
ROOT
HETATM    1  N1  UNL     1       2.100  -0.785   1.368  1.00  0.00    -0.320 N 
HETATM    2  C4  UNL     1       2.310  -2.074   1.809  1.00  0.00     0.186 A 
HETATM    3  N2  UNL     1       1.217  -2.796   1.563  1.00  0.00    -0.335 N 
ATOM      4  H2  UNL     1       1.089  -3.784   1.783  1.00  0.00     0.168 HD
HETATM    5  C5  UNL     1       0.315  -1.996   0.975  1.00  0.00     0.154 A 
HETATM    6  C6  UNL     1       0.872  -0.716   0.849  1.00  0.00     0.176 A 
HETATM    7  N3  UNL     1       0.264   0.428   0.270  1.00  0.00    -0.222 N 
HETATM    8  C7  UNL     1      -1.008   0.480  -0.445  1.00  0.00     0.173 C 
HETATM    9  N5  UNL     1      -1.021   1.252  -1.390  1.00  0.00    -0.289 N 
ATOM     10  H5  UNL     1      -0.098   1.684  -1.439  1.00  0.00     0.188 HD
HETATM   11  C8  UNL     1      -2.244  -0.339  -0.110  1.00  0.00     0.125 C 
HETATM   12  C10 UNL     1      -2.153  -1.578   0.304  1.00  0.00     0.148 C 
HETATM   13  N9  UNL     1      -3.326  -2.280   0.592  1.00  0.00    -0.080 NA
HETATM   14  N10 UNL     1      -0.976  -2.373   0.557  1.00  0.00    -0.326 N 
ATOM     15  H10 UNL     1      -1.099  -3.375   0.408  1.00  0.00     0.168 HD
ENDROOT
BRANCH   1  16
HETATM   16  C3  UNL     1       3.088   0.228   1.502  1.00  0.00     0.176 C 
BRANCH  16  17
HETATM   17  C2  UNL     1       3.942   0.237   0.255  1.00  0.00     0.027 C 
HETATM   18  C1  UNL     1       3.738  -0.612  -0.734  1.00  0.00     0.027 C 
BRANCH  17  19
HETATM   19  C11 UNL     1       5.024   1.205   0.128  1.00  0.00     0.206 C 
HETATM   20  O2  UNL     1       5.729   1.219  -0.891  1.00  0.00    -0.644 OA
HETATM   21  O3  UNL     1       5.253   2.097   1.145  1.00  0.00    -0.644 OA
ENDBRANCH  17  19
ENDBRANCH  16  17
ENDBRANCH   1  16
BRANCH   7  22
HETATM   22  N4  UNL     1       0.949   1.613   0.382  1.00  0.00    -0.335 N 
ATOM     23  H42 UNL     1       1.838   1.577   0.881  1.00  0.00     0.177 HD
ATOM     24  H41 UNL     1       0.512   2.435  -0.034  1.00  0.00     0.177 HD
ENDBRANCH   7  22
BRANCH   9  25
HETATM   25  N6  UNL     1      -1.747   1.761  -2.383  1.00  0.00    -0.344 N 
ATOM     26  H62 UNL     1      -2.660   1.312  -2.308  1.00  0.00     0.176 HD
ATOM     27  H61 UNL     1      -1.758   2.406  -3.173  1.00  0.00     0.176 HD
ENDBRANCH   9  25
BRANCH  11  28
HETATM   28  N7  UNL     1      -3.428   0.359  -0.286  1.00  0.00    -0.305 N 
HETATM   29  C9  UNL     1      -4.786   0.223  -0.183  1.00  0.00     0.333 C 
HETATM   30  N8  UNL     1      -5.597   1.416  -0.537  1.00  0.00    -0.040 NA
HETATM   31  O1  UNL     1      -5.490  -0.711   0.151  1.00  0.00    -0.251 OA
ATOM     32  H7  UNL     1      -3.212   1.304  -0.603  1.00  0.00     0.170 HD
ENDBRANCH  11  28
TORSDOF 6
