REMARK  1 active torsions:
REMARK  status: ('A' for Active; 'I' for Inactive)
REMARK    1  A    between atoms: O1_1  and  N1_3 
ROOT
HETATM    1  N1  UNL     1       2.239  -0.461  -0.404  1.00  0.00    -0.275 N 
ATOM      2  H1  UNL     1       2.466  -0.379  -1.395  1.00  0.00     0.193 HD
HETATM    3  C1  UNL     1       1.011  -0.403  -0.067  1.00  0.00     0.043 C 
HETATM    4  C2  UNL     1       0.455  -0.500   1.316  1.00  0.00     0.327 C 
HETATM    5  N2  UNL     1      -0.998  -0.396   1.148  1.00  0.00     0.094 N 
HETATM    6  C3  UNL     1      -1.283   0.970   0.749  1.00  0.00     0.273 C 
HETATM    7  C4  UNL     1      -0.719   1.151  -0.654  1.00  0.00     0.042 C 
HETATM    8  C5  UNL     1      -0.166  -0.230  -0.929  1.00  0.00     0.065 C 
HETATM    9  C6  UNL     1      -1.191  -1.069  -0.151  1.00  0.00     0.283 C 
ENDROOT
BRANCH   1  10
HETATM   10  O1  UNL     1       3.268  -0.625   0.474  1.00  0.00    -0.290 OA
ATOM     11  H1  UNL     1       4.183  -0.668   0.223  1.00  0.00     0.244 HD
ENDBRANCH   1  10
TORSDOF 1
