REMARK  2 active torsions:
REMARK  status: ('A' for Active; 'I' for Inactive)
REMARK    1  A    between atoms: O1_1  and  N1_3 
REMARK    2  A    between atoms: N2_8  and  O2_9 
ROOT
HETATM    1  N1  UNL     1       1.005   0.027   0.627  1.00  0.00    -0.093 NA
HETATM    2  C1  UNL     1      -0.172   0.801   0.671  1.00  0.00     0.144 C 
HETATM    3  C2  UNL     1      -1.098   0.671  -0.481  1.00  0.00     0.030 C 
HETATM    4  C3  UNL     1      -1.775  -0.702  -0.374  1.00  0.00     0.096 C 
HETATM    5  S1  UNL     1      -0.386  -1.895  -0.504  1.00  0.00    -0.034 SA
HETATM    6  N2  UNL     1       1.080  -0.955  -0.314  1.00  0.00    -0.039 NA
ENDROOT
BRANCH   1   7
HETATM    7  O1  UNL     1       2.095   0.832   0.498  1.00  0.00    -0.295 OA
ATOM      8  H1  UNL     1       2.888   0.310   0.468  1.00  0.00     0.238 HD
ENDBRANCH   1   7
BRANCH   6   9
HETATM    9  O2  UNL     1       2.080  -1.817   0.047  1.00  0.00    -0.286 OA
ATOM     10  H2  UNL     1       2.132  -2.502  -0.609  1.00  0.00     0.239 HD
ENDBRANCH   6   9
TORSDOF 2
