REMARK  1 active torsions:
REMARK  status: ('A' for Active; 'I' for Inactive)
REMARK    1  A    between atoms: O1_1  and  C1_3 
ROOT
HETATM    1  C1  UNL     1      -0.900   0.317  -0.037  1.00  0.00     0.285 C 
HETATM    2  N1  UNL     1      -0.868  -1.070  -0.279  1.00  0.00    -0.137 NA
HETATM    3  S1  UNL     1       0.752  -1.667  -0.295  1.00  0.00    -0.052 SA
HETATM    4  C2  UNL     1       1.815  -0.243   0.119  1.00  0.00     0.170 C 
HETATM    5  S2  UNL     1       0.667   1.064  -0.462  1.00  0.00    -0.109 SA
ENDROOT
BRANCH   1   6
HETATM    6  O1  UNL     1      -1.903   0.991  -0.767  1.00  0.00    -0.370 OA
ATOM      7  H1  UNL     1      -1.925   1.927  -0.604  1.00  0.00     0.212 HD
ENDBRANCH   1   6
TORSDOF 1
