REMARK  9 active torsions:
REMARK  status: ('A' for Active; 'I' for Inactive)
REMARK    1  A    between atoms: N1_1  and  C1_4 
REMARK    2  A    between atoms: C4_10  and  O2_11 
REMARK    3  A    between atoms: N3_13  and  C5_14 
REMARK    4  A    between atoms: C5_14  and  C6_15 
REMARK    5  A    between atoms: C6_15  and  C7_16 
REMARK    6  A    between atoms: C6_15  and  O4_19 
REMARK    7  A    between atoms: C7_16  and  O3_17 
REMARK    8  A    between atoms: O4_19  and  N4_20 
REMARK    9  A    between atoms: N5_24  and  N6_25 
ROOT
HETATM    1  C1  UNL     1       5.713   0.185   0.072  1.00  0.00     0.680 A 
HETATM    2  N2  UNL     1       5.599  -0.916   0.801  1.00  0.00    -0.155 N 
ATOM      3  H2  UNL     1       6.428  -1.459   1.042  1.00  0.00     0.187 HD
HETATM    4  C2  UNL     1       4.397  -1.310   1.218  1.00  0.00     0.278 A 
HETATM    5  O1  UNL     1       4.247  -2.356   1.915  1.00  0.00    -0.266 OA
HETATM    6  C3  UNL     1       3.256  -0.610   0.917  1.00  0.00     0.130 A 
HETATM    7  C4  UNL     1       1.914  -0.707   1.160  1.00  0.00     0.177 A 
HETATM    8  N3  UNL     1       1.249   0.313   0.589  1.00  0.00    -0.266 N 
HETATM    9  N8  UNL     1       2.183   1.038  -0.006  1.00  0.00    -0.280 N 
ATOM     10  H8  UNL     1       1.986   1.890  -0.531  1.00  0.00     0.189 HD
HETATM   11  C10 UNL     1       3.401   0.541   0.152  1.00  0.00     0.155 A 
HETATM   12  N9  UNL     1       4.633   0.913  -0.255  1.00  0.00    -0.174 N 
ATOM     13  H9  UNL     1       4.745   1.757  -0.817  1.00  0.00     0.186 HD
ENDROOT
BRANCH   8  14
HETATM   14  C5  UNL     1      -0.135   0.637   0.563  1.00  0.00     0.187 C 
BRANCH  14  15
HETATM   15  C6  UNL     1      -0.912   0.061  -0.570  1.00  0.00     0.190 C 
BRANCH  15  16
HETATM   16  C7  UNL     1      -0.412   0.496  -1.924  1.00  0.00     0.199 C 
BRANCH  16  17
HETATM   17  O3  UNL     1      -1.249  -0.035  -2.893  1.00  0.00    -0.398 OA
ATOM     18  H3  UNL     1      -0.934   0.239  -3.746  1.00  0.00     0.209 HD
ENDBRANCH  16  17
ENDBRANCH  15  16
BRANCH  15  19
HETATM   19  O4  UNL     1      -2.213   0.565  -0.463  1.00  0.00    -0.276 OA
BRANCH  19  20
HETATM   20  N4  UNL     1      -3.143  -0.373  -0.329  1.00  0.00    -0.077 NA
HETATM   21  C8  UNL     1      -3.520  -0.649   1.020  1.00  0.00     0.250 C 
HETATM   22  C9  UNL     1      -4.997  -0.363   1.062  1.00  0.00     0.272 C 
HETATM   23  O5  UNL     1      -5.797  -0.619   1.999  1.00  0.00    -0.269 OA
HETATM   24  N5  UNL     1      -5.289   0.252  -0.172  1.00  0.00    -0.153 N 
HETATM   25  N7  UNL     1      -4.293  -0.142  -1.071  1.00  0.00     0.004 NA
BRANCH  24  26
HETATM   26  N6  UNL     1      -6.377   1.099  -0.438  1.00  0.00    -0.323 N 
ATOM     27  H62 UNL     1      -7.104   1.386   0.218  1.00  0.00     0.178 HD
ATOM     28  H61 UNL     1      -6.588   1.544  -1.331  1.00  0.00     0.178 HD
ENDBRANCH  24  26
ENDBRANCH  19  20
ENDBRANCH  15  19
ENDBRANCH  14  15
ENDBRANCH   8  14
BRANCH   7  29
HETATM   29  O2  UNL     1       1.312  -1.701   1.885  1.00  0.00    -0.344 OA
ATOM     30  H2  UNL     1       0.380  -1.768   2.054  1.00  0.00     0.219 HD
ENDBRANCH   7  29
BRANCH   1  31
HETATM   31  N1  UNL     1       6.891   0.550  -0.323  1.00  0.00    -0.234 N 
ATOM     32  H12 UNL     1       7.711  -0.003  -0.075  1.00  0.00     0.174 HD
ATOM     33  H11 UNL     1       6.979   1.397  -0.884  1.00  0.00     0.174 HD
ENDBRANCH   1  31
TORSDOF 9
