REMARK  10 active torsions:
REMARK  status: ('A' for Active; 'I' for Inactive)
REMARK    1  A    between atoms: O1_2  and  C2_3 
REMARK    2  A    between atoms: C2_3  and  C3_5 
REMARK    3  A    between atoms: C3_5  and  N1_6 
REMARK    4  A    between atoms: C3_5  and  C9_26 
REMARK       I    between atoms: N1_6  and  C4_8 
REMARK    5  A    between atoms: C4_8  and  C5_10 
REMARK    6  A    between atoms: C5_10  and  O4_11 
REMARK    7  A    between atoms: N3_18  and  O5_19 
REMARK    8  A    between atoms: N4_22  and  O6_24 
REMARK       I    between atoms: C9_26  and  N5_28 
REMARK    9  A    between atoms: N5_28  and  N6_30 
REMARK   10  A    between atoms: N6_30  and  N7_31 
ROOT
HETATM    1  N1  UNL     1      -0.174   0.010  -0.225  1.00  0.00    -0.337 N 
ATOM      2  H1  UNL     1      -0.341  -0.519  -1.081  1.00  0.00     0.164 HD
HETATM    3  C4  UNL     1       1.164   0.188   0.182  1.00  0.00     0.261 C 
HETATM    4  O3  UNL     1       1.394   0.845   1.222  1.00  0.00    -0.270 OA
ENDROOT
BRANCH   3   5
HETATM    5  C5  UNL     1       2.284  -0.367  -0.568  1.00  0.00     0.207 C 
HETATM    6  C6  UNL     1       3.248   0.668  -1.113  1.00  0.00     0.134 C 
HETATM    7  C7  UNL     1       4.410  -0.197  -1.460  1.00  0.00     0.109 C 
HETATM    8  N2  UNL     1       5.228  -0.054  -2.454  1.00  0.00    -0.387 N 
HETATM    9  N3  UNL     1       4.433  -1.212  -0.466  1.00  0.00    -0.195 N 
ATOM     10  H22 UNL     1       5.211   0.675  -3.168  1.00  0.00     0.157 HD
ATOM     11  H21 UNL     1       6.024  -0.646  -2.692  1.00  0.00     0.157 HD
HETATM   12  C8  UNL     1       3.198  -1.163   0.289  1.00  0.00     0.175 C 
HETATM   13  N4  UNL     1       3.048  -1.727   1.426  1.00  0.00    -0.252 N 
ATOM     14  H4  UNL     1       3.867  -2.216   1.787  1.00  0.00     0.195 HD
BRANCH   5  15
HETATM   15  O4  UNL     1       1.854  -1.107  -1.677  1.00  0.00    -0.372 OA
ATOM     16  H4  UNL     1       2.584  -1.469  -2.166  1.00  0.00     0.211 HD
ENDBRANCH   5  15
BRANCH   9  17
HETATM   17  O5  UNL     1       5.427  -2.125  -0.212  1.00  0.00    -0.280 OA
ATOM     18  H5  UNL     1       5.442  -2.804   0.453  1.00  0.00     0.245 HD
ENDBRANCH   9  17
BRANCH  13  19
HETATM   19  O6  UNL     1       1.948  -1.763   2.217  1.00  0.00    -0.288 OA
ATOM     20  H6  UNL     1       1.837  -2.182   3.062  1.00  0.00     0.244 HD
ENDBRANCH  13  19
ENDBRANCH   3   5
BRANCH   1  21
HETATM   21  C3  UNL     1      -1.323   0.521   0.479  1.00  0.00     0.278 C 
BRANCH  21  22
HETATM   22  C2  UNL     1      -1.820   1.776  -0.168  1.00  0.00     0.290 C 
HETATM   23  O2  UNL     1      -1.185   2.219  -1.172  1.00  0.00    -0.262 OA
BRANCH  22  24
HETATM   24  O1  UNL     1      -2.917   2.491   0.241  1.00  0.00    -0.324 OA
HETATM   25  C1  UNL     1      -3.301   3.682  -0.455  1.00  0.00     0.213 C 
ENDBRANCH  22  24
ENDBRANCH  21  22
BRANCH  21  26
HETATM   26  C9  UNL     1      -2.443  -0.421   0.535  1.00  0.00     0.267 C 
HETATM   27  O7  UNL     1      -2.291  -1.535  -0.069  1.00  0.00    -0.269 OA
HETATM   28  N5  UNL     1      -3.656  -0.155   1.213  1.00  0.00    -0.252 N 
ATOM     29  H5  UNL     1      -3.789   0.730   1.703  1.00  0.00     0.187 HD
BRANCH  28  30
HETATM   30  N6  UNL     1      -4.675  -1.122   1.205  1.00  0.00    -0.027 NA
BRANCH  30  31
HETATM   31  N7  UNL     1      -4.221  -2.406   1.425  1.00  0.00    -0.329 N 
ATOM     32  H72 UNL     1      -3.235  -2.617   1.577  1.00  0.00     0.174 HD
ATOM     33  H71 UNL     1      -4.961  -3.108   1.419  1.00  0.00     0.174 HD
ENDBRANCH  30  31
ENDBRANCH  28  30
ENDBRANCH  21  26
ENDBRANCH   1  21
TORSDOF 10
