REMARK  11 active torsions:
REMARK  status: ('A' for Active; 'I' for Inactive)
REMARK    1  A    between atoms: N1_2  and  C2_3 
REMARK    2  A    between atoms: C2_3  and  C3_4 
REMARK    3  A    between atoms: N2_7  and  C6_8 
REMARK    4  A    between atoms: C9_12  and  C10_13 
REMARK    5  A    between atoms: C10_13  and  C11_14 
REMARK    6  A    between atoms: C11_14  and  N4_15 
REMARK    7  A    between atoms: N4_15  and  S1_17 
REMARK    8  A    between atoms: S1_17  and  N5_18 
REMARK    9  A    between atoms: C12_23  and  O3_24 
REMARK   10  A    between atoms: O3_24  and  C13_25 
REMARK       I    between atoms: C13_25  and  N6_27 
REMARK   11  A    between atoms: N6_27  and  C14_29 
ROOT
HETATM    1  C6  UNL     1       3.523   4.474  -1.132  1.00  0.00     0.246 C 
HETATM    2  C7  UNL     1       3.971   4.575  -2.524  1.00  0.00     0.078 C 
HETATM    3  N3  UNL     1       4.326   4.652  -3.622  1.00  0.00    -0.196 NA
ENDROOT
BRANCH   1   4
HETATM    4  N2  UNL     1       2.953   3.178  -0.854  1.00  0.00    -0.381 N 
HETATM    5  C5  UNL     1       1.716   2.887  -1.502  1.00  0.00     0.123 C 
HETATM    6  C4  UNL     1       1.633   1.371  -1.683  1.00  0.00     0.027 C 
HETATM    7  C3  UNL     1       1.596   0.761  -0.331  1.00  0.00     0.022 C 
HETATM    8  C9  UNL     1       2.997   0.986   0.265  1.00  0.00     0.031 C 
HETATM    9  C8  UNL     1       3.493   2.336  -0.089  1.00  0.00     0.064 C 
BRANCH   7  10
HETATM   10  C2  UNL     1       1.247  -0.648  -0.162  1.00  0.00     0.246 C 
BRANCH  10  11
HETATM   11  N1  UNL     1      -0.008  -1.182  -0.506  1.00  0.00    -0.039 N 
HETATM   12  C1  UNL     1      -0.719  -0.701  -1.626  1.00  0.00     0.276 C 
HETATM   13  C12 UNL     1      -0.847  -1.159   0.711  1.00  0.00     0.337 C 
HETATM   14  C20 UNL     1      -0.483  -2.397   1.495  1.00  0.00     0.069 C 
HETATM   15  C21 UNL     1       0.483  -3.163   0.625  1.00  0.00     0.021 C 
HETATM   16  C22 UNL     1       0.118  -4.623   0.499  1.00  0.00     0.007 C 
HETATM   17  C25 UNL     1       0.218  -2.620  -0.736  1.00  0.00     0.197 C 
HETATM   18  C23 UNL     1      -0.675  -4.790  -0.753  1.00  0.00     0.002 C 
HETATM   19  C24 UNL     1      -0.943  -3.362  -1.264  1.00  0.00     0.034 C 
BRANCH  13  20
HETATM   20  O3  UNL     1      -2.207  -1.112   0.442  1.00  0.00    -0.270 OA
BRANCH  20  21
HETATM   21  C13 UNL     1      -3.118  -0.176   0.845  1.00  0.00     0.362 C 
HETATM   22  O4  UNL     1      -2.685   0.775   1.552  1.00  0.00    -0.238 OA
HETATM   23  N6  UNL     1      -4.496  -0.272   0.484  1.00  0.00    -0.332 N 
ATOM     24  H6  UNL     1      -4.783  -1.065  -0.089  1.00  0.00     0.165 HD
BRANCH  23  25
HETATM   25  C14 UNL     1      -5.504   0.670   0.872  1.00  0.00     0.086 C 
HETATM   26  C15 UNL     1      -6.583  -0.004   1.735  1.00  0.00     0.025 C 
HETATM   27  C16 UNL     1      -7.375   1.084   2.379  1.00  0.00     0.002 C 
HETATM   28  C17 UNL     1      -7.375   2.377   1.637  1.00  0.00     0.000 C 
HETATM   29  C18 UNL     1      -7.254   2.232   0.145  1.00  0.00     0.002 C 
HETATM   30  C19 UNL     1      -6.254   1.236  -0.317  1.00  0.00     0.025 C 
ENDBRANCH  23  25
ENDBRANCH  20  21
ENDBRANCH  13  20
ENDBRANCH  10  11
ENDBRANCH   7  10
BRANCH   8  31
HETATM   31  C10 UNL     1       3.975  -0.049  -0.171  1.00  0.00     0.030 C 
BRANCH  31  32
HETATM   32  C11 UNL     1       5.352   0.215   0.428  1.00  0.00     0.134 C 
BRANCH  32  33
HETATM   33  N4  UNL     1       6.248  -0.853  -0.053  1.00  0.00    -0.303 N 
ATOM     34  H4  UNL     1       5.959  -1.611  -0.671  1.00  0.00     0.173 HD
BRANCH  33  35
HETATM   35  S1  UNL     1       7.832  -0.658   0.558  1.00  0.00     0.312 S 
HETATM   36  O1  UNL     1       8.505  -2.010   0.681  1.00  0.00    -0.183 OA
HETATM   37  O2  UNL     1       7.840   0.022   1.913  1.00  0.00    -0.183 OA
BRANCH  35  38
HETATM   38  N5  UNL     1       8.818   0.304  -0.484  1.00  0.00    -0.312 N 
ATOM     39  H52 UNL     1       8.479   0.703  -1.360  1.00  0.00     0.170 HD
ATOM     40  H51 UNL     1       9.763   0.420  -0.119  1.00  0.00     0.170 HD
ENDBRANCH  35  38
ENDBRANCH  33  35
ENDBRANCH  32  33
ENDBRANCH  31  32
ENDBRANCH   8  31
ENDBRANCH   1   4
TORSDOF 11
