REMARK  8 active torsions:
REMARK  status: ('A' for Active; 'I' for Inactive)
REMARK    1  A    between atoms: C2_2  and  C3_3 
REMARK    2  A    between atoms: C3_3  and  N1_4 
REMARK       I    between atoms: N1_4  and  C4_6 
REMARK    3  A    between atoms: C4_6  and  C5_8 
REMARK    4  A    between atoms: C9_12  and  N2_13 
REMARK    5  A    between atoms: N2_13  and  N3_15 
REMARK    6  A    between atoms: C12_24  and  C13_25 
REMARK    7  A    between atoms: C13_25  and  C14_26 
REMARK    8  A    between atoms: C14_26  and  C15_27 
ROOT
HETATM    1  C5  UNL     1      -2.180   0.175   0.836  1.00  0.00     0.207 C 
HETATM    2  C6  UNL     1      -3.281   0.721  -0.087  1.00  0.00     0.064 C 
HETATM    3  C7  UNL     1      -3.751  -0.455  -0.873  1.00  0.00    -0.026 C 
HETATM    4  C8  UNL     1      -3.182  -1.088  -1.893  1.00  0.00     0.005 C 
HETATM    5  C9  UNL     1      -2.000  -1.066  -2.729  1.00  0.00     0.217 C 
HETATM    6  C10 UNL     1      -0.731  -0.648  -2.091  1.00  0.00     0.270 C 
HETATM    7  O2  UNL     1       0.205  -0.804  -2.914  1.00  0.00    -0.269 OA
HETATM    8  N5  UNL     1      -0.223  -0.117  -0.825  1.00  0.00    -0.230 N 
HETATM    9  C11 UNL     1       1.137  -0.463  -0.979  1.00  0.00     0.118 C 
HETATM   10  C12 UNL     1       2.200  -0.138  -0.052  1.00  0.00     0.125 C 
HETATM   11  N6  UNL     1       3.455  -0.025  -0.783  1.00  0.00    -0.370 N 
HETATM   12  C17 UNL     1       4.290  -1.189  -1.046  1.00  0.00     0.151 C 
HETATM   13  C18 UNL     1       3.948   1.198  -1.289  1.00  0.00     0.075 C 
HETATM   14  S1  UNL     1       5.609   1.369  -1.342  1.00  0.00    -0.066 SA
HETATM   15  C19 UNL     1       3.162   2.329  -1.781  1.00  0.00     0.071 C 
HETATM   16  C20 UNL     1       2.762   3.350  -0.770  1.00  0.00     0.037 C 
HETATM   17  C21 UNL     1       1.409   3.971  -1.153  1.00  0.00     0.273 C 
HETATM   18  N7  UNL     1       0.324   2.984  -1.014  1.00  0.00     0.093 N 
HETATM   19  C22 UNL     1      -0.792   3.571  -1.772  1.00  0.00     0.310 C 
HETATM   20  C23 UNL     1      -0.040   2.981   0.359  1.00  0.00     0.376 C 
HETATM   21  C24 UNL     1      -0.626   1.730   0.882  1.00  0.00     0.268 C 
HETATM   22  O3  UNL     1      -0.861   1.837   2.151  1.00  0.00    -0.270 OA
HETATM   23  N8  UNL     1      -0.929   0.531   0.194  1.00  0.00    -0.237 N 
ENDROOT
BRANCH   1  24
HETATM   24  C4  UNL     1      -2.423  -1.225   1.125  1.00  0.00     0.243 C 
HETATM   25  N1  UNL     1      -3.656  -1.558   1.756  1.00  0.00    -0.356 N 
ATOM     26  H1  UNL     1      -4.324  -0.822   1.985  1.00  0.00     0.162 HD
HETATM   27  O1  UNL     1      -1.613  -2.117   0.848  1.00  0.00    -0.271 OA
BRANCH  25  28
HETATM   28  C3  UNL     1      -3.965  -2.937   2.074  1.00  0.00     0.149 C 
BRANCH  28  29
HETATM   29  C2  UNL     1      -5.298  -3.014   2.721  1.00  0.00    -0.018 C 
HETATM   30  C1  UNL     1      -5.454  -3.494   3.927  1.00  0.00     0.008 C 
ENDBRANCH  28  29
ENDBRANCH  25  28
ENDBRANCH   1  24
BRANCH   5  31
HETATM   31  N2  UNL     1      -2.282  -0.172  -3.864  1.00  0.00    -0.305 N 
ATOM     32  H2  UNL     1      -1.697   0.651  -4.006  1.00  0.00     0.183 HD
BRANCH  31  33
HETATM   33  N3  UNL     1      -3.328  -0.422  -4.748  1.00  0.00    -0.253 N 
HETATM   34  N4  UNL     1      -3.257  -0.267  -6.003  1.00  0.00    -0.331 N 
ATOM     35  H42 UNL     1      -2.367   0.064  -6.375  1.00  0.00     0.178 HD
ATOM     36  H41 UNL     1      -4.023  -0.450  -6.651  1.00  0.00     0.178 HD
ATOM     37  H3  UNL     1      -4.211  -0.752  -4.359  1.00  0.00     0.207 HD
ENDBRANCH  31  33
ENDBRANCH   5  31
BRANCH  10  38
HETATM   38  C13 UNL     1       2.292  -1.244   1.017  1.00  0.00     0.031 C 
BRANCH  38  39
HETATM   39  C14 UNL     1       3.369  -0.961   2.009  1.00  0.00     0.002 C 
BRANCH  39  40
HETATM   40  C15 UNL     1       3.479  -2.038   3.069  1.00  0.00    -0.004 C 
HETATM   41  C16 UNL     1       4.579  -1.725   4.062  1.00  0.00     0.005 C 
ENDBRANCH  39  40
ENDBRANCH  38  39
ENDBRANCH  10  38
TORSDOF 8
