REMARK  9 active torsions:
REMARK  status: ('A' for Active; 'I' for Inactive)
REMARK    1  A    between atoms: C2_2  and  C3_3 
REMARK    2  A    between atoms: C3_3  and  C4_4 
REMARK    3  A    between atoms: C10_13  and  O2_14 
REMARK    4  A    between atoms: C11_16  and  O3_17 
REMARK    5  A    between atoms: C13_20  and  N3_21 
REMARK    6  A    between atoms: N4_24  and  C16_25 
REMARK    7  A    between atoms: C16_25  and  C17_26 
REMARK    8  A    between atoms: C17_26  and  C18_27 
REMARK    9  A    between atoms: C18_27  and  C19_28 
ROOT
HETATM    1  C4  UNL     1      -2.301  -0.365   0.798  1.00  0.00     0.083 A 
HETATM    2  C5  UNL     1      -3.518   0.373   1.275  1.00  0.00     0.256 C 
HETATM    3  O1  UNL     1      -3.537   0.792   2.449  1.00  0.00    -0.271 OA
HETATM    4  N1  UNL     1      -4.617   0.582   0.403  1.00  0.00    -0.167 N 
HETATM    5  C6  UNL     1      -4.683   0.635  -0.992  1.00  0.00     0.178 C 
HETATM    6  C7  UNL     1      -6.165   0.253  -0.794  1.00  0.00     0.294 C 
HETATM    7  N2  UNL     1      -5.990   0.829   0.502  1.00  0.00     0.011 N 
HETATM    8  C8  UNL     1      -6.325   2.257   0.455  1.00  0.00     0.302 C 
HETATM    9  C9  UNL     1      -6.679   0.156   1.584  1.00  0.00     0.302 C 
HETATM   10  C10 UNL     1      -3.983  -0.326  -1.861  1.00  0.00     0.174 C 
HETATM   11  C11 UNL     1      -2.512  -0.597  -1.562  1.00  0.00     0.156 C 
HETATM   12  C12 UNL     1      -1.990   0.270  -0.535  1.00  0.00     0.070 A 
HETATM   13  C13 UNL     1      -1.044   0.347   0.507  1.00  0.00     0.219 A 
ENDROOT
BRANCH  13  14
HETATM   14  N3  UNL     1       0.269  -0.173   0.590  1.00  0.00    -0.034 N 
HETATM   15  C14 UNL     1       0.739  -0.530   1.903  1.00  0.00     0.268 C 
HETATM   16  C15 UNL     1       2.188  -0.033   2.022  1.00  0.00     0.267 C 
HETATM   17  N4  UNL     1       2.444   0.150   0.583  1.00  0.00    -0.040 N 
HETATM   18  C24 UNL     1       2.239  -1.042  -0.155  1.00  0.00     0.267 C 
HETATM   19  C26 UNL     1       1.251   0.928   0.287  1.00  0.00     0.473 C 
HETATM   20  C25 UNL     1       0.724  -1.036  -0.462  1.00  0.00     0.268 C 
BRANCH  17  21
HETATM   21  C16 UNL     1       3.667   0.837   0.434  1.00  0.00     0.240 C 
BRANCH  21  22
HETATM   22  C17 UNL     1       3.894   1.503  -0.870  1.00  0.00     0.032 C 
BRANCH  22  23
HETATM   23  C18 UNL     1       5.232   2.195  -0.844  1.00  0.00     0.040 C 
BRANCH  23  24
HETATM   24  C19 UNL     1       6.375   1.304  -0.612  1.00  0.00    -0.053 A 
HETATM   25  C20 UNL     1       6.974   0.704  -1.715  1.00  0.00     0.024 A 
HETATM   26  C21 UNL     1       8.061  -0.140  -1.602  1.00  0.00     0.090 A 
HETATM   27  N5  UNL     1       8.567  -0.399  -0.377  1.00  0.00    -0.353 N 
HETATM   28  C22 UNL     1       8.018   0.160   0.711  1.00  0.00     0.098 A 
ATOM     29  H5  UNL     1       9.369  -1.022  -0.279  1.00  0.00     0.166 HD
HETATM   30  N6  UNL     1       8.498  -0.085   1.885  1.00  0.00    -0.385 N 
HETATM   31  C23 UNL     1       6.934   1.003   0.605  1.00  0.00     0.055 A 
ATOM     32  H62 UNL     1       9.301  -0.709   1.964  1.00  0.00     0.157 HD
ATOM     33  H61 UNL     1       8.080   0.340   2.713  1.00  0.00     0.157 HD
ENDBRANCH  23  24
ENDBRANCH  22  23
ENDBRANCH  21  22
ENDBRANCH  17  21
ENDBRANCH  13  14
BRANCH   1  34
HETATM   34  C3  UNL     1      -2.220  -1.687   1.340  1.00  0.00     0.048 C 
BRANCH  34  35
HETATM   35  C2  UNL     1      -3.361  -2.604   1.066  1.00  0.00    -0.036 C 
HETATM   36  C1  UNL     1      -3.248  -3.790   0.506  1.00  0.00     0.007 C 
ENDBRANCH  34  35
ENDBRANCH   1  34
BRANCH  11  37
HETATM   37  O3  UNL     1      -1.841  -0.317  -2.802  1.00  0.00    -0.392 OA
ATOM     38  H3  UNL     1      -0.925  -0.486  -2.616  1.00  0.00     0.210 HD
ENDBRANCH  11  37
BRANCH  10  39
HETATM   39  O2  UNL     1      -4.699  -1.535  -2.073  1.00  0.00    -0.391 OA
ATOM     40  H2  UNL     1      -4.247  -2.155  -2.634  1.00  0.00     0.210 HD
ENDBRANCH  10  39
TORSDOF 9
