REMARK  8 active torsions:
REMARK  status: ('A' for Active; 'I' for Inactive)
REMARK    1  A    between atoms: C2_2  and  N1_3 
REMARK    2  A    between atoms: C6_8  and  C7_9 
REMARK       I    between atoms: C7_9  and  N3_11 
REMARK    3  A    between atoms: N3_11  and  C8_13 
REMARK    4  A    between atoms: C17_23  and  C18_24 
REMARK    5  A    between atoms: C17_23  and  C20_27 
REMARK    6  A    between atoms: C18_24  and  O2_25 
REMARK    7  A    between atoms: C20_27  and  N5_28 
REMARK    8  A    between atoms: C23_31  and  O3_32 
ROOT
HETATM    1  N1  UNL     1      -0.317  -2.201  -0.438  1.00  0.00    -0.311 N 
HETATM    2  N2  UNL     1      -1.473  -2.927  -0.154  1.00  0.00    -0.136 NA
HETATM    3  C3  UNL     1      -2.607  -1.982  -0.281  1.00  0.00     0.114 C 
HETATM    4  C4  UNL     1      -2.808  -1.950  -1.786  1.00  0.00     0.027 C 
HETATM    5  C5  UNL     1      -1.541  -1.309  -2.242  1.00  0.00     0.045 C 
HETATM    6  C6  UNL     1      -0.743  -0.982  -0.968  1.00  0.00     0.138 C 
HETATM    7  C17 UNL     1      -1.913  -0.702   0.028  1.00  0.00     0.060 C 
ENDROOT
BRANCH   6   8
HETATM    8  C7  UNL     1       0.120   0.148  -1.116  1.00  0.00     0.248 C 
HETATM    9  O1  UNL     1      -0.135   1.097  -1.929  1.00  0.00    -0.271 OA
HETATM   10  N3  UNL     1       1.309   0.323  -0.389  1.00  0.00    -0.354 N 
ATOM     11  H3  UNL     1       1.579  -0.397   0.282  1.00  0.00     0.162 HD
BRANCH  10  12
HETATM   12  C8  UNL     1       2.178   1.487  -0.548  1.00  0.00     0.086 C 
HETATM   13  C9  UNL     1       2.546   2.148   0.712  1.00  0.00     0.027 C 
HETATM   14  C10 UNL     1       4.042   2.491   0.792  1.00  0.00     0.035 C 
HETATM   15  C11 UNL     1       4.769   1.254   0.953  1.00  0.00     0.191 C 
HETATM   16  C12 UNL     1       6.167   1.182   1.471  1.00  0.00     0.061 C 
HETATM   17  N4  UNL     1       5.299   0.655  -0.274  1.00  0.00    -0.067 N 
HETATM   18  C13 UNL     1       6.149  -0.088   0.616  1.00  0.00     0.239 C 
HETATM   19  C14 UNL     1       6.058   1.486  -1.121  1.00  0.00     0.273 C 
HETATM   20  C15 UNL     1       4.174  -0.038  -0.848  1.00  0.00     0.239 C 
HETATM   21  C16 UNL     1       3.303   1.046  -1.446  1.00  0.00     0.053 C 
ENDBRANCH  10  12
ENDBRANCH   6   8
BRANCH   1  22
HETATM   22  C2  UNL     1       0.741  -2.932  -0.990  1.00  0.00     0.135 C 
HETATM   23  C1  UNL     1       0.971  -4.268  -0.273  1.00  0.00     0.028 C 
ENDBRANCH   1  22
BRANCH   7  24
HETATM   24  C18 UNL     1      -1.388  -0.621   1.444  1.00  0.00     0.183 C 
BRANCH  24  25
HETATM   25  O2  UNL     1      -0.481  -1.548   1.841  1.00  0.00    -0.395 OA
HETATM   26  C19 UNL     1      -0.115  -1.302   3.160  1.00  0.00     0.201 C 
ENDBRANCH  24  25
ENDBRANCH   7  24
BRANCH   7  27
HETATM   27  C20 UNL     1      -2.510   0.575  -0.353  1.00  0.00     0.254 C 
BRANCH  27  28
HETATM   28  N5  UNL     1      -3.707   1.081   0.090  1.00  0.00    -0.063 N 
HETATM   29  C21 UNL     1      -3.583   2.551   0.315  1.00  0.00     0.240 C 
HETATM   30  C22 UNL     1      -4.949   3.132   0.142  1.00  0.00     0.067 C 
HETATM   31  C23 UNL     1      -5.775   1.922  -0.137  1.00  0.00     0.085 C 
HETATM   32  C24 UNL     1      -5.820   1.116   1.137  1.00  0.00     0.067 C 
HETATM   33  C26 UNL     1      -4.750   1.084  -0.920  1.00  0.00     0.275 C 
HETATM   34  C25 UNL     1      -4.372   0.607   1.239  1.00  0.00     0.240 C 
BRANCH  31  35
HETATM   35  O3  UNL     1      -6.938   2.095  -0.785  1.00  0.00    -0.388 OA
ATOM     36  H3  UNL     1      -7.464   1.324  -0.963  1.00  0.00     0.210 HD
ENDBRANCH  31  35
ENDBRANCH  27  28
ENDBRANCH   7  27
TORSDOF 8
