REMARK  11 active torsions:
REMARK  status: ('A' for Active; 'I' for Inactive)
REMARK    1  A    between atoms: C2_2  and  N1_3 
REMARK    2  A    between atoms: N2_6  and  C5_7 
REMARK    3  A    between atoms: C5_7  and  C6_8 
REMARK    4  A    between atoms: N5_17  and  C13_18 
REMARK    5  A    between atoms: N5_17  and  C15_20 
REMARK    6  A    between atoms: C15_20  and  C16_21 
REMARK    7  A    between atoms: C16_21  and  O1_22 
REMARK    8  A    between atoms: C16_21  and  C17_24 
REMARK    9  A    between atoms: C17_24  and  N6_25 
REMARK   10  A    between atoms: N6_25  and  C18_27 
REMARK   11  A    between atoms: C18_27  and  N7_29 
ROOT
HETATM    1  C6  UNL     1      -1.169  -0.730   0.186  1.00  0.00     0.042 C 
HETATM    2  C7  UNL     1       0.353  -0.488   0.170  1.00  0.00     0.071 C 
HETATM    3  C8  UNL     1       1.117  -1.700  -0.207  1.00  0.00     0.269 A 
HETATM    4  C9  UNL     1       0.686  -2.838   0.677  1.00  0.00     0.297 C 
HETATM    5  N3  UNL     1      -0.742  -3.010   0.712  1.00  0.00    -0.070 N 
HETATM    6  C10 UNL     1      -1.033  -4.020   1.722  1.00  0.00     0.272 C 
HETATM    7  C11 UNL     1      -1.305  -3.460  -0.526  1.00  0.00     0.272 C 
HETATM    8  C12 UNL     1      -1.426  -1.789   1.172  1.00  0.00     0.243 C 
HETATM    9  N4  UNL     1       1.577  -1.840  -1.501  1.00  0.00     0.000 NA
HETATM   10  N5  UNL     1       2.490  -1.577  -0.479  1.00  0.00     0.042 N 
ENDROOT
BRANCH  10  11
HETATM   11  C13 UNL     1       3.358  -2.707  -0.188  1.00  0.00     0.259 C 
HETATM   12  C14 UNL     1       3.498  -3.604  -1.387  1.00  0.00     0.036 C 
ENDBRANCH  10  11
BRANCH  10  13
HETATM   13  C15 UNL     1       3.049  -0.249  -0.341  1.00  0.00     0.296 C 
BRANCH  13  14
HETATM   14  C16 UNL     1       3.401   0.379  -1.648  1.00  0.00     0.164 C 
BRANCH  14  15
HETATM   15  O1  UNL     1       4.350  -0.389  -2.332  1.00  0.00    -0.392 OA
ATOM     16  H1  UNL     1       4.574   0.011  -3.164  1.00  0.00     0.210 HD
ENDBRANCH  14  15
BRANCH  14  17
HETATM   17  C17 UNL     1       4.001   1.742  -1.393  1.00  0.00     0.155 C 
BRANCH  17  18
HETATM   18  N6  UNL     1       5.199   1.682  -0.610  1.00  0.00    -0.365 N 
ATOM     19  H6  UNL     1       5.542   0.771  -0.304  1.00  0.00     0.162 HD
BRANCH  18  20
HETATM   20  C18 UNL     1       5.928   2.848  -0.244  1.00  0.00     0.169 C 
HETATM   21  S1  UNL     1       5.364   4.289  -0.742  1.00  0.00    -0.041 SA
BRANCH  20  22
HETATM   22  N7  UNL     1       7.107   2.791   0.526  1.00  0.00    -0.367 N 
HETATM   23  C19 UNL     1       7.642   1.532   0.990  1.00  0.00     0.151 C 
HETATM   24  C20 UNL     1       7.799   4.010   0.861  1.00  0.00     0.151 C 
ENDBRANCH  20  22
ENDBRANCH  18  20
ENDBRANCH  17  18
ENDBRANCH  14  17
ENDBRANCH  13  14
ENDBRANCH  10  13
BRANCH   1  25
HETATM   25  C5  UNL     1      -1.801   0.581   0.356  1.00  0.00     0.244 C 
BRANCH  25  26
HETATM   26  N2  UNL     1      -3.199   0.705   0.412  1.00  0.00    -0.062 N 
HETATM   27  C4  UNL     1      -3.430   2.151   0.170  1.00  0.00     0.265 C 
HETATM   28  C3  UNL     1      -4.864   2.394  -0.252  1.00  0.00     0.265 C 
HETATM   29  N1  UNL     1      -5.637   1.374   0.476  1.00  0.00    -0.063 N 
HETATM   30  C22 UNL     1      -5.416   0.133  -0.217  1.00  0.00     0.265 C 
HETATM   31  C24 UNL     1      -5.042   1.353   1.814  1.00  0.00     0.265 C 
HETATM   32  C21 UNL     1      -3.940   0.065  -0.639  1.00  0.00     0.265 C 
HETATM   33  C23 UNL     1      -3.789   0.470   1.722  1.00  0.00     0.265 C 
BRANCH  29  34
HETATM   34  C2  UNL     1      -6.999   1.768   0.577  1.00  0.00     0.233 C 
HETATM   35  C1  UNL     1      -7.617   2.246  -0.700  1.00  0.00     0.035 C 
ENDBRANCH  29  34
ENDBRANCH  25  26
ENDBRANCH   1  25
TORSDOF 11
