REMARK  8 active torsions:
REMARK  status: ('A' for Active; 'I' for Inactive)
REMARK    1  A    between atoms: C2_2  and  N1_3 
REMARK    2  A    between atoms: N1_3  and  N2_4 
REMARK       I    between atoms: N2_4  and  C3_6 
REMARK       I    between atoms: C3_6  and  N3_8 
REMARK    3  A    between atoms: N3_8  and  C4_10 
REMARK    4  A    between atoms: C4_10  and  C5_11 
REMARK    5  A    between atoms: C5_11  and  C7_13 
REMARK       I    between atoms: C7_13  and  N4_15 
REMARK    6  A    between atoms: C8_16  and  C9_17 
REMARK    7  A    between atoms: C9_17  and  C10_18 
REMARK    8  A    between atoms: C21_30  and  O4_31 
ROOT
HETATM    1  C7  UNL     1      -0.649  -1.117  -0.147  1.00  0.00     0.226 C 
HETATM    2  O2  UNL     1      -0.225  -2.224   0.348  1.00  0.00    -0.273 OA
HETATM    3  N4  UNL     1      -2.049  -0.975  -0.488  1.00  0.00    -0.332 N 
HETATM    4  C8  UNL     1      -2.992  -2.096  -0.219  1.00  0.00     0.158 C 
HETATM    5  C13 UNL     1      -4.261  -1.648  -0.871  1.00  0.00     0.156 C 
HETATM    6  O3  UNL     1      -5.118  -2.219  -1.479  1.00  0.00    -0.295 OA
HETATM    7  C14 UNL     1      -4.201  -0.204  -0.561  1.00  0.00     0.087 C 
HETATM    8  C15 UNL     1      -4.945   0.741  -1.410  1.00  0.00     0.006 C 
HETATM    9  C16 UNL     1      -6.097   1.319  -0.629  1.00  0.00     0.011 C 
HETATM   10  C17 UNL     1      -5.924   2.801  -0.555  1.00  0.00    -0.009 A 
HETATM   11  C18 UNL     1      -5.779   3.638  -1.763  1.00  0.00     0.010 A 
HETATM   12  C19 UNL     1      -4.560   3.123  -1.033  1.00  0.00    -0.003 A 
HETATM   13  C20 UNL     1      -3.955   1.892  -1.597  1.00  0.00     0.026 C 
HETATM   14  C21 UNL     1      -2.710   1.455  -0.767  1.00  0.00     0.146 C 
HETATM   15  C22 UNL     1      -2.787   0.013  -1.107  1.00  0.00     0.129 C 
ENDROOT
BRANCH   1  16
HETATM   16  C5  UNL     1       0.366  -0.063  -0.323  1.00  0.00     0.092 C 
HETATM   17  C6  UNL     1       0.337   0.860   0.887  1.00  0.00     0.021 C 
BRANCH  16  18
HETATM   18  C4  UNL     1       1.732  -0.763  -0.217  1.00  0.00     0.138 C 
BRANCH  18  19
HETATM   19  N3  UNL     1       2.776   0.235  -0.256  1.00  0.00    -0.341 N 
HETATM   20  C3  UNL     1       4.152  -0.116  -0.163  1.00  0.00     0.340 C 
HETATM   21  N2  UNL     1       5.163   0.861  -0.207  1.00  0.00    -0.164 N 
HETATM   22  O1  UNL     1       4.417  -1.325  -0.040  1.00  0.00    -0.246 OA
ATOM     23  H2  UNL     1       4.872   1.833  -0.312  1.00  0.00     0.199 HD
ATOM     24  H3  UNL     1       2.520   1.218  -0.353  1.00  0.00     0.164 HD
BRANCH  21  25
HETATM   25  N1  UNL     1       6.522   0.610  -0.119  1.00  0.00     0.046 N 
HETATM   26  C23 UNL     1       7.238   1.331  -1.181  1.00  0.00     0.259 C 
HETATM   27  C24 UNL     1       8.628   0.903  -0.912  1.00  0.00     0.093 C 
HETATM   28  C26 UNL     1       6.779   0.181  -2.084  1.00  0.00     0.098 C 
HETATM   29  N5  UNL     1       8.483  -0.347  -0.637  1.00  0.00    -0.371 N 
HETATM   30  C25 UNL     1       7.062  -0.551  -0.763  1.00  0.00     0.317 C 
ATOM     31  H5  UNL     1       9.201  -1.028  -0.390  1.00  0.00     0.160 HD
BRANCH  25  32
HETATM   32  C2  UNL     1       7.089   0.885   1.200  1.00  0.00     0.264 C 
HETATM   33  C1  UNL     1       7.196   2.364   1.463  1.00  0.00     0.037 C 
ENDBRANCH  25  32
ENDBRANCH  21  25
ENDBRANCH  18  19
ENDBRANCH  16  18
ENDBRANCH   1  16
BRANCH   4  34
HETATM   34  C9  UNL     1      -3.113  -2.340   1.244  1.00  0.00     0.037 C 
BRANCH  34  35
HETATM   35  C10 UNL     1      -4.025  -3.442   1.660  1.00  0.00    -0.020 C 
HETATM   36  C11 UNL     1      -3.604  -4.779   1.083  1.00  0.00     0.009 C 
HETATM   37  C12 UNL     1      -5.478  -3.222   1.459  1.00  0.00     0.009 C 
ENDBRANCH  34  35
ENDBRANCH   4  34
BRANCH  14  38
HETATM   38  O4  UNL     1      -3.126   1.688   0.553  1.00  0.00    -0.393 OA
ATOM     39  H4  UNL     1      -2.367   1.422   1.059  1.00  0.00     0.210 HD
ENDBRANCH  14  38
TORSDOF 8
