REMARK  8 active torsions:
REMARK  status: ('A' for Active; 'I' for Inactive)
REMARK    1  A    between atoms: C2_2  and  C3_3 
REMARK    2  A    between atoms: C5_8  and  C6_9 
REMARK    3  A    between atoms: C6_9  and  C7_10 
REMARK    4  A    between atoms: C10_15  and  O2_16 
REMARK       I    between atoms: N3_20  and  C13_21 
REMARK    5  A    between atoms: C15_24  and  C16_25 
REMARK    6  A    between atoms: C16_25  and  N4_26 
REMARK    7  A    between atoms: N4_26  and  C18_28 
REMARK    8  A    between atoms: N4_26  and  C20_30 
ROOT
HETATM    1  C3  UNL     1       3.014   2.312  -0.607  1.00  0.00     0.176 C 
HETATM    2  N1  UNL     1       3.928   1.355  -0.034  1.00  0.00    -0.346 N 
ATOM      3  H1  UNL     1       4.312   1.624   0.872  1.00  0.00     0.163 HD
HETATM    4  C4  UNL     1       4.378   0.111  -0.517  1.00  0.00     0.241 C 
HETATM    5  O1  UNL     1       5.564  -0.031  -0.898  1.00  0.00    -0.271 OA
HETATM    6  C5  UNL     1       3.544  -1.153  -0.636  1.00  0.00     0.175 C 
HETATM    7  N2  UNL     1       2.168  -0.715  -0.611  1.00  0.00    -0.359 N 
ATOM      8  H2  UNL     1       2.060  -0.098   0.194  1.00  0.00     0.162 HD
HETATM    9  C10 UNL     1       0.978  -0.792  -1.218  1.00  0.00     0.135 C 
HETATM   10  C11 UNL     1      -0.313  -1.569  -1.035  1.00  0.00     0.163 C 
HETATM   11  C12 UNL     1      -0.331  -2.557   0.049  1.00  0.00     0.041 C 
HETATM   12  N3  UNL     1      -1.419  -0.570  -1.007  1.00  0.00    -0.308 N 
HETATM   13  C13 UNL     1      -2.084  -0.435  -2.262  1.00  0.00     0.221 C 
HETATM   14  C14 UNL     1      -1.846  -1.382  -3.374  1.00  0.00     0.117 C 
HETATM   15  O3  UNL     1      -2.921   0.462  -2.548  1.00  0.00    -0.273 OA
HETATM   16  C15 UNL     1      -1.755   0.154   0.194  1.00  0.00     0.051 C 
HETATM   17  C22 UNL     1      -0.737   1.076   0.768  1.00  0.00     0.126 C 
HETATM   18  C23 UNL     1      -1.226   1.452   2.197  1.00  0.00     0.026 C 
HETATM   19  C24 UNL     1      -0.434   2.337   0.121  1.00  0.00     0.235 C 
HETATM   20  O4  UNL     1      -1.280   2.779  -0.740  1.00  0.00    -0.272 OA
HETATM   21  N5  UNL     1       0.685   3.202   0.285  1.00  0.00    -0.290 N 
HETATM   22  C25 UNL     1       0.366   4.660   0.386  1.00  0.00     0.162 C 
HETATM   23  C26 UNL     1       2.051   2.925   0.375  1.00  0.00     0.248 C 
HETATM   24  O5  UNL     1       2.639   3.235   1.480  1.00  0.00    -0.271 OA
ENDROOT
BRANCH  16  25
HETATM   25  C16 UNL     1      -3.165   0.487   0.440  1.00  0.00     0.228 C 
BRANCH  25  26
HETATM   26  N4  UNL     1      -4.232  -0.396   0.646  1.00  0.00    -0.050 N 
HETATM   27  C17 UNL     1      -4.819  -0.142   2.023  1.00  0.00     0.278 C 
BRANCH  26  28
HETATM   28  C18 UNL     1      -5.366   0.012  -0.201  1.00  0.00     0.238 C 
HETATM   29  C19 UNL     1      -6.688   0.063   0.419  1.00  0.00     0.035 C 
ENDBRANCH  26  28
BRANCH  26  30
HETATM   30  C20 UNL     1      -4.035  -1.795   0.609  1.00  0.00     0.238 C 
HETATM   31  C21 UNL     1      -5.290  -2.621   0.542  1.00  0.00     0.035 C 
ENDBRANCH  26  30
ENDBRANCH  25  26
ENDBRANCH  16  25
BRANCH   9  32
HETATM   32  O2  UNL     1       0.772  -0.031  -2.255  1.00  0.00    -0.348 OA
ATOM     33  H2  UNL     1      -0.073  -0.086  -2.686  1.00  0.00     0.219 HD
ENDBRANCH   9  32
BRANCH   6  34
HETATM   34  C6  UNL     1       3.836  -2.027   0.570  1.00  0.00     0.038 C 
BRANCH  34  35
HETATM   35  C7  UNL     1       5.268  -2.454   0.710  1.00  0.00    -0.020 C 
HETATM   36  C8  UNL     1       5.453  -3.323   1.954  1.00  0.00     0.009 C 
HETATM   37  C9  UNL     1       5.842  -3.126  -0.500  1.00  0.00     0.009 C 
ENDBRANCH  34  35
ENDBRANCH   6  34
BRANCH   1  38
HETATM   38  C2  UNL     1       3.946   3.429  -1.128  1.00  0.00     0.030 C 
HETATM   39  C1  UNL     1       3.217   4.544  -1.771  1.00  0.00     0.007 C 
ENDBRANCH   1  38
TORSDOF 8
