REMARK  8 active torsions:
REMARK  status: ('A' for Active; 'I' for Inactive)
REMARK    1  A    between atoms: C2_2  and  N1_3 
REMARK    2  A    between atoms: C5_6  and  N2_7 
REMARK    3  A    between atoms: N5_25  and  C19_26 
REMARK    4  A    between atoms: C19_26  and  O2_27 
REMARK    5  A    between atoms: C19_26  and  C20_29 
REMARK    6  A    between atoms: C20_29  and  C21_30 
REMARK    7  A    between atoms: C20_29  and  N6_34 
REMARK    8  A    between atoms: C21_30  and  C22_31 
REMARK       I    between atoms: N6_34  and  C25_36 
REMARK       I    between atoms: C25_36  and  N7_38 
ROOT
HETATM    1  N1  UNL     1       0.543  -0.796  -1.178  1.00  0.00     0.021 N 
HETATM    2  C3  UNL     1       0.948   0.376  -0.450  1.00  0.00     0.301 C 
HETATM    3  C4  UNL     1       2.409   0.364  -0.236  1.00  0.00    -0.026 C 
HETATM    4  C5  UNL     1       3.138   1.384   0.236  1.00  0.00     0.209 C 
HETATM    5  C11 UNL     1       2.852  -0.971  -0.644  1.00  0.00     0.073 C 
HETATM    6  C12 UNL     1       1.590  -1.715  -0.976  1.00  0.00     0.220 C 
HETATM    7  C13 UNL     1       1.382  -2.620   0.227  1.00  0.00     0.044 C 
HETATM    8  C14 UNL     1       0.176  -3.461   0.117  1.00  0.00     0.031 C 
HETATM    9  C15 UNL     1       0.098  -4.509  -0.938  1.00  0.00     0.036 C 
HETATM   10  C16 UNL     1      -0.627  -3.556  -1.819  1.00  0.00     0.124 C 
HETATM   11  N4  UNL     1      -2.064  -3.730  -1.957  1.00  0.00    -0.351 N 
ATOM     12  H4  UNL     1      -2.718  -4.001  -2.691  1.00  0.00     0.163 HD
HETATM   13  C17 UNL     1      -2.131  -3.345  -0.587  1.00  0.00     0.250 C 
HETATM   14  O1  UNL     1      -3.007  -3.580   0.253  1.00  0.00    -0.271 OA
HETATM   15  C18 UNL     1      -0.852  -2.655  -0.674  1.00  0.00     0.163 C 
HETATM   16  N5  UNL     1      -0.698  -1.299  -0.704  1.00  0.00    -0.192 N 
ENDROOT
BRANCH  16  17
HETATM   17  C19 UNL     1      -1.726  -0.371  -0.784  1.00  0.00     0.267 C 
BRANCH  17  18
HETATM   18  O2  UNL     1      -2.444  -0.321  -1.989  1.00  0.00    -0.373 OA
ATOM     19  H2  UNL     1      -3.148   0.315  -2.044  1.00  0.00     0.212 HD
ENDBRANCH  17  18
BRANCH  17  20
HETATM   20  C20 UNL     1      -2.769  -0.242   0.302  1.00  0.00     0.136 C 
BRANCH  20  21
HETATM   21  C21 UNL     1      -2.279  -0.347   1.670  1.00  0.00     0.033 C 
BRANCH  21  22
HETATM   22  C22 UNL     1      -3.250  -0.270   2.798  1.00  0.00    -0.021 C 
HETATM   23  C23 UNL     1      -2.481  -0.438   4.122  1.00  0.00     0.009 C 
HETATM   24  C24 UNL     1      -4.126   0.933   2.880  1.00  0.00     0.009 C 
ENDBRANCH  21  22
ENDBRANCH  20  21
BRANCH  20  25
HETATM   25  N6  UNL     1      -3.367   1.088   0.073  1.00  0.00    -0.334 N 
HETATM   26  C25 UNL     1      -4.657   1.182  -0.472  1.00  0.00     0.318 C 
HETATM   27  O3  UNL     1      -5.281   0.135  -0.755  1.00  0.00    -0.247 OA
HETATM   28  N7  UNL     1      -5.264   2.436  -0.707  1.00  0.00    -0.343 N 
HETATM   29  C26 UNL     1      -6.591   2.490  -1.267  1.00  0.00     0.154 C 
HETATM   30  C27 UNL     1      -4.531   3.637  -0.375  1.00  0.00     0.154 C 
ATOM     31  H6  UNL     1      -2.846   1.933   0.309  1.00  0.00     0.164 HD
ENDBRANCH  20  25
ENDBRANCH  17  20
ENDBRANCH  16  17
BRANCH   1  32
HETATM   32  C2  UNL     1       0.314  -0.376  -2.531  1.00  0.00     0.261 C 
HETATM   33  C1  UNL     1       1.537  -0.242  -3.380  1.00  0.00     0.037 C 
ENDBRANCH   1  32
BRANCH   4  34
HETATM   34  N2  UNL     1       4.487   1.481   0.473  1.00  0.00    -0.017 N 
HETATM   35  C6  UNL     1       4.894   0.963   1.776  1.00  0.00     0.275 C 
HETATM   36  C7  UNL     1       6.378   0.648   1.631  1.00  0.00     0.303 C 
HETATM   37  N3  UNL     1       6.679   1.227   0.309  1.00  0.00     0.118 N 
HETATM   38  C8  UNL     1       6.466   2.652   0.456  1.00  0.00     0.303 C 
HETATM   39  C10 UNL     1       5.421   0.834  -0.381  1.00  0.00     0.513 C 
HETATM   40  C9  UNL     1       4.973   2.861   0.439  1.00  0.00     0.275 C 
ENDBRANCH   4  34
TORSDOF 8
