REMARK  15 active torsions:
REMARK  status: ('A' for Active; 'I' for Inactive)
REMARK    1  A    between atoms: C2_2  and  C4_4 
REMARK    2  A    between atoms: C4_4  and  C5_5 
REMARK    3  A    between atoms: C6_8  and  O1_9 
REMARK    4  A    between atoms: C12_18  and  C13_19 
REMARK    5  A    between atoms: C13_19  and  C14_20 
REMARK    6  A    between atoms: C14_20  and  C15_21 
REMARK    7  A    between atoms: C15_21  and  N3_22 
REMARK       I    between atoms: C16_24  and  N5_26 
REMARK    8  A    between atoms: C18_31  and  C19_32 
REMARK    9  A    between atoms: C19_32  and  C20_33 
REMARK   10  A    between atoms: C20_33  and  C21_34 
REMARK   11  A    between atoms: C21_34  and  C22_35 
REMARK   12  A    between atoms: C22_35  and  N8_36 
REMARK   13  A    between atoms: C24_44  and  C25_45 
REMARK   14  A    between atoms: C25_45  and  C26_46 
REMARK   15  A    between atoms: C30_51  and  O4_52 
ROOT
HETATM    1  C5  UNL     1      -2.784  -1.204   0.926  1.00  0.00     0.062 C 
HETATM    2  N1  UNL     1      -2.098  -2.468   0.880  1.00  0.00    -0.335 N 
ATOM      3  H1  UNL     1      -2.693  -3.223   1.220  1.00  0.00     0.168 HD
HETATM    4  C6  UNL     1      -0.848  -2.945   0.500  1.00  0.00     0.163 C 
HETATM    5  C7  UNL     1      -0.139  -3.286  -0.716  1.00  0.00     0.065 C 
HETATM    6  C8  UNL     1      -0.691  -4.571  -1.362  1.00  0.00     0.063 C 
HETATM    7  C9  UNL     1      -0.540  -4.269  -2.807  1.00  0.00     0.026 C 
HETATM    8  C10 UNL     1       0.617  -3.256  -2.846  1.00  0.00     0.133 C 
HETATM    9  N2  UNL     1       0.222  -2.350  -1.713  1.00  0.00    -0.314 N 
HETATM   10  C11 UNL     1       0.291  -0.973  -1.815  1.00  0.00     0.252 C 
HETATM   11  O2  UNL     1      -0.428  -0.487  -2.781  1.00  0.00    -0.268 OA
HETATM   12  C12 UNL     1       1.002   0.087  -1.078  1.00  0.00     0.011 C 
HETATM   13  C18 UNL     1       0.179   1.311  -1.026  1.00  0.00     0.119 C 
HETATM   14  N9  UNL     1       0.332   2.149   0.142  1.00  0.00    -0.351 N 
ATOM     15  H9  UNL     1       1.276   2.260   0.513  1.00  0.00     0.163 HD
HETATM   16  C23 UNL     1      -0.707   2.827   0.815  1.00  0.00     0.241 C 
HETATM   17  O3  UNL     1      -0.562   4.082   1.068  1.00  0.00    -0.271 OA
HETATM   18  C24 UNL     1      -2.001   2.198   1.275  1.00  0.00     0.178 C 
HETATM   19  N10 UNL     1      -1.684   0.982   1.987  1.00  0.00    -0.351 N 
HETATM   20  C29 UNL     1      -0.534   1.228   2.924  1.00  0.00     0.152 C 
HETATM   21  C30 UNL     1      -2.255  -0.282   1.945  1.00  0.00     0.161 C 
ENDROOT
BRANCH  12  22
HETATM   22  C13 UNL     1       1.824  -0.290   0.080  1.00  0.00     0.043 C 
BRANCH  22  23
HETATM   23  C14 UNL     1       2.968  -1.232  -0.264  1.00  0.00     0.024 C 
BRANCH  23  24
HETATM   24  C15 UNL     1       3.773  -1.591   0.968  1.00  0.00     0.122 C 
BRANCH  24  25
HETATM   25  N3  UNL     1       4.820  -2.481   0.503  1.00  0.00    -0.364 N 
HETATM   26  C16 UNL     1       5.993  -2.453   1.034  1.00  0.00     0.190 C 
HETATM   27  N4  UNL     1       7.049  -3.305   0.613  1.00  0.00    -0.063 NA
HETATM   28  N5  UNL     1       6.257  -1.538   2.087  1.00  0.00    -0.307 N 
HETATM   29  C17 UNL     1       6.982  -1.974   3.066  1.00  0.00     0.203 C 
ATOM     30  H5  UNL     1       5.894  -0.585   2.072  1.00  0.00     0.170 HD
HETATM   31  N6  UNL     1       7.252  -1.065   4.126  1.00  0.00    -0.066 NA
HETATM   32  N7  UNL     1       7.516  -3.268   3.157  1.00  0.00    -0.066 NA
ATOM     33  H3  UNL     1       4.625  -3.137  -0.254  1.00  0.00     0.162 HD
ENDBRANCH  24  25
ENDBRANCH  23  24
ENDBRANCH  22  23
ENDBRANCH  12  22
BRANCH  13  34
HETATM   34  C19 UNL     1       0.379   2.262  -2.219  1.00  0.00     0.030 C 
BRANCH  34  35
HETATM   35  C20 UNL     1       1.772   2.774  -2.345  1.00  0.00     0.004 C 
BRANCH  35  36
HETATM   36  C21 UNL     1       1.908   3.724  -3.544  1.00  0.00     0.027 C 
BRANCH  36  37
HETATM   37  C22 UNL     1       0.999   4.916  -3.410  1.00  0.00     0.229 C 
BRANCH  37  38
HETATM   38  N8  UNL     1       1.183   5.774  -4.582  1.00  0.00    -0.079 N 
ATOM     39  H83 UNL     1       2.158   6.039  -4.724  1.00  0.00     0.274 HD
ATOM     40  H82 UNL     1       1.045   5.273  -5.460  1.00  0.00     0.274 HD
ATOM     41  H81 UNL     1       0.567   6.582  -4.491  1.00  0.00     0.274 HD
ENDBRANCH  37  38
ENDBRANCH  36  37
ENDBRANCH  35  36
ENDBRANCH  34  35
ENDBRANCH  13  34
BRANCH   4  42
HETATM   42  O1  UNL     1      -0.049  -3.171   1.538  1.00  0.00    -0.345 OA
ATOM     43  H1  UNL     1       0.805  -3.497   1.278  1.00  0.00     0.219 HD
ENDBRANCH   4  42
BRANCH  18  44
HETATM   44  C25 UNL     1      -2.607   3.189   2.297  1.00  0.00     0.038 C 
BRANCH  44  45
HETATM   45  C26 UNL     1      -3.910   2.708   2.850  1.00  0.00    -0.020 C 
HETATM   46  C27 UNL     1      -4.958   2.518   1.778  1.00  0.00     0.009 C 
HETATM   47  C28 UNL     1      -4.428   3.733   3.857  1.00  0.00     0.009 C 
ENDBRANCH  44  45
ENDBRANCH  18  44
BRANCH   1  48
HETATM   48  C4  UNL     1      -3.420  -0.664  -0.279  1.00  0.00     0.065 C 
BRANCH  48  49
HETATM   49  C2  UNL     1      -4.534  -1.483  -0.895  1.00  0.00    -0.017 C 
HETATM   50  C1  UNL     1      -4.174  -2.835  -1.360  1.00  0.00     0.010 C 
HETATM   51  C3  UNL     1      -5.294  -0.670  -1.922  1.00  0.00     0.010 C 
ENDBRANCH  48  49
ENDBRANCH   1  48
BRANCH  21  52
HETATM   52  O4  UNL     1      -2.349  -0.803   3.145  1.00  0.00    -0.345 OA
ATOM     53  H4  UNL     1      -2.008  -0.208   3.802  1.00  0.00     0.219 HD
ENDBRANCH  21  52
TORSDOF 15
