REMARK  13 active torsions:
REMARK  status: ('A' for Active; 'I' for Inactive)
REMARK    1  A    between atoms: C2_2  and  C3_3 
REMARK    2  A    between atoms: C3_3  and  C4_4 
REMARK    3  A    between atoms: C4_4  and  C5_5 
REMARK    4  A    between atoms: C5_5  and  C6_6 
REMARK    5  A    between atoms: C6_6  and  C7_7 
REMARK    6  A    between atoms: C9_12  and  C10_13 
REMARK    7  A    between atoms: C10_13  and  C11_14 
REMARK    8  A    between atoms: C16_21  and  C17_22 
REMARK    9  A    between atoms: C17_22  and  C18_23 
REMARK   10  A    between atoms: C22_30  and  C23_31 
REMARK   11  A    between atoms: C23_31  and  C24_32 
REMARK   12  A    between atoms: C26_39  and  C27_40 
REMARK   13  A    between atoms: C29_42  and  O6_43 
REMARK       I    between atoms: N6_45  and  C30_46 
ROOT
HETATM    1  C7  UNL     1       2.268  -0.047  -0.919  1.00  0.00     0.090 C 
HETATM    2  C8  UNL     1       1.385   0.327   0.165  1.00  0.00     0.265 C 
HETATM    3  O1  UNL     1       1.232  -0.496   1.149  1.00  0.00    -0.266 OA
HETATM    4  N1  UNL     1       0.620   1.510   0.336  1.00  0.00    -0.343 N 
ATOM      5  H1  UNL     1       0.794   2.034   1.194  1.00  0.00     0.163 HD
HETATM    6  C9  UNL     1      -0.372   2.063  -0.552  1.00  0.00     0.177 C 
HETATM    7  C14 UNL     1      -1.525   2.672   0.211  1.00  0.00     0.243 C 
HETATM    8  O2  UNL     1      -1.220   3.794   0.756  1.00  0.00    -0.271 OA
HETATM    9  N2  UNL     1      -2.808   2.173   0.372  1.00  0.00    -0.341 N 
HETATM   10  C15 UNL     1      -3.900   3.187   0.226  1.00  0.00     0.153 C 
HETATM   11  C16 UNL     1      -3.242   0.820   0.617  1.00  0.00     0.179 C 
HETATM   12  C21 UNL     1      -3.206   0.096  -0.700  1.00  0.00     0.241 C 
HETATM   13  O3  UNL     1      -3.894   0.746  -1.590  1.00  0.00    -0.271 OA
HETATM   14  N3  UNL     1      -2.606  -1.062  -1.095  1.00  0.00    -0.346 N 
ATOM     15  H3  UNL     1      -1.959  -0.938  -1.874  1.00  0.00     0.163 HD
HETATM   16  C22 UNL     1      -2.699  -2.435  -0.635  1.00  0.00     0.185 C 
HETATM   17  C25 UNL     1      -2.149  -3.368  -1.654  1.00  0.00     0.241 C 
HETATM   18  O5  UNL     1      -2.865  -4.071  -2.423  1.00  0.00    -0.271 OA
HETATM   19  N5  UNL     1      -0.761  -3.497  -1.802  1.00  0.00    -0.347 N 
ATOM     20  H5  UNL     1      -0.398  -4.114  -2.528  1.00  0.00     0.163 HD
HETATM   21  C26 UNL     1       0.189  -2.771  -0.944  1.00  0.00     0.159 C 
HETATM   22  C29 UNL     1       1.229  -2.210  -1.833  1.00  0.00     0.149 C 
HETATM   23  N6  UNL     1       1.734  -0.912  -1.968  1.00  0.00    -0.246 N 
HETATM   24  C30 UNL     1       1.779  -0.427  -3.336  1.00  0.00     0.341 C 
HETATM   25  N7  UNL     1       2.385   0.876  -3.513  1.00  0.00    -0.039 NA
HETATM   26  O7  UNL     1       1.347  -1.047  -4.318  1.00  0.00    -0.250 OA
ENDROOT
BRANCH   1  27
HETATM   27  C6  UNL     1       3.680  -0.488  -0.569  1.00  0.00     0.064 C 
BRANCH  27  28
HETATM   28  C5  UNL     1       4.563   0.463   0.101  1.00  0.00     0.006 C 
BRANCH  28  29
HETATM   29  C4  UNL     1       4.325   0.932   1.471  1.00  0.00     0.000 C 
BRANCH  29  30
HETATM   30  C3  UNL     1       4.450  -0.205   2.466  1.00  0.00    -0.000 C 
BRANCH  30  31
HETATM   31  C2  UNL     1       5.857  -0.798   2.402  1.00  0.00    -0.005 C 
HETATM   32  C1  UNL     1       6.913   0.217   2.712  1.00  0.00     0.005 C 
ENDBRANCH  30  31
ENDBRANCH  29  30
ENDBRANCH  28  29
ENDBRANCH  27  28
ENDBRANCH   1  27
BRANCH  22  33
HETATM   33  O6  UNL     1       1.718  -3.145  -2.600  1.00  0.00    -0.347 OA
ATOM     34  H6  UNL     1       2.386  -2.785  -3.171  1.00  0.00     0.219 HD
ENDBRANCH  22  33
BRANCH   6  35
HETATM   35  C10 UNL     1       0.321   3.257  -1.246  1.00  0.00     0.038 C 
BRANCH  35  36
HETATM   36  C11 UNL     1      -0.596   3.942  -2.207  1.00  0.00    -0.020 C 
HETATM   37  C12 UNL     1      -1.104   3.081  -3.317  1.00  0.00     0.009 C 
HETATM   38  C13 UNL     1       0.195   5.096  -2.822  1.00  0.00     0.009 C 
ENDBRANCH  35  36
ENDBRANCH   6  35
BRANCH  21  39
HETATM   39  C27 UNL     1       0.795  -3.834  -0.051  1.00  0.00     0.029 C 
HETATM   40  C28 UNL     1       1.510  -4.924  -0.763  1.00  0.00     0.007 C 
ENDBRANCH  21  39
BRANCH  11  41
HETATM   41  C17 UNL     1      -2.753   0.097   1.778  1.00  0.00     0.039 C 
BRANCH  41  42
HETATM   42  C18 UNL     1      -3.039   0.602   3.153  1.00  0.00    -0.020 C 
HETATM   43  C19 UNL     1      -2.488   1.944   3.497  1.00  0.00     0.009 C 
HETATM   44  C20 UNL     1      -4.525   0.519   3.490  1.00  0.00     0.009 C 
ENDBRANCH  41  42
ENDBRANCH  11  41
BRANCH  16  45
HETATM   45  C23 UNL     1      -4.125  -2.864  -0.369  1.00  0.00     0.134 C 
BRANCH  45  46
HETATM   46  C24 UNL     1      -4.122  -4.259   0.119  1.00  0.00     0.233 C 
HETATM   47  N4  UNL     1      -3.639  -4.540   1.446  1.00  0.00    -0.062 NA
HETATM   48  O4  UNL     1      -4.507  -5.268  -0.518  1.00  0.00    -0.277 OA
ENDBRANCH  45  46
ENDBRANCH  16  45
TORSDOF 13
