REMARK  13 active torsions:
REMARK  status: ('A' for Active; 'I' for Inactive)
REMARK    1  A    between atoms: C2_2  and  C3_3 
REMARK    2  A    between atoms: C3_3  and  C4_4 
REMARK    3  A    between atoms: C4_4  and  C5_5 
REMARK    4  A    between atoms: C6_8  and  O1_9 
REMARK    5  A    between atoms: C11_19  and  C12_20 
REMARK    6  A    between atoms: C12_20  and  C13_21 
REMARK    7  A    between atoms: N4_29  and  C19_30 
REMARK    8  A    between atoms: C19_30  and  C20_31 
REMARK    9  A    between atoms: C20_31  and  C21_32 
REMARK   10  A    between atoms: C21_32  and  C22_33 
REMARK   11  A    between atoms: C22_33  and  C23_34 
REMARK   12  A    between atoms: C23_34  and  C24_35 
REMARK       I    between atoms: C24_35  and  N5_37 
REMARK   13  A    between atoms: N5_37  and  C25_39 
ROOT
HETATM    1  C5  UNL     1      -4.652  -2.064  -0.565  1.00  0.00     0.079 C 
HETATM    2  N1  UNL     1      -5.279  -1.172   0.365  1.00  0.00    -0.333 N 
ATOM      3  H1  UNL     1      -6.200  -0.842   0.075  1.00  0.00     0.168 HD
HETATM    4  C6  UNL     1      -4.849  -0.672   1.605  1.00  0.00     0.189 C 
HETATM    5  C7  UNL     1      -3.697   0.120   1.938  1.00  0.00     0.221 C 
HETATM    6  O2  UNL     1      -2.861  -0.373   2.787  1.00  0.00    -0.286 OA
HETATM    7  C8  UNL     1      -3.312   1.465   1.435  1.00  0.00     0.159 C 
HETATM    8  C9  UNL     1      -4.481   2.315   1.004  1.00  0.00     0.041 C 
HETATM    9  N2  UNL     1      -2.589   2.178   2.466  1.00  0.00    -0.348 N 
ATOM     10  H2  UNL     1      -3.156   2.484   3.257  1.00  0.00     0.163 HD
HETATM   11  C10 UNL     1      -1.241   2.510   2.545  1.00  0.00     0.241 C 
HETATM   12  O3  UNL     1      -0.516   1.927   3.450  1.00  0.00    -0.271 OA
HETATM   13  C11 UNL     1      -0.476   3.496   1.692  1.00  0.00     0.179 C 
HETATM   14  N3  UNL     1       0.842   2.985   1.609  1.00  0.00    -0.342 N 
HETATM   15  C16 UNL     1       1.851   3.667   2.468  1.00  0.00     0.153 C 
HETATM   16  C17 UNL     1       1.379   1.909   0.872  1.00  0.00     0.238 C 
HETATM   17  O4  UNL     1       2.627   2.032   0.585  1.00  0.00    -0.272 OA
HETATM   18  C18 UNL     1       0.735   0.695   0.396  1.00  0.00     0.228 C 
HETATM   19  N4  UNL     1       0.841   0.327  -0.971  1.00  0.00    -0.342 N 
HETATM   20  C27 UNL     1      -0.297  -0.208  -1.655  1.00  0.00     0.242 C 
HETATM   21  O6  UNL     1      -0.485  -0.004  -2.907  1.00  0.00    -0.271 OA
HETATM   22  C28 UNL     1      -1.368  -1.044  -1.014  1.00  0.00     0.173 C 
HETATM   23  C29 UNL     1      -0.941  -2.478  -1.247  1.00  0.00     0.042 C 
HETATM   24  N6  UNL     1      -2.658  -0.727  -1.585  1.00  0.00    -0.343 N 
ATOM     25  H6  UNL     1      -2.704   0.189  -2.031  1.00  0.00     0.163 HD
HETATM   26  C30 UNL     1      -3.850  -1.448  -1.636  1.00  0.00     0.264 C 
HETATM   27  O7  UNL     1      -4.338  -1.601  -2.827  1.00  0.00    -0.266 OA
ENDROOT
BRANCH  19  28
HETATM   28  C19 UNL     1       2.026   0.427  -1.811  1.00  0.00     0.126 C 
BRANCH  28  29
HETATM   29  C20 UNL     1       2.842  -0.838  -1.762  1.00  0.00     0.020 C 
BRANCH  29  30
HETATM   30  C21 UNL     1       4.084  -0.811  -2.619  1.00  0.00     0.002 C 
BRANCH  30  31
HETATM   31  C22 UNL     1       5.011   0.268  -2.146  1.00  0.00     0.009 C 
BRANCH  31  32
HETATM   32  C23 UNL     1       5.448   0.061  -0.733  1.00  0.00     0.103 C 
BRANCH  32  33
HETATM   33  C24 UNL     1       6.214  -1.173  -0.472  1.00  0.00     0.217 C 
HETATM   34  O5  UNL     1       6.548  -1.925  -1.408  1.00  0.00    -0.274 OA
HETATM   35  N5  UNL     1       6.588  -1.540   0.836  1.00  0.00    -0.361 N 
ATOM     36  H5  UNL     1       6.327  -0.939   1.617  1.00  0.00     0.162 HD
BRANCH  35  37
HETATM   37  C25 UNL     1       7.326  -2.737   1.091  1.00  0.00     0.118 C 
HETATM   38  C26 UNL     1       8.650  -2.750   0.391  1.00  0.00     0.026 C 
ENDBRANCH  35  37
ENDBRANCH  32  33
ENDBRANCH  31  32
ENDBRANCH  30  31
ENDBRANCH  29  30
ENDBRANCH  28  29
ENDBRANCH  19  28
BRANCH  13  39
HETATM   39  C12 UNL     1      -1.216   3.935   0.518  1.00  0.00     0.039 C 
BRANCH  39  40
HETATM   40  C13 UNL     1      -0.588   4.951  -0.386  1.00  0.00    -0.020 C 
HETATM   41  C14 UNL     1       0.682   4.597  -1.052  1.00  0.00     0.009 C 
HETATM   42  C15 UNL     1      -1.612   5.432  -1.437  1.00  0.00     0.009 C 
ENDBRANCH  39  40
ENDBRANCH  13  39
BRANCH   1  43
HETATM   43  C4  UNL     1      -4.021  -3.288   0.059  1.00  0.00     0.063 C 
BRANCH  43  44
HETATM   44  C3  UNL     1      -5.086  -4.091   0.746  1.00  0.00     0.006 C 
BRANCH  44  45
HETATM   45  C2  UNL     1      -4.359  -5.317   1.331  1.00  0.00    -0.004 C 
HETATM   46  C1  UNL     1      -3.723  -6.079   0.192  1.00  0.00     0.005 C 
ENDBRANCH  44  45
ENDBRANCH  43  44
ENDBRANCH   1  43
BRANCH   4  47
HETATM   47  O1  UNL     1      -5.587  -0.948   2.650  1.00  0.00    -0.343 OA
ATOM     48  H1  UNL     1      -5.296  -0.610   3.489  1.00  0.00     0.219 HD
ENDBRANCH   4  47
TORSDOF 13
