REMARK  13 active torsions:
REMARK  status: ('A' for Active; 'I' for Inactive)
REMARK    1  A    between atoms: C2_2  and  C3_3 
REMARK    2  A    between atoms: C2_2  and  N2_11 
REMARK    3  A    between atoms: C3_3  and  C4_4 
REMARK       I    between atoms: N2_11  and  C10_13 
REMARK    4  A    between atoms: C10_13  and  C11_15 
REMARK    5  A    between atoms: C11_15  and  N3_17 
REMARK       I    between atoms: N3_17  and  C13_19 
REMARK    6  A    between atoms: C13_19  and  C14_21 
REMARK    7  A    between atoms: C14_21  and  N4_22 
REMARK    8  A    between atoms: N4_22  and  C15_24 
REMARK    9  A    between atoms: C15_24  and  C16_28 
REMARK   10  A    between atoms: C16_28  and  N6_29 
REMARK   11  A    between atoms: N7_32  and  C19_33 
REMARK   12  A    between atoms: C19_33  and  C20_34 
REMARK   13  A    between atoms: C20_34  and  N8_35 
ROOT
HETATM    1  C14 UNL     1      -1.181   0.309   2.844  1.00  0.00     0.224 C 
ENDROOT
BRANCH   1   2
HETATM    2  C13 UNL     1       0.142  -0.198   2.339  1.00  0.00     0.235 C 
HETATM    3  N3  UNL     1       1.347   0.434   2.730  1.00  0.00    -0.347 N 
ATOM      4  H3  UNL     1       1.313   1.237   3.357  1.00  0.00     0.163 HD
HETATM    5  O2  UNL     1       0.208  -1.181   1.570  1.00  0.00    -0.272 OA
BRANCH   3   6
HETATM    6  C11 UNL     1       2.612  -0.039   2.257  1.00  0.00     0.172 C 
HETATM    7  C12 UNL     1       3.503  -0.487   3.421  1.00  0.00     0.042 C 
BRANCH   6   8
HETATM    8  C10 UNL     1       3.314   0.988   1.447  1.00  0.00     0.240 C 
HETATM    9  N2  UNL     1       4.597   0.731   0.939  1.00  0.00    -0.355 N 
ATOM     10  H2  UNL     1       5.037  -0.167   1.140  1.00  0.00     0.162 HD
HETATM   11  O1  UNL     1       2.758   2.087   1.219  1.00  0.00    -0.271 OA
BRANCH   9  12
HETATM   12  C2  UNL     1       5.315   1.698   0.141  1.00  0.00     0.086 C 
HETATM   13  C1  UNL     1       6.364   2.454   0.947  1.00  0.00     0.032 C 
BRANCH  12  14
HETATM   14  C3  UNL     1       5.756   1.230  -1.182  1.00  0.00     0.082 C 
BRANCH  14  15
HETATM   15  C4  UNL     1       6.862   0.323  -1.314  1.00  0.00     0.012 A 
HETATM   16  C5  UNL     1       7.610  -0.199  -0.304  1.00  0.00     0.025 A 
HETATM   17  C6  UNL     1       8.676  -1.078  -0.533  1.00  0.00     0.003 A 
HETATM   18  C7  UNL     1       8.945  -1.401  -1.834  1.00  0.00     0.017 A 
HETATM   19  C8  UNL     1       8.191  -0.876  -2.860  1.00  0.00     0.090 A 
HETATM   20  N1  UNL     1       7.176  -0.037  -2.609  1.00  0.00    -0.364 N 
HETATM   21  C9  UNL     1       6.406   0.496  -3.732  1.00  0.00     0.155 C 
ENDBRANCH  14  15
ENDBRANCH  12  14
ENDBRANCH   9  12
ENDBRANCH   6   8
ENDBRANCH   3   6
ENDBRANCH   1   2
BRANCH   1  22
HETATM   22  N4  UNL     1      -2.275  -0.495   2.310  1.00  0.00    -0.367 N 
ATOM     23  H4  UNL     1      -2.075  -1.273   1.682  1.00  0.00     0.161 HD
BRANCH  22  24
HETATM   24  C15 UNL     1      -3.619  -0.196   2.663  1.00  0.00     0.118 C 
HETATM   25  N5  UNL     1      -3.821   0.853   3.391  1.00  0.00    -0.385 N 
ATOM     26  H52 UNL     1      -3.031   1.428   3.685  1.00  0.00     0.157 HD
ATOM     27  H51 UNL     1      -4.785   1.068   3.644  1.00  0.00     0.157 HD
BRANCH  24  28
HETATM   28  C16 UNL     1      -4.741  -1.013   2.245  1.00  0.00     0.252 C 
BRANCH  28  29
HETATM   29  N6  UNL     1      -5.041  -1.001   0.869  1.00  0.00    -0.016 N 
HETATM   30  C17 UNL     1      -4.099  -0.443  -0.041  1.00  0.00     0.273 C 
HETATM   31  C18 UNL     1      -4.945  -0.047  -1.269  1.00  0.00     0.268 C 
HETATM   32  N7  UNL     1      -6.256  -0.398  -0.860  1.00  0.00    -0.038 N 
HETATM   33  C21 UNL     1      -6.377  -1.836  -0.830  1.00  0.00     0.268 C 
HETATM   34  C23 UNL     1      -6.212  -0.134   0.579  1.00  0.00     0.479 C 
HETATM   35  C22 UNL     1      -5.519  -2.262   0.346  1.00  0.00     0.273 C 
BRANCH  32  36
HETATM   36  C19 UNL     1      -7.336   0.304  -1.466  1.00  0.00     0.266 C 
BRANCH  36  37
HETATM   37  C20 UNL     1      -7.533  -0.002  -2.905  1.00  0.00     0.257 C 
BRANCH  37  38
HETATM   38  N8  UNL     1      -8.677   0.798  -3.374  1.00  0.00    -0.078 N 
ATOM     39  H83 UNL     1      -9.519   0.653  -2.817  1.00  0.00     0.274 HD
ATOM     40  H82 UNL     1      -8.567   1.795  -3.191  1.00  0.00     0.274 HD
ATOM     41  H81 UNL     1      -8.812   0.588  -4.363  1.00  0.00     0.274 HD
ENDBRANCH  37  38
ENDBRANCH  36  37
ENDBRANCH  32  36
ENDBRANCH  28  29
ENDBRANCH  24  28
ENDBRANCH  22  24
ENDBRANCH   1  22
TORSDOF 13
