REMARK  13 active torsions:
REMARK  status: ('A' for Active; 'I' for Inactive)
REMARK    1  A    between atoms: C3_3  and  C4_4 
REMARK    2  A    between atoms: C3_3  and  N5_29 
REMARK    3  A    between atoms: C4_4  and  C5_5 
REMARK    4  A    between atoms: C9_16  and  N4_17 
REMARK       I    between atoms: N4_17  and  C10_19 
REMARK    5  A    between atoms: C10_19  and  O2_21 
REMARK    6  A    between atoms: O2_21  and  C11_22 
REMARK    7  A    between atoms: C11_22  and  C12_23 
REMARK    8  A    between atoms: N5_29  and  C19_31 
REMARK    9  A    between atoms: N5_29  and  C20_33 
REMARK   10  A    between atoms: C20_33  and  C21_34 
REMARK   11  A    between atoms: C21_34  and  N6_35 
REMARK   12  A    between atoms: N6_35  and  C22_37 
REMARK   13  A    between atoms: N7_38  and  N8_40 
ROOT
HETATM    1  C1  UNL     1      -0.868   1.077  -1.434  1.00  0.00     0.014 C 
HETATM    2  C2  UNL     1      -1.476   0.146  -0.953  1.00  0.00    -0.083 C 
HETATM    3  C3  UNL     1      -2.234  -0.945  -0.399  1.00  0.00     0.280 C 
ENDROOT
BRANCH   3   4
HETATM    4  C4  UNL     1      -1.618  -1.678   0.721  1.00  0.00     0.090 C 
BRANCH   4   5
HETATM    5  C5  UNL     1      -0.332  -2.350   0.458  1.00  0.00     0.004 A 
HETATM    6  C6  UNL     1       0.009  -3.653   0.334  1.00  0.00     0.087 A 
HETATM    7  N1  UNL     1      -0.150  -4.987   0.299  1.00  0.00    -0.189 N 
HETATM    8  C8  UNL     1       1.337  -3.416   0.081  1.00  0.00     0.104 A 
HETATM    9  C7  UNL     1       1.026  -5.603   0.035  1.00  0.00     0.677 A 
ATOM     10  H1  UNL     1      -1.036  -5.469   0.451  1.00  0.00     0.184 HD
HETATM   11  N2  UNL     1       1.213  -6.895  -0.065  1.00  0.00    -0.234 N 
HETATM   12  N3  UNL     1       1.922  -4.612  -0.093  1.00  0.00    -0.188 N 
ATOM     13  H22 UNL     1       0.532  -7.648   0.032  1.00  0.00     0.174 HD
ATOM     14  H21 UNL     1       2.099  -7.359  -0.264  1.00  0.00     0.174 HD
ATOM     15  H3  UNL     1       2.912  -4.749  -0.295  1.00  0.00     0.184 HD
HETATM   16  C9  UNL     1       1.075  -2.105   0.192  1.00  0.00     0.075 A 
BRANCH  16  17
HETATM   17  N4  UNL     1       1.880  -0.964   0.100  1.00  0.00    -0.300 N 
HETATM   18  C10 UNL     1       3.273  -1.038  -0.161  1.00  0.00     0.365 C 
HETATM   19  O1  UNL     1       3.913  -2.106  -0.333  1.00  0.00    -0.238 OA
ATOM     20  H4  UNL     1       1.451  -0.047   0.225  1.00  0.00     0.171 HD
BRANCH  18  21
HETATM   21  O2  UNL     1       4.060   0.125  -0.247  1.00  0.00    -0.299 OA
BRANCH  21  22
HETATM   22  C11 UNL     1       5.446   0.052  -0.506  1.00  0.00     0.219 C 
BRANCH  22  23
HETATM   23  C12 UNL     1       6.071   1.389  -0.550  1.00  0.00    -0.034 A 
HETATM   24  C13 UNL     1       5.355   2.556  -0.371  1.00  0.00     0.009 A 
HETATM   25  C14 UNL     1       5.951   3.808  -0.412  1.00  0.00     0.001 A 
HETATM   26  C15 UNL     1       7.306   3.881  -0.642  1.00  0.00     0.000 A 
HETATM   27  C16 UNL     1       8.051   2.716  -0.827  1.00  0.00     0.001 A 
HETATM   28  C17 UNL     1       7.426   1.469  -0.780  1.00  0.00     0.009 A 
ENDBRANCH  22  23
ENDBRANCH  21  22
ENDBRANCH  18  21
ENDBRANCH  16  17
ENDBRANCH   4   5
ENDBRANCH   3   4
BRANCH   3  29
HETATM   29  N5  UNL     1      -3.598  -0.523  -0.138  1.00  0.00    -0.001 N 
HETATM   30  C18 UNL     1      -4.289  -1.461   0.728  1.00  0.00     0.284 C 
BRANCH  29  31
HETATM   31  C19 UNL     1      -4.287  -0.488  -1.375  1.00  0.00     0.460 C 
HETATM   32  O3  UNL     1      -5.403  -0.946  -1.473  1.00  0.00    -0.276 OA
ENDBRANCH  29  31
BRANCH  29  33
HETATM   33  C20 UNL     1      -3.681   0.772   0.455  1.00  0.00     0.267 C 
BRANCH  33  34
HETATM   34  C21 UNL     1      -4.647   1.703  -0.276  1.00  0.00     0.149 C 
BRANCH  34  35
HETATM   35  N6  UNL     1      -4.602   2.964   0.464  1.00  0.00    -0.383 N 
ATOM     36  H6  UNL     1      -4.196   3.804   0.052  1.00  0.00     0.160 HD
BRANCH  35  37
HETATM   37  C22 UNL     1      -5.143   2.976   1.776  1.00  0.00     0.192 C 
HETATM   38  N7  UNL     1      -6.065   3.831   2.052  1.00  0.00    -0.303 N 
ATOM     39  H7  UNL     1      -6.461   3.849   2.992  1.00  0.00     0.187 HD
BRANCH  38  40
HETATM   40  N8  UNL     1      -6.538   4.736   1.096  1.00  0.00    -0.344 N 
ATOM     41  H82 UNL     1      -6.131   4.704   0.161  1.00  0.00     0.176 HD
ATOM     42  H81 UNL     1      -7.269   5.413   1.315  1.00  0.00     0.176 HD
ENDBRANCH  38  40
ENDBRANCH  35  37
ENDBRANCH  34  35
ENDBRANCH  33  34
ENDBRANCH  29  33
ENDBRANCH   3  29
TORSDOF 13
