REMARK  11 active torsions:
REMARK  status: ('A' for Active; 'I' for Inactive)
REMARK    1  A    between atoms: C3_3  and  C4_4 
REMARK    2  A    between atoms: C3_3  and  C6_6 
REMARK    3  A    between atoms: C3_3  and  C9_11 
REMARK    4  A    between atoms: C6_6  and  C7_7 
REMARK    5  A    between atoms: C7_7  and  S1_8 
REMARK    6  A    between atoms: N1_13  and  C11_14 
REMARK    7  A    between atoms: C11_14  and  C12_15 
REMARK    8  A    between atoms: C12_15  and  C13_16 
REMARK    9  A    between atoms: C13_16  and  N2_17 
REMARK   10  A    between atoms: N2_17  and  C14_18 
REMARK   11  A    between atoms: C14_18  and  C15_19 
ROOT
HETATM    1  C1  UNL     1       3.062  -0.089   3.592  1.00  0.00     0.013 C 
HETATM    2  C2  UNL     1       3.285  -0.100   2.405  1.00  0.00    -0.097 C 
HETATM    3  C3  UNL     1       3.596  -0.110   0.971  1.00  0.00     0.086 C 
ENDROOT
BRANCH   3   4
HETATM    4  C4  UNL     1       4.033  -1.469   0.548  1.00  0.00     0.029 C 
HETATM    5  C5  UNL     1       5.183  -2.095   1.239  1.00  0.00     0.007 C 
ENDBRANCH   3   4
BRANCH   3   6
HETATM    6  C6  UNL     1       4.303   1.072   0.453  1.00  0.00     0.011 C 
BRANCH   6   7
HETATM    7  C7  UNL     1       5.621   1.503   0.885  1.00  0.00     0.076 C 
BRANCH   7   8
HETATM    8  S1  UNL     1       7.030   0.590   0.550  1.00  0.00     0.034 S 
HETATM    9  C8  UNL     1       7.483   0.272  -1.087  1.00  0.00     0.132 C 
HETATM   10  O1  UNL     1       8.308   0.709   1.578  1.00  0.00    -0.254 OA
ENDBRANCH   7   8
ENDBRANCH   6   7
ENDBRANCH   3   6
BRANCH   3  11
HETATM   11  C9  UNL     1       2.202   0.015   0.313  1.00  0.00     0.069 A 
HETATM   12  C10 UNL     1       1.031   0.534   0.769  1.00  0.00     0.145 A 
HETATM   13  N1  UNL     1       0.094   0.470  -0.195  1.00  0.00    -0.264 N 
HETATM   14  N6  UNL     1       0.719  -0.108  -1.251  1.00  0.00    -0.233 N 
HETATM   15  C19 UNL     1       0.125  -0.383  -2.551  1.00  0.00     0.200 C 
HETATM   16  N7  UNL     1       1.966  -0.373  -0.949  1.00  0.00    -0.285 N 
ATOM     17  H7  UNL     1       2.648  -0.805  -1.573  1.00  0.00     0.188 HD
BRANCH  13  18
HETATM   18  C11 UNL     1      -1.226   0.926  -0.250  1.00  0.00     0.092 C 
BRANCH  18  19
HETATM   19  C12 UNL     1      -2.340  -0.040   0.206  1.00  0.00     0.077 C 
BRANCH  19  20
HETATM   20  C13 UNL     1      -3.645   0.648  -0.074  1.00  0.00     0.272 C 
BRANCH  20  21
HETATM   21  N2  UNL     1      -4.871   0.061   0.235  1.00  0.00     0.044 N 
HETATM   22  C16 UNL     1      -5.838   1.151   0.672  1.00  0.00     0.369 C 
HETATM   23  C17 UNL     1      -5.691   2.293  -0.282  1.00  0.00     0.264 C 
HETATM   24  O4  UNL     1      -5.506   3.461   0.096  1.00  0.00    -0.271 OA
HETATM   25  N3  UNL     1      -5.773   1.980  -1.665  1.00  0.00    -0.157 N 
HETATM   26  C18 UNL     1      -5.675   0.590  -1.984  1.00  0.00     0.699 C 
ATOM     27  H3  UNL     1      -5.893   2.697  -2.381  1.00  0.00     0.187 HD
HETATM   28  N4  UNL     1      -5.741   0.159  -3.209  1.00  0.00    -0.233 N 
HETATM   29  N5  UNL     1      -5.506  -0.397  -0.937  1.00  0.00    -0.047 N 
ATOM     30  H42 UNL     1      -5.860   0.854  -3.946  1.00  0.00     0.174 HD
ATOM     31  H41 UNL     1      -5.671  -0.833  -3.437  1.00  0.00     0.174 HD
ATOM     32  H5  UNL     1      -5.826  -1.360  -1.041  1.00  0.00     0.213 HD
BRANCH  21  33
HETATM   33  C14 UNL     1      -4.991  -0.911   1.245  1.00  0.00     0.378 C 
BRANCH  33  34
HETATM   34  C15 UNL     1      -4.712  -2.302   0.962  1.00  0.00     0.202 C 
HETATM   35  O2  UNL     1      -4.889  -3.130   1.925  1.00  0.00    -0.647 OA
HETATM   36  O3  UNL     1      -4.279  -2.855  -0.206  1.00  0.00    -0.647 OA
ENDBRANCH  33  34
ENDBRANCH  21  33
ENDBRANCH  20  21
ENDBRANCH  19  20
ENDBRANCH  18  19
ENDBRANCH  13  18
ENDBRANCH   3  11
TORSDOF 11
