REMARK  11 active torsions:
REMARK  status: ('A' for Active; 'I' for Inactive)
REMARK    1  A    between atoms: N3_8  and  C4_9 
REMARK    2  A    between atoms: C4_9  and  C5_10 
REMARK    3  A    between atoms: C9_16  and  N5_17 
REMARK    4  A    between atoms: N5_17  and  C10_19 
REMARK    5  A    between atoms: C10_19  and  C11_20 
REMARK    6  A    between atoms: C11_20  and  C12_21 
REMARK    7  A    between atoms: C12_21  and  N6_22 
REMARK    8  A    between atoms: N6_22  and  C15_25 
REMARK    9  A    between atoms: C15_25  and  C16_26 
REMARK   10  A    between atoms: C16_26  and  C17_27 
REMARK   11  A    between atoms: C17_27  and  N7_28 
ROOT
HETATM    1  C5  UNL     1       4.218   0.225   2.302  1.00  0.00    -0.038 A 
HETATM    2  C6  UNL     1       3.971  -1.136   2.322  1.00  0.00     0.011 A 
HETATM    3  C7  UNL     1       2.795  -1.675   1.835  1.00  0.00     0.033 A 
HETATM    4  C8  UNL     1       1.812  -0.857   1.303  1.00  0.00     0.076 A 
HETATM    5  N4  UNL     1       0.605  -1.097   0.773  1.00  0.00    -0.190 N 
ATOM      6  H4  UNL     1       0.173  -2.015   0.665  1.00  0.00     0.184 HD
HETATM    7  C9  UNL     1       0.063   0.069   0.410  1.00  0.00     0.679 A 
HETATM    8  N10 UNL     1       0.945   1.029   0.721  1.00  0.00    -0.190 N 
ATOM      9  H10 UNL     1       0.800   2.025   0.557  1.00  0.00     0.184 HD
HETATM   10  C19 UNL     1       2.045   0.501   1.278  1.00  0.00     0.077 A 
HETATM   11  C20 UNL     1       3.235   1.034   1.771  1.00  0.00     0.041 A 
ENDROOT
BRANCH   7  12
HETATM   12  N5  UNL     1      -1.108   0.271  -0.146  1.00  0.00    -0.226 N 
ATOM     13  H5  UNL     1      -1.421   1.213  -0.382  1.00  0.00     0.177 HD
BRANCH  12  14
HETATM   14  C10 UNL     1      -1.948  -0.888  -0.417  1.00  0.00     0.139 C 
BRANCH  14  15
HETATM   15  C11 UNL     1      -2.966  -0.601  -1.476  1.00  0.00     0.048 C 
BRANCH  15  16
HETATM   16  C12 UNL     1      -3.861  -1.732  -1.826  1.00  0.00     0.238 C 
BRANCH  16  17
HETATM   17  N6  UNL     1      -4.684  -2.263  -0.795  1.00  0.00    -0.075 N 
HETATM   18  C13 UNL     1      -5.755  -3.020  -1.485  1.00  0.00     0.272 C 
HETATM   19  C14 UNL     1      -4.059  -3.191   0.097  1.00  0.00     0.272 C 
BRANCH  17  20
HETATM   20  C15 UNL     1      -5.385  -1.265  -0.018  1.00  0.00     0.238 C 
BRANCH  20  21
HETATM   21  C16 UNL     1      -6.427  -0.541  -0.844  1.00  0.00     0.047 C 
BRANCH  21  22
HETATM   22  C17 UNL     1      -7.145   0.503   0.007  1.00  0.00     0.123 C 
BRANCH  22  23
HETATM   23  N7  UNL     1      -8.141   1.204  -0.762  1.00  0.00    -0.367 N 
HETATM   24  C18 UNL     1      -8.572   2.376  -0.478  1.00  0.00     0.196 C 
HETATM   25  N8  UNL     1      -9.563   2.929  -1.345  1.00  0.00    -0.067 NA
HETATM   26  N9  UNL     1      -8.121   3.136   0.635  1.00  0.00    -0.067 NA
ATOM     27  H7  UNL     1      -8.527   0.738  -1.583  1.00  0.00     0.161 HD
ENDBRANCH  22  23
ENDBRANCH  21  22
ENDBRANCH  20  21
ENDBRANCH  17  20
ENDBRANCH  16  17
ENDBRANCH  15  16
ENDBRANCH  14  15
ENDBRANCH  12  14
ENDBRANCH   7  12
BRANCH   1  28
HETATM   28  C4  UNL     1       5.477   0.759   2.827  1.00  0.00     0.169 C 
BRANCH  28  29
HETATM   29  N3  UNL     1       6.528   0.856   1.833  1.00  0.00    -0.334 N 
HETATM   30  C3  UNL     1       7.391  -0.148   1.593  1.00  0.00     0.201 A 
HETATM   31  N2  UNL     1       8.366  -0.056   0.670  1.00  0.00    -0.188 N 
HETATM   32  C2  UNL     1       8.521   1.060  -0.064  1.00  0.00     0.681 A 
ATOM     33  H2  UNL     1       8.997  -0.844   0.525  1.00  0.00     0.185 HD
HETATM   34  N1  UNL     1       9.453   1.161  -0.953  1.00  0.00    -0.230 N 
HETATM   35  N11 UNL     1       7.660   2.065   0.173  1.00  0.00    -0.184 N 
HETATM   36  C1  UNL     1      10.351   0.033  -1.158  1.00  0.00     0.165 C 
ATOM     37  H1  UNL     1       9.558   2.015  -1.501  1.00  0.00     0.177 HD
HETATM   38  C21 UNL     1       6.684   1.974   1.097  1.00  0.00     0.204 A 
HETATM   39  C22 UNL     1       7.820   3.284  -0.621  1.00  0.00     0.176 C 
ENDBRANCH  28  29
ENDBRANCH   1  28
TORSDOF 11
