REMARK  13 active torsions:
REMARK  status: ('A' for Active; 'I' for Inactive)
REMARK    1  A    between atoms: C4_5  and  N2_6 
REMARK    2  A    between atoms: N2_6  and  C5_8 
REMARK    3  A    between atoms: C5_8  and  N3_10 
REMARK    4  A    between atoms: C7_17  and  C8_18 
REMARK       I    between atoms: C8_18  and  N7_20 
REMARK    5  A    between atoms: N7_20  and  C9_22 
REMARK    6  A    between atoms: C11_24  and  C12_25 
REMARK    7  A    between atoms: C12_25  and  C13_26 
REMARK    8  A    between atoms: C13_26  and  C14_27 
REMARK    9  A    between atoms: C14_27  and  N8_28 
REMARK   10  A    between atoms: N8_28  and  C15_31 
REMARK   11  A    between atoms: C15_31  and  C16_32 
REMARK   12  A    between atoms: C16_32  and  C17_33 
REMARK   13  A    between atoms: C17_33  and  N9_34 
ROOT
HETATM    1  C1  UNL     1       0.348   3.177  -0.124  1.00  0.00     0.124 C 
HETATM    2  C2  UNL     1       1.155   2.263   0.036  1.00  0.00    -0.068 C 
HETATM    3  N1  UNL     1       2.092   1.241   0.238  1.00  0.00    -0.290 N 
HETATM    4  C3  UNL     1       3.215   1.490   0.940  1.00  0.00     0.154 A 
HETATM    5  C4  UNL     1       4.124   0.477   1.134  1.00  0.00     0.124 A 
HETATM    6  N6  UNL     1       3.876  -0.733   0.622  1.00  0.00    -0.335 N 
ATOM      7  H6  UNL     1       4.563  -1.470   0.779  1.00  0.00     0.168 HD
HETATM    8  C7  UNL     1       2.756  -1.041  -0.099  1.00  0.00     0.126 A 
HETATM    9  C11 UNL     1       1.863  -0.010  -0.276  1.00  0.00     0.056 A 
ENDROOT
BRANCH   9  10
HETATM   10  C12 UNL     1       0.600  -0.204  -0.984  1.00  0.00     0.062 C 
BRANCH  10  11
HETATM   11  C13 UNL     1      -0.423  -0.830  -0.063  1.00  0.00     0.033 C 
BRANCH  11  12
HETATM   12  C14 UNL     1      -1.742  -1.069  -0.797  1.00  0.00     0.232 C 
BRANCH  12  13
HETATM   13  N8  UNL     1      -2.645  -1.661   0.138  1.00  0.00    -0.075 N 
ATOM     14  H82 UNL     1      -2.235  -2.497   0.555  1.00  0.00     0.277 HD
ATOM     15  H81 UNL     1      -2.732  -1.080   0.972  1.00  0.00     0.277 HD
BRANCH  13  16
HETATM   16  C15 UNL     1      -3.945  -1.954  -0.416  1.00  0.00     0.233 C 
BRANCH  16  17
HETATM   17  C16 UNL     1      -4.730  -0.711  -0.754  1.00  0.00     0.055 C 
BRANCH  17  18
HETATM   18  C17 UNL     1      -4.952   0.133   0.497  1.00  0.00     0.237 C 
BRANCH  18  19
HETATM   19  N9  UNL     1      -5.694   1.323   0.226  1.00  0.00    -0.079 N 
HETATM   20  C18 UNL     1      -7.081   1.093   0.551  1.00  0.00     0.271 C 
HETATM   21  C19 UNL     1      -5.620   1.689  -1.185  1.00  0.00     0.271 C 
HETATM   22  C20 UNL     1      -5.228   2.443   1.022  1.00  0.00     0.271 C 
ENDBRANCH  18  19
ENDBRANCH  17  18
ENDBRANCH  16  17
ENDBRANCH  13  16
ENDBRANCH  12  13
ENDBRANCH  11  12
ENDBRANCH  10  11
ENDBRANCH   9  10
BRANCH   5  23
HETATM   23  N2  UNL     1       5.195   0.731   1.809  1.00  0.00    -0.318 N 
ATOM     24  H2  UNL     1       5.877  -0.013   1.959  1.00  0.00     0.170 HD
BRANCH  23  25
HETATM   25  C5  UNL     1       5.446   2.018   2.346  1.00  0.00     0.179 C 
HETATM   26  S1  UNL     1       5.245   2.248   3.946  1.00  0.00    -0.040 SA
BRANCH  25  27
HETATM   27  N3  UNL     1       5.864   3.118   1.557  1.00  0.00    -0.310 N 
HETATM   28  C6  UNL     1       6.919   3.147   0.838  1.00  0.00     0.203 C 
HETATM   29  N4  UNL     1       7.770   2.025   0.787  1.00  0.00    -0.066 NA
HETATM   30  N5  UNL     1       7.234   4.301   0.093  1.00  0.00    -0.066 NA
ATOM     31  H3  UNL     1       5.276   3.952   1.564  1.00  0.00     0.170 HD
ENDBRANCH  25  27
ENDBRANCH  23  25
ENDBRANCH   5  23
BRANCH   8  32
HETATM   32  C8  UNL     1       2.551  -2.369  -0.633  1.00  0.00     0.270 C 
HETATM   33  O1  UNL     1       1.640  -2.682  -1.430  1.00  0.00    -0.266 OA
HETATM   34  N7  UNL     1       3.408  -3.428  -0.265  1.00  0.00    -0.356 N 
ATOM     35  H7  UNL     1       4.178  -3.262   0.382  1.00  0.00     0.162 HD
BRANCH  34  36
HETATM   36  C9  UNL     1       3.190  -4.749  -0.809  1.00  0.00     0.118 C 
HETATM   37  C10 UNL     1       1.817  -5.282  -0.438  1.00  0.00     0.026 C 
ENDBRANCH  34  36
ENDBRANCH   8  32
TORSDOF 13
