REMARK  7 active torsions:
REMARK  status: ('A' for Active; 'I' for Inactive)
REMARK       I    between atoms: C2_2  and  N1_4 
REMARK    1  A    between atoms: N1_4  and  C3_6 
REMARK    2  A    between atoms: C3_6  and  N2_8 
REMARK    3  A    between atoms: N2_8  and  N3_10 
REMARK       I    between atoms: N3_10  and  C4_12 
REMARK    4  A    between atoms: C4_12  and  C5_14 
REMARK    5  A    between atoms: C8_18  and  C9_19 
REMARK    6  A    between atoms: C9_19  and  O4_20 
REMARK    7  A    between atoms: C9_19  and  O5_22 
ROOT
HETATM    1  N3  UNL     1       0.995   0.536   0.585  1.00  0.00    -0.268 N 
ATOM      2  H3  UNL     1       0.779  -0.159   1.299  1.00  0.00     0.190 HD
HETATM    3  C4  UNL     1      -0.087   1.195  -0.072  1.00  0.00     0.240 C 
HETATM    4  O2  UNL     1       0.243   2.055  -0.956  1.00  0.00    -0.271 OA
ENDROOT
BRANCH   3   5
HETATM    5  C5  UNL     1      -1.496   0.930   0.221  1.00  0.00     0.084 C 
HETATM    6  C6  UNL     1      -1.863   1.213   1.674  1.00  0.00     0.040 C 
HETATM    7  C7  UNL     1      -3.394   1.110   1.686  1.00  0.00     0.169 C 
HETATM    8  O3  UNL     1      -3.780  -0.166   1.482  1.00  0.00    -0.381 OA
HETATM    9  C8  UNL     1      -3.178  -0.918   0.546  1.00  0.00     0.176 C 
HETATM   10  C10 UNL     1      -1.921  -0.484  -0.054  1.00  0.00     0.051 C 
BRANCH   9  11
HETATM   11  C9  UNL     1      -4.201  -1.130  -0.583  1.00  0.00     0.282 C 
BRANCH  11  12
HETATM   12  O4  UNL     1      -3.648  -1.907  -1.597  1.00  0.00    -0.369 OA
ATOM     13  H4  UNL     1      -4.280  -2.038  -2.294  1.00  0.00     0.212 HD
ENDBRANCH  11  12
BRANCH  11  14
HETATM   14  O5  UNL     1      -4.577   0.116  -1.078  1.00  0.00    -0.369 OA
ATOM     15  H5  UNL     1      -5.209  -0.015  -1.775  1.00  0.00     0.212 HD
ENDBRANCH  11  14
ENDBRANCH   9  11
ENDBRANCH   3   5
BRANCH   1  16
HETATM   16  N2  UNL     1       2.320   0.795   0.300  1.00  0.00    -0.273 N 
ATOM     17  H2  UNL     1       2.665   1.743   0.448  1.00  0.00     0.189 HD
BRANCH  16  18
HETATM   18  C3  UNL     1       3.230  -0.174  -0.185  1.00  0.00     0.193 C 
HETATM   19  S1  UNL     1       2.648  -1.682  -0.409  1.00  0.00    -0.039 SA
BRANCH  18  20
HETATM   20  N1  UNL     1       4.581   0.121  -0.469  1.00  0.00    -0.303 N 
HETATM   21  C2  UNL     1       5.486  -0.851  -0.953  1.00  0.00     0.219 C 
HETATM   22  C1  UNL     1       6.907  -0.545  -1.252  1.00  0.00     0.117 C 
HETATM   23  O1  UNL     1       5.085  -2.021  -1.139  1.00  0.00    -0.274 OA
ATOM     24  H1  UNL     1       4.917   1.072  -0.319  1.00  0.00     0.171 HD
ENDBRANCH  18  20
ENDBRANCH  16  18
ENDBRANCH   1  16
TORSDOF 7
