REMARK  10 active torsions:
REMARK  status: ('A' for Active; 'I' for Inactive)
REMARK    1  A    between atoms: C3_3  and  C4_4 
REMARK    2  A    between atoms: C5_5  and  C6_6 
REMARK    3  A    between atoms: C8_8  and  O1_9 
REMARK    4  A    between atoms: C8_8  and  C9_11 
REMARK    5  A    between atoms: C9_11  and  O2_12 
REMARK    6  A    between atoms: C10_14  and  O3_15 
REMARK    7  A    between atoms: C12_18  and  O4_19 
REMARK    8  A    between atoms: O4_19  and  C13_20 
REMARK    9  A    between atoms: C13_20  and  C14_22 
REMARK   10  A    between atoms: C14_22  and  O6_23 
ROOT
HETATM    1  C6  UNL     1      -0.052  -0.645  -0.148  1.00  0.00     0.056 C 
HETATM    2  C7  UNL     1      -0.996  -0.920   0.999  1.00  0.00     0.068 C 
HETATM    3  C8  UNL     1      -2.297  -1.386   0.374  1.00  0.00     0.111 C 
HETATM    4  C10 UNL     1      -2.009  -1.256  -1.099  1.00  0.00     0.095 C 
HETATM    5  C11 UNL     1      -1.827   0.215  -1.415  1.00  0.00     0.075 C 
HETATM    6  C12 UNL     1      -0.458   0.601  -0.850  1.00  0.00     0.155 C 
HETATM    7  C15 UNL     1      -0.558  -1.705  -1.142  1.00  0.00     0.066 C 
ENDROOT
BRANCH   6   8
HETATM    8  O4  UNL     1      -0.544   1.723  -0.023  1.00  0.00    -0.312 OA
BRANCH   8   9
HETATM    9  C13 UNL     1       0.200   2.844  -0.331  1.00  0.00     0.282 C 
HETATM   10  O5  UNL     1       0.939   2.831  -1.348  1.00  0.00    -0.263 OA
BRANCH   9  11
HETATM   11  C14 UNL     1       0.167   4.078   0.495  1.00  0.00     0.275 C 
BRANCH  11  12
HETATM   12  O6  UNL     1       1.008   5.051  -0.038  1.00  0.00    -0.391 OA
ATOM     13  H6  UNL     1       0.987   5.840   0.490  1.00  0.00     0.210 HD
ENDBRANCH  11  12
ENDBRANCH   9  11
ENDBRANCH   8   9
ENDBRANCH   6   8
BRANCH   1  14
HETATM   14  C5  UNL     1       1.328  -0.778   0.163  1.00  0.00    -0.089 C 
HETATM   15  C4  UNL     1       2.496  -0.870   0.432  1.00  0.00    -0.078 C 
BRANCH  15  16
HETATM   16  C3  UNL     1       3.909  -1.007   0.760  1.00  0.00     0.060 C 
HETATM   17  C2  UNL     1       4.755  -0.068   0.417  1.00  0.00    -0.022 C 
HETATM   18  C1  UNL     1       4.281   1.126  -0.299  1.00  0.00     0.036 C 
ENDBRANCH  15  16
ENDBRANCH   1  14
BRANCH   4  19
HETATM   19  O3  UNL     1      -2.837  -1.924  -1.924  1.00  0.00    -0.387 OA
ATOM     20  H3  UNL     1      -2.655  -1.842  -2.853  1.00  0.00     0.210 HD
ENDBRANCH   4  19
BRANCH   3  21
HETATM   21  O1  UNL     1      -3.367  -0.581   0.759  1.00  0.00    -0.384 OA
ATOM     22  H1  UNL     1      -4.182  -0.873   0.368  1.00  0.00     0.210 HD
ENDBRANCH   3  21
BRANCH   3  23
HETATM   23  C9  UNL     1      -2.519  -2.813   0.796  1.00  0.00     0.205 C 
BRANCH  23  24
HETATM   24  O2  UNL     1      -3.667  -3.343   0.226  1.00  0.00    -0.398 OA
ATOM     25  H2  UNL     1      -3.807  -4.244   0.492  1.00  0.00     0.209 HD
ENDBRANCH  23  24
ENDBRANCH   3  23
TORSDOF 10
