REMARK  4 active torsions:
REMARK  status: ('A' for Active; 'I' for Inactive)
REMARK    1  A    between atoms: N1_1  and  C1_4 
REMARK    2  A    between atoms: C2_7  and  N3_8 
REMARK    3  A    between atoms: C10_20  and  C11_21 
REMARK    4  A    between atoms: C11_21  and  C12_22 
ROOT
HETATM    1  C1  UNL     1      -3.462  -0.896  -2.091  1.00  0.00     0.680 A 
HETATM    2  N2  UNL     1      -2.223  -0.539  -1.733  1.00  0.00    -0.176 N 
ATOM      3  H2  UNL     1      -1.514  -0.433  -2.459  1.00  0.00     0.186 HD
HETATM    4  C2  UNL     1      -1.871  -0.312  -0.436  1.00  0.00     0.136 A 
HETATM    5  C10 UNL     1      -2.834  -0.459   0.511  1.00  0.00     0.061 A 
HETATM    6  C13 UNL     1      -4.124  -0.832   0.127  1.00  0.00     0.270 A 
HETATM    7  O2  UNL     1      -4.995  -0.962   1.018  1.00  0.00    -0.267 OA
HETATM    8  N6  UNL     1      -4.416  -1.042  -1.154  1.00  0.00    -0.156 N 
ATOM      9  H6  UNL     1      -5.361  -1.313  -1.425  1.00  0.00     0.187 HD
ENDROOT
BRANCH   4  10
HETATM   10  N3  UNL     1      -0.515   0.030  -0.191  1.00  0.00    -0.328 N 
HETATM   11  C3  UNL     1      -0.077   1.369   0.116  1.00  0.00     0.133 C 
HETATM   12  C4  UNL     1       1.097   1.835  -0.724  1.00  0.00     0.039 C 
HETATM   13  C5  UNL     1       2.350   2.011   0.120  1.00  0.00     0.115 C 
HETATM   14  N4  UNL     1       3.310   1.066  -0.393  1.00  0.00    -0.421 N 
HETATM   15  C6  UNL     1       4.116   0.419   0.593  1.00  0.00     0.115 C 
ATOM     16  H4  UNL     1       3.407   0.873  -1.390  1.00  0.00     0.153 HD
HETATM   17  C7  UNL     1       3.994  -1.085   0.561  1.00  0.00     0.039 C 
HETATM   18  C8  UNL     1       2.715  -1.547  -0.108  1.00  0.00     0.122 C 
HETATM   19  N5  UNL     1       1.535  -1.039   0.568  1.00  0.00    -0.386 N 
HETATM   20  C9  UNL     1       0.415  -1.083  -0.310  1.00  0.00     0.180 C 
ATOM     21  H5  UNL     1       1.512  -0.701   1.530  1.00  0.00     0.160 HD
ENDBRANCH   4  10
BRANCH   5  22
HETATM   22  C11 UNL     1      -2.556  -0.184   1.946  1.00  0.00     0.117 C 
BRANCH  22  23
HETATM   23  C12 UNL     1      -2.649   1.261   2.263  1.00  0.00     0.236 C 
HETATM   24  O1  UNL     1      -2.470   1.659   3.375  1.00  0.00    -0.307 OA
ENDBRANCH  22  23
ENDBRANCH   5  22
BRANCH   1  25
HETATM   25  N1  UNL     1      -3.775  -1.106  -3.318  1.00  0.00    -0.234 N 
ATOM     26  H12 UNL     1      -3.052  -0.995  -4.029  1.00  0.00     0.174 HD
ATOM     27  H11 UNL     1      -4.719  -1.378  -3.591  1.00  0.00     0.174 HD
ENDBRANCH   1  25
TORSDOF 4
