REMARK  6 active torsions:
REMARK  status: ('A' for Active; 'I' for Inactive)
REMARK    1  A    between atoms: C1_2  and  C2_3 
REMARK    2  A    between atoms: C1_2  and  C3_10 
REMARK    3  A    between atoms: C2_3  and  O2_4 
REMARK    4  A    between atoms: N1_6  and  O3_8 
REMARK    5  A    between atoms: C8_15  and  N2_16 
REMARK    6  A    between atoms: N2_16  and  C9_18 
ROOT
HETATM    1  C3  UNL     1       1.757  -0.405  -0.223  1.00  0.00     0.045 A 
HETATM    2  C4  UNL     1       2.639  -1.449   0.073  1.00  0.00     0.018 A 
HETATM    3  C5  UNL     1       2.236  -2.758   0.310  1.00  0.00     0.001 A 
HETATM    4  C6  UNL     1       0.914  -3.064   0.257  1.00  0.00     0.002 A 
HETATM    5  C7  UNL     1       0.021  -2.061  -0.033  1.00  0.00     0.030 A 
HETATM    6  C8  UNL     1       0.417  -0.738  -0.275  1.00  0.00     0.042 A 
ENDROOT
BRANCH   1   7
HETATM    7  C1  UNL     1       2.228   0.940  -0.395  1.00  0.00     0.236 C 
HETATM    8  O1  UNL     1       1.381   1.883  -0.543  1.00  0.00    -0.283 OA
BRANCH   7   9
HETATM    9  C2  UNL     1       3.599   1.368  -0.421  1.00  0.00     0.212 C 
HETATM   10  N1  UNL     1       3.916   2.639  -0.581  1.00  0.00    -0.244 N 
ATOM     11  H1  UNL     1       4.900   2.907  -0.595  1.00  0.00     0.196 HD
BRANCH   9  12
HETATM   12  O2  UNL     1       4.706   0.560  -0.292  1.00  0.00    -0.342 OA
ATOM     13  H2  UNL     1       5.613   0.843  -0.309  1.00  0.00     0.219 HD
ENDBRANCH   9  12
BRANCH  10  14
HETATM   14  O3  UNL     1       2.971   3.596  -0.727  1.00  0.00    -0.288 OA
ATOM     15  H3  UNL     1       3.199   4.511  -0.842  1.00  0.00     0.244 HD
ENDBRANCH  10  14
ENDBRANCH   7   9
ENDBRANCH   1   7
BRANCH   6  16
HETATM   16  N2  UNL     1      -0.612   0.166  -0.633  1.00  0.00    -0.382 N 
ATOM     17  H2  UNL     1      -0.377   1.079  -1.021  1.00  0.00     0.160 HD
BRANCH  16  18
HETATM   18  C9  UNL     1      -2.011  -0.210  -0.446  1.00  0.00     0.113 C 
HETATM   19  C10 UNL     1      -2.339  -0.395   1.049  1.00  0.00     0.059 C 
HETATM   20  C11 UNL     1      -3.361   0.728   1.147  1.00  0.00     0.126 C 
HETATM   21  C12 UNL     1      -4.224   0.595  -0.067  1.00  0.00     0.066 C 
HETATM   22  O4  UNL     1      -2.692   1.763   0.460  1.00  0.00    -0.378 OA
HETATM   23  C13 UNL     1      -2.899   0.985  -0.687  1.00  0.00     0.147 C 
ENDBRANCH  16  18
ENDBRANCH   6  16
TORSDOF 6
