REMARK  7 active torsions:
REMARK  status: ('A' for Active; 'I' for Inactive)
REMARK    1  A    between atoms: C2_2  and  C10_17 
REMARK    2  A    between atoms: C3_3  and  C4_4 
REMARK    3  A    between atoms: C4_4  and  C5_5 
REMARK    4  A    between atoms: C7_9  and  C8_10 
REMARK    5  A    between atoms: C8_10  and  O1_11 
REMARK    6  A    between atoms: C10_17  and  O2_18 
REMARK    7  A    between atoms: N2_20  and  N3_22 
ROOT
HETATM    1  C5  UNL     1      -0.398  -1.282  -1.577  1.00  0.00     0.094 C 
HETATM    2  S1  UNL     1      -0.799  -2.911  -0.857  1.00  0.00    -0.090 SA
HETATM    3  S2  UNL     1      -1.654  -2.111   0.956  1.00  0.00    -0.088 SA
HETATM    4  C6  UNL     1      -1.446  -0.374   0.489  1.00  0.00     0.123 C 
HETATM    5  C7  UNL     1      -2.840   0.172   0.134  1.00  0.00     0.226 C 
HETATM    6  N1  UNL     1      -2.619  -0.359  -1.199  1.00  0.00    -0.061 N 
ATOM      7  H11 UNL     1      -3.034   0.086  -2.018  1.00  0.00     0.278 HD
ATOM      8  H12 UNL     1      -3.041  -1.241  -1.490  1.00  0.00     0.278 HD
HETATM    9  C9  UNL     1      -1.210  -0.263  -0.940  1.00  0.00     0.217 C 
ENDROOT
BRANCH   1  10
HETATM   10  C4  UNL     1       1.094  -1.036  -1.565  1.00  0.00     0.046 C 
BRANCH  10  11
HETATM   11  C3  UNL     1       1.706  -1.044  -0.275  1.00  0.00    -0.014 C 
HETATM   12  C2  UNL     1       2.323  -0.042   0.295  1.00  0.00    -0.013 C 
HETATM   13  C1  UNL     1       2.500   1.301  -0.301  1.00  0.00     0.052 C 
BRANCH  12  14
HETATM   14  C10 UNL     1       2.915  -0.213   1.650  1.00  0.00     0.160 C 
HETATM   15  N2  UNL     1       3.530   0.644   2.304  1.00  0.00    -0.286 N 
ATOM     16  H2  UNL     1       3.854   0.322   3.216  1.00  0.00     0.188 HD
BRANCH  14  17
HETATM   17  O2  UNL     1       2.742  -1.496   2.225  1.00  0.00    -0.345 OA
ATOM     18  H2  UNL     1       3.120  -1.605   3.090  1.00  0.00     0.219 HD
ENDBRANCH  14  17
BRANCH  15  19
HETATM   19  N3  UNL     1       3.849   1.935   2.023  1.00  0.00    -0.343 N 
ATOM     20  H32 UNL     1       3.516   2.237   1.107  1.00  0.00     0.176 HD
ATOM     21  H31 UNL     1       4.354   2.639   2.560  1.00  0.00     0.176 HD
ENDBRANCH  15  19
ENDBRANCH  12  14
ENDBRANCH  10  11
ENDBRANCH   1  10
BRANCH   5  22
HETATM   22  C8  UNL     1      -2.931   1.679   0.155  1.00  0.00     0.198 C 
BRANCH  22  23
HETATM   23  O1  UNL     1      -3.141   2.143   1.439  1.00  0.00    -0.399 OA
ATOM     24  H1  UNL     1      -3.198   3.091   1.452  1.00  0.00     0.209 HD
ENDBRANCH  22  23
ENDBRANCH   5  22
TORSDOF 7
