REMARK  4 active torsions:
REMARK  status: ('A' for Active; 'I' for Inactive)
REMARK       I    between atoms: C1_2  and  N4_13 
REMARK    1  A    between atoms: N2_3  and  N3_5 
REMARK    2  A    between atoms: C2_7  and  C3_8 
REMARK    3  A    between atoms: N4_13  and  N5_15 
REMARK    4  A    between atoms: N5_15  and  C7_17 
ROOT
HETATM    1  N1  UNL     1       0.927   1.918   0.424  1.00  0.00    -0.061 NA
HETATM    2  C1  UNL     1       0.209   0.686   0.451  1.00  0.00     0.222 C 
HETATM    3  N2  UNL     1       0.833  -0.404   0.302  1.00  0.00    -0.273 N 
ATOM      4  H2  UNL     1       0.300  -1.273   0.324  1.00  0.00     0.189 HD
HETATM    5  N4  UNL     1      -1.177   0.703   0.634  1.00  0.00    -0.272 N 
ATOM      6  H4  UNL     1      -1.630   1.523   1.037  1.00  0.00     0.189 HD
ENDROOT
BRANCH   3   7
HETATM    7  N3  UNL     1       2.189  -0.478   0.113  1.00  0.00    -0.308 N 
HETATM    8  C2  UNL     1       3.081  -0.020   0.919  1.00  0.00     0.126 C 
ATOM      9  H3  UNL     1       2.518  -0.934  -0.738  1.00  0.00     0.186 HD
BRANCH   8  10
HETATM   10  C3  UNL     1       4.502  -0.201   0.533  1.00  0.00     0.021 A 
HETATM   11  C4  UNL     1       4.982  -0.818  -0.593  1.00  0.00     0.021 A 
HETATM   12  C5  UNL     1       6.306  -0.867  -0.750  1.00  0.00     0.008 A 
HETATM   13  C6  UNL     1       7.077  -0.296   0.229  1.00  0.00     0.050 A 
HETATM   14  S1  UNL     1       5.918   0.291   1.335  1.00  0.00    -0.101 SA
ENDBRANCH   8  10
ENDBRANCH   3   7
BRANCH   5  15
HETATM   15  N5  UNL     1      -1.935  -0.400   0.265  1.00  0.00    -0.298 N 
ATOM     16  H5  UNL     1      -1.465  -1.295   0.131  1.00  0.00     0.187 HD
BRANCH  15  17
HETATM   17  C7  UNL     1      -3.340  -0.331   0.067  1.00  0.00     0.048 A 
HETATM   18  C8  UNL     1      -3.863  -0.563  -1.180  1.00  0.00     0.031 A 
HETATM   19  C9  UNL     1      -5.237  -0.489  -1.375  1.00  0.00     0.002 A 
HETATM   20  C10 UNL     1      -6.091  -0.185  -0.335  1.00  0.00     0.000 A 
HETATM   21  C11 UNL     1      -5.570   0.048   0.918  1.00  0.00     0.002 A 
HETATM   22  C12 UNL     1      -4.203  -0.026   1.110  1.00  0.00     0.031 A 
ENDBRANCH  15  17
ENDBRANCH   5  15
TORSDOF 4
