REMARK  11 active torsions:
REMARK  status: ('A' for Active; 'I' for Inactive)
REMARK    1  A    between atoms: C2_2  and  C3_3 
REMARK    2  A    between atoms: C3_3  and  N1_5 
REMARK       I    between atoms: N1_5  and  C5_7 
REMARK    3  A    between atoms: C5_7  and  C6_9 
REMARK    4  A    between atoms: C6_9  and  C7_10 
REMARK    5  A    between atoms: C11_14  and  C12_15 
REMARK    6  A    between atoms: C17_28  and  C18_29 
REMARK    7  A    between atoms: C18_29  and  C20_31 
REMARK    8  A    between atoms: C20_31  and  C21_32 
REMARK    9  A    between atoms: C21_32  and  N6_33 
REMARK   10  A    between atoms: C26_41  and  C27_42 
REMARK   11  A    between atoms: C27_42  and  C28_43 
ROOT
HETATM    1  C7  UNL     1       2.656   0.394   1.159  1.00  0.00     0.096 C 
HETATM    2  C8  UNL     1       2.556   0.971  -0.230  1.00  0.00     0.052 C 
HETATM    3  C9  UNL     1       2.928   2.406  -0.280  1.00  0.00    -0.026 C 
HETATM    4  C10 UNL     1       2.238   3.440  -0.660  1.00  0.00     0.003 C 
HETATM    5  C11 UNL     1       0.838   3.485  -1.169  1.00  0.00     0.194 C 
HETATM    6  N3  UNL     1      -0.103   3.129  -0.144  1.00  0.00    -0.370 N 
ATOM      7  H3  UNL     1      -0.074   2.147   0.132  1.00  0.00     0.161 HD
HETATM    8  C13 UNL     1      -1.057   3.899   0.545  1.00  0.00     0.174 C 
HETATM    9  N4  UNL     1      -2.224   4.270   0.150  1.00  0.00    -0.373 N 
HETATM   10  C14 UNL     1      -3.037   5.087   1.075  1.00  0.00     0.150 C 
HETATM   11  C15 UNL     1      -2.862   3.954  -1.107  1.00  0.00     0.225 C 
HETATM   12  C16 UNL     1      -3.886   2.887  -0.960  1.00  0.00     0.236 C 
HETATM   13  O3  UNL     1      -4.931   3.101  -1.689  1.00  0.00    -0.272 OA
HETATM   14  N5  UNL     1      -3.867   1.748  -0.178  1.00  0.00    -0.346 N 
ATOM     15  H5  UNL     1      -4.697   1.632   0.403  1.00  0.00     0.163 HD
HETATM   16  C17 UNL     1      -2.891   0.688  -0.028  1.00  0.00     0.180 C 
HETATM   17  C25 UNL     1      -2.692   0.389   1.424  1.00  0.00     0.241 C 
HETATM   18  O4  UNL     1      -3.792  -0.031   1.972  1.00  0.00    -0.271 OA
HETATM   19  N7  UNL     1      -1.587   0.488   2.225  1.00  0.00    -0.346 N 
ATOM     20  H7  UNL     1      -1.652   1.197   2.956  1.00  0.00     0.163 HD
HETATM   21  C26 UNL     1      -0.312  -0.266   2.204  1.00  0.00     0.177 C 
HETATM   22  C31 UNL     1       0.694   0.678   2.763  1.00  0.00     0.240 C 
HETATM   23  O5  UNL     1       0.360   1.186   3.893  1.00  0.00    -0.271 OA
HETATM   24  N8  UNL     1       1.923   1.044   2.174  1.00  0.00    -0.354 N 
ATOM     25  H8  UNL     1       2.341   1.902   2.534  1.00  0.00     0.162 HD
ENDROOT
BRANCH   1  26
HETATM   26  C6  UNL     1       4.093   0.122   1.466  1.00  0.00     0.128 C 
BRANCH  26  27
HETATM   27  C5  UNL     1       4.629  -0.903   0.558  1.00  0.00     0.219 C 
HETATM   28  N1  UNL     1       6.028  -1.126   0.382  1.00  0.00    -0.357 N 
ATOM     29  H1  UNL     1       6.683  -0.546   0.906  1.00  0.00     0.162 HD
HETATM   30  O1  UNL     1       3.859  -1.632  -0.107  1.00  0.00    -0.274 OA
BRANCH  28  31
HETATM   31  C3  UNL     1       6.555  -2.130  -0.499  1.00  0.00     0.080 C 
HETATM   32  C4  UNL     1       7.528  -3.065   0.142  1.00  0.00     0.032 C 
BRANCH  31  33
HETATM   33  C2  UNL     1       7.208  -1.508  -1.720  1.00  0.00     0.020 C 
HETATM   34  C1  UNL     1       8.443  -0.729  -1.417  1.00  0.00     0.007 C 
ENDBRANCH  31  33
ENDBRANCH  28  31
ENDBRANCH  26  27
ENDBRANCH   1  26
BRANCH  21  35
HETATM   35  C27 UNL     1      -0.544  -1.397   3.163  1.00  0.00     0.038 C 
BRANCH  35  36
HETATM   36  C28 UNL     1       0.477  -2.414   3.396  1.00  0.00    -0.020 C 
HETATM   37  C29 UNL     1       1.801  -2.065   3.953  1.00  0.00     0.009 C 
HETATM   38  C30 UNL     1      -0.129  -3.451   4.387  1.00  0.00     0.009 C 
ENDBRANCH  35  36
ENDBRANCH  21  35
BRANCH   5  39
HETATM   39  C12 UNL     1       0.705   2.669  -2.405  1.00  0.00     0.257 C 
HETATM   40  N2  UNL     1       1.621   2.933  -3.445  1.00  0.00    -0.060 NA
HETATM   41  O2  UNL     1      -0.141   1.782  -2.587  1.00  0.00    -0.274 OA
ENDBRANCH   5  39
BRANCH  16  42
HETATM   42  C18 UNL     1      -3.498  -0.613  -0.606  1.00  0.00     0.015 C 
HETATM   43  C19 UNL     1      -2.430  -1.659  -0.389  1.00  0.00     0.012 C 
BRANCH  42  44
HETATM   44  C20 UNL     1      -3.632  -0.454  -2.102  1.00  0.00     0.034 C 
BRANCH  44  45
HETATM   45  C21 UNL     1      -4.210  -1.621  -2.792  1.00  0.00     0.236 C 
BRANCH  45  46
HETATM   46  N6  UNL     1      -5.528  -2.027  -2.415  1.00  0.00    -0.079 N 
HETATM   47  C22 UNL     1      -5.565  -3.091  -1.427  1.00  0.00     0.271 C 
HETATM   48  C23 UNL     1      -6.127  -2.621  -3.628  1.00  0.00     0.271 C 
HETATM   49  C24 UNL     1      -6.398  -0.958  -2.032  1.00  0.00     0.271 C 
ENDBRANCH  45  46
ENDBRANCH  44  45
ENDBRANCH  42  44
ENDBRANCH  16  42
TORSDOF 11
