REMARK  13 active torsions:
REMARK  status: ('A' for Active; 'I' for Inactive)
REMARK    1  A    between atoms: O1_2  and  C2_3 
REMARK    2  A    between atoms: N1_7  and  C6_8 
REMARK    3  A    between atoms: C6_8  and  C7_9 
REMARK    4  A    between atoms: C11_15  and  C12_16 
REMARK       I    between atoms: C12_16  and  N3_18 
REMARK    5  A    between atoms: N3_18  and  C13_20 
REMARK    6  A    between atoms: C13_20  and  C14_21 
REMARK    7  A    between atoms: C13_20  and  C18_31 
REMARK    8  A    between atoms: C14_21  and  C15_22 
REMARK    9  A    between atoms: C15_22  and  C16_23 
REMARK   10  A    between atoms: C16_23  and  N4_24 
REMARK       I    between atoms: N4_24  and  C17_26 
REMARK   11  A    between atoms: C26_41  and  C27_42 
REMARK   12  A    between atoms: C27_42  and  O4_43 
REMARK   13  A    between atoms: C27_42  and  N8_45 
ROOT
HETATM    1  C7  UNL     1      -0.182  -1.611  -1.032  1.00  0.00     0.107 C 
HETATM    2  N2  UNL     1      -0.064  -1.207   0.311  1.00  0.00    -0.411 N 
ATOM      3  H2  UNL     1      -0.903  -1.110   0.882  1.00  0.00     0.154 HD
HETATM    4  C8  UNL     1       1.184  -0.937   0.872  1.00  0.00     0.081 C 
HETATM    5  C9  UNL     1       1.647  -2.108   1.739  1.00  0.00     0.026 C 
HETATM    6  C10 UNL     1       3.114  -2.253   1.448  1.00  0.00     0.016 C 
HETATM    7  C11 UNL     1       3.503  -0.904   0.827  1.00  0.00     0.084 C 
HETATM    8  C19 UNL     1       2.306  -0.646  -0.072  1.00  0.00     0.021 C 
HETATM    9  C20 UNL     1       2.332  -1.484  -1.289  1.00  0.00     0.014 C 
HETATM   10  C21 UNL     1       1.069  -2.160  -1.676  1.00  0.00     0.006 C 
HETATM   11  C22 UNL     1       1.160  -3.685  -1.550  1.00  0.00     0.012 C 
ENDROOT
BRANCH   1  12
HETATM   12  C6  UNL     1      -0.772  -0.586  -1.954  1.00  0.00     0.268 C 
BRANCH  12  13
HETATM   13  N1  UNL     1      -2.098  -0.145  -1.643  1.00  0.00    -0.045 N 
HETATM   14  C5  UNL     1      -2.599   0.528  -2.851  1.00  0.00     0.243 C 
HETATM   15  C4  UNL     1      -3.800  -0.238  -3.332  1.00  0.00     0.037 C 
HETATM   16  C3  UNL     1      -4.289  -0.911  -2.067  1.00  0.00     0.043 C 
HETATM   17  C2  UNL     1      -5.309  -0.089  -1.354  1.00  0.00     0.138 C 
HETATM   18  C33 UNL     1      -3.018  -1.240  -1.415  1.00  0.00     0.250 C 
HETATM   19  C26 UNL     1      -5.003   0.291   0.029  1.00  0.00     0.093 C 
HETATM   20  C25 UNL     1      -4.433   1.702   0.066  1.00  0.00     0.044 C 
HETATM   21  C24 UNL     1      -2.932   1.571   0.060  1.00  0.00    -0.001 C 
HETATM   22  C23 UNL     1      -2.070   0.830  -0.632  1.00  0.00     0.198 C 
BRANCH  17  23
HETATM   23  O1  UNL     1      -6.516  -0.795  -1.405  1.00  0.00    -0.389 OA
HETATM   24  C1  UNL     1      -7.445  -0.259  -2.258  1.00  0.00     0.202 C 
ENDBRANCH  17  23
BRANCH  19  25
HETATM   25  C27 UNL     1      -6.106   0.238   1.011  1.00  0.00     0.120 C 
BRANCH  25  26
HETATM   26  O4  UNL     1      -6.096  -0.811   1.793  1.00  0.00    -0.349 OA
ATOM     27  H4  UNL     1      -6.805  -0.845   2.424  1.00  0.00     0.219 HD
ENDBRANCH  25  26
BRANCH  25  28
HETATM   28  N8  UNL     1      -7.154   1.110   1.244  1.00  0.00    -0.365 N 
HETATM   29  C28 UNL     1      -7.491   2.355   0.613  1.00  0.00     0.124 C 
HETATM   30  C29 UNL     1      -7.510   3.491   1.653  1.00  0.00     0.020 C 
HETATM   31  C30 UNL     1      -8.680   3.161   2.583  1.00  0.00     0.003 C 
HETATM   32  C31 UNL     1      -8.274   1.875   3.299  1.00  0.00     0.020 C 
HETATM   33  C32 UNL     1      -8.116   0.743   2.316  1.00  0.00     0.124 C 
ENDBRANCH  25  28
ENDBRANCH  19  25
ENDBRANCH  12  13
ENDBRANCH   1  12
BRANCH   7  34
HETATM   34  C12 UNL     1       4.785  -0.933   0.138  1.00  0.00     0.223 C 
HETATM   35  O2  UNL     1       4.880  -0.556  -1.050  1.00  0.00    -0.273 OA
HETATM   36  N3  UNL     1       5.940  -1.386   0.807  1.00  0.00    -0.348 N 
ATOM     37  H3  UNL     1       5.855  -1.692   1.776  1.00  0.00     0.163 HD
BRANCH  36  38
HETATM   38  C13 UNL     1       7.250  -1.435   0.173  1.00  0.00     0.173 C 
BRANCH  38  39
HETATM   39  C14 UNL     1       8.307  -0.863   1.073  1.00  0.00     0.036 C 
BRANCH  39  40
HETATM   40  C15 UNL     1       8.010   0.566   1.406  1.00  0.00     0.022 C 
BRANCH  40  41
HETATM   41  C16 UNL     1       7.992   1.392   0.148  1.00  0.00     0.122 C 
BRANCH  41  42
HETATM   42  N4  UNL     1       7.734   2.794   0.461  1.00  0.00    -0.365 N 
HETATM   43  C17 UNL     1       8.715   3.539   1.163  1.00  0.00     0.181 C 
HETATM   44  N5  UNL     1       9.946   3.373   0.888  1.00  0.00    -0.374 N 
HETATM   45  N6  UNL     1       8.279   4.452   2.158  1.00  0.00    -0.064 NA
ATOM     46  H52 UNL     1      10.259   2.717   0.173  1.00  0.00     0.158 HD
ATOM     47  H51 UNL     1      10.652   3.909   1.393  1.00  0.00     0.158 HD
ATOM     48  H4  UNL     1       6.858   3.233   0.178  1.00  0.00     0.162 HD
ENDBRANCH  41  42
ENDBRANCH  40  41
ENDBRANCH  39  40
ENDBRANCH  38  39
BRANCH  38  49
HETATM   49  C18 UNL     1       7.616  -2.885  -0.016  1.00  0.00     0.254 C 
HETATM   50  N7  UNL     1       8.850  -3.215  -0.627  1.00  0.00    -0.060 NA
HETATM   51  O3  UNL     1       6.819  -3.751   0.370  1.00  0.00    -0.275 OA
ENDBRANCH  38  49
ENDBRANCH  36  38
ENDBRANCH   7  34
TORSDOF 13
