REMARK  11 active torsions:
REMARK  status: ('A' for Active; 'I' for Inactive)
REMARK    1  A    between atoms: C2_2  and  N1_3 
REMARK    2  A    between atoms: N1_3  and  C3_4 
REMARK    3  A    between atoms: C3_4  and  C4_5 
REMARK    4  A    between atoms: C4_5  and  C5_6 
REMARK    5  A    between atoms: C4_5  and  N2_13 
REMARK    6  A    between atoms: C5_6  and  C6_7 
REMARK    7  A    between atoms: N2_13  and  S1_15 
REMARK    8  A    between atoms: S1_15  and  N3_18 
REMARK       I    between atoms: N3_18  and  C12_20 
REMARK       I    between atoms: C12_20  and  N4_22 
REMARK    9  A    between atoms: N4_22  and  C13_24 
REMARK   10  A    between atoms: C13_24  and  C14_25 
REMARK       I    between atoms: C14_25  and  N5_27 
REMARK       I    between atoms: N6_30  and  C17_31 
REMARK       I    between atoms: C17_31  and  N7_33 
REMARK   11  A    between atoms: N7_33  and  C18_35 
ROOT
HETATM    1  N3  UNL     1      -1.070   0.007  -0.872  1.00  0.00    -0.219 N 
ATOM      2  H3  UNL     1      -1.271   0.946  -0.528  1.00  0.00     0.185 HD
HETATM    3  C12 UNL     1       0.218  -0.315  -1.341  1.00  0.00     0.331 C 
HETATM    4  O3  UNL     1       0.481  -1.487  -1.749  1.00  0.00    -0.246 OA
HETATM    5  N4  UNL     1       1.235   0.660  -1.368  1.00  0.00    -0.334 N 
ATOM      6  H4  UNL     1       1.004   1.599  -1.042  1.00  0.00     0.164 HD
ENDROOT
BRANCH   1   7
HETATM    7  S1  UNL     1      -2.314  -1.202  -0.882  1.00  0.00     0.323 S 
HETATM    8  O1  UNL     1      -3.031  -1.081  -2.211  1.00  0.00    -0.182 OA
HETATM    9  O2  UNL     1      -1.605  -2.548  -0.835  1.00  0.00    -0.182 OA
BRANCH   7  10
HETATM   10  N2  UNL     1      -3.417  -1.043   0.395  1.00  0.00    -0.296 N 
ATOM     11  H2  UNL     1      -3.303  -1.527   1.286  1.00  0.00     0.174 HD
BRANCH  10  12
HETATM   12  C4  UNL     1      -4.548  -0.154   0.115  1.00  0.00     0.121 C 
BRANCH  12  13
HETATM   13  C3  UNL     1      -5.834  -0.737   0.539  1.00  0.00     0.263 C 
BRANCH  13  14
HETATM   14  N1  UNL     1      -6.348  -1.867  -0.171  1.00  0.00    -0.065 N 
HETATM   15  C25 UNL     1      -7.594  -2.232   0.533  1.00  0.00     0.237 C 
HETATM   16  C26 UNL     1      -7.725  -3.715   0.335  1.00  0.00     0.029 C 
HETATM   17  C27 UNL     1      -6.396  -4.231  -0.090  1.00  0.00     0.029 C 
HETATM   18  C28 UNL     1      -5.500  -3.002  -0.019  1.00  0.00     0.237 C 
BRANCH  14  19
HETATM   19  C2  UNL     1      -6.608  -1.639  -1.565  1.00  0.00     0.233 C 
HETATM   20  C1  UNL     1      -7.953  -0.995  -1.838  1.00  0.00     0.035 C 
ENDBRANCH  14  19
ENDBRANCH  13  14
ENDBRANCH  12  13
BRANCH  12  21
HETATM   21  C5  UNL     1      -4.269   1.047   1.056  1.00  0.00     0.032 C 
BRANCH  21  22
HETATM   22  C6  UNL     1      -5.301   2.091   0.999  1.00  0.00    -0.013 C 
HETATM   23  C7  UNL     1      -5.495   2.707  -0.370  1.00  0.00     0.005 C 
HETATM   24  C8  UNL     1      -6.821   3.438  -0.320  1.00  0.00     0.000 C 
HETATM   25  C9  UNL     1      -6.940   4.415   0.805  1.00  0.00     0.000 C 
HETATM   26  C10 UNL     1      -6.338   3.988   2.096  1.00  0.00     0.000 C 
HETATM   27  C11 UNL     1      -4.999   3.278   1.906  1.00  0.00     0.005 C 
ENDBRANCH  21  22
ENDBRANCH  12  21
ENDBRANCH  10  12
ENDBRANCH   7  10
ENDBRANCH   1   7
BRANCH   5  28
HETATM   28  C13 UNL     1       2.579   0.418  -1.826  1.00  0.00     0.227 C 
BRANCH  28  29
HETATM   29  C14 UNL     1       3.261  -0.567  -0.963  1.00  0.00     0.237 C 
HETATM   30  O4  UNL     1       2.621  -1.037   0.047  1.00  0.00    -0.272 OA
HETATM   31  N5  UNL     1       4.580  -1.005  -1.201  1.00  0.00    -0.347 N 
HETATM   32  C15 UNL     1       5.314  -0.549  -2.351  1.00  0.00     0.146 C 
HETATM   33  C24 UNL     1       5.232  -1.901  -0.291  1.00  0.00     0.150 C 
HETATM   34  C16 UNL     1       6.723  -1.190  -2.343  1.00  0.00     0.148 C 
HETATM   35  N6  UNL     1       7.326  -0.936  -1.035  1.00  0.00    -0.327 N 
HETATM   36  C17 UNL     1       8.632  -0.417  -0.990  1.00  0.00     0.319 C 
HETATM   37  C22 UNL     1       6.537  -1.237   0.134  1.00  0.00     0.102 C 
HETATM   38  O5  UNL     1       9.264  -0.207  -2.081  1.00  0.00    -0.247 OA
HETATM   39  N7  UNL     1       9.347  -0.089   0.199  1.00  0.00    -0.331 N 
ATOM     40  H7  UNL     1       8.893  -0.234   1.101  1.00  0.00     0.165 HD
HETATM   41  C23 UNL     1       6.188   0.046   0.884  1.00  0.00     0.034 C 
BRANCH  39  42
HETATM   42  C18 UNL     1      10.691   0.441   0.174  1.00  0.00     0.154 C 
HETATM   43  C19 UNL     1      11.539  -0.234   1.216  1.00  0.00     0.052 C 
HETATM   44  C20 UNL     1      11.098   0.475   2.499  1.00  0.00     0.123 C 
HETATM   45  N8  UNL     1      10.854   1.842   2.052  1.00  0.00    -0.378 N 
HETATM   46  C21 UNL     1      10.681   1.870   0.650  1.00  0.00     0.094 C 
ATOM     47  H8  UNL     1      10.814   2.658   2.662  1.00  0.00     0.160 HD
HETATM   48  N9  UNL     1      10.538   2.902  -0.107  1.00  0.00    -0.387 N 
ATOM     49  H92 UNL     1      10.413   2.922  -1.119  1.00  0.00     0.157 HD
ATOM     50  H91 UNL     1      10.531   3.870   0.215  1.00  0.00     0.157 HD
ENDBRANCH  39  42
ENDBRANCH  28  29
ENDBRANCH   5  28
TORSDOF 11
