REMARK  12 active torsions:
REMARK  status: ('A' for Active; 'I' for Inactive)
REMARK    1  A    between atoms: C2_2  and  C3_3 
REMARK    2  A    between atoms: C4_4  and  C5_5 
REMARK    3  A    between atoms: C5_5  and  N1_6 
REMARK    4  A    between atoms: N1_6  and  C6_7 
REMARK    5  A    between atoms: C7_8  and  N2_9 
REMARK       I    between atoms: N2_9  and  C8_11 
REMARK    6  A    between atoms: C8_11  and  C9_13 
REMARK    7  A    between atoms: C10_14  and  C11_15 
REMARK    8  A    between atoms: C12_16  and  C13_17 
REMARK    9  A    between atoms: C17_24  and  C18_25 
REMARK   10  A    between atoms: C18_25  and  C19_26 
REMARK   11  A    between atoms: N5_29  and  C20_30 
REMARK   12  A    between atoms: C20_30  and  C21_31 
ROOT
HETATM    1  C9  UNL     1      -1.304  -0.792   0.017  1.00  0.00     0.144 C 
HETATM    2  C10 UNL     1      -2.257   0.206   0.559  1.00  0.00     0.057 C 
HETATM    3  N5  UNL     1      -1.477   1.277   1.105  1.00  0.00    -0.287 N 
HETATM    4  N7  UNL     1      -0.455   0.772   1.939  1.00  0.00    -0.312 N 
ATOM      5  H7  UNL     1       0.319   1.363   2.242  1.00  0.00     0.185 HD
HETATM    6  C22 UNL     1      -0.541  -0.572   2.336  1.00  0.00     0.091 C 
HETATM    7  C23 UNL     1      -0.886  -1.589   1.272  1.00  0.00     0.011 C 
HETATM    8  C24 UNL     1      -2.221  -2.236   1.750  1.00  0.00     0.016 C 
HETATM    9  C25 UNL     1      -2.179  -3.723   1.840  1.00  0.00     0.001 C 
HETATM   10  C26 UNL     1      -1.588  -4.410   0.654  1.00  0.00     0.000 C 
HETATM   11  C27 UNL     1      -0.306  -3.759   0.186  1.00  0.00     0.001 C 
HETATM   12  C28 UNL     1       0.038  -2.690   1.192  1.00  0.00     0.016 C 
ENDROOT
BRANCH   1  13
HETATM   13  C8  UNL     1      -0.284  -0.409  -0.910  1.00  0.00     0.232 C 
HETATM   14  N2  UNL     1       1.047  -0.755  -1.126  1.00  0.00    -0.335 N 
ATOM     15  H2  UNL     1       1.447  -1.455  -0.501  1.00  0.00     0.168 HD
HETATM   16  O1  UNL     1      -0.597   0.475  -1.810  1.00  0.00    -0.272 OA
BRANCH  14  17
HETATM   17  C7  UNL     1       1.921  -0.221  -2.150  1.00  0.00     0.116 C 
HETATM   18  C6  UNL     1       3.260  -0.765  -2.231  1.00  0.00     0.220 C 
BRANCH  18  19
HETATM   19  N1  UNL     1       4.240  -0.716  -1.230  1.00  0.00    -0.032 N 
HETATM   20  C29 UNL     1       4.115  -1.701  -0.166  1.00  0.00     0.270 C 
HETATM   21  C30 UNL     1       5.378  -1.779   0.667  1.00  0.00     0.196 C 
HETATM   22  O5  UNL     1       5.774  -0.547   1.125  1.00  0.00    -0.388 OA
HETATM   23  C31 UNL     1       4.977   0.511   0.796  1.00  0.00     0.196 C 
HETATM   24  C32 UNL     1       4.399   0.552  -0.569  1.00  0.00     0.270 C 
BRANCH  19  25
HETATM   25  C5  UNL     1       5.495  -1.108  -1.928  1.00  0.00     0.336 C 
BRANCH  25  26
HETATM   26  C4  UNL     1       6.529  -0.090  -1.829  1.00  0.00    -0.078 C 
HETATM   27  C3  UNL     1       7.410   0.741  -1.767  1.00  0.00    -0.105 C 
BRANCH  27  28
HETATM   28  C2  UNL     1       8.485   1.716  -1.703  1.00  0.00     0.089 C 
HETATM   29  C1  UNL     1       8.228   2.804  -0.674  1.00  0.00     0.018 C 
ENDBRANCH  27  28
ENDBRANCH  25  26
ENDBRANCH  19  25
ENDBRANCH  18  19
ENDBRANCH  14  17
ENDBRANCH   1  13
BRANCH   2  30
HETATM   30  C11 UNL     1      -3.594   0.454   0.127  1.00  0.00     0.038 A 
HETATM   31  C12 UNL     1      -4.516   1.030   1.010  1.00  0.00     0.043 A 
HETATM   32  N3  UNL     1      -5.696   1.073   0.372  1.00  0.00    -0.302 N 
HETATM   33  N4  UNL     1      -5.637   0.584  -0.848  1.00  0.00    -0.299 N 
ATOM     34  H3  UNL     1      -6.549   1.446   0.789  1.00  0.00     0.187 HD
HETATM   35  C16 UNL     1      -6.812   0.521  -1.733  1.00  0.00     0.177 C 
HETATM   36  C17 UNL     1      -4.367   0.202  -1.024  1.00  0.00     0.052 A 
BRANCH  31  37
HETATM   37  C13 UNL     1      -4.360   1.610   2.391  1.00  0.00     0.030 C 
HETATM   38  C14 UNL     1      -5.671   1.478   3.166  1.00  0.00     0.016 C 
HETATM   39  C15 UNL     1      -4.220   3.146   2.215  1.00  0.00     0.016 C 
ENDBRANCH  31  37
BRANCH  36  40
HETATM   40  C18 UNL     1      -3.844  -0.348  -2.261  1.00  0.00     0.173 C 
BRANCH  40  41
HETATM   41  C19 UNL     1      -4.769  -0.944  -3.224  1.00  0.00     0.178 C 
HETATM   42  O2  UNL     1      -5.484  -1.941  -2.977  1.00  0.00    -0.648 OA
HETATM   43  O3  UNL     1      -4.931  -0.439  -4.535  1.00  0.00    -0.648 OA
ENDBRANCH  40  41
ENDBRANCH  36  40
ENDBRANCH   2  30
BRANCH   3  44
HETATM   44  C20 UNL     1      -1.106   2.439   0.449  1.00  0.00     0.248 C 
BRANCH  44  45
HETATM   45  C21 UNL     1      -0.491   3.456   1.447  1.00  0.00     0.250 C 
HETATM   46  N6  UNL     1      -0.049   4.688   0.975  1.00  0.00    -0.061 NA
HETATM   47  O4  UNL     1      -0.413   3.127   2.652  1.00  0.00    -0.275 OA
ENDBRANCH  44  45
ENDBRANCH   3  44
TORSDOF 12
