REMARK  14 active torsions:
REMARK  status: ('A' for Active; 'I' for Inactive)
REMARK    1  A    between atoms: C3_3  and  C5_5 
REMARK    2  A    between atoms: C9_10  and  C10_11 
REMARK    3  A    between atoms: C10_11  and  O2_12 
REMARK    4  A    between atoms: C12_16  and  O3_17 
REMARK    5  A    between atoms: C13_19  and  N2_20 
REMARK    6  A    between atoms: C18_28  and  C19_29 
REMARK    7  A    between atoms: C18_28  and  C25_35 
REMARK    8  A    between atoms: C20_30  and  C21_31 
REMARK    9  A    between atoms: C21_31  and  C22_32 
REMARK   10  A    between atoms: C22_32  and  C23_33 
REMARK       I    between atoms: C25_35  and  N4_37 
REMARK   11  A    between atoms: N4_37  and  C26_39 
REMARK   12  A    between atoms: C28_43  and  O6_44 
REMARK   13  A    between atoms: C30_48  and  C31_49 
REMARK   14  A    between atoms: C31_49  and  N8_53 
ROOT
HETATM    1  C5  UNL     1      -2.768   0.822   0.202  1.00  0.00     0.084 C 
HETATM    2  C6  UNL     1      -1.405   0.530  -0.403  1.00  0.00     0.163 C 
HETATM    3  O1  UNL     1      -1.199  -0.717  -0.165  1.00  0.00    -0.341 OA
HETATM    4  C7  UNL     1      -0.252  -1.582  -0.151  1.00  0.00     0.119 C 
HETATM    5  C8  UNL     1      -0.544  -2.946   0.445  1.00  0.00     0.125 C 
HETATM    6  C9  UNL     1      -1.936  -3.414   0.513  1.00  0.00     0.020 C 
HETATM    7  N1  UNL     1      -2.923  -2.836  -0.327  1.00  0.00    -0.339 N 
HETATM    8  C11 UNL     1      -3.754  -3.865  -1.071  1.00  0.00     0.158 C 
HETATM    9  C12 UNL     1      -3.310  -1.534  -0.652  1.00  0.00     0.150 C 
HETATM   10  C13 UNL     1      -3.723  -0.355   0.082  1.00  0.00     0.273 C 
HETATM   11  C17 UNL     1       0.572  -1.865  -1.355  1.00  0.00     0.273 C 
HETATM   12  O4  UNL     1       0.076  -1.810  -2.541  1.00  0.00    -0.266 OA
HETATM   13  N3  UNL     1       1.948  -2.223  -1.319  1.00  0.00    -0.318 N 
ATOM     14  H3  UNL     1       2.225  -3.128  -1.699  1.00  0.00     0.166 HD
HETATM   15  C18 UNL     1       3.000  -1.339  -0.754  1.00  0.00     0.211 C 
HETATM   16  N5  UNL     1       2.857   0.057  -0.735  1.00  0.00    -0.319 N 
ATOM     17  H5  UNL     1       3.755   0.458  -0.466  1.00  0.00     0.166 HD
HETATM   18  C28 UNL     1       1.967   1.108  -0.940  1.00  0.00     0.218 C 
HETATM   19  N6  UNL     1       0.866   1.727  -0.383  1.00  0.00    -0.339 N 
HETATM   20  C29 UNL     1       0.521   3.116   0.168  1.00  0.00     0.141 C 
HETATM   21  C30 UNL     1      -0.525   2.844  -0.943  1.00  0.00     0.096 C 
HETATM   22  C33 UNL     1      -0.492   1.610  -0.077  1.00  0.00     0.131 C 
ENDROOT
BRANCH  15  23
HETATM   23  C19 UNL     1       3.410  -1.930   0.555  1.00  0.00     0.033 C 
HETATM   24  C20 UNL     1       4.265  -1.286   1.505  1.00  0.00    -0.026 C 
BRANCH  24  25
HETATM   25  C21 UNL     1       5.623  -0.777   1.409  1.00  0.00     0.027 C 
BRANCH  25  26
HETATM   26  C22 UNL     1       5.970  -0.215   2.837  1.00  0.00     0.003 C 
BRANCH  26  27
HETATM   27  C23 UNL     1       7.299   0.420   2.785  1.00  0.00    -0.004 C 
HETATM   28  C24 UNL     1       7.324   1.609   1.834  1.00  0.00     0.005 C 
ENDBRANCH  26  27
ENDBRANCH  25  26
ENDBRANCH  24  25
ENDBRANCH  15  23
BRANCH  15  29
HETATM   29  C25 UNL     1       4.137  -1.675  -1.787  1.00  0.00     0.271 C 
HETATM   30  O5  UNL     1       5.030  -2.400  -1.384  1.00  0.00    -0.268 OA
HETATM   31  N4  UNL     1       4.028  -1.162  -3.065  1.00  0.00    -0.357 N 
ATOM     32  H4  UNL     1       3.209  -0.574  -3.217  1.00  0.00     0.162 HD
BRANCH  31  33
HETATM   33  C26 UNL     1       4.863  -1.315  -4.203  1.00  0.00     0.118 C 
HETATM   34  C27 UNL     1       6.191  -0.652  -4.131  1.00  0.00     0.026 C 
ENDBRANCH  31  33
ENDBRANCH  15  29
BRANCH  18  35
HETATM   35  O6  UNL     1       2.318   1.739  -2.095  1.00  0.00    -0.333 OA
ATOM     36  H6  UNL     1       1.711   2.456  -2.235  1.00  0.00     0.220 HD
ENDBRANCH  18  35
BRANCH   6  37
HETATM   37  C10 UNL     1      -2.299  -3.660   1.964  1.00  0.00     0.217 C 
BRANCH  37  38
HETATM   38  O2  UNL     1      -1.145  -4.314   2.498  1.00  0.00    -0.395 OA
ATOM     39  H2  UNL     1      -1.373  -4.468   3.407  1.00  0.00     0.209 HD
ENDBRANCH  37  38
ENDBRANCH   6  37
BRANCH  21  40
HETATM   40  C31 UNL     1      -1.395   3.911  -1.031  1.00  0.00     0.078 C 
HETATM   41  N7  UNL     1      -1.362   4.968  -0.244  1.00  0.00    -0.389 N 
ATOM     42  H72 UNL     1      -0.616   4.932   0.451  1.00  0.00     0.157 HD
ATOM     43  H71 UNL     1      -2.005   5.757  -0.309  1.00  0.00     0.157 HD
BRANCH  40  44
HETATM   44  N8  UNL     1      -2.442   3.962  -2.007  1.00  0.00    -0.384 N 
HETATM   45  C32 UNL     1      -3.758   4.481  -1.745  1.00  0.00     0.147 C 
ATOM     46  H8  UNL     1      -2.243   3.610  -2.943  1.00  0.00     0.160 HD
ENDBRANCH  40  44
ENDBRANCH  21  40
BRANCH   1  47
HETATM   47  C3  UNL     1      -2.774   1.352   1.592  1.00  0.00    -0.079 C 
HETATM   48  C2  UNL     1      -3.138   2.564   1.983  1.00  0.00    -0.028 C 
HETATM   49  C1  UNL     1      -3.183   3.102   3.357  1.00  0.00     0.036 C 
HETATM   50  C4  UNL     1      -2.383   0.529   2.798  1.00  0.00     0.043 C 
ENDBRANCH   1  47
BRANCH  10  51
HETATM   51  N2  UNL     1      -5.026   0.074  -0.488  1.00  0.00    -0.066 N 
HETATM   52  C14 UNL     1      -4.942   0.607  -1.814  1.00  0.00     0.272 C 
HETATM   53  C15 UNL     1      -5.698   1.053   0.315  1.00  0.00     0.272 C 
HETATM   54  C16 UNL     1      -5.921  -1.083  -0.504  1.00  0.00     0.272 C 
ENDBRANCH  10  51
BRANCH   9  55
HETATM   55  O3  UNL     1      -3.298  -1.322  -1.955  1.00  0.00    -0.348 OA
ATOM     56  H3  UNL     1      -3.561  -0.436  -2.176  1.00  0.00     0.219 HD
ENDBRANCH   9  55
TORSDOF 14
