REMARK  15 active torsions:
REMARK  status: ('A' for Active; 'I' for Inactive)
REMARK    1  A    between atoms: C2_2  and  C3_3 
REMARK    2  A    between atoms: C3_3  and  C4_4 
REMARK    3  A    between atoms: C4_4  and  C5_5 
REMARK    4  A    between atoms: C7_10  and  C8_11 
REMARK    5  A    between atoms: C14_23  and  C15_24 
REMARK    6  A    between atoms: C15_24  and  C17_26 
REMARK    7  A    between atoms: C19_30  and  O4_31 
REMARK    8  A    between atoms: C20_33  and  C21_34 
REMARK    9  A    between atoms: C27_41  and  O5_42 
REMARK   10  A    between atoms: C28_44  and  C29_45 
REMARK   11  A    between atoms: C29_45  and  C30_46 
REMARK   12  A    between atoms: C30_46  and  C31_47 
REMARK   13  A    between atoms: C31_47  and  C32_48 
REMARK   14  A    between atoms: C32_48  and  N6_49 
REMARK   15  A    between atoms: C34_54  and  O6_55 
ROOT
HETATM    1  C5  UNL     1       3.190  -1.464   1.497  1.00  0.00     0.063 C 
HETATM    2  N1  UNL     1       3.188  -2.596   0.639  1.00  0.00    -0.325 N 
ATOM      3  H1  UNL     1       3.761  -3.359   0.999  1.00  0.00     0.169 HD
HETATM    4  C6  UNL     1       2.588  -2.909  -0.579  1.00  0.00     0.245 C 
HETATM    5  O1  UNL     1       3.331  -3.042  -1.633  1.00  0.00    -0.271 OA
HETATM    6  C7  UNL     1       1.164  -3.138  -0.930  1.00  0.00     0.180 C 
HETATM    7  N2  UNL     1       0.817  -2.443  -2.170  1.00  0.00    -0.346 N 
ATOM      8  H2  UNL     1       1.528  -2.393  -2.900  1.00  0.00     0.163 HD
HETATM    9  C11 UNL     1      -0.434  -1.835  -2.430  1.00  0.00     0.236 C 
HETATM   10  O2  UNL     1      -0.428  -0.673  -2.981  1.00  0.00    -0.272 OA
HETATM   11  C12 UNL     1      -1.740  -2.458  -2.108  1.00  0.00     0.225 C 
HETATM   12  N3  UNL     1      -2.067  -2.481  -0.710  1.00  0.00    -0.351 N 
ATOM     13  H3  UNL     1      -1.885  -3.355  -0.217  1.00  0.00     0.163 HD
HETATM   14  C13 UNL     1      -2.603  -1.446   0.047  1.00  0.00     0.241 C 
HETATM   15  O3  UNL     1      -2.044  -1.112   1.157  1.00  0.00    -0.271 OA
HETATM   16  C14 UNL     1      -3.801  -0.657  -0.305  1.00  0.00     0.179 C 
HETATM   17  N4  UNL     1      -3.983   0.518   0.489  1.00  0.00    -0.360 N 
ATOM     18  H4  UNL     1      -4.951   0.623   0.794  1.00  0.00     0.162 HD
HETATM   19  C19 UNL     1      -3.193   1.537   0.945  1.00  0.00     0.118 C 
HETATM   20  C20 UNL     1      -2.381   2.595   0.264  1.00  0.00     0.086 C 
HETATM   21  C24 UNL     1      -1.446   3.271   1.160  1.00  0.00     0.100 C 
HETATM   22  C25 UNL     1      -1.465   4.795   1.151  1.00  0.00     0.046 C 
HETATM   23  C26 UNL     1      -0.465   4.632   0.043  1.00  0.00     0.127 C 
HETATM   24  N5  UNL     1      -0.069   3.469   0.881  1.00  0.00    -0.354 N 
HETATM   25  C27 UNL     1       1.110   2.830   1.323  1.00  0.00     0.166 C 
HETATM   26  C28 UNL     1       1.613   1.514   0.935  1.00  0.00     0.087 C 
HETATM   27  N7  UNL     1       1.420   0.449   1.913  1.00  0.00    -0.327 N 
HETATM   28  C33 UNL     1       0.565   0.829   3.060  1.00  0.00     0.159 C 
HETATM   29  C34 UNL     1       1.940  -0.844   1.875  1.00  0.00     0.165 C 
ENDROOT
BRANCH  26  30
HETATM   30  C29 UNL     1       1.521   1.088  -0.457  1.00  0.00     0.034 C 
BRANCH  30  31
HETATM   31  C30 UNL     1       2.168   1.548  -1.651  1.00  0.00     0.004 C 
BRANCH  31  32
HETATM   32  C31 UNL     1       2.325   2.793  -2.335  1.00  0.00     0.017 C 
BRANCH  32  33
HETATM   33  C32 UNL     1       3.202   3.906  -1.956  1.00  0.00     0.080 C 
BRANCH  33  34
HETATM   34  N6  UNL     1       3.139   4.631  -0.784  1.00  0.00    -0.408 N 
ATOM     35  H62 UNL     1       2.407   4.354  -0.130  1.00  0.00     0.155 HD
ATOM     36  H61 UNL     1       3.749   5.405  -0.520  1.00  0.00     0.155 HD
ENDBRANCH  33  34
ENDBRANCH  32  33
ENDBRANCH  31  32
ENDBRANCH  30  31
ENDBRANCH  26  30
BRANCH  25  37
HETATM   37  O5  UNL     1       1.888   3.444   2.186  1.00  0.00    -0.344 OA
ATOM     38  H5  UNL     1       2.681   3.014   2.483  1.00  0.00     0.219 HD
ENDBRANCH  25  37
BRANCH  29  39
HETATM   39  O6  UNL     1       1.079  -1.736   2.292  1.00  0.00    -0.344 OA
ATOM     40  H6  UNL     1       0.258  -1.329   2.540  1.00  0.00     0.219 HD
ENDBRANCH  29  39
BRANCH   1  41
HETATM   41  C4  UNL     1       4.343  -0.572   1.124  1.00  0.00     0.062 C 
BRANCH  41  42
HETATM   42  C3  UNL     1       5.598  -1.461   1.298  1.00  0.00     0.006 C 
BRANCH  42  43
HETATM   43  C2  UNL     1       6.781  -0.560   0.922  1.00  0.00    -0.004 C 
HETATM   44  C1  UNL     1       6.861   0.641   1.804  1.00  0.00     0.005 C 
ENDBRANCH  42  43
ENDBRANCH  41  42
ENDBRANCH   1  41
BRANCH  20  45
HETATM   45  C21 UNL     1      -3.392   3.487  -0.424  1.00  0.00    -0.009 C 
HETATM   46  C22 UNL     1      -4.157   2.661  -1.471  1.00  0.00     0.010 C 
HETATM   47  C23 UNL     1      -4.492   3.908   0.579  1.00  0.00     0.010 C 
ENDBRANCH  20  45
BRANCH  19  48
HETATM   48  O4  UNL     1      -3.112   1.642   2.250  1.00  0.00    -0.349 OA
ATOM     49  H4  UNL     1      -2.563   2.350   2.567  1.00  0.00     0.219 HD
ENDBRANCH  19  48
BRANCH   6  50
HETATM   50  C8  UNL     1       0.949  -4.657  -1.136  1.00  0.00     0.009 C 
HETATM   51  C9  UNL     1       1.824  -5.171  -2.247  1.00  0.00     0.012 C 
HETATM   52  C10 UNL     1       1.331  -5.313   0.155  1.00  0.00     0.012 C 
ENDBRANCH   6  50
BRANCH  16  53
HETATM   53  C15 UNL     1      -5.058  -1.545  -0.233  1.00  0.00     0.013 C 
HETATM   54  C16 UNL     1      -5.055  -2.702  -1.145  1.00  0.00     0.012 C 
BRANCH  53  55
HETATM   55  C17 UNL     1      -5.345  -1.928   1.204  1.00  0.00     0.002 C 
HETATM   56  C18 UNL     1      -6.579  -2.799   1.292  1.00  0.00     0.005 C 
ENDBRANCH  53  55
ENDBRANCH  16  53
TORSDOF 15
