REMARK  11 active torsions:
REMARK  status: ('A' for Active; 'I' for Inactive)
REMARK    1  A    between atoms: C7_9  and  C8_10 
REMARK    2  A    between atoms: C8_10  and  C9_11 
REMARK    3  A    between atoms: C9_11  and  C10_12 
REMARK    4  A    between atoms: C10_12  and  C11_13 
REMARK    5  A    between atoms: C11_13  and  C12_14 
REMARK       I    between atoms: C12_14  and  N2_16 
REMARK    6  A    between atoms: N2_16  and  C13_18 
REMARK    7  A    between atoms: C13_18  and  C14_19 
REMARK       I    between atoms: C14_19  and  N3_21 
REMARK    8  A    between atoms: C23_32  and  C24_33 
REMARK    9  A    between atoms: C25_36  and  C26_37 
REMARK       I    between atoms: C26_37  and  N6_39 
REMARK   10  A    between atoms: N6_39  and  C27_41 
REMARK   11  A    between atoms: C27_41  and  C28_42 
ROOT
HETATM    1  C14 UNL     1      -1.757   1.687   0.460  1.00  0.00     0.243 C 
HETATM    2  O2  UNL     1      -1.129   0.874  -0.249  1.00  0.00    -0.271 OA
HETATM    3  N3  UNL     1      -3.127   1.628   0.638  1.00  0.00    -0.297 N 
HETATM    4  C15 UNL     1      -3.631   2.803   1.476  1.00  0.00     0.261 C 
HETATM    5  N4  UNL     1      -4.626   3.297   0.554  1.00  0.00    -0.330 N 
HETATM    6  C16 UNL     1      -4.145   4.105  -0.499  1.00  0.00     0.230 C 
HETATM    7  O3  UNL     1      -3.390   5.072  -0.475  1.00  0.00    -0.273 OA
HETATM    8  C17 UNL     1      -4.724   3.607  -1.856  1.00  0.00     0.112 C 
HETATM    9  C18 UNL     1      -4.397   2.171  -1.879  1.00  0.00     0.029 C 
HETATM   10  C19 UNL     1      -4.982   1.229  -0.920  1.00  0.00     0.044 C 
HETATM   11  C20 UNL     1      -6.259   1.684  -0.232  1.00  0.00     0.036 C 
HETATM   12  C21 UNL     1      -6.048   3.005   0.484  1.00  0.00     0.093 C 
HETATM   13  C22 UNL     1      -6.742   4.032  -0.421  1.00  0.00     0.066 C 
HETATM   14  C23 UNL     1      -6.140   4.036  -1.816  1.00  0.00    -0.000 C 
HETATM   15  C25 UNL     1      -4.055   0.688   0.167  1.00  0.00     0.088 C 
ENDROOT
BRANCH   1  16
HETATM   16  C13 UNL     1      -0.885   2.734   1.107  1.00  0.00     0.225 C 
BRANCH  16  17
HETATM   17  N2  UNL     1       0.507   2.564   0.838  1.00  0.00    -0.352 N 
HETATM   18  C12 UNL     1       1.263   1.415   1.235  1.00  0.00     0.217 C 
HETATM   19  O1  UNL     1       0.662   0.508   1.855  1.00  0.00    -0.274 OA
ATOM     20  H2  UNL     1       0.992   3.306   0.333  1.00  0.00     0.162 HD
BRANCH  18  21
HETATM   21  C11 UNL     1       2.726   1.295   0.926  1.00  0.00     0.103 C 
BRANCH  21  22
HETATM   22  C10 UNL     1       3.252  -0.043   1.369  1.00  0.00     0.010 C 
BRANCH  22  23
HETATM   23  C9  UNL     1       4.726  -0.194   1.111  1.00  0.00     0.006 C 
BRANCH  23  24
HETATM   24  C8  UNL     1       5.206  -1.581   1.546  1.00  0.00     0.057 C 
BRANCH  24  25
HETATM   25  C7  UNL     1       6.650  -1.720   1.328  1.00  0.00     0.010 A 
HETATM   26  N1  UNL     1       7.609  -1.461   2.243  1.00  0.00    -0.362 N 
HETATM   27  C6  UNL     1       8.820  -1.669   1.749  1.00  0.00     0.016 A 
ATOM     28  H1  UNL     1       7.424  -1.145   3.195  1.00  0.00     0.165 HD
HETATM   29  C5  UNL     1      10.223  -1.582   2.229  1.00  0.00     0.057 C 
HETATM   30  C33 UNL     1       8.631  -2.084   0.439  1.00  0.00    -0.030 A 
HETATM   31  C4  UNL     1      11.040  -0.810   1.244  1.00  0.00     0.007 C 
HETATM   32  C3  UNL     1      10.819  -1.189  -0.181  1.00  0.00     0.009 C 
HETATM   33  C2  UNL     1       9.880  -2.371  -0.331  1.00  0.00     0.016 C 
HETATM   34  C1  UNL     1       9.499  -2.561  -1.784  1.00  0.00     0.015 C 
HETATM   35  C32 UNL     1       7.274  -2.118   0.173  1.00  0.00     0.034 A 
ENDBRANCH  24  25
ENDBRANCH  23  24
ENDBRANCH  22  23
ENDBRANCH  21  22
ENDBRANCH  18  21
ENDBRANCH  16  17
ENDBRANCH   1  16
BRANCH  15  36
HETATM   36  C26 UNL     1      -3.690  -0.723   0.031  1.00  0.00     0.265 C 
HETATM   37  O5  UNL     1      -2.565  -1.222   0.294  1.00  0.00    -0.266 OA
HETATM   38  N6  UNL     1      -4.647  -1.701  -0.434  1.00  0.00    -0.340 N 
ATOM     39  H6  UNL     1      -5.590  -1.391  -0.667  1.00  0.00     0.164 HD
BRANCH  38  40
HETATM   40  C27 UNL     1      -4.322  -3.093  -0.581  1.00  0.00     0.088 C 
HETATM   41  C29 UNL     1      -5.514  -4.013  -0.682  1.00  0.00     0.039 C 
HETATM   42  C30 UNL     1      -5.481  -4.210   0.832  1.00  0.00     0.006 C 
HETATM   43  C31 UNL     1      -4.045  -3.748   0.785  1.00  0.00     0.039 C 
BRANCH  40  44
HETATM   44  C28 UNL     1      -3.283  -3.450  -1.558  1.00  0.00     0.115 C 
HETATM   45  N7  UNL     1      -2.775  -2.563  -2.342  1.00  0.00    -0.389 N 
ATOM     46  H72 UNL     1      -3.123  -1.609  -2.242  1.00  0.00     0.157 HD
ATOM     47  H71 UNL     1      -2.054  -2.811  -3.020  1.00  0.00     0.157 HD
HETATM   48  N8  UNL     1      -2.801  -4.771  -1.696  1.00  0.00    -0.085 NA
ENDBRANCH  40  44
ENDBRANCH  38  40
ENDBRANCH  15  36
BRANCH  14  49
HETATM   49  C24 UNL     1      -7.019   3.488  -2.856  1.00  0.00     0.258 C 
HETATM   50  N5  UNL     1      -8.410   3.759  -2.849  1.00  0.00    -0.058 NA
HETATM   51  O4  UNL     1      -6.552   2.778  -3.761  1.00  0.00    -0.272 OA
ENDBRANCH  14  49
TORSDOF 11
