REMARK  13 active torsions:
REMARK  status: ('A' for Active; 'I' for Inactive)
REMARK    1  A    between atoms: C2_2  and  C3_3 
REMARK    2  A    between atoms: C3_3  and  N1_4 
REMARK       I    between atoms: N1_4  and  C4_6 
REMARK    3  A    between atoms: C4_6  and  C5_8 
REMARK    4  A    between atoms: C8_11  and  C9_12 
REMARK       I    between atoms: C9_12  and  N2_14 
REMARK    5  A    between atoms: N3_17  and  C11_18 
REMARK    6  A    between atoms: C11_18  and  O3_19 
REMARK    7  A    between atoms: C11_18  and  C12_21 
REMARK    8  A    between atoms: C12_21  and  C14_23 
REMARK    9  A    between atoms: C12_21  and  C22_41 
REMARK   10  A    between atoms: C14_23  and  N4_24 
REMARK       I    between atoms: N4_24  and  C15_26 
REMARK       I    between atoms: C15_26  and  N5_28 
REMARK   11  A    between atoms: C19_32  and  N6_33 
REMARK       I    between atoms: N6_33  and  C20_35 
REMARK   12  A    between atoms: C22_41  and  N9_42 
REMARK       I    between atoms: N9_42  and  C23_44 
REMARK   13  A    between atoms: C23_44  and  C24_46 
ROOT
HETATM    1  C12 UNL     1      -0.294   0.586  -0.398  1.00  0.00     0.053 C 
HETATM    2  C13 UNL     1      -0.893   0.083  -1.666  1.00  0.00     0.027 C 
ENDROOT
BRANCH   1   3
HETATM    3  C11 UNL     1       0.576   1.716  -0.425  1.00  0.00     0.127 C 
BRANCH   3   4
HETATM    4  N3  UNL     1       0.372   3.125  -0.679  1.00  0.00    -0.338 N 
HETATM    5  C5  UNL     1       1.525   4.023  -0.563  1.00  0.00     0.179 C 
HETATM    6  C6  UNL     1       1.231   5.170  -1.456  1.00  0.00     0.037 C 
HETATM    7  C7  UNL     1      -0.260   5.258  -1.392  1.00  0.00     0.037 C 
HETATM    8  C8  UNL     1      -0.777   3.875  -1.001  1.00  0.00     0.179 C 
BRANCH   5   9
HETATM    9  C4  UNL     1       1.768   4.534   0.793  1.00  0.00     0.240 C 
HETATM   10  N1  UNL     1       0.798   5.052   1.687  1.00  0.00    -0.356 N 
ATOM     11  H1  UNL     1      -0.173   5.087   1.376  1.00  0.00     0.162 HD
HETATM   12  O1  UNL     1       2.969   4.525   1.237  1.00  0.00    -0.271 OA
BRANCH  10  13
HETATM   13  C3  UNL     1       1.105   5.530   3.006  1.00  0.00     0.149 C 
BRANCH  13  14
HETATM   14  C2  UNL     1      -0.002   6.114   3.766  1.00  0.00    -0.018 C 
HETATM   15  C1  UNL     1      -1.223   6.236   3.324  1.00  0.00     0.008 C 
ENDBRANCH  13  14
ENDBRANCH  10  13
ENDBRANCH   5   9
BRANCH   8  16
HETATM   16  C9  UNL     1      -1.631   3.386  -2.121  1.00  0.00     0.240 C 
HETATM   17  O2  UNL     1      -2.818   3.129  -1.935  1.00  0.00    -0.271 OA
HETATM   18  N2  UNL     1      -1.044   3.239  -3.385  1.00  0.00    -0.364 N 
HETATM   19  C10 UNL     1      -1.890   2.763  -4.488  1.00  0.00     0.149 C 
ATOM     20  H2  UNL     1      -0.059   3.456  -3.535  1.00  0.00     0.161 HD
ENDBRANCH   8  16
ENDBRANCH   3   4
BRANCH   3  21
HETATM   21  O3  UNL     1       1.828   1.466  -0.166  1.00  0.00    -0.349 OA
ATOM     22  H3  UNL     1       1.962   0.540   0.001  1.00  0.00     0.219 HD
ENDBRANCH   3  21
ENDBRANCH   1   3
BRANCH   1  23
HETATM   23  C14 UNL     1       0.513  -0.623   0.161  1.00  0.00     0.143 C 
BRANCH  23  24
HETATM   24  N4  UNL     1       1.633  -0.952  -0.699  1.00  0.00    -0.342 N 
HETATM   25  C15 UNL     1       2.492  -1.984  -0.304  1.00  0.00     0.318 C 
HETATM   26  O4  UNL     1       2.257  -2.584   0.794  1.00  0.00    -0.247 OA
HETATM   27  N5  UNL     1       3.610  -2.412  -1.041  1.00  0.00    -0.332 N 
HETATM   28  C16 UNL     1       3.975  -1.828  -2.315  1.00  0.00     0.127 C 
HETATM   29  C21 UNL     1       4.481  -3.491  -0.571  1.00  0.00     0.152 C 
HETATM   30  C17 UNL     1       5.404  -1.398  -2.286  1.00  0.00     0.022 C 
HETATM   31  C18 UNL     1       5.985  -1.541  -0.916  1.00  0.00     0.028 C 
HETATM   32  C19 UNL     1       5.905  -2.973  -0.404  1.00  0.00     0.102 C 
ATOM     33  H4  UNL     1       1.791  -0.444  -1.570  1.00  0.00     0.164 HD
BRANCH  32  34
HETATM   34  N6  UNL     1       6.838  -3.847  -1.061  1.00  0.00    -0.359 N 
HETATM   35  C20 UNL     1       8.229  -3.632  -1.022  1.00  0.00     0.182 C 
HETATM   36  N7  UNL     1       8.843  -3.180  -2.079  1.00  0.00    -0.374 N 
HETATM   37  N8  UNL     1       9.026  -3.886   0.123  1.00  0.00    -0.064 NA
ATOM     38  H72 UNL     1       8.270  -2.997  -2.903  1.00  0.00     0.158 HD
ATOM     39  H71 UNL     1       9.851  -3.024  -2.051  1.00  0.00     0.158 HD
ATOM     40  H6  UNL     1       6.479  -4.652  -1.574  1.00  0.00     0.162 HD
ENDBRANCH  32  34
ENDBRANCH  23  24
ENDBRANCH   1  23
BRANCH   1  41
HETATM   41  C22 UNL     1      -1.419   0.709   0.655  1.00  0.00     0.142 C 
BRANCH  41  42
HETATM   42  N9  UNL     1      -2.265  -0.454   0.628  1.00  0.00    -0.359 N 
HETATM   43  C23 UNL     1      -3.342  -0.529   1.546  1.00  0.00     0.226 C 
HETATM   44  O5  UNL     1      -3.560   0.419   2.373  1.00  0.00    -0.273 OA
ATOM     45  H9  UNL     1      -2.094  -1.208  -0.037  1.00  0.00     0.162 HD
BRANCH  43  46
HETATM   46  C24 UNL     1      -4.263  -1.689   1.608  1.00  0.00     0.042 C 
HETATM   47  C25 UNL     1      -5.043  -1.875   0.346  1.00  0.00     0.024 C 
HETATM   48  C26 UNL     1      -5.849  -3.126   0.422  1.00  0.00    -0.013 C 
HETATM   49  C27 UNL     1      -6.856  -2.984   1.562  1.00  0.00     0.009 C 
HETATM   50  C31 UNL     1      -5.033  -4.345   0.742  1.00  0.00     0.009 C 
HETATM   51  C28 UNL     1      -6.110  -2.766   2.847  1.00  0.00    -0.013 C 
HETATM   52  C29 UNL     1      -5.257  -3.978   3.139  1.00  0.00     0.009 C 
HETATM   53  C33 UNL     1      -5.205  -1.563   2.764  1.00  0.00     0.024 C 
HETATM   54  C30 UNL     1      -4.250  -4.136   2.023  1.00  0.00    -0.013 C 
HETATM   55  C32 UNL     1      -3.392  -2.935   1.842  1.00  0.00     0.024 C 
ENDBRANCH  43  46
ENDBRANCH  41  42
ENDBRANCH   1  41
TORSDOF 13
