REMARK  13 active torsions:
REMARK  status: ('A' for Active; 'I' for Inactive)
REMARK    1  A    between atoms: C2_2  and  C3_3 
REMARK    2  A    between atoms: C2_2  and  N3_12 
REMARK    3  A    between atoms: C3_3  and  C4_4 
REMARK    4  A    between atoms: C5_5  and  C6_6 
REMARK    5  A    between atoms: C6_6  and  N1_7 
REMARK    6  A    between atoms: N1_7  and  N2_9 
REMARK    7  A    between atoms: C9_18  and  C10_19 
REMARK    8  A    between atoms: C14_26  and  C15_27 
REMARK    9  A    between atoms: C15_27  and  C16_28 
REMARK   10  A    between atoms: C20_35  and  C21_36 
REMARK   11  A    between atoms: C21_36  and  C22_37 
REMARK   12  A    between atoms: C25_42  and  O4_43 
REMARK   13  A    between atoms: C30_52  and  C31_53 
ROOT
HETATM    1  N3  UNL     1       2.894  -0.580  -1.601  1.00  0.00    -0.363 N 
HETATM    2  C7  UNL     1       1.877   0.272  -2.231  1.00  0.00     0.249 C 
HETATM    3  N4  UNL     1       2.131   1.681  -2.007  1.00  0.00    -0.343 N 
ATOM      4  H4  UNL     1       3.013   2.052  -2.362  1.00  0.00     0.164 HD
HETATM    5  C8  UNL     1       1.285   2.584  -1.351  1.00  0.00     0.242 C 
HETATM    6  O1  UNL     1       1.732   3.393  -0.497  1.00  0.00    -0.271 OA
HETATM    7  C9  UNL     1      -0.208   2.688  -1.583  1.00  0.00     0.180 C 
HETATM    8  N5  UNL     1      -0.771   2.738  -0.249  1.00  0.00    -0.346 N 
ATOM      9  H5  UNL     1      -0.379   3.438   0.381  1.00  0.00     0.163 HD
HETATM   10  C13 UNL     1      -1.797   1.931   0.277  1.00  0.00     0.241 C 
HETATM   11  O2  UNL     1      -1.546   1.378   1.395  1.00  0.00    -0.271 OA
HETATM   12  C14 UNL     1      -3.097   1.659  -0.302  1.00  0.00     0.177 C 
HETATM   13  N6  UNL     1      -3.302   0.455  -1.037  1.00  0.00    -0.346 N 
ATOM     14  H6  UNL     1      -3.912   0.587  -1.844  1.00  0.00     0.163 HD
HETATM   15  C19 UNL     1      -2.866  -0.848  -0.910  1.00  0.00     0.241 C 
HETATM   16  O3  UNL     1      -2.272  -1.355  -1.902  1.00  0.00    -0.271 OA
HETATM   17  C20 UNL     1      -3.014  -1.775   0.292  1.00  0.00     0.176 C 
HETATM   18  N7  UNL     1      -2.144  -2.899   0.073  1.00  0.00    -0.356 N 
ATOM     19  H7  UNL     1      -2.227  -3.327  -0.849  1.00  0.00     0.162 HD
HETATM   20  C25 UNL     1      -1.210  -3.498   0.908  1.00  0.00     0.159 C 
HETATM   21  C26 UNL     1      -0.399  -2.994   1.985  1.00  0.00     0.059 C 
HETATM   22  C27 UNL     1      -0.675  -3.583   3.368  1.00  0.00     0.072 C 
HETATM   23  N8  UNL     1       0.558  -2.120   1.888  1.00  0.00    -0.327 N 
ATOM     24  H8  UNL     1       1.028  -1.876   2.760  1.00  0.00     0.168 HD
HETATM   25  C28 UNL     1       1.025  -1.472   0.741  1.00  0.00     0.224 C 
HETATM   26  O5  UNL     1       1.340  -0.247   0.889  1.00  0.00    -0.273 OA
HETATM   27  C29 UNL     1       1.181  -2.062  -0.581  1.00  0.00     0.128 C 
HETATM   28  C30 UNL     1       2.564  -1.876  -1.214  1.00  0.00     0.094 C 
ENDROOT
BRANCH   1  29
HETATM   29  C2  UNL     1       4.160   0.017  -1.461  1.00  0.00     0.003 C 
HETATM   30  C1  UNL     1       5.023   0.082  -2.476  1.00  0.00     0.038 C 
BRANCH  29  31
HETATM   31  C3  UNL     1       4.630   0.652  -0.174  1.00  0.00     0.083 C 
BRANCH  31  32
HETATM   32  C4  UNL     1       5.951   1.240  -0.279  1.00  0.00    -0.019 C 
HETATM   33  C5  UNL     1       7.014   0.998   0.380  1.00  0.00     0.015 C 
BRANCH  33  34
HETATM   34  C6  UNL     1       7.415   0.116   1.457  1.00  0.00     0.106 C 
BRANCH  34  35
HETATM   35  N1  UNL     1       6.503  -0.762   2.075  1.00  0.00    -0.318 N 
ATOM     36  H1  UNL     1       5.523  -0.882   1.818  1.00  0.00     0.185 HD
BRANCH  35  37
HETATM   37  N2  UNL     1       7.190  -1.462   3.132  1.00  0.00    -0.345 N 
ATOM     38  H22 UNL     1       8.171  -1.332   3.378  1.00  0.00     0.176 HD
ATOM     39  H21 UNL     1       6.530  -2.098   3.579  1.00  0.00     0.176 HD
ENDBRANCH  35  37
ENDBRANCH  34  35
ENDBRANCH  33  34
ENDBRANCH  31  32
ENDBRANCH  29  31
ENDBRANCH   1  29
BRANCH  28  40
HETATM   40  C31 UNL     1       3.507  -2.689  -0.407  1.00  0.00     0.021 C 
HETATM   41  C32 UNL     1       4.836  -2.987  -1.047  1.00  0.00     0.007 C 
ENDBRANCH  28  40
BRANCH   7  42
HETATM   42  C10 UNL     1      -0.311   4.040  -2.306  1.00  0.00     0.009 C 
HETATM   43  C11 UNL     1      -1.680   4.437  -2.684  1.00  0.00     0.012 C 
HETATM   44  C12 UNL     1       0.562   3.927  -3.545  1.00  0.00     0.012 C 
ENDBRANCH   7  42
BRANCH  20  45
HETATM   45  O4  UNL     1      -1.025  -4.771   0.676  1.00  0.00    -0.345 OA
ATOM     46  H4  UNL     1      -0.386  -5.181   1.247  1.00  0.00     0.219 HD
ENDBRANCH  20  45
BRANCH  12  47
HETATM   47  C15 UNL     1      -4.159   1.737   0.823  1.00  0.00     0.038 C 
BRANCH  47  48
HETATM   48  C16 UNL     1      -4.179   3.089   1.461  1.00  0.00    -0.020 C 
HETATM   49  C17 UNL     1      -5.254   3.060   2.550  1.00  0.00     0.009 C 
HETATM   50  C18 UNL     1      -4.523   4.205   0.534  1.00  0.00     0.009 C 
ENDBRANCH  47  48
ENDBRANCH  12  47
BRANCH  17  51
HETATM   51  C21 UNL     1      -4.450  -2.108   0.481  1.00  0.00     0.038 C 
BRANCH  51  52
HETATM   52  C22 UNL     1      -4.925  -2.958   1.557  1.00  0.00    -0.020 C 
HETATM   53  C23 UNL     1      -4.434  -4.372   1.599  1.00  0.00     0.009 C 
HETATM   54  C24 UNL     1      -6.462  -3.068   1.391  1.00  0.00     0.009 C 
ENDBRANCH  51  52
ENDBRANCH  17  51
TORSDOF 13
