REMARK  13 active torsions:
REMARK  status: ('A' for Active; 'I' for Inactive)
REMARK    1  A    between atoms: C2_2  and  C3_3 
REMARK    2  A    between atoms: C3_3  and  C4_4 
REMARK    3  A    between atoms: N1_10  and  C10_11 
REMARK    4  A    between atoms: C10_11  and  C11_12 
REMARK    5  A    between atoms: N5_27  and  C18_28 
REMARK    6  A    between atoms: C18_28  and  O3_29 
REMARK    7  A    between atoms: C18_28  and  C19_31 
REMARK    8  A    between atoms: C19_31  and  N6_32 
REMARK    9  A    between atoms: C19_31  and  C32_53 
REMARK       I    between atoms: N6_32  and  C20_34 
REMARK   10  A    between atoms: C20_34  and  C21_36 
REMARK   11  A    between atoms: C21_36  and  N7_37 
REMARK   12  A    between atoms: C21_36  and  C29_50 
REMARK       I    between atoms: N7_37  and  C22_39 
REMARK       I    between atoms: N9_41  and  C23_43 
REMARK   13  A    between atoms: C23_43  and  C24_45 
ROOT
HETATM    1  C18 UNL     1      -0.664  -2.124   0.994  1.00  0.00     0.139 C 
ENDROOT
BRANCH   1   2
HETATM    2  N5  UNL     1      -2.011  -1.961   1.283  1.00  0.00    -0.336 N 
HETATM    3  C11 UNL     1      -2.958  -1.140   0.575  1.00  0.00     0.227 C 
HETATM    4  N2  UNL     1      -4.303  -1.415   1.062  1.00  0.00    -0.333 N 
HETATM    5  C12 UNL     1      -5.154  -2.438   0.595  1.00  0.00     0.242 C 
ATOM      6  H2  UNL     1      -4.660  -0.815   1.806  1.00  0.00     0.165 HD
HETATM    7  O1  UNL     1      -6.036  -2.868   1.401  1.00  0.00    -0.271 OA
HETATM    8  C13 UNL     1      -5.125  -3.067  -0.741  1.00  0.00     0.174 C 
HETATM    9  C14 UNL     1      -6.565  -3.359  -1.110  1.00  0.00     0.042 C 
HETATM   10  N3  UNL     1      -4.320  -4.275  -0.738  1.00  0.00    -0.330 N 
HETATM   11  C15 UNL     1      -4.208  -5.177   0.369  1.00  0.00     0.316 C 
ATOM     12  H3  UNL     1      -3.797  -4.497  -1.585  1.00  0.00     0.165 HD
HETATM   13  O2  UNL     1      -4.535  -6.417   0.169  1.00  0.00    -0.247 OA
HETATM   14  N4  UNL     1      -3.765  -4.809   1.673  1.00  0.00    -0.342 N 
HETATM   15  C16 UNL     1      -2.529  -4.188   2.026  1.00  0.00     0.144 C 
ATOM     16  H4  UNL     1      -4.404  -5.013   2.441  1.00  0.00     0.164 HD
HETATM   17  C17 UNL     1      -2.563  -2.752   2.413  1.00  0.00     0.147 C 
BRANCH   3  18
HETATM   18  C10 UNL     1      -2.641   0.328   0.668  1.00  0.00     0.105 C 
BRANCH  18  19
HETATM   19  N1  UNL     1      -3.466   1.138  -0.091  1.00  0.00    -0.385 N 
HETATM   20  C4  UNL     1      -4.787   1.436   0.159  1.00  0.00     0.087 C 
HETATM   21  C5  UNL     1      -5.299   2.391  -0.946  1.00  0.00     0.029 C 
HETATM   22  C6  UNL     1      -5.014   1.886  -2.319  1.00  0.00    -0.015 C 
HETATM   23  C7  UNL     1      -5.290   3.031  -3.276  1.00  0.00     0.010 C 
HETATM   24  C8  UNL     1      -3.552   1.478  -2.456  1.00  0.00     0.024 C 
HETATM   25  C9  UNL     1      -2.834   1.857  -1.174  1.00  0.00     0.123 C 
BRANCH  20  26
HETATM   26  C3  UNL     1      -5.029   2.236   1.443  1.00  0.00     0.051 C 
BRANCH  26  27
HETATM   27  C2  UNL     1      -6.488   2.492   1.506  1.00  0.00    -0.035 C 
HETATM   28  C1  UNL     1      -6.968   3.721   1.512  1.00  0.00     0.007 C 
ENDBRANCH  26  27
ENDBRANCH  20  26
ENDBRANCH  18  19
ENDBRANCH   3  18
ENDBRANCH   1   2
BRANCH   1  29
HETATM   29  O3  UNL     1       0.014  -2.824   1.873  1.00  0.00    -0.348 OA
ATOM     30  H3  UNL     1       0.936  -2.936   1.675  1.00  0.00     0.219 HD
ENDBRANCH   1  29
BRANCH   1  31
HETATM   31  C19 UNL     1       0.149  -1.654  -0.130  1.00  0.00     0.162 C 
BRANCH  31  32
HETATM   32  N6  UNL     1       1.467  -1.236   0.377  1.00  0.00    -0.347 N 
HETATM   33  C20 UNL     1       2.138  -0.085  -0.086  1.00  0.00     0.241 C 
HETATM   34  O4  UNL     1       1.704   0.695  -0.967  1.00  0.00    -0.271 OA
ATOM     35  H6  UNL     1       1.915  -1.805   1.096  1.00  0.00     0.163 HD
BRANCH  33  36
HETATM   36  C21 UNL     1       3.485   0.227   0.532  1.00  0.00     0.179 C 
BRANCH  36  37
HETATM   37  N7  UNL     1       4.051   1.384  -0.082  1.00  0.00    -0.351 N 
HETATM   38  C22 UNL     1       5.435   1.782   0.045  1.00  0.00     0.191 C 
HETATM   39  N8  UNL     1       5.736   3.166   0.093  1.00  0.00    -0.063 NA
HETATM   40  N9  UNL     1       6.354   0.924   0.105  1.00  0.00    -0.301 N 
HETATM   41  C23 UNL     1       7.723   0.978   0.223  1.00  0.00     0.228 C 
ATOM     42  H9  UNL     1       6.002  -0.032   0.054  1.00  0.00     0.171 HD
HETATM   43  O5  UNL     1       8.319  -0.169   0.301  1.00  0.00    -0.273 OA
ATOM     44  H7  UNL     1       3.438   1.970  -0.649  1.00  0.00     0.163 HD
BRANCH  41  45
HETATM   45  C24 UNL     1       8.603   2.173   0.273  1.00  0.00     0.078 C 
HETATM   46  C25 UNL     1      10.013   1.727   0.670  1.00  0.00     0.014 C 
HETATM   47  C26 UNL     1      10.732   1.608  -0.672  1.00  0.00     0.001 C 
HETATM   48  C27 UNL     1      10.191   2.813  -1.428  1.00  0.00     0.001 C 
HETATM   49  C28 UNL     1       8.748   2.866  -1.033  1.00  0.00     0.014 C 
ENDBRANCH  41  45
ENDBRANCH  36  37
BRANCH  36  50
HETATM   50  C29 UNL     1       3.274   0.451   2.017  1.00  0.00     0.009 C 
HETATM   51  C30 UNL     1       4.508   0.761   2.804  1.00  0.00     0.012 C 
HETATM   52  C31 UNL     1       2.281   1.593   2.249  1.00  0.00     0.012 C 
ENDBRANCH  36  50
ENDBRANCH  33  36
ENDBRANCH  31  32
BRANCH  31  53
HETATM   53  C32 UNL     1       0.482  -2.807  -1.090  1.00  0.00     0.008 C 
HETATM   54  C33 UNL     1      -0.729  -3.455  -1.678  1.00  0.00     0.012 C 
HETATM   55  C34 UNL     1       1.293  -2.256  -2.259  1.00  0.00     0.012 C 
ENDBRANCH  31  53
ENDBRANCH   1  31
TORSDOF 13
