REMARK  6 active torsions:
REMARK  status: ('A' for Active; 'I' for Inactive)
REMARK    1  A    between atoms: C1_4  and  N2_5 
REMARK    2  A    between atoms: C1_4  and  C9_25 
REMARK    3  A    between atoms: C3_10  and  N4_11 
REMARK    4  A    between atoms: C8_19  and  N6_20 
REMARK    5  A    between atoms: C9_25  and  O3_27 
REMARK    6  A    between atoms: O3_27  and  N8_28 
ROOT
HETATM    1  N2  UNL     1       2.239   0.741   0.048  1.00  0.00    -0.170 N 
ATOM      2  H2  UNL     1       1.961   1.703  -0.144  1.00  0.00     0.186 HD
HETATM    3  C2  UNL     1       1.252  -0.028   0.202  1.00  0.00     0.713 A 
HETATM    4  N3  UNL     1      -0.021   0.487   0.101  1.00  0.00    -0.021 N 
ATOM      5  H3  UNL     1      -0.115   1.483  -0.097  1.00  0.00     0.203 HD
HETATM    6  C3  UNL     1      -1.134  -0.221   0.243  1.00  0.00     0.709 A 
HETATM    7  N5  UNL     1      -0.970  -1.551   0.508  1.00  0.00    -0.022 N 
ATOM      8  H5  UNL     1      -1.797  -2.137   0.626  1.00  0.00     0.203 HD
HETATM    9  C8  UNL     1       0.234  -2.107   0.617  1.00  0.00     0.705 A 
HETATM   10  N7  UNL     1       1.350  -1.333   0.462  1.00  0.00    -0.021 N 
ATOM     11  H7  UNL     1       2.272  -1.760   0.546  1.00  0.00     0.203 HD
ENDROOT
BRANCH   1  12
HETATM   12  C1  UNL     1       3.608   0.580   0.079  1.00  0.00     0.192 C 
HETATM   13  N1  UNL     1       4.179  -0.223   0.925  1.00  0.00    -0.380 N 
ATOM     14  H12 UNL     1       3.551  -0.728   1.551  1.00  0.00     0.158 HD
ATOM     15  H11 UNL     1       5.192  -0.342   0.948  1.00  0.00     0.158 HD
BRANCH  12  16
HETATM   16  C9  UNL     1       4.509   1.305  -0.819  1.00  0.00     0.348 C 
HETATM   17  O2  UNL     1       4.067   2.102  -1.672  1.00  0.00    -0.254 OA
BRANCH  16  18
HETATM   18  O3  UNL     1       5.870   1.107  -0.721  1.00  0.00    -0.200 OA
BRANCH  18  19
HETATM   19  N8  UNL     1       6.801   1.746  -1.514  1.00  0.00    -0.302 N 
ATOM     20  H82 UNL     1       6.444   2.401  -2.210  1.00  0.00     0.184 HD
ATOM     21  H81 UNL     1       7.808   1.600  -1.442  1.00  0.00     0.184 HD
ENDBRANCH  18  19
ENDBRANCH  16  18
ENDBRANCH  12  16
ENDBRANCH   1  12
BRANCH   6  22
HETATM   22  N4  UNL     1      -2.431   0.338   0.132  1.00  0.00    -0.213 N 
HETATM   23  C4  UNL     1      -3.183   0.644   1.340  1.00  0.00     0.167 C 
HETATM   24  C5  UNL     1      -4.662   0.576   1.021  1.00  0.00     0.188 C 
HETATM   25  O1  UNL     1      -5.010  -0.312   0.049  1.00  0.00    -0.388 OA
HETATM   26  C6  UNL     1      -4.329  -0.260  -1.137  1.00  0.00     0.188 C 
HETATM   27  C7  UNL     1      -3.115   0.650  -1.097  1.00  0.00     0.167 C 
ENDBRANCH   6  22
BRANCH   9  28
HETATM   28  N6  UNL     1       0.383  -3.343   0.865  1.00  0.00    -0.234 N 
ATOM     29  H62 UNL     1      -0.450  -3.921   0.981  1.00  0.00     0.174 HD
ATOM     30  H61 UNL     1       1.306  -3.769   0.949  1.00  0.00     0.174 HD
ENDBRANCH   9  28
TORSDOF 6
