REMARK  11 active torsions:
REMARK  status: ('A' for Active; 'I' for Inactive)
REMARK    1  A    between atoms: N1_1  and  C1_4 
REMARK    2  A    between atoms: C2_7  and  N3_8 
REMARK    3  A    between atoms: C4_10  and  C5_11 
REMARK    4  A    between atoms: C5_11  and  C6_12 
REMARK    5  A    between atoms: C6_12  and  C7_13 
REMARK    6  A    between atoms: C7_13  and  C8_14 
REMARK    7  A    between atoms: C8_14  and  C9_16 
REMARK    8  A    between atoms: C9_16  and  C10_17 
REMARK    9  A    between atoms: C12_24  and  C13_25 
REMARK   10  A    between atoms: C16_29  and  O1_30 
REMARK   11  A    between atoms: C19_35  and  N6_36 
ROOT
HETATM    1  C1  UNL     1      -3.265  -2.730   2.673  1.00  0.00     0.679 A 
HETATM    2  N2  UNL     1      -2.110  -2.189   2.279  1.00  0.00    -0.176 N 
ATOM      3  H2  UNL     1      -1.224  -2.550   2.633  1.00  0.00     0.186 HD
HETATM    4  C2  UNL     1      -2.127  -1.136   1.387  1.00  0.00     0.140 A 
HETATM    5  C12 UNL     1      -3.326  -0.653   0.910  1.00  0.00     0.063 A 
HETATM    6  C19 UNL     1      -4.490  -1.254   1.352  1.00  0.00     0.129 A 
HETATM    7  N7  UNL     1      -4.454  -2.293   2.233  1.00  0.00    -0.176 N 
ATOM      8  H7  UNL     1      -5.318  -2.731   2.553  1.00  0.00     0.186 HD
ENDROOT
BRANCH   4   9
HETATM    9  N3  UNL     1      -0.933  -0.565   0.948  1.00  0.00    -0.304 N 
HETATM   10  C3  UNL     1      -0.300  -0.686  -0.360  1.00  0.00     0.158 C 
HETATM   11  C4  UNL     1       1.111  -0.963   0.178  1.00  0.00     0.102 C 
HETATM   12  N4  UNL     1       1.195   0.003   1.237  1.00  0.00    -0.358 N 
HETATM   13  C11 UNL     1      -0.020   0.229   1.685  1.00  0.00     0.192 C 
ATOM     14  H4  UNL     1       2.050   0.439   1.582  1.00  0.00     0.162 HD
HETATM   15  N5  UNL     1      -0.377   1.117   2.752  1.00  0.00    -0.063 NA
BRANCH  11  16
HETATM   16  C5  UNL     1       2.173  -0.892  -0.857  1.00  0.00     0.027 C 
BRANCH  16  17
HETATM   17  C6  UNL     1       3.484  -1.214  -0.156  1.00  0.00     0.005 C 
BRANCH  17  18
HETATM   18  C7  UNL     1       4.657  -1.211  -1.076  1.00  0.00     0.037 C 
BRANCH  18  19
HETATM   19  C8  UNL     1       4.885   0.129  -1.741  1.00  0.00     0.175 C 
HETATM   20  F1  UNL     1       5.966   0.056  -2.569  1.00  0.00    -0.249 F 
BRANCH  19  21
HETATM   21  C9  UNL     1       5.184   1.126  -0.645  1.00  0.00     0.108 C 
BRANCH  21  22
HETATM   22  C10 UNL     1       5.434   2.506  -1.232  1.00  0.00     0.355 C 
HETATM   23  F2  UNL     1       5.706   3.416  -0.245  1.00  0.00    -0.214 F 
HETATM   24  F3  UNL     1       4.398   2.885  -2.058  1.00  0.00    -0.214 F 
ENDBRANCH  21  22
ENDBRANCH  19  21
ENDBRANCH  18  19
ENDBRANCH  17  18
ENDBRANCH  16  17
ENDBRANCH  11  16
ENDBRANCH   4   9
BRANCH   5  25
HETATM   25  C13 UNL     1      -3.315   0.454  -0.033  1.00  0.00    -0.015 A 
HETATM   26  C14 UNL     1      -3.234   1.771   0.274  1.00  0.00     0.039 A 
HETATM   27  C15 UNL     1      -3.238   2.738  -0.702  1.00  0.00     0.069 A 
HETATM   28 CL1  UNL     1      -3.132   4.448  -0.280  1.00  0.00    -0.081 Cl
HETATM   29  C16 UNL     1      -3.325   2.398  -2.031  1.00  0.00     0.109 A 
HETATM   30  C17 UNL     1      -3.408   1.075  -2.377  1.00  0.00     0.069 A 
HETATM   31 CL2  UNL     1      -3.523   0.636  -4.089  1.00  0.00    -0.081 Cl
HETATM   32  C18 UNL     1      -3.402   0.128  -1.379  1.00  0.00     0.039 A 
BRANCH  29  33
HETATM   33  O1  UNL     1      -3.328   3.402  -3.007  1.00  0.00    -0.357 OA
ATOM     34  H1  UNL     1      -3.388   3.167  -3.926  1.00  0.00     0.217 HD
ENDBRANCH  29  33
ENDBRANCH   5  25
BRANCH   1  35
HETATM   35  N1  UNL     1      -3.175  -3.714   3.527  1.00  0.00    -0.234 N 
ATOM     36  H12 UNL     1      -2.271  -4.046   3.862  1.00  0.00     0.174 HD
ATOM     37  H11 UNL     1      -4.058  -4.127   3.828  1.00  0.00     0.174 HD
ENDBRANCH   1  35
BRANCH   6  38
HETATM   38  N6  UNL     1      -5.616  -0.795   0.901  1.00  0.00    -0.384 N 
ATOM     39  H62 UNL     1      -5.643  -0.017   0.242  1.00  0.00     0.157 HD
ATOM     40  H61 UNL     1      -6.475  -1.238   1.227  1.00  0.00     0.157 HD
ENDBRANCH   6  38
TORSDOF 11
