REMARK  11 active torsions:
REMARK  status: ('A' for Active; 'I' for Inactive)
REMARK    1  A    between atoms: N1_1  and  C1_4 
REMARK    2  A    between atoms: C2_7  and  C3_8 
REMARK    3  A    between atoms: C3_8  and  C4_9 
REMARK    4  A    between atoms: C4_9  and  N3_10 
REMARK    5  A    between atoms: C6_12  and  N4_13 
REMARK    6  A    between atoms: N4_13  and  C7_15 
REMARK    7  A    between atoms: C7_15  and  C8_16 
REMARK    8  A    between atoms: C8_16  and  O1_17 
REMARK    9  A    between atoms: C8_16  and  C9_19 
REMARK   10  A    between atoms: C12_23  and  O2_24 
REMARK   11  A    between atoms: C17_34  and  N6_35 
ROOT
HETATM    1  N3  UNL     1       1.810  -1.063   0.637  1.00  0.00    -0.301 N 
HETATM    2  C5  UNL     1       0.873  -1.707  -0.125  1.00  0.00     0.140 A 
HETATM    3  C6  UNL     1      -0.159  -0.845  -0.452  1.00  0.00     0.062 A 
HETATM    4  C15 UNL     1       0.186   0.346   0.136  1.00  0.00     0.138 A 
HETATM    5  N5  UNL     1       1.354   0.161   0.762  1.00  0.00    -0.308 N 
ATOM      6  H5  UNL     1       1.838   0.893   1.281  1.00  0.00     0.186 HD
ENDROOT
BRANCH   1   7
HETATM    7  C4  UNL     1       2.983  -1.655   1.214  1.00  0.00     0.154 C 
BRANCH   7   8
HETATM    8  C3  UNL     1       4.229  -1.669   0.420  1.00  0.00     0.081 C 
BRANCH   8   9
HETATM    9  C2  UNL     1       4.807  -0.381   0.035  1.00  0.00     0.053 A 
HETATM   10  N2  UNL     1       4.681   0.719   0.759  1.00  0.00    -0.194 N 
HETATM   11  C1  UNL     1       5.240   1.912   0.422  1.00  0.00     0.677 A 
ATOM     12  H2  UNL     1       4.134   0.670   1.618  1.00  0.00     0.184 HD
HETATM   13  N7  UNL     1       5.973   2.000  -0.719  1.00  0.00    -0.176 N 
HETATM   14  C17 UNL     1       6.152   0.931  -1.516  1.00  0.00     0.138 A 
ATOM     15  H7  UNL     1       6.395   2.892  -0.976  1.00  0.00     0.186 HD
HETATM   16  C16 UNL     1       5.570  -0.261  -1.141  1.00  0.00     0.101 A 
HETATM   17 CL3  UNL     1       5.768  -1.680  -2.126  1.00  0.00    -0.078 Cl
BRANCH  11  18
HETATM   18  N1  UNL     1       5.051   2.939   1.183  1.00  0.00    -0.234 N 
ATOM     19  H12 UNL     1       4.501   2.873   2.039  1.00  0.00     0.174 HD
ATOM     20  H11 UNL     1       5.470   3.834   0.930  1.00  0.00     0.174 HD
ENDBRANCH  11  18
BRANCH  14  21
HETATM   21  N6  UNL     1       6.860   1.070  -2.581  1.00  0.00    -0.384 N 
ATOM     22  H62 UNL     1       6.996   0.260  -3.185  1.00  0.00     0.157 HD
ATOM     23  H61 UNL     1       7.291   1.952  -2.858  1.00  0.00     0.157 HD
ENDBRANCH  14  21
ENDBRANCH   8   9
ENDBRANCH   7   8
ENDBRANCH   1   7
BRANCH   3  24
HETATM   24  N4  UNL     1      -1.284  -1.154  -1.235  1.00  0.00    -0.385 N 
ATOM     25  H4  UNL     1      -1.201  -1.927  -1.896  1.00  0.00     0.159 HD
BRANCH  24  26
HETATM   26  C7  UNL     1      -2.538  -0.467  -1.176  1.00  0.00     0.156 C 
BRANCH  26  27
HETATM   27  C8  UNL     1      -3.246  -0.834   0.100  1.00  0.00     0.169 C 
BRANCH  27  28
HETATM   28  O1  UNL     1      -2.472  -0.444   1.177  1.00  0.00    -0.389 OA
ATOM     29  H1  UNL     1      -2.919  -0.676   1.983  1.00  0.00     0.210 HD
ENDBRANCH  27  28
BRANCH  27  30
HETATM   30  C9  UNL     1      -4.617  -0.255   0.154  1.00  0.00    -0.025 A 
HETATM   31  C10 UNL     1      -5.740  -1.042   0.051  1.00  0.00     0.036 A 
HETATM   32  C11 UNL     1      -7.024  -0.474   0.085  1.00  0.00     0.069 A 
HETATM   33 CL1  UNL     1      -8.450  -1.475  -0.035  1.00  0.00    -0.081 Cl
HETATM   34  C12 UNL     1      -7.186   0.882   0.223  1.00  0.00     0.109 A 
HETATM   35  C13 UNL     1      -6.066   1.670   0.326  1.00  0.00     0.069 A 
HETATM   36 CL2  UNL     1      -6.311   3.390   0.495  1.00  0.00    -0.081 Cl
HETATM   37  C14 UNL     1      -4.798   1.107   0.292  1.00  0.00     0.036 A 
BRANCH  34  38
HETATM   38  O2  UNL     1      -8.474   1.470   0.258  1.00  0.00    -0.357 OA
ATOM     39  H2  UNL     1      -8.586   2.409   0.354  1.00  0.00     0.217 HD
ENDBRANCH  34  38
ENDBRANCH  27  30
ENDBRANCH  26  27
ENDBRANCH  24  26
ENDBRANCH   3  24
TORSDOF 11
