REMARK  11 active torsions:
REMARK  status: ('A' for Active; 'I' for Inactive)
REMARK    1  A    between atoms: O1_2  and  C2_3 
REMARK    2  A    between atoms: C4_7  and  N2_8 
REMARK    3  A    between atoms: N2_8  and  C5_10 
REMARK    4  A    between atoms: C5_10  and  C6_11 
REMARK    5  A    between atoms: C5_10  and  C7_14 
REMARK    6  A    between atoms: C6_11  and  O2_12 
REMARK    7  A    between atoms: C7_14  and  C8_15 
REMARK    8  A    between atoms: C8_15  and  C9_16 
REMARK    9  A    between atoms: C9_16  and  N3_17 
REMARK   10  A    between atoms: N3_17  and  C10_19 
REMARK   11  A    between atoms: C13_23  and  O3_24 
ROOT
HETATM    1  C5  UNL     1       0.584  -0.934  -0.371  1.00  0.00     0.106 C 
ENDROOT
BRANCH   1   2
HETATM    2  N2  UNL     1       1.930  -0.694  -0.193  1.00  0.00    -0.368 N 
ATOM      3  H2  UNL     1       2.127   0.191  -0.660  1.00  0.00     0.161 HD
BRANCH   2   4
HETATM    4  C4  UNL     1       3.000  -1.080   0.283  1.00  0.00     0.132 A 
HETATM    5  C3  UNL     1       4.108  -0.241   0.056  1.00  0.00     0.107 A 
HETATM    6  N1  UNL     1       4.218   0.948  -0.609  1.00  0.00    -0.331 N 
HETATM    7  C17 UNL     1       5.331  -0.578   0.541  1.00  0.00     0.090 A 
HETATM    8  C2  UNL     1       5.487   1.391  -0.568  1.00  0.00     0.167 A 
ATOM      9  H1  UNL     1       3.447   1.431  -1.071  1.00  0.00     0.168 HD
HETATM   10  C18 UNL     1       6.192   0.447   0.148  1.00  0.00     0.114 A 
HETATM   11 CL3  UNL     1       7.888   0.513   0.509  1.00  0.00    -0.077 Cl
HETATM   12  N5  UNL     1       5.478  -1.720   1.240  1.00  0.00    -0.349 N 
HETATM   13  C16 UNL     1       4.416  -2.531   1.462  1.00  0.00     0.182 A 
ATOM     14  H5  UNL     1       6.396  -1.976   1.605  1.00  0.00     0.166 HD
HETATM   15  N4  UNL     1       3.205  -2.206   0.987  1.00  0.00    -0.337 N 
ATOM     16  H4  UNL     1       2.418  -2.830   1.165  1.00  0.00     0.168 HD
BRANCH   8  17
HETATM   17  O1  UNL     1       5.996   2.569  -1.134  1.00  0.00    -0.339 OA
HETATM   18  C1  UNL     1       5.903   3.807  -0.417  1.00  0.00     0.211 C 
ENDBRANCH   8  17
ENDBRANCH   2   4
ENDBRANCH   1   2
BRANCH   1  19
HETATM   19  C6  UNL     1       0.087  -2.351  -0.244  1.00  0.00     0.189 C 
BRANCH  19  20
HETATM   20  O2  UNL     1       0.687  -3.228  -1.143  1.00  0.00    -0.399 OA
ATOM     21  H2  UNL     1       0.374  -4.121  -1.063  1.00  0.00     0.209 HD
ENDBRANCH  19  20
ENDBRANCH   1  19
BRANCH   1  22
HETATM   22  C7  UNL     1       0.032  -0.289  -1.654  1.00  0.00     0.029 C 
BRANCH  22  23
HETATM   23  C8  UNL     1      -1.415  -0.508  -1.880  1.00  0.00     0.022 C 
BRANCH  23  24
HETATM   24  C9  UNL     1      -2.307   0.039  -0.783  1.00  0.00     0.120 C 
BRANCH  24  25
HETATM   25  N3  UNL     1      -3.704  -0.219  -1.079  1.00  0.00    -0.390 N 
ATOM     26  H3  UNL     1      -3.937  -0.711  -1.942  1.00  0.00     0.159 HD
BRANCH  25  27
HETATM   27  C10 UNL     1      -4.753   0.180  -0.227  1.00  0.00     0.031 A 
HETATM   28  C11 UNL     1      -4.517   0.845   0.951  1.00  0.00     0.056 A 
HETATM   29  C12 UNL     1      -5.585   1.222   1.766  1.00  0.00     0.071 A 
HETATM   30 CL1  UNL     1      -5.299   2.072   3.274  1.00  0.00    -0.081 Cl
HETATM   31  C13 UNL     1      -6.891   0.946   1.422  1.00  0.00     0.109 A 
HETATM   32  C14 UNL     1      -7.127   0.279   0.242  1.00  0.00     0.071 A 
HETATM   33 CL2  UNL     1      -8.765  -0.089  -0.228  1.00  0.00    -0.081 Cl
HETATM   34  C15 UNL     1      -6.064  -0.090  -0.558  1.00  0.00     0.056 A 
BRANCH  31  35
HETATM   35  O3  UNL     1      -7.962   1.330   2.250  1.00  0.00    -0.357 OA
ATOM     36  H3  UNL     1      -8.862   1.140   2.013  1.00  0.00     0.217 HD
ENDBRANCH  31  35
ENDBRANCH  25  27
ENDBRANCH  24  25
ENDBRANCH  23  24
ENDBRANCH  22  23
ENDBRANCH   1  22
TORSDOF 11
