REMARK  7 active torsions:
REMARK  status: ('A' for Active; 'I' for Inactive)
REMARK    1  A    between atoms: C4_4  and  N1_5 
REMARK    2  A    between atoms: C5_8  and  C6_9 
REMARK    3  A    between atoms: C10_13  and  O1_14 
REMARK    4  A    between atoms: O1_14  and  C11_15 
REMARK    5  A    between atoms: C11_15  and  C12_16 
REMARK    6  A    between atoms: C14_25  and  N5_26 
REMARK       I    between atoms: N5_26  and  C15_28 
REMARK       I    between atoms: C15_28  and  N6_30 
REMARK    7  A    between atoms: N6_30  and  C16_32 
ROOT
HETATM    1  N1  UNL     1       1.278   2.940   0.596  1.00  0.00    -0.239 N 
HETATM    2  N2  UNL     1       0.041   2.538   0.702  1.00  0.00    -0.289 N 
ATOM      3  H2  UNL     1      -0.738   3.161   0.916  1.00  0.00     0.188 HD
HETATM    4  C5  UNL     1      -0.098   1.223   0.500  1.00  0.00     0.094 A 
HETATM    5  C14 UNL     1       1.219   0.751   0.233  1.00  0.00     0.124 A 
HETATM    6  C19 UNL     1       2.049   1.846   0.301  1.00  0.00     0.238 A 
HETATM    7  F3  UNL     1       3.394   1.892   0.104  1.00  0.00    -0.182 F 
ENDROOT
BRANCH   4   8
HETATM    8  C6  UNL     1      -1.317   0.424   0.572  1.00  0.00     0.039 A 
HETATM    9  C7  UNL     1      -1.807  -0.287  -0.503  1.00  0.00     0.028 A 
HETATM   10  C8  UNL     1      -2.988  -1.036  -0.412  1.00  0.00    -0.010 A 
HETATM   11  C9  UNL     1      -3.484  -1.789  -1.602  1.00  0.00     0.052 C 
HETATM   12  C10 UNL     1      -3.671  -1.055   0.789  1.00  0.00     0.149 A 
HETATM   13  N3  UNL     1      -3.193  -0.364   1.826  1.00  0.00    -0.322 N 
HETATM   14  C13 UNL     1      -2.053   0.355   1.730  1.00  0.00     0.113 A 
ATOM     15  H3  UNL     1      -3.700  -0.379   2.711  1.00  0.00     0.169 HD
HETATM   16  N4  UNL     1      -1.686   0.973   2.794  1.00  0.00    -0.385 N 
ATOM     17  H42 UNL     1      -0.825   1.516   2.722  1.00  0.00     0.157 HD
ATOM     18  H41 UNL     1      -2.232   0.922   3.654  1.00  0.00     0.157 HD
BRANCH  12  19
HETATM   19  O1  UNL     1      -4.837  -1.804   0.862  1.00  0.00    -0.330 OA
BRANCH  19  20
HETATM   20  C11 UNL     1      -6.062  -1.169   0.664  1.00  0.00     0.248 C 
BRANCH  20  21
HETATM   21  C12 UNL     1      -7.235  -2.131   0.782  1.00  0.00     0.377 C 
HETATM   22  F1  UNL     1      -8.382  -1.395   0.569  1.00  0.00    -0.212 F 
HETATM   23  F2  UNL     1      -7.144  -3.066  -0.218  1.00  0.00    -0.212 F 
ENDBRANCH  20  21
ENDBRANCH  19  20
ENDBRANCH  12  19
ENDBRANCH   4   8
BRANCH   5  24
HETATM   24  N5  UNL     1       1.455  -0.600  -0.058  1.00  0.00    -0.303 N 
HETATM   25  C15 UNL     1       2.681  -1.270  -0.081  1.00  0.00     0.326 C 
HETATM   26  O2  UNL     1       3.745  -0.706   0.181  1.00  0.00    -0.247 OA
HETATM   27  N6  UNL     1       2.761  -2.650  -0.413  1.00  0.00    -0.293 N 
ATOM     28  H6  UNL     1       1.890  -3.129  -0.643  1.00  0.00     0.172 HD
ATOM     29  H5  UNL     1       0.633  -1.161  -0.280  1.00  0.00     0.171 HD
BRANCH  27  30
HETATM   30  C16 UNL     1       3.951  -3.411  -0.449  1.00  0.00     0.129 A 
HETATM   31  C17 UNL     1       5.245  -3.041  -0.190  1.00  0.00     0.125 A 
HETATM   32  C18 UNL     1       6.073  -4.149  -0.361  1.00  0.00     0.263 A 
HETATM   33  O3  UNL     1       7.310  -4.147  -0.202  1.00  0.00    -0.267 OA
HETATM   34  N7  UNL     1       5.282  -5.157  -0.716  1.00  0.00    -0.265 N 
HETATM   35  N8  UNL     1       4.031  -4.742  -0.773  1.00  0.00    -0.282 N 
ATOM     36  H7  UNL     1       5.595  -6.107  -0.914  1.00  0.00     0.190 HD
ATOM     37  H8  UNL     1       3.235  -5.328  -1.023  1.00  0.00     0.188 HD
ENDBRANCH  27  30
ENDBRANCH   5  24
BRANCH   1  38
HETATM   38  C4  UNL     1       1.819   4.244   0.743  1.00  0.00     0.121 C 
HETATM   39  C2  UNL     1       1.983   4.999  -0.322  1.00  0.00    -0.070 C 
HETATM   40  C1  UNL     1       2.556   6.367  -0.127  1.00  0.00     0.044 C 
HETATM   41  C3  UNL     1       1.608   4.490  -1.647  1.00  0.00     0.044 C 
ENDBRANCH   1  38
TORSDOF 7
