REMARK  9 active torsions:
REMARK  status: ('A' for Active; 'I' for Inactive)
REMARK    1  A    between atoms: C3_3  and  C4_4 
REMARK    2  A    between atoms: C4_4  and  C5_5 
REMARK    3  A    between atoms: C5_5  and  O1_6 
REMARK    4  A    between atoms: N1_8  and  O2_10 
REMARK    5  A    between atoms: C9_18  and  N2_19 
REMARK    6  A    between atoms: N2_19  and  C10_21 
REMARK    7  A    between atoms: C12_26  and  C13_27 
REMARK       I    between atoms: C13_27  and  N4_29 
REMARK    8  A    between atoms: N4_29  and  C14_31 
REMARK    9  A    between atoms: C14_31  and  C15_32 
ROOT
HETATM    1  C10 UNL     1       1.204  -0.090  -0.679  1.00  0.00     0.684 A 
HETATM    2  N3  UNL     1       0.969   0.825   0.261  1.00  0.00    -0.178 N 
ATOM      3  H3  UNL     1       1.640   1.505   0.617  1.00  0.00     0.185 HD
HETATM    4  C11 UNL     1      -0.293   0.695   0.653  1.00  0.00     0.152 A 
HETATM    5 CL1  UNL     1      -0.985   1.733   1.889  1.00  0.00    -0.061 Cl
HETATM    6  C12 UNL     1      -0.886  -0.320  -0.042  1.00  0.00     0.155 A 
HETATM    7  N6  UNL     1       0.083  -0.787  -0.866  1.00  0.00    -0.183 N 
ATOM      8  H6  UNL     1      -0.028  -1.555  -1.528  1.00  0.00     0.184 HD
ENDROOT
BRANCH   1   9
HETATM    9  N2  UNL     1       2.460  -0.295  -1.375  1.00  0.00    -0.188 N 
ATOM     10  H2  UNL     1       2.550  -1.024  -2.083  1.00  0.00     0.184 HD
BRANCH   9  11
HETATM   11  C9  UNL     1       3.542   0.525  -1.056  1.00  0.00     0.097 A 
HETATM   12  C2  UNL     1       4.471   0.218  -0.053  1.00  0.00    -0.022 A 
HETATM   13  C1  UNL     1       4.284  -1.026   0.692  1.00  0.00     0.051 C 
HETATM   14  C3  UNL     1       5.516   1.035   0.238  1.00  0.00    -0.001 A 
HETATM   15  C6  UNL     1       5.657   2.215  -0.494  1.00  0.00     0.165 A 
HETATM   16  F1  UNL     1       6.713   3.026  -0.189  1.00  0.00    -0.202 F 
HETATM   17  C7  UNL     1       4.763   2.559  -1.494  1.00  0.00     0.196 A 
HETATM   18  F2  UNL     1       4.943   3.724  -2.182  1.00  0.00    -0.199 F 
HETATM   19  C8  UNL     1       3.712   1.698  -1.758  1.00  0.00     0.185 A 
HETATM   20  F3  UNL     1       2.863   2.083  -2.749  1.00  0.00    -0.200 F 
BRANCH  14  21
HETATM   21  C4  UNL     1       6.463   0.667   1.293  1.00  0.00     0.128 C 
BRANCH  21  22
HETATM   22  C5  UNL     1       7.440  -0.384   0.890  1.00  0.00     0.139 C 
HETATM   23  N1  UNL     1       7.514  -1.485   1.536  1.00  0.00    -0.251 N 
ATOM     24  H1  UNL     1       6.886  -1.616   2.329  1.00  0.00     0.196 HD
BRANCH  22  25
HETATM   25  O1  UNL     1       8.299  -0.224  -0.183  1.00  0.00    -0.348 OA
ATOM     26  H1  UNL     1       8.922  -0.894  -0.440  1.00  0.00     0.219 HD
ENDBRANCH  22  25
BRANCH  23  27
HETATM   27  O2  UNL     1       8.377  -2.495   1.235  1.00  0.00    -0.288 OA
ATOM     28  H2  UNL     1       8.432  -3.313   1.715  1.00  0.00     0.244 HD
ENDBRANCH  23  27
ENDBRANCH  21  22
ENDBRANCH  14  21
ENDBRANCH   9  11
ENDBRANCH   1   9
BRANCH   6  29
HETATM   29  C13 UNL     1      -2.243  -0.837   0.038  1.00  0.00     0.272 C 
HETATM   30  O3  UNL     1      -2.509  -1.794  -0.773  1.00  0.00    -0.266 OA
HETATM   31  N4  UNL     1      -3.252  -0.385   0.905  1.00  0.00    -0.354 N 
ATOM     32  H4  UNL     1      -3.046   0.373   1.556  1.00  0.00     0.162 HD
BRANCH  31  33
HETATM   33  C14 UNL     1      -4.579  -0.970   0.896  1.00  0.00     0.155 C 
BRANCH  33  34
HETATM   34  C15 UNL     1      -5.334  -0.827  -0.380  1.00  0.00     0.203 C 
HETATM   35  C16 UNL     1      -5.552   0.614  -0.777  1.00  0.00     0.035 C 
HETATM   36  C17 UNL     1      -6.637   1.276   0.035  1.00  0.00     0.004 C 
HETATM   37  C18 UNL     1      -7.889   0.441  -0.056  1.00  0.00     0.027 C 
HETATM   38  C19 UNL     1      -7.549  -0.911   0.578  1.00  0.00     0.233 C 
HETATM   39  N5  UNL     1      -6.591  -1.549  -0.269  1.00  0.00    -0.069 N 
ATOM     40  H52 UNL     1      -6.988  -1.724  -1.192  1.00  0.00     0.277 HD
ATOM     41  H51 UNL     1      -6.428  -2.510   0.032  1.00  0.00     0.277 HD
ENDBRANCH  33  34
ENDBRANCH  31  33
ENDBRANCH   6  29
TORSDOF 9
