REMARK  12 active torsions:
REMARK  status: ('A' for Active; 'I' for Inactive)
REMARK    1  A    between atoms: C2_2  and  C3_3 
REMARK    2  A    between atoms: C3_3  and  C4_4 
REMARK    3  A    between atoms: C3_3  and  N3_20 
REMARK    4  A    between atoms: C4_4  and  O1_5 
REMARK    5  A    between atoms: O1_5  and  C5_6 
REMARK    6  A    between atoms: C5_6  and  C6_7 
REMARK    7  A    between atoms: N3_20  and  C12_22 
REMARK    8  A    between atoms: C12_22  and  O2_23 
REMARK    9  A    between atoms: C12_22  and  C13_25 
REMARK   10  A    between atoms: C14_26  and  O3_27 
REMARK   11  A    between atoms: C15_29  and  O4_30 
REMARK   12  A    between atoms: C16_32  and  O5_33 
ROOT
HETATM    1  C3  UNL     1       0.340   0.457   0.107  1.00  0.00     0.107 C 
ENDROOT
BRANCH   1   2
HETATM    2  C2  UNL     1       0.076   1.387  -1.047  1.00  0.00     0.023 C 
HETATM    3  C1  UNL     1       0.376   0.680  -2.347  1.00  0.00     0.007 C 
ENDBRANCH   1   2
BRANCH   1   4
HETATM    4  C4  UNL     1      -0.462  -0.810   0.113  1.00  0.00     0.193 C 
BRANCH   4   5
HETATM    5  O1  UNL     1      -1.772  -0.799   0.311  1.00  0.00    -0.384 OA
BRANCH   5   6
HETATM    6  C5  UNL     1      -2.671  -0.133  -0.422  1.00  0.00     0.211 C 
BRANCH   6   7
HETATM    7  C6  UNL     1      -4.060  -0.500   0.045  1.00  0.00     0.029 A 
HETATM    8  C7  UNL     1      -5.119   0.079  -0.576  1.00  0.00     0.018 A 
HETATM    9  C8  UNL     1      -5.027   1.057  -1.670  1.00  0.00     0.069 C 
HETATM   10  N1  UNL     1      -6.375  -0.262  -0.153  1.00  0.00    -0.344 N 
HETATM   11  C9  UNL     1      -6.570  -1.143   0.845  1.00  0.00     0.141 A 
ATOM     12  H1  UNL     1      -7.184   0.163  -0.606  1.00  0.00     0.167 HD
HETATM   13  N2  UNL     1      -7.769  -1.444   1.218  1.00  0.00    -0.383 N 
HETATM   14  C10 UNL     1      -5.523  -1.751   1.497  1.00  0.00     0.198 A 
ATOM     15  H22 UNL     1      -8.546  -0.993   0.734  1.00  0.00     0.157 HD
ATOM     16  H21 UNL     1      -7.917  -2.112   1.975  1.00  0.00     0.157 HD
HETATM   17  F1  UNL     1      -5.717  -2.634   2.497  1.00  0.00    -0.199 F 
HETATM   18  C11 UNL     1      -4.240  -1.393   1.056  1.00  0.00     0.169 A 
HETATM   19  F2  UNL     1      -3.175  -1.948   1.649  1.00  0.00    -0.202 F 
ENDBRANCH   6   7
ENDBRANCH   5   6
ENDBRANCH   4   5
ENDBRANCH   1   4
BRANCH   1  20
HETATM   20  N3  UNL     1       1.790   0.095  -0.049  1.00  0.00    -0.363 N 
ATOM     21  H3  UNL     1       2.092  -0.445  -0.860  1.00  0.00     0.162 HD
BRANCH  20  22
HETATM   22  C12 UNL     1       2.728   0.493   0.908  1.00  0.00     0.151 C 
BRANCH  22  23
HETATM   23  O2  UNL     1       2.203   1.176   1.882  1.00  0.00    -0.346 OA
ATOM     24  H2  UNL     1       2.840   1.446   2.532  1.00  0.00     0.219 HD
ENDBRANCH  22  23
BRANCH  22  25
HETATM   25  C13 UNL     1       4.140   0.254   0.948  1.00  0.00     0.074 A 
HETATM   26  C14 UNL     1       4.855  -0.448   0.004  1.00  0.00     0.118 A 
HETATM   27  C15 UNL     1       6.248  -0.612   0.154  1.00  0.00     0.135 A 
HETATM   28  C16 UNL     1       6.911  -0.093   1.212  1.00  0.00     0.125 A 
HETATM   29  C17 UNL     1       6.221   0.606   2.159  1.00  0.00     0.092 A 
HETATM   30 CL1  UNL     1       7.104   1.266   3.514  1.00  0.00    -0.079 Cl
HETATM   31  C18 UNL     1       4.862   0.772   2.023  1.00  0.00     0.076 A 
HETATM   32 CL2  UNL     1       4.031   1.693   3.291  1.00  0.00    -0.081 Cl
BRANCH  26  33
HETATM   33  O3  UNL     1       4.290  -0.980  -1.046  1.00  0.00    -0.357 OA
ATOM     34  H3  UNL     1       4.783  -1.464  -1.697  1.00  0.00     0.217 HD
ENDBRANCH  26  33
BRANCH  27  35
HETATM   35  O4  UNL     1       6.927  -1.331  -0.828  1.00  0.00    -0.356 OA
ATOM     36  H4  UNL     1       7.865  -1.441  -0.727  1.00  0.00     0.218 HD
ENDBRANCH  27  35
BRANCH  28  37
HETATM   37  O5  UNL     1       8.308  -0.283   1.320  1.00  0.00    -0.356 OA
ATOM     38  H5  UNL     1       8.774   0.082   2.063  1.00  0.00     0.218 HD
ENDBRANCH  28  37
ENDBRANCH  22  25
ENDBRANCH  20  22
ENDBRANCH   1  20
TORSDOF 12
