REMARK  3 active torsions:
REMARK  status: ('A' for Active; 'I' for Inactive)
REMARK    1  A    between atoms: N1_1  and  N2_4 
REMARK       I    between atoms: C1_6  and  N4_8 
REMARK    2  A    between atoms: N4_8  and  N5_10 
REMARK    3  A    between atoms: C2_12  and  C3_13 
ROOT
HETATM    1  N5  UNL     1      -0.188  -1.389  -0.684  1.00  0.00    -0.307 N 
ATOM      2  H5  UNL     1       0.009  -2.003  -1.474  1.00  0.00     0.186 HD
HETATM    3  C2  UNL     1      -1.349  -0.850  -0.592  1.00  0.00     0.139 C 
ENDROOT
BRANCH   1   4
HETATM    4  N4  UNL     1       0.809  -1.164   0.256  1.00  0.00    -0.273 N 
HETATM    5  C1  UNL     1       1.876  -0.294  -0.093  1.00  0.00     0.221 C 
HETATM    6  N2  UNL     1       2.050   0.182  -1.267  1.00  0.00    -0.279 N 
HETATM    7  N3  UNL     1       2.813   0.080   0.908  1.00  0.00    -0.061 NA
ATOM      8  H2  UNL     1       2.852   0.798  -1.400  1.00  0.00     0.189 HD
ATOM      9  H4  UNL     1       0.776  -1.611   1.172  1.00  0.00     0.189 HD
BRANCH   6  10
HETATM   10  N1  UNL     1       1.261  -0.056  -2.367  1.00  0.00    -0.343 N 
ATOM     11  H12 UNL     1       0.464  -0.674  -2.215  1.00  0.00     0.176 HD
ATOM     12  H11 UNL     1       1.400   0.324  -3.303  1.00  0.00     0.176 HD
ENDBRANCH   6  10
ENDBRANCH   1   4
BRANCH   3  13
HETATM   13  C3  UNL     1      -1.615   0.023   0.539  1.00  0.00     0.083 A 
HETATM   14  C4  UNL     1      -2.814   0.694   0.805  1.00  0.00     0.141 A 
HETATM   15  N6  UNL     1      -2.667   1.405   1.947  1.00  0.00    -0.295 N 
HETATM   16  N7  UNL     1      -1.443   1.197   2.384  1.00  0.00    -0.243 N 
ATOM     17  H6  UNL     1      -3.374   1.993   2.388  1.00  0.00     0.187 HD
HETATM   18  N8  UNL     1      -0.816   0.379   1.554  1.00  0.00    -0.284 N 
ATOM     19  H7  UNL     1      -1.041   1.602   3.229  1.00  0.00     0.208 HD
ATOM     20  H8  UNL     1       0.146   0.062   1.671  1.00  0.00     0.188 HD
ENDBRANCH   3  13
TORSDOF 3
