REMARK  6 active torsions:
REMARK  status: ('A' for Active; 'I' for Inactive)
REMARK    1  A    between atoms: N1_1  and  C1_4 
REMARK    2  A    between atoms: C2_9  and  C3_10 
REMARK    3  A    between atoms: C3_10  and  C4_11 
REMARK    4  A    between atoms: C4_11  and  N4_12 
REMARK    5  A    between atoms: C4_11  and  C5_16 
REMARK    6  A    between atoms: C5_16  and  N5_17 
ROOT
HETATM    1  C3  UNL     1      -0.608  -0.559  -0.925  1.00  0.00     0.101 C 
ENDROOT
BRANCH   1   2
HETATM    2  C2  UNL     1       0.855  -0.453  -0.601  1.00  0.00     0.071 A 
HETATM    3  N3  UNL     1       1.867  -0.355  -1.461  1.00  0.00    -0.296 N 
HETATM    4  N2  UNL     1       3.056  -0.297  -1.041  1.00  0.00    -0.279 N 
ATOM      5  H3  UNL     1       1.681  -0.327  -2.463  1.00  0.00     0.187 HD
HETATM    6  C1  UNL     1       3.284  -0.336   0.277  1.00  0.00     0.158 A 
ATOM      7  H2  UNL     1       3.833  -0.221  -1.698  1.00  0.00     0.189 HD
HETATM    8  S1  UNL     1       1.699  -0.461   0.897  1.00  0.00    -0.038 SA
BRANCH   6   9
HETATM    9  N1  UNL     1       4.450  -0.287   0.883  1.00  0.00    -0.379 N 
ATOM     10  H12 UNL     1       5.397  -0.212   0.512  1.00  0.00     0.158 HD
ATOM     11  H11 UNL     1       4.624  -0.317   1.888  1.00  0.00     0.158 HD
ENDBRANCH   6   9
ENDBRANCH   1   2
BRANCH   1  12
HETATM   12  C4  UNL     1      -1.444  -0.552   0.299  1.00  0.00     0.215 C 
BRANCH  12  13
HETATM   13  N4  UNL     1      -2.855  -0.705  -0.140  1.00  0.00    -0.073 N 
ATOM     14  H43 UNL     1      -3.140  -0.005  -0.825  1.00  0.00     0.274 HD
ATOM     15  H42 UNL     1      -3.006  -1.527  -0.725  1.00  0.00     0.274 HD
ATOM     16  H41 UNL     1      -3.430  -0.700   0.702  1.00  0.00     0.274 HD
ENDBRANCH  12  13
BRANCH  12  17
HETATM   17  C5  UNL     1      -1.390   0.769   1.033  1.00  0.00     0.262 C 
BRANCH  17  18
HETATM   18  N5  UNL     1      -1.829   1.873   0.280  1.00  0.00    -0.077 N 
ATOM     19  H53 UNL     1      -1.312   1.933  -0.597  1.00  0.00     0.274 HD
ATOM     20  H52 UNL     1      -2.768   1.706  -0.081  1.00  0.00     0.274 HD
ATOM     21  H51 UNL     1      -1.793   2.764   0.775  1.00  0.00     0.274 HD
ENDBRANCH  17  18
ENDBRANCH  12  17
ENDBRANCH   1  12
TORSDOF 6
