REMARK  4 active torsions:
REMARK  status: ('A' for Active; 'I' for Inactive)
REMARK    1  A    between atoms: N1_1  and  C1_4 
REMARK    2  A    between atoms: N3_7  and  C2_8 
REMARK    3  A    between atoms: C2_8  and  C3_9 
REMARK    4  A    between atoms: C3_9  and  N4_10 
ROOT
HETATM    1  C1  UNL     1      -1.204   1.723  -0.251  1.00  0.00     0.145 A 
HETATM    2  N2  UNL     1       0.085   1.384  -0.427  1.00  0.00    -0.280 N 
ATOM      3  H2  UNL     1       0.850   2.052  -0.519  1.00  0.00     0.189 HD
HETATM    4  N3  UNL     1       0.229   0.070  -0.465  1.00  0.00    -0.271 N 
HETATM    5  C4  UNL     1      -1.001  -0.491  -0.310  1.00  0.00     0.154 A 
HETATM    6  N5  UNL     1      -1.729  -1.619  -0.229  1.00  0.00    -0.335 N 
ATOM      7  H5  UNL     1      -1.362  -2.569  -0.290  1.00  0.00     0.168 HD
HETATM    8  C5  UNL     1      -3.018  -1.290  -0.054  1.00  0.00     0.182 A 
HETATM    9  N6  UNL     1      -3.148   0.053  -0.018  1.00  0.00    -0.346 N 
ATOM     10  H6  UNL     1      -4.009   0.586   0.103  1.00  0.00     0.167 HD
HETATM   11  C6  UNL     1      -1.908   0.540  -0.175  1.00  0.00     0.124 A 
ENDROOT
BRANCH   4  12
HETATM   12  C2  UNL     1       1.461  -0.674  -0.638  1.00  0.00     0.178 C 
BRANCH  12  13
HETATM   13  C3  UNL     1       2.132  -0.988   0.680  1.00  0.00     0.251 C 
BRANCH  13  14
HETATM   14  N4  UNL     1       2.453   0.241   1.379  1.00  0.00    -0.078 N 
ATOM     15  H43 UNL     1       3.013   0.872   0.806  1.00  0.00     0.274 HD
ATOM     16  H42 UNL     1       1.634   0.837   1.500  1.00  0.00     0.274 HD
ATOM     17  H41 UNL     1       2.906   0.029   2.268  1.00  0.00     0.274 HD
ENDBRANCH  13  14
ENDBRANCH  12  13
ENDBRANCH   4  12
BRANCH   1  18
HETATM   18  N1  UNL     1      -1.707   2.931  -0.167  1.00  0.00    -0.382 N 
ATOM     19  H12 UNL     1      -1.186   3.806  -0.223  1.00  0.00     0.157 HD
ATOM     20  H11 UNL     1      -2.685   3.188  -0.033  1.00  0.00     0.157 HD
ENDBRANCH   1  18
TORSDOF 4
