REMARK  6 active torsions:
REMARK  status: ('A' for Active; 'I' for Inactive)
REMARK    1  A    between atoms: C2_2  and  C3_3 
REMARK    2  A    between atoms: C3_3  and  C4_4 
REMARK    3  A    between atoms: C4_4  and  O1_5 
REMARK       I    between atoms: N1_13  and  C11_14 
REMARK    4  A    between atoms: C11_14  and  C12_16 
REMARK    5  A    between atoms: C12_16  and  C13_17 
REMARK    6  A    between atoms: C15_20  and  N2_21 
ROOT
HETATM    1  C3  UNL     1      -2.394   0.573   0.042  1.00  0.00    -0.010 C 
HETATM    2  C5  UNL     1      -3.574   0.087   0.889  1.00  0.00     0.012 C 
HETATM    3  C6  UNL     1      -3.724  -1.330   0.419  1.00  0.00     0.002 C 
HETATM    4  C7  UNL     1      -2.401  -1.774  -0.108  1.00  0.00     0.012 C 
HETATM    5  C8  UNL     1      -1.467  -0.581   0.148  1.00  0.00    -0.013 C 
HETATM    6  C9  UNL     1      -0.872  -0.791   1.500  1.00  0.00     0.032 C 
HETATM    7  C10 UNL     1       0.393  -1.572   1.167  1.00  0.00     0.126 C 
HETATM    8  N1  UNL     1       0.878  -0.858  -0.027  1.00  0.00    -0.351 N 
HETATM    9  C11 UNL     1       2.214  -0.510  -0.337  1.00  0.00     0.225 C 
HETATM   10  O2  UNL     1       2.454   0.100  -1.400  1.00  0.00    -0.273 OA
HETATM   11  C16 UNL     1      -0.316  -0.590  -0.813  1.00  0.00     0.136 C 
ENDROOT
BRANCH   9  12
HETATM   12  C12 UNL     1       3.281  -0.866   0.578  1.00  0.00     0.160 C 
BRANCH  12  13
HETATM   13  C13 UNL     1       4.643  -0.407   0.071  1.00  0.00     0.026 A 
HETATM   14  C14 UNL     1       5.353  -1.244  -0.744  1.00  0.00     0.078 A 
HETATM   15  S1  UNL     1       6.772  -0.346  -1.054  1.00  0.00    -0.064 SA
HETATM   16  C15 UNL     1       6.389   1.035  -0.136  1.00  0.00     0.142 A 
HETATM   17  N3  UNL     1       5.195   0.756   0.369  1.00  0.00    -0.340 N 
ATOM     18  H3  UNL     1       4.714   1.423   0.973  1.00  0.00     0.168 HD
BRANCH  16  19
HETATM   19  N2  UNL     1       7.091   2.134   0.046  1.00  0.00    -0.380 N 
ATOM     20  H22 UNL     1       8.009   2.349  -0.342  1.00  0.00     0.158 HD
ATOM     21  H21 UNL     1       6.861   2.962   0.596  1.00  0.00     0.158 HD
ENDBRANCH  16  19
ENDBRANCH  12  13
ENDBRANCH   9  12
BRANCH   1  22
HETATM   22  C2  UNL     1      -2.868   0.742  -1.356  1.00  0.00     0.008 C 
HETATM   23  C1  UNL     1      -3.981   1.752  -1.524  1.00  0.00     0.006 C 
ENDBRANCH   1  22
BRANCH   1  24
HETATM   24  C4  UNL     1      -1.875   1.884   0.555  1.00  0.00     0.174 C 
BRANCH  24  25
HETATM   25  O1  UNL     1      -0.814   2.387  -0.189  1.00  0.00    -0.400 OA
ATOM     26  H1  UNL     1      -0.485   3.217   0.136  1.00  0.00     0.209 HD
ENDBRANCH  24  25
ENDBRANCH   1  24
TORSDOF 6
