REMARK  4 active torsions:
REMARK  status: ('A' for Active; 'I' for Inactive)
REMARK    1  A    between atoms: C2_2  and  N1_4 
REMARK    2  A    between atoms: N1_4  and  C4_5 
REMARK       I    between atoms: N1_4  and  C12_14 
REMARK    3  A    between atoms: C4_5  and  C5_6 
REMARK       I    between atoms: C12_14  and  N2_16 
REMARK    4  A    between atoms: N2_16  and  C13_18 
ROOT
HETATM    1  N1  UNL     1       0.400  -0.444   0.767  1.00  0.00    -0.330 N 
HETATM    2  C12 UNL     1       1.541  -0.785   0.005  1.00  0.00     0.320 C 
HETATM    3  O2  UNL     1       1.498  -1.911  -0.597  1.00  0.00    -0.247 OA
HETATM    4  N2  UNL     1       2.713  -0.022  -0.161  1.00  0.00    -0.313 N 
ATOM      5  H2  UNL     1       2.796   0.884   0.300  1.00  0.00     0.167 HD
ENDROOT
BRANCH   1   6
HETATM    6  C2  UNL     1       0.329   0.798   1.479  1.00  0.00     0.080 C 
HETATM    7  C1  UNL     1       1.438   0.778   2.545  1.00  0.00     0.032 C 
HETATM    8  C3  UNL     1       0.499   2.033   0.672  1.00  0.00     0.032 C 
ENDBRANCH   1   6
BRANCH   1   9
HETATM    9  C4  UNL     1      -0.679  -1.388   0.872  1.00  0.00     0.134 C 
BRANCH   9  10
HETATM   10  C5  UNL     1      -1.684  -1.327  -0.217  1.00  0.00     0.028 C 
HETATM   11  C6  UNL     1      -2.778  -2.371  -0.024  1.00  0.00     0.173 C 
HETATM   12  O1  UNL     1      -3.867  -1.849   0.651  1.00  0.00    -0.390 OA
HETATM   13  C7  UNL     1      -4.618  -1.002  -0.174  1.00  0.00     0.176 C 
HETATM   14  C8  UNL     1      -3.710  -0.132  -0.981  1.00  0.00    -0.026 C 
HETATM   15  C9  UNL     1      -4.255   1.300  -1.074  1.00  0.00     0.017 C 
HETATM   16  C10 UNL     1      -3.577  -0.663  -2.377  1.00  0.00     0.017 C 
HETATM   17  C11 UNL     1      -2.343  -0.000  -0.314  1.00  0.00     0.019 C 
ENDBRANCH   9  10
ENDBRANCH   1   9
BRANCH   4  18
HETATM   18  C13 UNL     1       3.790  -0.507  -0.972  1.00  0.00     0.251 C 
HETATM   19  N3  UNL     1       5.052  -0.462  -0.252  1.00  0.00    -0.350 N 
HETATM   20  C14 UNL     1       5.585   0.816  -0.124  1.00  0.00     0.082 C 
ATOM     21  H3  UNL     1       5.506  -1.294   0.126  1.00  0.00     0.163 HD
HETATM   22  N4  UNL     1       6.170   1.297   0.911  1.00  0.00    -0.388 N 
HETATM   23  C15 UNL     1       5.433   1.659  -1.349  1.00  0.00     0.153 C 
ATOM     24  H42 UNL     1       6.274   0.722   1.747  1.00  0.00     0.157 HD
ATOM     25  H41 UNL     1       6.561   2.234   1.005  1.00  0.00     0.157 HD
HETATM   26  S1  UNL     1       4.172   0.736  -2.274  1.00  0.00    -0.116 SA
ENDBRANCH   4  18
TORSDOF 4
