REMARK  12 active torsions:
REMARK  status: ('A' for Active; 'I' for Inactive)
REMARK    1  A    between atoms: N1_1  and  N2_4 
REMARK    2  A    between atoms: N2_4  and  C1_5 
REMARK    3  A    between atoms: C4_11  and  O1_12 
REMARK    4  A    between atoms: O1_12  and  C5_13 
REMARK    5  A    between atoms: C5_13  and  C6_14 
REMARK    6  A    between atoms: C6_14  and  O2_15 
REMARK    7  A    between atoms: O2_15  and  C7_16 
REMARK    8  A    between atoms: C7_16  and  C8_17 
REMARK    9  A    between atoms: C8_17  and  O3_18 
REMARK   10  A    between atoms: O3_18  and  C9_19 
REMARK   11  A    between atoms: C12_22  and  C13_23 
REMARK   12  A    between atoms: C13_23  and  C14_24 
ROOT
HETATM    1  C7  UNL     1      -0.508  -1.888   0.679  1.00  0.00     0.193 C 
ENDROOT
BRANCH   1   2
HETATM    2  O2  UNL     1      -1.851  -2.134   0.542  1.00  0.00    -0.387 OA
BRANCH   2   3
HETATM    3  C6  UNL     1      -2.236  -2.064  -0.780  1.00  0.00     0.193 C 
BRANCH   3   4
HETATM    4  C5  UNL     1      -3.735  -2.298  -0.916  1.00  0.00     0.194 C 
BRANCH   4   5
HETATM    5  O1  UNL     1      -4.458  -1.364  -0.232  1.00  0.00    -0.380 OA
BRANCH   5   6
HETATM    6  C4  UNL     1      -4.270  -0.082  -0.691  1.00  0.00     0.169 C 
HETATM    7  C1  UNL     1      -3.885   0.804   0.459  1.00  0.00     0.154 C 
HETATM    8  C2  UNL     1      -4.867   1.966   0.314  1.00  0.00     0.258 C 
HETATM    9  N3  UNL     1      -6.089   1.287  -0.143  1.00  0.00    -0.071 N 
HETATM   10  C3  UNL     1      -5.569   0.468  -1.194  1.00  0.00     0.265 C 
ATOM     11  H32 UNL     1      -6.612   0.793   0.580  1.00  0.00     0.277 HD
ATOM     12  H31 UNL     1      -6.860   1.901  -0.406  1.00  0.00     0.277 HD
BRANCH   7  13
HETATM   13  N2  UNL     1      -4.186   0.157   1.750  1.00  0.00    -0.139 NA
BRANCH  13  14
HETATM   14  N1  UNL     1      -4.007   1.106   2.765  1.00  0.00    -0.348 N 
ATOM     15  H12 UNL     1      -3.718   2.073   2.620  1.00  0.00     0.172 HD
ATOM     16  H11 UNL     1      -4.215   0.659   3.658  1.00  0.00     0.172 HD
ENDBRANCH  13  14
ENDBRANCH   7  13
ENDBRANCH   5   6
ENDBRANCH   4   5
ENDBRANCH   3   4
ENDBRANCH   2   3
ENDBRANCH   1   2
BRANCH   1  17
HETATM   17  C8  UNL     1       0.418  -2.820  -0.020  1.00  0.00     0.194 C 
BRANCH  17  18
HETATM   18  O3  UNL     1       1.747  -2.538   0.159  1.00  0.00    -0.384 OA
BRANCH  18  19
HETATM   19  C9  UNL     1       2.190  -1.318  -0.284  1.00  0.00     0.121 C 
HETATM   20  C10 UNL     1       2.712  -0.584   0.947  1.00  0.00     0.032 C 
HETATM   21  C11 UNL     1       4.220  -0.544   0.769  1.00  0.00     0.007 C 
HETATM   22  C12 UNL     1       4.334  -0.398  -0.725  1.00  0.00    -0.006 C 
HETATM   23  C17 UNL     1       3.328  -1.394  -1.240  1.00  0.00     0.037 C 
BRANCH  22  24
HETATM   24  C13 UNL     1       4.027   0.991  -1.166  1.00  0.00     0.063 C 
BRANCH  24  25
HETATM   25  C14 UNL     1       4.946   2.004  -0.644  1.00  0.00     0.025 A 
HETATM   26  C15 UNL     1       6.104   1.960   0.070  1.00  0.00     0.114 A 
HETATM   27  N4  UNL     1       6.570   3.188   0.321  1.00  0.00    -0.360 N 
HETATM   28  C16 UNL     1       5.695   4.032  -0.245  1.00  0.00     0.180 A 
ATOM     29  H4  UNL     1       7.416   3.432   0.836  1.00  0.00     0.166 HD
HETATM   30  N5  UNL     1       4.705   3.344  -0.834  1.00  0.00    -0.355 N 
ATOM     31  H5  UNL     1       3.912   3.745  -1.335  1.00  0.00     0.166 HD
ENDBRANCH  24  25
ENDBRANCH  22  24
ENDBRANCH  18  19
ENDBRANCH  17  18
ENDBRANCH   1  17
TORSDOF 12
