REMARK  14 active torsions:
REMARK  status: ('A' for Active; 'I' for Inactive)
REMARK    1  A    between atoms: C2_2  and  C3_3 
REMARK    2  A    between atoms: C4_4  and  C5_5 
REMARK    3  A    between atoms: C5_5  and  C6_6 
REMARK    4  A    between atoms: C5_5  and  N1_26 
REMARK    5  A    between atoms: C7_7  and  C8_8 
REMARK    6  A    between atoms: C9_9  and  C10_10 
REMARK    7  A    between atoms: C10_10  and  C11_11 
REMARK    8  A    between atoms: C12_13  and  C13_14 
REMARK    9  A    between atoms: C13_14  and  O2_15 
REMARK   10  A    between atoms: C14_17  and  O3_18 
REMARK   11  A    between atoms: C15_20  and  O4_21 
REMARK   12  A    between atoms: C16_23  and  O5_24 
REMARK   13  A    between atoms: N1_26  and  C17_28 
REMARK   14  A    between atoms: C17_28  and  C18_29 
ROOT
HETATM    1  C11 UNL     1      -3.097   1.376  -0.172  1.00  0.00     0.157 C 
HETATM    2  O1  UNL     1      -3.060   0.047  -0.512  1.00  0.00    -0.373 OA
HETATM    3  C12 UNL     1      -4.247  -0.623  -0.382  1.00  0.00     0.176 C 
HETATM    4  C14 UNL     1      -5.471   0.254  -0.291  1.00  0.00     0.180 C 
HETATM    5  C15 UNL     1      -5.343   1.238   0.846  1.00  0.00     0.180 C 
HETATM    6  C16 UNL     1      -3.862   1.506   1.121  1.00  0.00     0.178 C 
ENDROOT
BRANCH   1   7
HETATM    7  C10 UNL     1      -1.724   1.974  -0.101  1.00  0.00     0.061 C 
BRANCH   7   8
HETATM    8  C9  UNL     1      -0.814   1.368   0.860  1.00  0.00    -0.024 C 
HETATM    9  C8  UNL     1       0.303   0.808   0.558  1.00  0.00    -0.004 C 
BRANCH   9  10
HETATM   10  C7  UNL     1       0.845   0.683  -0.777  1.00  0.00    -0.002 C 
HETATM   11  C6  UNL     1       1.992   0.100  -1.018  1.00  0.00     0.002 C 
BRANCH  11  12
HETATM   12  C5  UNL     1       2.786  -0.462   0.096  1.00  0.00     0.127 C 
BRANCH  12  13
HETATM   13  C4  UNL     1       3.789  -1.388  -0.487  1.00  0.00     0.002 C 
HETATM   14  C3  UNL     1       4.389  -2.297   0.258  1.00  0.00    -0.002 C 
BRANCH  14  15
HETATM   15  C2  UNL     1       5.375  -3.200  -0.336  1.00  0.00    -0.010 C 
HETATM   16  C1  UNL     1       5.986  -4.112   0.385  1.00  0.00     0.011 C 
ENDBRANCH  14  15
ENDBRANCH  12  13
BRANCH  12  17
HETATM   17  N1  UNL     1       3.407   0.505   0.906  1.00  0.00    -0.388 N 
ATOM     18  H1  UNL     1       3.207   0.508   1.906  1.00  0.00     0.159 HD
BRANCH  17  19
HETATM   19  C17 UNL     1       4.286   1.461   0.395  1.00  0.00     0.083 C 
BRANCH  19  20
HETATM   20  C18 UNL     1       5.600   0.990  -0.095  1.00  0.00     0.006 C 
HETATM   21  C19 UNL     1       6.730   1.428   0.477  1.00  0.00     0.012 C 
ENDBRANCH  19  20
ENDBRANCH  17  19
ENDBRANCH  12  17
ENDBRANCH  11  12
ENDBRANCH   9  10
ENDBRANCH   7   8
ENDBRANCH   1   7
BRANCH   6  22
HETATM   22  O5  UNL     1      -3.376   0.558   2.020  1.00  0.00    -0.390 OA
ATOM     23  H5  UNL     1      -3.858   0.640   2.835  1.00  0.00     0.210 HD
ENDBRANCH   6  22
BRANCH   3  24
HETATM   24  C13 UNL     1      -4.441  -1.664  -1.490  1.00  0.00     0.198 C 
BRANCH  24  25
HETATM   25  O2  UNL     1      -5.691  -2.270  -1.233  1.00  0.00    -0.398 OA
ATOM     26  H2  UNL     1      -5.811  -2.915  -1.920  1.00  0.00     0.209 HD
ENDBRANCH  24  25
ENDBRANCH   3  24
BRANCH   5  27
HETATM   27  O4  UNL     1      -5.909   0.660   1.979  1.00  0.00    -0.390 OA
ATOM     28  H4  UNL     1      -5.828   1.279   2.695  1.00  0.00     0.210 HD
ENDBRANCH   5  27
BRANCH   4  29
HETATM   29  O3  UNL     1      -5.763   0.866  -1.509  1.00  0.00    -0.390 OA
ATOM     30  H3  UNL     1      -6.534   1.418  -1.452  1.00  0.00     0.210 HD
ENDBRANCH   4  29
TORSDOF 14
