REMARK  11 active torsions:
REMARK  status: ('A' for Active; 'I' for Inactive)
REMARK    1  A    between atoms: N1_1  and  C1_5 
REMARK    2  A    between atoms: C1_5  and  C2_6 
REMARK    3  A    between atoms: C5_11  and  N2_12 
REMARK    4  A    between atoms: C5_11  and  C11_26 
REMARK       I    between atoms: N2_12  and  C6_14 
REMARK    5  A    between atoms: C6_14  and  C7_16 
REMARK       I    between atoms: C11_26  and  N7_28 
REMARK    6  A    between atoms: N7_28  and  C12_30 
REMARK    7  A    between atoms: C12_30  and  C13_31 
REMARK       I    between atoms: C13_31  and  N8_33 
REMARK    8  A    between atoms: N8_33  and  N9_35 
REMARK    9  A    between atoms: N9_35  and  S1_37 
REMARK   10  A    between atoms: S1_37  and  C14_40 
REMARK   11  A    between atoms: C16_44  and  C17_45 
ROOT
HETATM    1  C2  UNL     1      -2.376   1.173   3.049  1.00  0.00     0.156 C 
HETATM    2  C3  UNL     1      -2.790   2.309   2.188  1.00  0.00     0.118 C 
HETATM    3  C4  UNL     1      -2.314   1.875   0.803  1.00  0.00     0.304 C 
HETATM    4  F1  UNL     1      -1.152   2.625   0.569  1.00  0.00    -0.200 F 
HETATM    5  F2  UNL     1      -3.183   2.283  -0.199  1.00  0.00    -0.200 F 
HETATM    6  C5  UNL     1      -2.104   0.459   0.936  1.00  0.00     0.287 C 
HETATM    7  O6  UNL     1      -2.345   0.040   2.254  1.00  0.00    -0.341 OA
ENDROOT
BRANCH   6   8
HETATM    8  N2  UNL     1      -2.852  -0.504   0.137  1.00  0.00    -0.316 N 
HETATM    9  C6  UNL     1      -4.234  -0.569   0.052  1.00  0.00     0.233 C 
HETATM   10  O1  UNL     1      -4.941   0.242   0.704  1.00  0.00    -0.273 OA
ATOM     11  H2  UNL     1      -2.316  -1.184  -0.402  1.00  0.00     0.166 HD
BRANCH   9  12
HETATM   12  C7  UNL     1      -4.962  -1.554  -0.769  1.00  0.00     0.160 C 
HETATM   13  C8  UNL     1      -6.442  -1.365  -0.687  1.00  0.00     0.144 C 
HETATM   14  N3  UNL     1      -7.146  -1.722  -1.856  1.00  0.00    -0.363 N 
HETATM   15  C9  UNL     1      -6.688  -1.960  -3.031  1.00  0.00     0.189 C 
ATOM     16  H3  UNL     1      -8.158  -1.802  -1.753  1.00  0.00     0.162 HD
HETATM   17  N4  UNL     1      -7.470  -2.304  -4.168  1.00  0.00    -0.064 NA
HETATM   18  N5  UNL     1      -5.265  -1.976  -3.110  1.00  0.00    -0.322 N 
HETATM   19  C10 UNL     1      -4.488  -1.792  -2.118  1.00  0.00     0.110 C 
ATOM     20  H5  UNL     1      -4.841  -2.146  -4.022  1.00  0.00     0.169 HD
HETATM   21  N6  UNL     1      -3.079  -1.876  -2.498  1.00  0.00    -0.086 NA
ENDBRANCH   9  12
ENDBRANCH   6   8
BRANCH   6  22
HETATM   22  C11 UNL     1      -0.654   0.066   0.714  1.00  0.00     0.280 C 
HETATM   23  O2  UNL     1       0.076  -0.470   1.554  1.00  0.00    -0.268 OA
HETATM   24  N7  UNL     1      -0.125   0.337  -0.585  1.00  0.00    -0.348 N 
ATOM     25  H7  UNL     1      -0.762   0.766  -1.257  1.00  0.00     0.163 HD
BRANCH  24  26
HETATM   26  C12 UNL     1       1.193   0.072  -1.039  1.00  0.00     0.227 C 
BRANCH  26  27
HETATM   27  C13 UNL     1       2.284   0.830  -0.404  1.00  0.00     0.254 C 
HETATM   28  O3  UNL     1       2.121   1.659   0.488  1.00  0.00    -0.270 OA
HETATM   29  N8  UNL     1       3.599   0.571  -0.880  1.00  0.00    -0.259 N 
ATOM     30  H8  UNL     1       3.763  -0.117  -1.615  1.00  0.00     0.190 HD
BRANCH  29  31
HETATM   31  N9  UNL     1       4.652   1.278  -0.319  1.00  0.00    -0.219 N 
ATOM     32  H9  UNL     1       4.659   1.654   0.629  1.00  0.00     0.200 HD
BRANCH  31  33
HETATM   33  S1  UNL     1       5.946   1.434  -1.443  1.00  0.00     0.293 S 
HETATM   34  O4  UNL     1       5.564   0.534  -2.621  1.00  0.00    -0.197 OA
HETATM   35  O5  UNL     1       6.142   2.803  -1.967  1.00  0.00    -0.197 OA
BRANCH  33  36
HETATM   36  C14 UNL     1       7.458   0.796  -0.850  1.00  0.00     0.167 A 
HETATM   37  C15 UNL     1       8.600   1.549  -0.618  1.00  0.00     0.133 A 
HETATM   38  N10 UNL     1       9.540   0.728  -0.172  1.00  0.00    -0.345 N 
HETATM   39  C16 UNL     1       9.082  -0.531  -0.092  1.00  0.00     0.191 A 
ATOM     40  H10 UNL     1      10.486   1.015   0.077  1.00  0.00     0.166 HD
HETATM   41  N11 UNL     1       7.793  -0.475  -0.515  1.00  0.00    -0.327 N 
ATOM     42  H11 UNL     1       7.165  -1.276  -0.573  1.00  0.00     0.168 HD
BRANCH  39  43
HETATM   43  C17 UNL     1       9.876  -1.686   0.375  1.00  0.00     0.449 C 
HETATM   44  F3  UNL     1       9.115  -2.823   0.333  1.00  0.00    -0.163 F 
HETATM   45  F4  UNL     1      10.276  -1.415   1.679  1.00  0.00    -0.163 F 
HETATM   46  F5  UNL     1      10.963  -1.810  -0.467  1.00  0.00    -0.163 F 
ENDBRANCH  39  43
ENDBRANCH  33  36
ENDBRANCH  31  33
ENDBRANCH  29  31
ENDBRANCH  26  27
ENDBRANCH  24  26
ENDBRANCH   6  22
BRANCH   1  47
HETATM   47  C1  UNL     1      -3.355   0.841   4.172  1.00  0.00     0.261 C 
BRANCH  47  48
HETATM   48  N1  UNL     1      -2.905  -0.345   4.875  1.00  0.00    -0.077 N 
ATOM     49  H13 UNL     1      -2.760  -1.134   4.245  1.00  0.00     0.274 HD
ATOM     50  H12 UNL     1      -1.948  -0.251   5.214  1.00  0.00     0.274 HD
ATOM     51  H11 UNL     1      -3.559  -0.567   5.625  1.00  0.00     0.274 HD
ENDBRANCH  47  48
ENDBRANCH   1  47
TORSDOF 11
