REMARK  14 active torsions:
REMARK  status: ('A' for Active; 'I' for Inactive)
REMARK    1  A    between atoms: C2_2  and  N1_3 
REMARK    2  A    between atoms: C4_8  and  N3_9 
REMARK    3  A    between atoms: N3_9  and  C5_11 
REMARK    4  A    between atoms: C5_11  and  C6_12 
REMARK    5  A    between atoms: C7_18  and  N5_19 
REMARK    6  A    between atoms: N5_19  and  C8_20 
REMARK    7  A    between atoms: C9_21  and  N6_22 
REMARK    8  A    between atoms: C12_28  and  C13_29 
REMARK    9  A    between atoms: C12_28  and  N7_32 
REMARK   10  A    between atoms: C16_34  and  C17_35 
REMARK   11  A    between atoms: C17_35  and  N8_36 
REMARK   12  A    between atoms: N8_36  and  C18_38 
REMARK   13  A    between atoms: C19_44  and  N11_45 
REMARK   14  A    between atoms: C20_52  and  O3_53 
ROOT
HETATM    1  C8  UNL     1      -0.283   0.011   0.079  1.00  0.00     0.237 C 
HETATM    2  C9  UNL     1       0.319   1.010  -0.844  1.00  0.00     0.295 C 
HETATM    3  C11 UNL     1       1.752   0.658  -0.909  1.00  0.00     0.197 C 
HETATM    4  O1  UNL     1       2.649   1.441  -1.078  1.00  0.00    -0.292 OA
HETATM    5  C12 UNL     1       1.829  -0.793  -0.733  1.00  0.00     0.165 C 
HETATM    6  C20 UNL     1       0.561  -1.258  -0.163  1.00  0.00     0.198 C 
ENDROOT
BRANCH   5   7
HETATM    7  C13 UNL     1       2.225  -1.398  -2.028  1.00  0.00     0.046 C 
HETATM    8  C14 UNL     1       1.498  -1.588  -3.090  1.00  0.00     0.187 C 
HETATM    9  F4  UNL     1       1.988  -2.152  -4.200  1.00  0.00    -0.220 F 
ENDBRANCH   5   7
BRANCH   5  10
HETATM   10  N7  UNL     1       2.913  -1.173   0.185  1.00  0.00    -0.263 N 
HETATM   11  C15 UNL     1       3.730  -0.394   0.896  1.00  0.00     0.145 A 
HETATM   12  C16 UNL     1       4.582  -1.242   1.565  1.00  0.00     0.082 A 
HETATM   13  N12 UNL     1       4.220  -2.508   1.212  1.00  0.00    -0.284 N 
HETATM   14  N13 UNL     1       3.220  -2.456   0.383  1.00  0.00    -0.239 N 
ATOM     15  H12 UNL     1       4.665  -3.363   1.546  1.00  0.00     0.188 HD
ATOM     16  H13 UNL     1       2.752  -3.256  -0.042  1.00  0.00     0.208 HD
BRANCH  12  17
HETATM   17  C17 UNL     1       5.655  -0.921   2.525  1.00  0.00     0.122 C 
BRANCH  17  18
HETATM   18  N8  UNL     1       6.808  -0.378   1.981  1.00  0.00    -0.345 N 
ATOM     19  H8  UNL     1       7.366   0.023   2.735  1.00  0.00     0.167 HD
BRANCH  18  20
HETATM   20  C18 UNL     1       7.403  -0.204   0.917  1.00  0.00     0.173 A 
HETATM   21  N9  UNL     1       7.093  -0.548  -0.347  1.00  0.00    -0.222 N 
HETATM   22  O2  UNL     1       8.041  -0.119  -1.138  1.00  0.00    -0.153 OA
ATOM     23  H9  UNL     1       6.259  -1.058  -0.638  1.00  0.00     0.198 HD
HETATM   24  N10 UNL     1       8.966   0.495  -0.442  1.00  0.00    -0.222 N 
HETATM   25  C19 UNL     1       8.647   0.484   0.833  1.00  0.00     0.167 A 
ATOM     26  H10 UNL     1       9.808   0.918  -0.832  1.00  0.00     0.198 HD
BRANCH  25  27
HETATM   27  N11 UNL     1       9.325   0.995   1.793  1.00  0.00    -0.381 N 
ATOM     28 2H11 UNL     1       9.077   0.986   2.782  1.00  0.00     0.157 HD
ATOM     29 1H11 UNL     1      10.216   1.488   1.733  1.00  0.00     0.157 HD
ENDBRANCH  25  27
ENDBRANCH  18  20
ENDBRANCH  17  18
ENDBRANCH  12  17
ENDBRANCH   5  10
BRANCH   6  30
HETATM   30  O3  UNL     1      -0.234  -2.064  -0.955  1.00  0.00    -0.389 OA
ATOM     31  H3  UNL     1       0.286  -2.845  -1.104  1.00  0.00     0.210 HD
ENDBRANCH   6  30
BRANCH   2  32
HETATM   32  N6  UNL     1       0.173   2.385  -0.390  1.00  0.00    -0.065 N 
HETATM   33  C10 UNL     1      -0.438   3.169  -1.434  1.00  0.00     0.268 C 
ATOM     34  H62 UNL     1      -0.337   2.449   0.491  1.00  0.00     0.277 HD
ATOM     35  H61 UNL     1       1.057   2.784  -0.074  1.00  0.00     0.277 HD
ENDBRANCH   2  32
BRANCH   1  36
HETATM   36  N5  UNL     1      -1.619  -0.230   0.098  1.00  0.00    -0.404 NA
BRANCH  36  37
HETATM   37  C7  UNL     1      -2.800  -0.178   0.084  1.00  0.00     0.283 A 
HETATM   38  N4  UNL     1      -3.536  -1.332   0.210  1.00  0.00    -0.148 N 
HETATM   39  C4  UNL     1      -4.881  -1.339   0.200  1.00  0.00     0.696 A 
ATOM     40  H4  UNL     1      -3.043  -2.218   0.315  1.00  0.00     0.188 HD
HETATM   41  N2  UNL     1      -5.522  -0.171   0.060  1.00  0.00    -0.022 N 
HETATM   42  C3  UNL     1      -4.842   1.018  -0.072  1.00  0.00     0.696 A 
ATOM     43  H2  UNL     1      -6.542  -0.163   0.051  1.00  0.00     0.203 HD
HETATM   44  N1  UNL     1      -5.506   2.065  -0.190  1.00  0.00    -0.226 N 
HETATM   45  N14 UNL     1      -3.503   0.961  -0.052  1.00  0.00    -0.148 N 
ATOM     46  H1  UNL     1      -6.514   1.911  -0.175  1.00  0.00     0.177 HD
ATOM     47  H14 UNL     1      -2.985   1.835  -0.146  1.00  0.00     0.188 HD
BRANCH  39  48
HETATM   48  N3  UNL     1      -5.563  -2.441   0.317  1.00  0.00    -0.217 N 
ATOM     49  H3  UNL     1      -5.042  -3.312   0.422  1.00  0.00     0.178 HD
BRANCH  48  50
HETATM   50  C5  UNL     1      -6.989  -2.517   0.309  1.00  0.00     0.255 C 
BRANCH  50  51
HETATM   51  C6  UNL     1      -7.519  -3.793   0.944  1.00  0.00     0.403 C 
HETATM   52  F1  UNL     1      -7.033  -4.900   0.252  1.00  0.00    -0.169 F 
HETATM   53  F2  UNL     1      -7.229  -3.849   2.285  1.00  0.00    -0.169 F 
HETATM   54  F3  UNL     1      -8.892  -3.846   0.822  1.00  0.00    -0.169 F 
ENDBRANCH  50  51
ENDBRANCH  48  50
ENDBRANCH  39  48
BRANCH  44  55
HETATM   55  C2  UNL     1      -5.146   3.420  -0.340  1.00  0.00     0.133 C 
HETATM   56  C1  UNL     1      -4.481   4.067   0.822  1.00  0.00     0.027 C 
ENDBRANCH  44  55
ENDBRANCH  36  37
ENDBRANCH   1  36
TORSDOF 14
