REMARK  4 active torsions:
REMARK  status: ('A' for Active; 'I' for Inactive)
REMARK    1  A    between atoms: N1_2  and  C3_4 
REMARK    2  A    between atoms: C5_11  and  N5_12 
REMARK    3  A    between atoms: C6_15  and  C7_16 
REMARK    4  A    between atoms: N8_19  and  N9_20 
REMARK       I    between atoms: N9_20  and  C8_22 
ROOT
HETATM    1  N5  UNL     1       0.717  -0.752   0.123  1.00  0.00    -0.027 N 
HETATM    2  N6  UNL     1       1.586  -1.647   0.517  1.00  0.00    -0.254 N 
ATOM      3  H6  UNL     1       1.343  -2.585   0.835  1.00  0.00     0.190 HD
HETATM    4  C6  UNL     1       2.871  -1.157   0.447  1.00  0.00     0.213 A 
HETATM    5  N8  UNL     1       2.735   0.090  -0.013  1.00  0.00    -0.178 N 
HETATM    6  C9  UNL     1       1.423   0.334  -0.209  1.00  0.00     0.383 A 
HETATM    7  O2  UNL     1       0.895   1.391  -0.634  1.00  0.00    -0.242 OA
ENDROOT
BRANCH   1   8
HETATM    8  C5  UNL     1      -0.724  -0.891   0.063  1.00  0.00     0.725 A 
HETATM    9  N4  UNL     1      -1.253  -2.125   0.094  1.00  0.00    -0.160 N 
HETATM   10  C4  UNL     1      -2.594  -2.332   0.051  1.00  0.00     0.221 A 
ATOM     11  H4  UNL     1      -0.629  -2.930   0.152  1.00  0.00     0.187 HD
HETATM   12  N2  UNL     1      -3.375  -1.225  -0.024  1.00  0.00    -0.162 N 
HETATM   13  N3  UNL     1      -3.126  -3.639   0.083  1.00  0.00    -0.062 NA
HETATM   14  C3  UNL     1      -2.845   0.021  -0.056  1.00  0.00     0.696 A 
ATOM     15  H2  UNL     1      -4.389  -1.334  -0.057  1.00  0.00     0.187 HD
HETATM   16  N12 UNL     1      -1.520   0.170  -0.012  1.00  0.00    -0.020 N 
ATOM     17  H12 UNL     1      -1.115   1.106  -0.036  1.00  0.00     0.203 HD
BRANCH  14  18
HETATM   18  N1  UNL     1      -3.755   1.107  -0.121  1.00  0.00    -0.226 N 
HETATM   19  C1  UNL     1      -4.118   1.738   1.130  1.00  0.00     0.168 C 
HETATM   20  C2  UNL     1      -4.282   1.536  -1.385  1.00  0.00     0.168 C 
ENDBRANCH  14  18
ENDBRANCH   1   8
BRANCH   4  21
HETATM   21  C7  UNL     1       4.042  -1.936   0.825  1.00  0.00     0.302 C 
HETATM   22  N7  UNL     1       3.895  -3.263   1.291  1.00  0.00    -0.054 NA
HETATM   23  O1  UNL     1       5.175  -1.448   0.742  1.00  0.00    -0.268 OA
ENDBRANCH   4  21
BRANCH   5  24
HETATM   24  N9  UNL     1       3.794   0.979  -0.242  1.00  0.00    -0.261 N 
HETATM   25  C8  UNL     1       3.588   2.295  -0.727  1.00  0.00     0.201 C 
HETATM   26  N10 UNL     1       3.872   2.569  -1.943  1.00  0.00    -0.372 N 
HETATM   27  N11 UNL     1       3.077   3.295   0.121  1.00  0.00    -0.062 NA
ATOM     28 2H10 UNL     1       4.242   1.844  -2.558  1.00  0.00     0.158 HD
ATOM     29 1H10 UNL     1       3.724   3.516  -2.292  1.00  0.00     0.158 HD
ATOM     30  H9  UNL     1       4.747   0.668  -0.053  1.00  0.00     0.190 HD
ENDBRANCH   5  24
TORSDOF 4
