REMARK  1 active torsions:
REMARK  status: ('A' for Active; 'I' for Inactive)
REMARK    1  A    between atoms: C5_5  and  N1_6 
ROOT
HETATM    1  C1  UNL     1      -2.699  -0.149  -1.005  1.00  0.00     0.038 C 
HETATM    2  C2  UNL     1      -2.627   0.053   0.515  1.00  0.00    -0.030 C 
HETATM    3  C3  UNL     1      -1.636   0.889   1.129  1.00  0.00    -0.028 C 
HETATM    4  C4  UNL     1      -0.295   0.362   1.623  1.00  0.00     0.064 C 
HETATM    5  C5  UNL     1       0.528  -0.278   0.449  1.00  0.00     0.153 C 
HETATM    6  C8  UNL     1      -0.391  -0.549  -0.576  1.00  0.00    -0.158 C 
HETATM    7  C9  UNL     1      -1.374  -0.774  -1.557  1.00  0.00     0.086 C 
ENDROOT
BRANCH   5   8
HETATM    8  N1  UNL     1       1.627   0.662   0.176  1.00  0.00    -0.364 N 
HETATM    9  C6  UNL     1       2.801   0.261  -0.151  1.00  0.00     0.095 C 
HETATM   10  C7  UNL     1       4.118   0.824  -0.492  1.00  0.00     0.174 C 
HETATM   11  N2  UNL     1       3.343  -1.043  -0.330  1.00  0.00    -0.319 N 
HETATM   12  S1  UNL     1       4.933  -0.599   0.271  1.00  0.00    -0.047 SA
ATOM     13  H2  UNL     1       2.951  -1.917  -0.680  1.00  0.00     0.175 HD
ATOM     14  H1  UNL     1       1.450   1.664   0.249  1.00  0.00     0.162 HD
ENDBRANCH   5   8
TORSDOF 1
