REMARK  2 active torsions:
REMARK  status: ('A' for Active; 'I' for Inactive)
REMARK    1  A    between atoms: C2_2  and  C5_5 
REMARK    2  A    between atoms: C9_9  and  C10_10 
ROOT
HETATM    1  C5  UNL     1      -0.303   0.006  -0.503  1.00  0.00    -0.006 C 
HETATM    2  C6  UNL     1       0.071   1.431  -0.747  1.00  0.00     0.005 C 
HETATM    3  C7  UNL     1       1.520   1.469  -1.194  1.00  0.00     0.001 C 
HETATM    4  C8  UNL     1       2.331   0.930  -0.030  1.00  0.00     0.015 C 
HETATM    5  C9  UNL     1       2.010  -0.571   0.016  1.00  0.00     0.087 C 
HETATM    6  C11 UNL     1       0.592  -0.656   0.533  1.00  0.00     0.020 C 
ENDROOT
BRANCH   1   7
HETATM    7  C2  UNL     1      -1.749  -0.159  -0.099  1.00  0.00    -0.048 C 
HETATM    8  C1  UNL     1      -2.624   0.384  -1.226  1.00  0.00     0.015 C 
HETATM    9  C3  UNL     1      -2.109   0.573   1.142  1.00  0.00     0.015 C 
HETATM   10  C4  UNL     1      -2.108  -1.622   0.049  1.00  0.00     0.015 C 
ENDBRANCH   1   7
BRANCH   5  11
HETATM   11  C10 UNL     1       2.974  -1.301   0.836  1.00  0.00     0.177 C 
HETATM   12  O1  UNL     1       3.663  -2.216   0.323  1.00  0.00    -0.648 OA
HETATM   13  O2  UNL     1       3.129  -0.992   2.159  1.00  0.00    -0.648 OA
ENDBRANCH   5  11
TORSDOF 2
