REMARK  1 active torsions:
REMARK  status: ('A' for Active; 'I' for Inactive)
REMARK    1  A    between atoms: C10_11  and  N2_12 
ROOT
HETATM    1  N1  UNL     1      -4.385   0.314   0.910  1.00  0.00    -0.197 NA
HETATM    2  C1  UNL     1      -3.287   0.266   0.544  1.00  0.00     0.064 C 
HETATM    3  C2  UNL     1      -1.887   0.216   0.057  1.00  0.00     0.093 C 
HETATM    4  C3  UNL     1      -1.520  -1.272   0.068  1.00  0.00     0.024 C 
HETATM    5  C4  UNL     1      -0.163  -1.508  -0.493  1.00  0.00    -0.010 C 
HETATM    6  C5  UNL     1       0.186  -0.658  -1.672  1.00  0.00     0.012 C 
HETATM    7  C6  UNL     1       1.074   0.441  -1.221  1.00  0.00     0.016 C 
HETATM    8  C7  UNL     1       0.429   1.757  -0.886  1.00  0.00     0.014 C 
HETATM    9  C8  UNL     1       0.324   1.315   0.537  1.00  0.00     0.017 C 
HETATM   10  C9  UNL     1      -0.997   0.882   1.040  1.00  0.00     0.026 C 
HETATM   11  C10 UNL     1       1.317   0.252   0.272  1.00  0.00     0.053 C 
HETATM   12  C11 UNL     1       0.885  -1.137   0.532  1.00  0.00     0.038 C 
ENDROOT
BRANCH  11  13
HETATM   13  N2  UNL     1       2.657   0.536   0.692  1.00  0.00    -0.332 N 
HETATM   14  N3  UNL     1       3.327  -0.340   1.248  1.00  0.00    -0.349 N 
ATOM     15  H32 UNL     1       2.912  -1.259   1.400  1.00  0.00     0.176 HD
ATOM     16  H31 UNL     1       4.281  -0.138   1.547  1.00  0.00     0.176 HD
ATOM     17  H2  UNL     1       3.057   1.460   0.532  1.00  0.00     0.180 HD
ENDBRANCH  11  13
TORSDOF 1
