REMARK  2 active torsions:
REMARK  status: ('A' for Active; 'I' for Inactive)
REMARK    1  A    between atoms: C2_2  and  N1_5 
REMARK    2  A    between atoms: N1_5  and  C5_7 
ROOT
HETATM    1  C5  UNL     1       0.181  -0.031   0.343  1.00  0.00     0.122 C 
HETATM    2  C6  UNL     1       0.619   0.560  -0.957  1.00  0.00     0.031 C 
HETATM    3  C7  UNL     1       1.893   1.365  -0.903  1.00  0.00     0.002 C 
HETATM    4  C8  UNL     1       3.088   0.642  -0.403  1.00  0.00     0.000 C 
HETATM    5  C9  UNL     1       3.101   0.509   1.109  1.00  0.00     0.006 C 
HETATM    6  C10 UNL     1       2.519  -0.839   1.474  1.00  0.00     0.054 C 
HETATM    7  C11 UNL     1       1.232  -1.037   0.765  1.00  0.00     0.002 C 
HETATM    8  N2  UNL     1       0.978  -2.249   0.467  1.00  0.00    -0.404 N 
ATOM      9  H21 UNL     1       1.686  -2.926   0.751  1.00  0.00     0.155 HD
ATOM     10  H22 UNL     1       0.093  -2.385  -0.021  1.00  0.00     0.155 HD
ENDROOT
BRANCH   1  11
HETATM   11  N1  UNL     1      -1.021  -0.744   0.188  1.00  0.00    -0.405 N 
ATOM     12  H1  UNL     1      -1.015  -1.751   0.350  1.00  0.00     0.154 HD
BRANCH  11  13
HETATM   13  C2  UNL     1      -2.221  -0.134  -0.178  1.00  0.00     0.015 C 
HETATM   14  C1  UNL     1      -3.347  -1.078   0.335  1.00  0.00     0.037 C 
HETATM   15  C3  UNL     1      -2.549   1.194   0.465  1.00  0.00     0.037 C 
HETATM   16  C4  UNL     1      -2.414  -0.023  -1.655  1.00  0.00     0.037 C 
ENDBRANCH  11  13
ENDBRANCH   1  11
TORSDOF 2
