REMARK  11 active torsions:
REMARK  status: ('A' for Active; 'I' for Inactive)
REMARK    1  A    between atoms: C2_2  and  N1_3 
REMARK    2  A    between atoms: C2_2  and  C3_7 
REMARK    3  A    between atoms: C3_7  and  C4_8 
REMARK    4  A    between atoms: C4_8  and  N2_9 
REMARK    5  A    between atoms: N2_9  and  C5_10 
REMARK    6  A    between atoms: N2_9  and  C7_16 
REMARK    7  A    between atoms: C5_10  and  C6_11 
REMARK    8  A    between atoms: C6_11  and  N3_12 
REMARK    9  A    between atoms: C8_19  and  N5_20 
REMARK   10  A    between atoms: N6_23  and  N7_24 
REMARK   11  A    between atoms: C9_27  and  N8_28 
ROOT
HETATM    1  C7  UNL     1       1.068  -0.091   0.212  1.00  0.00     0.709 A 
HETATM    2  N4  UNL     1       1.765  -0.741   1.196  1.00  0.00    -0.020 N 
ATOM      3  H4  UNL     1       1.475  -0.627   2.167  1.00  0.00     0.203 HD
HETATM    4  C8  UNL     1       2.825  -1.529   0.915  1.00  0.00     0.726 A 
HETATM    5  N6  UNL     1       3.160  -1.640  -0.384  1.00  0.00     0.084 N 
HETATM    6  C9  UNL     1       2.480  -1.002  -1.363  1.00  0.00     0.726 A 
HETATM    7  N9  UNL     1       1.425  -0.220  -1.069  1.00  0.00    -0.020 N 
ATOM      8  H9  UNL     1       0.911   0.262  -1.806  1.00  0.00     0.203 HD
ENDROOT
BRANCH   1   9
HETATM    9  N2  UNL     1      -0.030   0.688   0.613  1.00  0.00    -0.215 N 
BRANCH   9  10
HETATM   10  C4  UNL     1      -1.255  -0.045   0.939  1.00  0.00     0.143 C 
BRANCH  10  11
HETATM   11  C3  UNL     1      -2.346   0.227  -0.052  1.00  0.00     0.052 C 
BRANCH  11  12
HETATM   12  C2  UNL     1      -3.558  -0.584   0.351  1.00  0.00     0.181 C 
HETATM   13  C1  UNL     1      -4.709  -0.365  -0.600  1.00  0.00     0.039 C 
BRANCH  12  14
HETATM   14  N1  UNL     1      -3.126  -1.975   0.352  1.00  0.00    -0.075 N 
ATOM     15  H13 UNL     1      -3.901  -2.607   0.552  1.00  0.00     0.274 HD
ATOM     16  H12 UNL     1      -2.899  -2.297  -0.589  1.00  0.00     0.274 HD
ATOM     17  H11 UNL     1      -2.348  -2.123   0.995  1.00  0.00     0.274 HD
ENDBRANCH  12  14
ENDBRANCH  11  12
ENDBRANCH  10  11
ENDBRANCH   9  10
BRANCH   9  18
HETATM   18  C5  UNL     1       0.052   2.108   0.713  1.00  0.00     0.168 C 
BRANCH  18  19
HETATM   19  C6  UNL     1       1.342   2.638   0.184  1.00  0.00     0.250 C 
BRANCH  19  20
HETATM   20  N3  UNL     1       1.460   4.082   0.297  1.00  0.00    -0.078 N 
ATOM     21  H33 UNL     1       0.668   4.546  -0.148  1.00  0.00     0.274 HD
ATOM     22  H32 UNL     1       1.312   4.383   1.260  1.00  0.00     0.274 HD
ATOM     23  H31 UNL     1       2.342   4.444  -0.065  1.00  0.00     0.274 HD
ENDBRANCH  19  20
ENDBRANCH  18  19
ENDBRANCH   9  18
ENDBRANCH   1   9
BRANCH   4  24
HETATM   24  N5  UNL     1       3.452  -2.131   1.870  1.00  0.00    -0.232 N 
ATOM     25  H52 UNL     1       3.198  -2.047   2.854  1.00  0.00     0.174 HD
ATOM     26  H51 UNL     1       4.253  -2.726   1.658  1.00  0.00     0.174 HD
ENDBRANCH   4  24
BRANCH   6  27
HETATM   27  N8  UNL     1       2.824  -1.126  -2.600  1.00  0.00    -0.232 N 
ATOM     28  H82 UNL     1       3.624  -1.719  -2.823  1.00  0.00     0.174 HD
ATOM     29  H81 UNL     1       2.311  -0.645  -3.339  1.00  0.00     0.174 HD
ENDBRANCH   6  27
BRANCH   5  30
HETATM   30  N7  UNL     1       4.250  -2.464  -0.696  1.00  0.00    -0.309 N 
ATOM     31  H72 UNL     1       4.763  -2.945   0.043  1.00  0.00     0.178 HD
ATOM     32  H71 UNL     1       4.504  -2.548  -1.680  1.00  0.00     0.178 HD
ENDBRANCH   5  30
TORSDOF 11
