REMARK  9 active torsions:
REMARK  status: ('A' for Active; 'I' for Inactive)
REMARK    1  A    between atoms: C2_2  and  C3_3 
REMARK    2  A    between atoms: C3_3  and  C4_4 
REMARK    3  A    between atoms: C4_4  and  C5_5 
REMARK    4  A    between atoms: C5_5  and  C6_6 
REMARK    5  A    between atoms: C6_6  and  C7_7 
REMARK    6  A    between atoms: C10_10  and  N1_11 
REMARK       I    between atoms: N1_11  and  C11_13 
REMARK    7  A    between atoms: C11_13  and  C12_15 
REMARK    8  A    between atoms: C14_19  and  C15_20 
REMARK    9  A    between atoms: C21_26  and  C22_27 
ROOT
HETATM    1  C12 UNL     1      -2.141  -0.004   0.556  1.00  0.00     0.048 A 
HETATM    2  C13 UNL     1      -2.620  -0.981   1.382  1.00  0.00     0.105 A 
HETATM    3  N2  UNL     1      -3.969  -1.220   1.487  1.00  0.00    -0.364 N 
ATOM      4  H2  UNL     1      -4.306  -1.955   2.109  1.00  0.00     0.165 HD
HETATM    5  C14 UNL     1      -4.849  -0.493   0.776  1.00  0.00     0.053 A 
HETATM    6  C21 UNL     1      -4.430   0.508  -0.074  1.00  0.00     0.003 A 
HETATM    7  C28 UNL     1      -3.072   0.735  -0.168  1.00  0.00     0.033 A 
ENDROOT
BRANCH   1   8
HETATM    8  C11 UNL     1      -0.710   0.236   0.439  1.00  0.00     0.257 C 
HETATM    9  N1  UNL     1       0.232  -0.765   0.763  1.00  0.00    -0.323 N 
ATOM     10  H1  UNL     1      -0.153  -1.656   1.075  1.00  0.00     0.169 HD
HETATM   11  O1  UNL     1      -0.303   1.356   0.042  1.00  0.00    -0.267 OA
BRANCH   9  12
HETATM   12  C10 UNL     1       1.633  -0.686   0.709  1.00  0.00     0.035 A 
HETATM   13  C9  UNL     1       2.388   0.454   0.654  1.00  0.00     0.030 A 
HETATM   14  C8  UNL     1       3.787   0.399   0.572  1.00  0.00     0.009 A 
HETATM   15  C7  UNL     1       4.459  -0.790   0.544  1.00  0.00    -0.058 A 
HETATM   16  C30 UNL     1       3.715  -1.940   0.600  1.00  0.00     0.009 A 
HETATM   17  C29 UNL     1       2.336  -1.903   0.681  1.00  0.00     0.030 A 
BRANCH  15  18
HETATM   18  C6  UNL     1       5.979  -0.847   0.450  1.00  0.00     0.038 C 
BRANCH  18  19
HETATM   19  C5  UNL     1       6.316  -0.879  -0.978  1.00  0.00     0.005 C 
BRANCH  19  20
HETATM   20  C4  UNL     1       7.710  -0.971  -1.362  1.00  0.00     0.000 C 
BRANCH  20  21
HETATM   21  C3  UNL     1       8.631   0.141  -1.111  1.00  0.00    -0.000 C 
BRANCH  21  22
HETATM   22  C2  UNL     1       8.811   0.578   0.278  1.00  0.00    -0.005 C 
HETATM   23  C1  UNL     1       9.926   1.662   0.371  1.00  0.00     0.005 C 
ENDBRANCH  21  22
ENDBRANCH  20  21
ENDBRANCH  19  20
ENDBRANCH  18  19
ENDBRANCH  15  18
ENDBRANCH   9  12
ENDBRANCH   1   8
BRANCH   6  24
HETATM   24  C22 UNL     1      -5.401   1.285  -0.835  1.00  0.00    -0.024 A 
HETATM   25  C23 UNL     1      -5.358   1.268  -2.222  1.00  0.00     0.012 A 
HETATM   26  C24 UNL     1      -6.218   1.957  -3.022  1.00  0.00     0.001 A 
HETATM   27  C25 UNL     1      -7.198   2.724  -2.422  1.00  0.00     0.000 A 
HETATM   28  C26 UNL     1      -7.276   2.768  -1.038  1.00  0.00     0.001 A 
HETATM   29  C27 UNL     1      -6.385   2.054  -0.256  1.00  0.00     0.012 A 
ENDBRANCH   6  24
BRANCH   5  30
HETATM   30  C15 UNL     1      -6.255  -0.831   0.961  1.00  0.00    -0.009 A 
HETATM   31  C16 UNL     1      -6.844  -0.700   2.203  1.00  0.00     0.014 A 
HETATM   32  C17 UNL     1      -8.186  -1.014   2.423  1.00  0.00     0.001 A 
HETATM   33  C18 UNL     1      -8.916  -1.467   1.336  1.00  0.00     0.000 A 
HETATM   34  C19 UNL     1      -8.309  -1.592   0.094  1.00  0.00     0.001 A 
HETATM   35  C20 UNL     1      -6.993  -1.280  -0.103  1.00  0.00     0.014 A 
ENDBRANCH   5  30
TORSDOF 9
