REMARK  1 active torsions:
REMARK  status: ('A' for Active; 'I' for Inactive)
REMARK    1  A    between atoms: C2_2  and  C4_4 
ROOT
HETATM    1  C4  UNL     1       0.031  -0.261   0.427  1.00  0.00     0.021 C 
HETATM    2  C5  UNL     1       1.193   0.697   0.746  1.00  0.00     0.040 C 
HETATM    3  C6  UNL     1       2.291  -0.077   0.056  1.00  0.00     0.189 C 
HETATM    4  C7  UNL     1       1.691  -0.400  -1.286  1.00  0.00     0.066 C 
HETATM    5  C8  UNL     1       0.779  -1.244  -0.409  1.00  0.00     0.192 C 
HETATM    6  N1  UNL     1       1.979  -1.471   0.415  1.00  0.00    -0.066 N 
ATOM      7  H11 UNL     1       1.933  -1.796   1.381  1.00  0.00     0.278 HD
ATOM      8  H12 UNL     1       2.625  -2.242   0.249  1.00  0.00     0.278 HD
ENDROOT
BRANCH   1   9
HETATM    9  C2  UNL     1      -1.078   0.438  -0.299  1.00  0.00    -0.017 C 
HETATM   10  C1  UNL     1      -1.678   1.570   0.454  1.00  0.00     0.010 C 
HETATM   11  C3  UNL     1      -2.179  -0.607  -0.501  1.00  0.00     0.010 C 
ENDBRANCH   1   9
TORSDOF 1
