REMARK  1 active torsions:
REMARK  status: ('A' for Active; 'I' for Inactive)
REMARK    1  A    between atoms: C2_2  and  C3_3 
ROOT
HETATM    1  C3  UNL     1       0.551  -0.310  -0.085  1.00  0.00     0.152 C 
HETATM    2  C4  UNL     1       0.136   1.129  -0.424  1.00  0.00     0.035 C 
HETATM    3  C5  UNL     1      -1.393   1.055  -0.523  1.00  0.00     0.008 C 
HETATM    4  C6  UNL     1      -1.932   0.372   0.691  1.00  0.00     0.046 C 
HETATM    5  C7  UNL     1      -1.982  -1.096   0.645  1.00  0.00     0.087 C 
HETATM    6  N1  UNL     1      -1.184  -1.767  -0.298  1.00  0.00    -0.281 N 
ATOM      7  H1  UNL     1      -1.353  -2.749  -0.517  1.00  0.00     0.193 HD
HETATM    8  O1  UNL     1      -0.220  -1.107  -0.890  1.00  0.00    -0.276 OA
ENDROOT
BRANCH   1   9
HETATM    9  C2  UNL     1       1.987  -0.477  -0.458  1.00  0.00     0.030 C 
HETATM   10  C1  UNL     1       2.922   0.451   0.258  1.00  0.00     0.007 C 
ENDBRANCH   1   9
TORSDOF 1
