REMARK  3 active torsions:
REMARK  status: ('A' for Active; 'I' for Inactive)
REMARK    1  A    between atoms: C2_3  and  N2_4 
REMARK    2  A    between atoms: C4_6  and  C5_7 
REMARK    3  A    between atoms: C6_10  and  N4_11 
ROOT
HETATM    1  N1  UNL     1       3.442   3.756   0.130  1.00  0.00    -0.196 NA
HETATM    2  C1  UNL     1       3.169   2.831   0.726  1.00  0.00     0.079 C 
HETATM    3  C2  UNL     1       2.811   1.691   1.508  1.00  0.00     0.252 C 
ENDROOT
BRANCH   3   4
HETATM    4  N2  UNL     1       2.002   0.702   0.778  1.00  0.00    -0.343 N 
HETATM    5  C3  UNL     1       0.640   0.720   0.632  1.00  0.00     0.102 A 
HETATM    6  C4  UNL     1       0.232  -0.371  -0.090  1.00  0.00    -0.005 A 
HETATM    7  C11 UNL     1       1.389  -1.058  -0.387  1.00  0.00     0.001 A 
HETATM    8  C12 UNL     1       1.561  -2.201  -1.145  1.00  0.00     0.014 A 
HETATM    9  C16 UNL     1       2.491  -0.388   0.156  1.00  0.00     0.046 A 
HETATM   10  C13 UNL     1       2.809  -2.720  -1.402  1.00  0.00     0.001 A 
HETATM   11  C14 UNL     1       3.911  -2.038  -0.853  1.00  0.00     0.002 A 
HETATM   12  C15 UNL     1       3.740  -0.914  -0.101  1.00  0.00     0.030 A 
BRANCH   6  13
HETATM   13  C5  UNL     1      -1.203  -0.837  -0.290  1.00  0.00     0.160 C 
HETATM   14  N3  UNL     1      -1.818  -0.458   1.018  1.00  0.00    -0.215 N 
HETATM   15  C6  UNL     1      -2.767   0.270   1.263  1.00  0.00     0.689 C 
ATOM     16  H3  UNL     1      -1.374  -0.874   1.837  1.00  0.00     0.178 HD
HETATM   17  N6  UNL     1      -3.519   0.909   0.203  1.00  0.00    -0.179 N 
HETATM   18  C8  UNL     1      -3.095   0.638  -1.110  1.00  0.00     0.111 C 
ATOM     19  H6  UNL     1      -4.311   1.521   0.398  1.00  0.00     0.185 HD
HETATM   20  N7  UNL     1      -3.834   0.989  -2.103  1.00  0.00    -0.387 N 
HETATM   21  C9  UNL     1      -1.840  -0.017  -1.373  1.00  0.00     0.188 C 
ATOM     22  H72 UNL     1      -4.723   1.453  -1.917  1.00  0.00     0.157 HD
ATOM     23  H71 UNL     1      -3.526   0.792  -3.055  1.00  0.00     0.157 HD
HETATM   24  C10 UNL     1      -2.134  -1.004  -2.503  1.00  0.00     0.074 C 
HETATM   25  N8  UNL     1      -2.345  -1.774  -3.373  1.00  0.00    -0.196 NA
BRANCH  15  26
HETATM   26  N4  UNL     1      -3.202   0.509   2.628  1.00  0.00    -0.126 N 
HETATM   27  C7  UNL     1      -3.945   1.644   2.925  1.00  0.00     0.196 C 
HETATM   28  N5  UNL     1      -4.599   2.594   3.164  1.00  0.00    -0.171 NA
ATOM     29  H4  UNL     1      -2.963  -0.154   3.365  1.00  0.00     0.197 HD
ENDBRANCH  15  26
ENDBRANCH   6  13
ENDBRANCH   3   4
TORSDOF 3
