REMARK  8 active torsions:
REMARK  status: ('A' for Active; 'I' for Inactive)
REMARK    1  A    between atoms: N3_4  and  N4_6 
REMARK    2  A    between atoms: C5_11  and  N5_12 
REMARK    3  A    between atoms: N5_12  and  S1_14 
REMARK    4  A    between atoms: S1_14  and  N6_17 
REMARK    5  A    between atoms: N6_17  and  C6_18 
REMARK    6  A    between atoms: N6_17  and  C12_26 
REMARK    7  A    between atoms: C6_18  and  C7_19 
REMARK       I    between atoms: C7_19  and  N7_21 
REMARK    8  A    between atoms: C12_26  and  C13_27 
ROOT
HETATM    1  S1  UNL     1      -0.324  -0.164  -2.196  1.00  0.00     0.299 S 
HETATM    2  O1  UNL     1      -0.236   0.714  -3.448  1.00  0.00    -0.188 OA
HETATM    3  O2  UNL     1      -0.918  -1.470  -2.731  1.00  0.00    -0.188 OA
ENDROOT
BRANCH   1   4
HETATM    4  N5  UNL     1       1.216  -0.506  -1.577  1.00  0.00    -0.302 N 
ATOM      5  H5  UNL     1       1.879   0.231  -1.335  1.00  0.00     0.173 HD
BRANCH   4   6
HETATM    6  C5  UNL     1       1.530  -1.899  -1.415  1.00  0.00     0.094 C 
HETATM    7  C4  UNL     1       2.673  -2.300  -2.355  1.00  0.00     0.031 C 
HETATM    8  C3  UNL     1       4.008  -2.239  -1.658  1.00  0.00     0.056 C 
HETATM    9  C2  UNL     1       4.079  -1.299  -0.544  1.00  0.00     0.004 C 
HETATM   10  N4  UNL     1       5.078  -0.499  -0.450  1.00  0.00    -0.307 N 
HETATM   11  C20 UNL     1       3.023  -1.255   0.477  1.00  0.00     0.056 C 
ATOM     12  H4  UNL     1       5.811  -0.531  -1.159  1.00  0.00     0.186 HD
HETATM   13  C19 UNL     1       1.921  -2.197  -0.008  1.00  0.00     0.031 C 
BRANCH  10  14
HETATM   14  N3  UNL     1       5.183   0.412   0.599  1.00  0.00    -0.276 N 
HETATM   15  C1  UNL     1       6.028   0.297   1.561  1.00  0.00     0.215 C 
HETATM   16  N1  UNL     1       6.962  -0.766   1.685  1.00  0.00    -0.065 NA
HETATM   17  N2  UNL     1       6.029   1.299   2.569  1.00  0.00    -0.065 NA
ATOM     18  H3  UNL     1       4.554   1.215   0.604  1.00  0.00     0.189 HD
ENDBRANCH  10  14
ENDBRANCH   4   6
ENDBRANCH   1   4
BRANCH   1  19
HETATM   19  N6  UNL     1      -1.466   0.459  -1.097  1.00  0.00    -0.184 NA
BRANCH  19  20
HETATM   20  C6  UNL     1      -2.194  -0.623  -0.483  1.00  0.00     0.211 C 
BRANCH  20  21
HETATM   21  C7  UNL     1      -1.673  -0.843   0.874  1.00  0.00     0.233 C 
HETATM   22  O3  UNL     1      -0.741  -0.147   1.373  1.00  0.00    -0.272 OA
HETATM   23  N7  UNL     1      -2.247  -1.891   1.663  1.00  0.00    -0.351 N 
HETATM   24  C8  UNL     1      -1.831  -2.207   2.996  1.00  0.00     0.126 C 
HETATM   25  C11 UNL     1      -3.320  -2.769   1.221  1.00  0.00     0.126 C 
HETATM   26  C9  UNL     1      -2.587  -3.421   3.381  1.00  0.00     0.021 C 
HETATM   27  C10 UNL     1      -3.123  -3.992   2.093  1.00  0.00     0.021 C 
ENDBRANCH  20  21
ENDBRANCH  19  20
BRANCH  19  28
HETATM   28  C12 UNL     1      -2.359   1.423  -1.676  1.00  0.00     0.114 C 
BRANCH  28  29
HETATM   29  C13 UNL     1      -1.810   2.844  -1.555  1.00  0.00    -0.000 C 
HETATM   30  C14 UNL     1      -2.797   3.799  -2.183  1.00  0.00     0.006 C 
HETATM   31  C15 UNL     1      -3.947   4.129  -1.226  1.00  0.00     0.000 C 
HETATM   32  C16 UNL     1      -3.416   5.019  -0.137  1.00  0.00     0.000 C 
HETATM   33  C17 UNL     1      -1.947   4.706   0.048  1.00  0.00     0.000 C 
HETATM   34  C18 UNL     1      -1.661   3.241  -0.106  1.00  0.00     0.006 C 
ENDBRANCH  28  29
ENDBRANCH  19  28
ENDBRANCH   1  19
TORSDOF 8
