REMARK  14 active torsions:
REMARK  status: ('A' for Active; 'I' for Inactive)
REMARK    1  A    between atoms: C2_2  and  C3_3 
REMARK    2  A    between atoms: C2_2  and  N6_32 
REMARK    3  A    between atoms: C3_3  and  C4_4 
REMARK    4  A    between atoms: C4_4  and  N1_5 
REMARK    5  A    between atoms: N2_8  and  C7_9 
REMARK    6  A    between atoms: C7_9  and  O1_10 
REMARK    7  A    between atoms: C7_9  and  C8_12 
REMARK    8  A    between atoms: C8_12  and  C9_13 
REMARK    9  A    between atoms: C9_13  and  N3_14 
REMARK   10  A    between atoms: N3_14  and  C10_16 
REMARK   11  A    between atoms: C10_16  and  O2_17 
REMARK   12  A    between atoms: C10_16  and  N4_19 
REMARK   13  A    between atoms: N4_19  and  C11_21 
REMARK       I    between atoms: N5_24  and  C14_25 
REMARK       I    between atoms: N6_32  and  C20_33 
REMARK   14  A    between atoms: C20_33  and  C21_35 
ROOT
HETATM    1  C7  UNL     1      -0.004  -0.518   0.350  1.00  0.00     0.115 C 
ENDROOT
BRANCH   1   2
HETATM    2  N2  UNL     1       1.275  -0.561  -0.164  1.00  0.00    -0.356 N 
HETATM    3  C6  UNL     1       1.730  -1.391  -1.222  1.00  0.00     0.169 C 
HETATM    4  C5  UNL     1       3.215  -1.792  -1.077  1.00  0.00     0.083 C 
HETATM    5  N1  UNL     1       3.924  -1.180  -0.064  1.00  0.00    -0.370 N 
HETATM    6  C19 UNL     1       3.284  -0.553   1.023  1.00  0.00     0.083 C 
HETATM    7  C18 UNL     1       2.250   0.393   0.425  1.00  0.00     0.169 C 
BRANCH   5   8
HETATM    8  C4  UNL     1       5.251  -0.706  -0.211  1.00  0.00     0.134 C 
BRANCH   8   9
HETATM    9  C3  UNL     1       6.350  -1.704  -0.255  1.00  0.00     0.092 C 
BRANCH   9  10
HETATM   10  C2  UNL     1       7.692  -1.068  -0.449  1.00  0.00     0.080 C 
HETATM   11  C1  UNL     1       8.646  -1.963  -0.815  1.00  0.00     0.054 C 
BRANCH  10  12
HETATM   12  N6  UNL     1       8.082   0.228  -0.355  1.00  0.00    -0.376 NA
HETATM   13  C20 UNL     1       8.468   1.528  -0.261  1.00  0.00     0.291 C 
HETATM   14  O4  UNL     1       7.700   2.493   0.057  1.00  0.00    -0.257 OA
BRANCH  13  15
HETATM   15  C21 UNL     1       9.898   1.954  -0.534  1.00  0.00     0.115 C 
HETATM   16  C22 UNL     1       9.925   3.476  -0.330  1.00  0.00     0.016 C 
ENDBRANCH  13  15
ENDBRANCH  10  12
ENDBRANCH   9  10
ENDBRANCH   8   9
ENDBRANCH   5   8
ENDBRANCH   1   2
BRANCH   1  17
HETATM   17  O1  UNL     1      -0.242   0.200   1.425  1.00  0.00    -0.349 OA
ATOM     18  H1  UNL     1      -1.123   0.230   1.779  1.00  0.00     0.219 HD
ENDBRANCH   1  17
BRANCH   1  19
HETATM   19  C8  UNL     1      -1.270  -1.159  -0.119  1.00  0.00     0.103 C 
BRANCH  19  20
HETATM   20  C9  UNL     1      -1.946  -1.824   1.035  1.00  0.00     0.131 C 
BRANCH  20  21
HETATM   21  N3  UNL     1      -3.291  -2.226   0.652  1.00  0.00    -0.356 N 
ATOM     22  H3  UNL     1      -3.535  -3.211   0.553  1.00  0.00     0.163 HD
BRANCH  21  23
HETATM   23  C10 UNL     1      -4.247  -1.216   0.422  1.00  0.00     0.212 C 
BRANCH  23  24
HETATM   24  O2  UNL     1      -3.828   0.013   0.582  1.00  0.00    -0.333 OA
ATOM     25  H2  UNL     1      -4.472   0.694   0.427  1.00  0.00     0.220 HD
ENDBRANCH  23  24
BRANCH  23  26
HETATM   26  N4  UNL     1      -5.571  -1.365   0.050  1.00  0.00    -0.352 N 
ATOM     27  H4  UNL     1      -5.934  -2.301  -0.128  1.00  0.00     0.163 HD
BRANCH  26  28
HETATM   28  C11 UNL     1      -6.467  -0.211  -0.096  1.00  0.00     0.088 C 
HETATM   29  C12 UNL     1      -7.393  -0.279   1.093  1.00  0.00     0.045 C 
HETATM   30  C13 UNL     1      -8.545   0.654   1.032  1.00  0.00     0.127 C 
HETATM   31  N5  UNL     1      -8.706   1.191  -0.327  1.00  0.00    -0.352 N 
HETATM   32  C14 UNL     1      -8.959   2.549  -0.567  1.00  0.00     0.215 C 
HETATM   33  C16 UNL     1      -8.569   0.180  -1.381  1.00  0.00     0.127 C 
HETATM   34  C15 UNL     1      -9.070   3.518   0.499  1.00  0.00     0.117 C 
HETATM   35  O3  UNL     1      -9.094   2.946  -1.747  1.00  0.00    -0.274 OA
HETATM   36  C17 UNL     1      -7.146  -0.273  -1.413  1.00  0.00     0.045 C 
ENDBRANCH  26  28
ENDBRANCH  23  26
ENDBRANCH  21  23
ENDBRANCH  20  21
ENDBRANCH  19  20
ENDBRANCH   1  19
TORSDOF 14
