REMARK  9 active torsions:
REMARK  status: ('A' for Active; 'I' for Inactive)
REMARK    1  A    between atoms: C2_2  and  C3_3 
REMARK    2  A    between atoms: C3_3  and  C4_4 
REMARK    3  A    between atoms: C4_4  and  N1_5 
REMARK       I    between atoms: N1_5  and  C5_7 
REMARK    4  A    between atoms: C5_7  and  C6_9 
REMARK    5  A    between atoms: C6_9  and  N2_10 
REMARK    6  A    between atoms: N3_13  and  C9_14 
REMARK    7  A    between atoms: C9_14  and  N4_16 
REMARK    8  A    between atoms: N4_16  and  C10_18 
REMARK    9  A    between atoms: N5_21  and  C13_23 
ROOT
HETATM    1  N2  UNL     1       0.613  -1.974   0.337  1.00  0.00    -0.401 N 
HETATM    2  C7  UNL     1       1.234  -1.107   1.275  1.00  0.00     0.137 C 
HETATM    3  C8  UNL     1       2.395  -0.348   0.647  1.00  0.00     0.144 C 
HETATM    4  N3  UNL     1       3.353  -1.268   0.088  1.00  0.00    -0.355 N 
HETATM    5  C15 UNL     1       2.924  -2.633  -0.142  1.00  0.00     0.144 C 
HETATM    6  C16 UNL     1       1.467  -2.691  -0.544  1.00  0.00     0.137 C 
ENDROOT
BRANCH   4   7
HETATM    7  C9  UNL     1       4.663  -0.815  -0.218  1.00  0.00     0.170 C 
HETATM    8  S1  UNL     1       5.690  -1.909  -0.856  1.00  0.00    -0.041 SA
BRANCH   7   9
HETATM    9  N4  UNL     1       5.088   0.501  -0.006  1.00  0.00    -0.353 N 
ATOM     10  H4  UNL     1       4.394   1.139   0.383  1.00  0.00     0.162 HD
BRANCH   9  11
HETATM   11  C10 UNL     1       6.375   1.059  -0.268  1.00  0.00     0.183 C 
HETATM   12  C11 UNL     1       7.500   0.505   0.539  1.00  0.00     0.111 C 
HETATM   13  C12 UNL     1       8.694   0.880  -0.276  1.00  0.00     0.088 C 
HETATM   14  N5  UNL     1       9.858   1.221   0.135  1.00  0.00    -0.324 N 
HETATM   15  N6  UNL     1       8.249   0.773  -1.621  1.00  0.00    -0.315 N 
ATOM     16  H5  UNL     1      10.015   1.247   1.142  1.00  0.00     0.169 HD
HETATM   17  C14 UNL     1       6.830   0.786  -1.672  1.00  0.00     0.246 C 
ATOM     18  H6  UNL     1       8.861   0.698  -2.433  1.00  0.00     0.170 HD
HETATM   19  O3  UNL     1       6.099   0.607  -2.679  1.00  0.00    -0.271 OA
BRANCH  14  20
HETATM   20  C13 UNL     1      10.933   1.561  -0.701  1.00  0.00     0.354 C 
HETATM   21  O2  UNL     1      11.625   2.604  -0.609  1.00  0.00    -0.283 OA
ENDBRANCH  14  20
ENDBRANCH   9  11
ENDBRANCH   7   9
ENDBRANCH   4   7
BRANCH   1  22
HETATM   22  C6  UNL     1      -0.618  -1.505  -0.206  1.00  0.00     0.219 C 
BRANCH  22  23
HETATM   23  C5  UNL     1      -1.697  -1.467   0.807  1.00  0.00     0.235 C 
HETATM   24  N1  UNL     1      -3.032  -1.023   0.465  1.00  0.00    -0.360 N 
ATOM     25  H1  UNL     1      -3.248  -0.729  -0.488  1.00  0.00     0.162 HD
HETATM   26  O1  UNL     1      -1.485  -1.817   1.987  1.00  0.00    -0.272 OA
BRANCH  24  27
HETATM   27  C4  UNL     1      -4.049  -1.000   1.479  1.00  0.00     0.123 C 
BRANCH  27  28
HETATM   28  C3  UNL     1      -5.386  -0.513   1.142  1.00  0.00     0.029 C 
BRANCH  28  29
HETATM   29  C2  UNL     1      -5.625   0.882   0.744  1.00  0.00    -0.043 C 
HETATM   30  C1  UNL     1      -5.191   1.886   1.805  1.00  0.00     0.015 C 
HETATM   31  C17 UNL     1      -5.064   1.308  -0.548  1.00  0.00     0.009 C 
HETATM   32  C18 UNL     1      -5.655   0.562  -1.751  1.00  0.00     0.001 C 
HETATM   33  C19 UNL     1      -7.127   0.829  -1.800  1.00  0.00     0.000 C 
HETATM   34  C20 UNL     1      -7.588   1.668  -0.607  1.00  0.00     0.001 C 
HETATM   35  C21 UNL     1      -7.166   1.058   0.691  1.00  0.00     0.009 C 
ENDBRANCH  28  29
ENDBRANCH  27  28
ENDBRANCH  24  27
ENDBRANCH  22  23
ENDBRANCH   1  22
TORSDOF 9
