REMARK  8 active torsions:
REMARK  status: ('A' for Active; 'I' for Inactive)
REMARK    1  A    between atoms: N1_2  and  C2_3 
REMARK    2  A    between atoms: C2_3  and  C3_4 
REMARK    3  A    between atoms: C3_4  and  C4_5 
REMARK    4  A    between atoms: C3_4  and  C17_23 
REMARK    5  A    between atoms: C4_5  and  C5_6 
REMARK    6  A    between atoms: C5_6  and  C6_7 
REMARK    7  A    between atoms: N2_12  and  C10_13 
REMARK    8  A    between atoms: C13_16  and  C14_17 
REMARK       I    between atoms: N3_28  and  C22_29 
ROOT
HETATM    1  C4  UNL     1       0.301  -0.401  -0.819  1.00  0.00     0.009 C 
ENDROOT
BRANCH   1   2
HETATM    2  C3  UNL     1       1.812  -0.580  -0.890  1.00  0.00     0.016 C 
BRANCH   2   3
HETATM    3  C2  UNL     1       2.555   0.615  -0.462  1.00  0.00     0.244 C 
BRANCH   3   4
HETATM    4  N1  UNL     1       3.973   0.616  -0.474  1.00  0.00    -0.053 N 
HETATM    5  C1  UNL     1       4.626  -0.110  -1.509  1.00  0.00     0.274 C 
HETATM    6  C20 UNL     1       4.464   2.021  -0.587  1.00  0.00     0.259 C 
HETATM    7  C21 UNL     1       5.812   2.013   0.048  1.00  0.00     0.155 C 
HETATM    8  N3  UNL     1       5.716   0.980   1.027  1.00  0.00    -0.330 N 
HETATM    9  C22 UNL     1       6.637   0.757   2.072  1.00  0.00     0.185 C 
HETATM   10  C23 UNL     1       4.529   0.178   0.801  1.00  0.00     0.364 C 
HETATM   11  N4  UNL     1       6.267   0.836   3.290  1.00  0.00    -0.374 N 
HETATM   12  N5  UNL     1       7.979   0.443   1.752  1.00  0.00    -0.064 NA
ATOM     13  H42 UNL     1       5.300   1.062   3.521  1.00  0.00     0.158 HD
ATOM     14  H41 UNL     1       6.933   0.675   4.046  1.00  0.00     0.158 HD
ENDBRANCH   3   4
ENDBRANCH   2   3
BRANCH   2  15
HETATM   15  C17 UNL     1       2.129  -1.755   0.010  1.00  0.00    -0.009 A 
HETATM   16  C18 UNL     1       1.474  -3.072  -0.205  1.00  0.00     0.005 A 
HETATM   17  C19 UNL     1       2.885  -2.937  -0.607  1.00  0.00     0.005 A 
ENDBRANCH   2  15
ENDBRANCH   1   2
BRANCH   1  18
HETATM   18  C5  UNL     1      -0.205   0.704  -1.678  1.00  0.00     0.032 C 
BRANCH  18  19
HETATM   19  C6  UNL     1      -1.679   0.895  -1.630  1.00  0.00     0.122 C 
HETATM   20  C7  UNL     1      -2.194   1.224  -0.221  1.00  0.00     0.048 C 
HETATM   21  C8  UNL     1      -3.670   1.243  -0.566  1.00  0.00     0.109 C 
HETATM   22  C9  UNL     1      -4.579   1.172   0.553  1.00  0.00     0.227 C 
HETATM   23  C16 UNL     1      -3.731   0.178  -1.604  1.00  0.00     0.137 C 
HETATM   24  O1  UNL     1      -4.662   2.144   1.328  1.00  0.00    -0.273 OA
HETATM   25  N2  UNL     1      -5.374  -0.030   0.747  1.00  0.00    -0.332 N 
HETATM   26  C13 UNL     1      -4.696  -1.195   0.254  1.00  0.00     0.191 C 
HETATM   27  C15 UNL     1      -4.531  -1.030  -1.241  1.00  0.00     0.069 C 
HETATM   28  O4  UNL     1      -2.430  -0.205  -1.932  1.00  0.00    -0.380 OA
BRANCH  25  29
HETATM   29  C10 UNL     1      -6.675   0.045   1.344  1.00  0.00     0.088 A 
HETATM   30  C11 UNL     1      -7.437   1.370   1.328  1.00  0.00     0.027 A 
HETATM   31  C12 UNL     1      -6.890   0.899   2.615  1.00  0.00     0.027 A 
ENDBRANCH  25  29
BRANCH  26  32
HETATM   32  C14 UNL     1      -5.231  -2.517   0.561  1.00  0.00     0.197 C 
HETATM   33  O2  UNL     1      -4.793  -3.551  -0.099  1.00  0.00    -0.646 OA
HETATM   34  O3  UNL     1      -6.174  -2.831   1.495  1.00  0.00    -0.646 OA
ENDBRANCH  26  32
ENDBRANCH  18  19
ENDBRANCH   1  18
TORSDOF 8
