REMARK  7 active torsions:
REMARK  status: ('A' for Active; 'I' for Inactive)
REMARK    1  A    between atoms: C2_2  and  C4_4 
REMARK    2  A    between atoms: C4_4  and  C5_5 
REMARK    3  A    between atoms: C10_16  and  C11_17 
REMARK    4  A    between atoms: C11_17  and  C12_18 
REMARK    5  A    between atoms: C12_18  and  C13_19 
REMARK    6  A    between atoms: C13_19  and  C14_20 
REMARK    7  A    between atoms: C14_20  and  N3_21 
ROOT
HETATM    1  C5  UNL     1       4.011  -0.524  -0.747  1.00  0.00     0.173 C 
HETATM    2  C6  UNL     1       3.535   0.061   0.497  1.00  0.00     0.231 C 
HETATM    3  O1  UNL     1       3.976   1.266   0.702  1.00  0.00    -0.273 OA
HETATM    4  N1  UNL     1       2.691  -0.458   1.490  1.00  0.00    -0.347 N 
ATOM      5  H1  UNL     1       3.112  -0.553   2.414  1.00  0.00     0.163 HD
HETATM    6  C7  UNL     1       1.307  -0.879   1.393  1.00  0.00     0.172 C 
HETATM    7  C8  UNL     1       0.966  -1.607   0.132  1.00  0.00     0.042 C 
HETATM    8  C9  UNL     1       0.389   0.226   1.763  1.00  0.00     0.240 C 
HETATM    9  O2  UNL     1       0.249   0.285   3.053  1.00  0.00    -0.271 OA
HETATM   10  N2  UNL     1      -0.312   1.165   1.046  1.00  0.00    -0.354 N 
ATOM     11  H2  UNL     1       0.104   2.089   1.164  1.00  0.00     0.162 HD
HETATM   12  C10 UNL     1      -1.434   1.234   0.196  1.00  0.00     0.093 C 
HETATM   13  C18 UNL     1      -1.124   2.136  -0.982  1.00  0.00     0.128 C 
HETATM   14  C19 UNL     1      -0.526   1.465  -2.144  1.00  0.00     0.219 C 
HETATM   15  O3  UNL     1      -1.287   0.837  -2.914  1.00  0.00    -0.274 OA
HETATM   16  N4  UNL     1       0.853   1.463  -2.480  1.00  0.00    -0.359 N 
ATOM     17  H4  UNL     1       1.198   0.747  -3.120  1.00  0.00     0.162 HD
HETATM   18  C20 UNL     1       1.794   2.434  -1.954  1.00  0.00     0.149 C 
HETATM   19  C21 UNL     1       3.130   2.320  -2.561  1.00  0.00     0.123 A 
HETATM   20  C22 UNL     1       4.161   3.219  -1.860  1.00  0.00     0.153 A 
HETATM   21  N5  UNL     1       4.213   1.775  -1.893  1.00  0.00    -0.342 N 
HETATM   22  C23 UNL     1       4.686   0.465  -1.658  1.00  0.00     0.233 C 
HETATM   23  O4  UNL     1       5.729  -0.015  -2.192  1.00  0.00    -0.272 OA
ENDROOT
BRANCH  12  24
HETATM   24  C11 UNL     1      -2.173   0.049  -0.245  1.00  0.00     0.026 C 
BRANCH  24  25
HETATM   25  C12 UNL     1      -2.777  -0.782   0.853  1.00  0.00     0.004 C 
BRANCH  25  26
HETATM   26  C13 UNL     1      -3.771  -0.098   1.714  1.00  0.00     0.028 C 
BRANCH  26  27
HETATM   27  C14 UNL     1      -5.024   0.377   1.081  1.00  0.00     0.236 C 
BRANCH  27  28
HETATM   28  N3  UNL     1      -5.909  -0.594   0.540  1.00  0.00    -0.079 N 
HETATM   29  C15 UNL     1      -7.269   0.005   0.620  1.00  0.00     0.271 C 
HETATM   30  C16 UNL     1      -6.019  -1.799   1.340  1.00  0.00     0.271 C 
HETATM   31  C17 UNL     1      -5.737  -0.962  -0.824  1.00  0.00     0.271 C 
ENDBRANCH  27  28
ENDBRANCH  26  27
ENDBRANCH  25  26
ENDBRANCH  24  25
ENDBRANCH  12  24
BRANCH   1  32
HETATM   32  C4  UNL     1       4.788  -1.797  -0.586  1.00  0.00     0.056 C 
BRANCH  32  33
HETATM   33  C2  UNL     1       6.010  -1.764   0.201  1.00  0.00    -0.092 C 
HETATM   34  C1  UNL     1       7.181  -2.032  -0.363  1.00  0.00     0.014 C 
HETATM   35  C3  UNL     1       6.005  -1.465   1.651  1.00  0.00     0.042 C 
ENDBRANCH  32  33
ENDBRANCH   1  32
TORSDOF 7
