REMARK  8 active torsions:
REMARK  status: ('A' for Active; 'I' for Inactive)
REMARK       I    between atoms: C2_2  and  N1_4 
REMARK    1  A    between atoms: C8_10  and  C9_11 
REMARK    2  A    between atoms: C9_11  and  C10_12 
REMARK       I    between atoms: C10_12  and  N2_14 
REMARK    3  A    between atoms: N2_14  and  C11_16 
REMARK    4  A    between atoms: C11_16  and  C12_17 
REMARK    5  A    between atoms: C12_17  and  N3_18 
REMARK       I    between atoms: N3_18  and  C13_20 
REMARK    6  A    between atoms: C13_20  and  C14_22 
REMARK       I    between atoms: C14_22  and  N4_24 
REMARK    7  A    between atoms: N4_24  and  C15_26 
REMARK    8  A    between atoms: C15_26  and  C16_27 
ROOT
HETATM    1  N3  UNL     1       0.010   2.075   0.071  1.00  0.00    -0.351 N 
ATOM      2  H3  UNL     1      -0.181   1.202   0.563  1.00  0.00     0.162 HD
HETATM    3  C13 UNL     1       1.317   2.339  -0.406  1.00  0.00     0.309 C 
HETATM    4  O3  UNL     1       1.580   3.408  -1.015  1.00  0.00    -0.262 OA
ENDROOT
BRANCH   1   5
HETATM    5  C12 UNL     1      -1.067   3.039  -0.134  1.00  0.00     0.143 C 
BRANCH   5   6
HETATM    6  C11 UNL     1      -2.317   2.456   0.486  1.00  0.00     0.142 C 
BRANCH   6   7
HETATM    7  N2  UNL     1      -2.683   1.199  -0.116  1.00  0.00    -0.359 N 
HETATM    8  C10 UNL     1      -3.819   0.449   0.289  1.00  0.00     0.219 C 
HETATM    9  O2  UNL     1      -4.524   0.924   1.219  1.00  0.00    -0.274 OA
ATOM     10  H2  UNL     1      -2.100   0.831  -0.867  1.00  0.00     0.162 HD
BRANCH   8  11
HETATM   11  C9  UNL     1      -4.158  -0.851  -0.368  1.00  0.00     0.128 C 
BRANCH  11  12
HETATM   12  C8  UNL     1      -5.379  -1.444   0.222  1.00  0.00     0.096 C 
HETATM   13  N1  UNL     1      -6.591  -0.680   0.167  1.00  0.00    -0.347 N 
HETATM   14  C2  UNL     1      -6.870   0.213  -0.890  1.00  0.00     0.216 C 
HETATM   15  C3  UNL     1      -7.647  -0.763   1.202  1.00  0.00     0.126 C 
HETATM   16  C1  UNL     1      -8.155   0.983  -0.873  1.00  0.00     0.117 C 
HETATM   17  O1  UNL     1      -6.073   0.368  -1.828  1.00  0.00    -0.274 OA
HETATM   18  C4  UNL     1      -7.477  -1.964   2.053  1.00  0.00     0.020 C 
HETATM   19  C5  UNL     1      -7.309  -3.269   1.366  1.00  0.00     0.002 C 
HETATM   20  C6  UNL     1      -7.088  -3.232  -0.104  1.00  0.00     0.002 C 
HETATM   21  C7  UNL     1      -5.700  -2.758  -0.484  1.00  0.00     0.026 C 
ENDBRANCH  11  12
ENDBRANCH   8  11
ENDBRANCH   6   7
ENDBRANCH   5   6
ENDBRANCH   1   5
BRANCH   3  22
HETATM   22  C14 UNL     1       2.367   1.374  -0.192  1.00  0.00     0.309 C 
HETATM   23  O4  UNL     1       2.126   0.291   0.421  1.00  0.00    -0.262 OA
HETATM   24  N4  UNL     1       3.680   1.600  -0.653  1.00  0.00    -0.351 N 
ATOM     25  H4  UNL     1       3.906   2.461  -1.151  1.00  0.00     0.162 HD
BRANCH  24  26
HETATM   26  C15 UNL     1       4.702   0.613  -0.420  1.00  0.00     0.156 C 
BRANCH  26  27
HETATM   27  C16 UNL     1       6.041   1.001  -0.971  1.00  0.00     0.208 C 
HETATM   28  C17 UNL     1       6.579   2.287  -0.378  1.00  0.00     0.037 C 
HETATM   29  C18 UNL     1       6.972   1.864   1.009  1.00  0.00     0.030 C 
HETATM   30  C19 UNL     1       7.291   0.400   0.869  1.00  0.00     0.238 C 
HETATM   31  N5  UNL     1       7.019   0.043  -0.494  1.00  0.00    -0.061 N 
HETATM   32  C20 UNL     1       6.532  -1.314  -0.549  1.00  0.00     0.238 C 
HETATM   33  C23 UNL     1       8.177   0.030  -1.344  1.00  0.00     0.238 C 
HETATM   34  C21 UNL     1       7.805  -2.105  -0.282  1.00  0.00     0.029 C 
HETATM   35  C22 UNL     1       8.880  -1.245  -0.942  1.00  0.00     0.029 C 
ENDBRANCH  26  27
ENDBRANCH  24  26
ENDBRANCH   3  22
TORSDOF 8
