REMARK  2 active torsions:
REMARK  status: ('A' for Active; 'I' for Inactive)
REMARK    1  A    between atoms: C5_7  and  C6_8 
REMARK    2  A    between atoms: N1_11  and  C9_13 
ROOT
HETATM    1  C6  UNL     1      -1.984   0.114   0.676  1.00  0.00     0.147 C 
HETATM    2  C7  UNL     1      -1.329   1.396   0.302  1.00  0.00     0.105 C 
HETATM    3  C8  UNL     1       0.118   0.963   0.151  1.00  0.00     0.090 C 
HETATM    4  N1  UNL     1       1.121   1.715  -0.006  1.00  0.00    -0.374 N 
ATOM      5  H1  UNL     1       0.938   2.718  -0.033  1.00  0.00     0.161 HD
HETATM    6  N2  UNL     1       0.076  -0.446   0.225  1.00  0.00    -0.292 N 
ATOM      7  H2  UNL     1       0.848  -1.058   0.491  1.00  0.00     0.183 HD
HETATM    8  N3  UNL     1      -1.238  -0.860  -0.138  1.00  0.00    -0.129 NA
ENDROOT
BRANCH   4   9
HETATM    9  C9  UNL     1       2.471   1.315  -0.148  1.00  0.00     0.082 C 
HETATM   10  C10 UNL     1       2.637   0.461  -1.395  1.00  0.00     0.025 C 
HETATM   11  C11 UNL     1       4.123   0.284  -1.668  1.00  0.00     0.002 C 
HETATM   12  C12 UNL     1       4.779  -0.325  -0.479  1.00  0.00     0.000 C 
HETATM   13  C13 UNL     1       3.860  -0.576   0.669  1.00  0.00     0.002 C 
HETATM   14  C14 UNL     1       3.050   0.626   1.061  1.00  0.00     0.025 C 
ENDBRANCH   4   9
BRANCH   1  15
HETATM   15  C5  UNL     1      -3.425   0.141   0.257  1.00  0.00     0.011 A 
HETATM   16  C2  UNL     1      -4.365  -0.841   0.424  1.00  0.00    -0.045 A 
HETATM   17  C1  UNL     1      -3.962  -2.139   1.110  1.00  0.00     0.049 C 
HETATM   18  C3  UNL     1      -5.599  -0.596  -0.033  1.00  0.00     0.039 A 
HETATM   19  C4  UNL     1      -5.823   0.612  -0.630  1.00  0.00     0.075 A 
HETATM   20 CL1  UNL     1      -7.344   1.208  -1.323  1.00  0.00    -0.076 Cl
HETATM   21  S1  UNL     1      -4.303   1.374  -0.536  1.00  0.00    -0.080 SA
ENDBRANCH   1  15
TORSDOF 2
