REMARK  3 active torsions:
REMARK  status: ('A' for Active; 'I' for Inactive)
REMARK    1  A    between atoms: C10_16  and  C11_17 
REMARK    2  A    between atoms: C11_17  and  C12_18 
REMARK    3  A    between atoms: C12_18  and  N3_19 
ROOT
HETATM    1  C1  UNL     1       4.267  -1.399  -0.086  1.00  0.00     0.015 C 
HETATM    2  C2  UNL     1       3.640  -0.067  -0.289  1.00  0.00     0.040 C 
HETATM    3  C3  UNL     1       4.162   0.943   0.737  1.00  0.00     0.193 C 
HETATM    4  F1  UNL     1       4.634   0.345   1.863  1.00  0.00    -0.247 F 
HETATM    5  C4  UNL     1       2.954   1.844   1.042  1.00  0.00     0.163 C 
HETATM    6  N1  UNL     1       1.962   1.375   0.120  1.00  0.00    -0.354 N 
HETATM    7  C5  UNL     1       0.992   2.073  -0.599  1.00  0.00     0.137 C 
HETATM    8  N2  UNL     1       1.095   3.345  -0.751  1.00  0.00    -0.380 N 
ATOM      9  H21 UNL     1       0.386   3.855  -1.277  1.00  0.00     0.158 HD
ATOM     10  H22 UNL     1       1.897   3.820  -0.337  1.00  0.00     0.158 HD
HETATM   11  S1  UNL     1      -0.414   1.239  -1.326  1.00  0.00    -0.084 SA
HETATM   12  C6  UNL     1      -0.161  -0.506  -0.812  1.00  0.00     0.018 C 
HETATM   13  C7  UNL     1      -0.824  -1.425  -1.806  1.00  0.00     0.021 C 
HETATM   14  C8  UNL     1      -1.995  -2.082  -1.160  1.00  0.00     0.002 C 
HETATM   15  C9  UNL     1      -2.884  -1.083  -0.443  1.00  0.00     0.005 C 
HETATM   16  C10 UNL     1      -2.169  -0.509   0.732  1.00  0.00    -0.012 C 
HETATM   17  C13 UNL     1      -0.697  -0.622   0.579  1.00  0.00     0.025 C 
HETATM   18  C14 UNL     1       1.299  -0.848  -0.773  1.00  0.00     0.046 C 
HETATM   19  C15 UNL     1       2.162  -0.033   0.066  1.00  0.00     0.094 C 
ENDROOT
BRANCH  16  20
HETATM   20  C11 UNL     1      -2.629   0.874   1.132  1.00  0.00     0.032 C 
BRANCH  20  21
HETATM   21  C12 UNL     1      -4.086   0.909   1.505  1.00  0.00     0.230 C 
BRANCH  21  22
HETATM   22  N3  UNL     1      -4.986   0.515   0.469  1.00  0.00    -0.079 N 
ATOM     23  H33 UNL     1      -4.824   1.074  -0.369  1.00  0.00     0.274 HD
ATOM     24  H32 UNL     1      -4.735  -0.409   0.118  1.00  0.00     0.274 HD
ATOM     25  H31 UNL     1      -5.974   0.539   0.722  1.00  0.00     0.274 HD
ENDBRANCH  21  22
ENDBRANCH  20  21
ENDBRANCH  16  20
TORSDOF 3
