REMARK  2 active torsions:
REMARK  status: ('A' for Active; 'I' for Inactive)
REMARK    1  A    between atoms: C2_5  and  C3_6 
REMARK    2  A    between atoms: C7_12  and  C8_13 
ROOT
HETATM    1  S1  UNL     1      -2.042   4.020   1.360  1.00  0.00    -0.041 SA
HETATM    2  C1  UNL     1      -1.473   2.587   0.846  1.00  0.00     0.176 A 
HETATM    3  N1  UNL     1      -0.168   2.356   0.617  1.00  0.00    -0.330 N 
ATOM      4  H1  UNL     1       0.589   3.031   0.726  1.00  0.00     0.168 HD
HETATM    5  C2  UNL     1      -0.037   1.092   0.223  1.00  0.00     0.074 A 
HETATM    6  C7  UNL     1      -1.236   0.468   0.170  1.00  0.00     0.044 A 
HETATM    7  N2  UNL     1      -2.146   1.435   0.578  1.00  0.00    -0.334 N 
ATOM      8  H2  UNL     1      -3.154   1.303   0.663  1.00  0.00     0.168 HD
ENDROOT
BRANCH   5   9
HETATM    9  C3  UNL     1       1.239   0.398  -0.015  1.00  0.00     0.035 A 
HETATM   10  C4  UNL     1       2.288   0.559  -0.839  1.00  0.00     0.040 A 
HETATM   11  C5  UNL     1       3.408  -0.209  -0.606  1.00  0.00     0.018 A 
HETATM   12 BR1  UNL     1       4.986  -0.121  -1.730  1.00  0.00    -0.051 Br
HETATM   13  C6  UNL     1       3.357  -1.069   0.441  1.00  0.00     0.069 A 
HETATM   14  S2  UNL     1       1.823  -0.846   1.089  1.00  0.00    -0.098 SA
ENDBRANCH   5   9
BRANCH   6  15
HETATM   15  C8  UNL     1      -1.639  -0.724  -0.480  1.00  0.00     0.038 A 
HETATM   16  C9  UNL     1      -2.103  -1.897   0.402  1.00  0.00     0.011 A 
HETATM   17  C10 UNL     1      -1.095  -1.997  -0.817  1.00  0.00     0.011 A 
ENDBRANCH   6  15
TORSDOF 2
