REMARK  4 active torsions:
REMARK  status: ('A' for Active; 'I' for Inactive)
REMARK    1  A    between atoms: N1_2  and  C2_4 
REMARK    2  A    between atoms: C2_4  and  C3_5 
REMARK    3  A    between atoms: C3_5  and  N2_6 
REMARK    4  A    between atoms: N3_8  and  C4_10 
ROOT
HETATM    1  N2  UNL     1      -0.307  -0.782  -1.268  1.00  0.00    -0.332 N 
ATOM      2  H2  UNL     1      -0.992  -1.110  -1.949  1.00  0.00     0.180 HD
HETATM    3  N3  UNL     1       0.912  -0.996  -1.476  1.00  0.00    -0.275 N 
ATOM      4  H3  UNL     1       1.164  -1.495  -2.329  1.00  0.00     0.189 HD
ENDROOT
BRANCH   3   5
HETATM    5  C4  UNL     1       1.975  -0.592  -0.606  1.00  0.00     0.207 C 
HETATM    6  N4  UNL     1       2.125  -0.888   0.646  1.00  0.00    -0.273 N 
HETATM    7  N5  UNL     1       3.295  -0.296   1.131  1.00  0.00    -0.119 NA
ATOM      8  H4  UNL     1       1.487  -1.465   1.194  1.00  0.00     0.185 HD
HETATM    9  C5  UNL     1       3.706   0.716   0.160  1.00  0.00     0.259 C 
HETATM   10  N6  UNL     1       3.060   0.232  -1.043  1.00  0.00    -0.345 N 
ATOM     11  H6  UNL     1       3.325   0.437  -2.006  1.00  0.00     0.164 HD
ENDBRANCH   3   5
BRANCH   1  12
HETATM   12  C3  UNL     1      -0.765  -0.087  -0.096  1.00  0.00     0.158 C 
BRANCH  12  13
HETATM   13  C2  UNL     1      -1.963   0.789  -0.374  1.00  0.00     0.134 C 
BRANCH  13  14
HETATM   14  N1  UNL     1      -3.095   0.080  -0.862  1.00  0.00    -0.424 N 
HETATM   15  C1  UNL     1      -3.728  -0.805   0.059  1.00  0.00     0.139 C 
ATOM     16  H1  UNL     1      -3.435   0.198  -1.817  1.00  0.00     0.152 HD
ENDBRANCH  13  14
ENDBRANCH  12  13
ENDBRANCH   1  12
TORSDOF 4
