REMARK  9 active torsions:
REMARK  status: ('A' for Active; 'I' for Inactive)
REMARK    1  A    between atoms: N1_1  and  S1_4 
REMARK    2  A    between atoms: S1_4  and  O3_7 
REMARK    3  A    between atoms: O3_7  and  C1_8 
REMARK    4  A    between atoms: C1_8  and  C2_9 
REMARK    5  A    between atoms: C3_10  and  O4_11 
REMARK    6  A    between atoms: C4_15  and  N2_16 
REMARK    7  A    between atoms: N2_16  and  C5_18 
REMARK    8  A    between atoms: C13_26  and  O7_27 
REMARK    9  A    between atoms: C14_29  and  O8_30 
ROOT
HETATM    1  C2  UNL     1       2.903  -0.251   0.365  1.00  0.00     0.100 C 
HETATM    2  C3  UNL     1       2.264   1.111   0.079  1.00  0.00     0.302 C 
HETATM    3  O5  UNL     1       1.375   1.007  -0.969  1.00  0.00    -0.205 OA
HETATM    4  O6  UNL     1       0.213   0.558  -0.613  1.00  0.00    -0.210 OA
HETATM    5  C4  UNL     1       0.258  -0.753  -0.154  1.00  0.00     0.286 C 
HETATM    6  C13 UNL     1       1.217  -1.611  -0.888  1.00  0.00     0.198 C 
HETATM    7  C14 UNL     1       2.661  -1.136  -0.792  1.00  0.00     0.162 C 
ENDROOT
BRANCH   5   8
HETATM    8  N2  UNL     1      -1.009  -1.387  -0.018  1.00  0.00    -0.388 N 
ATOM      9  H2  UNL     1      -1.095  -2.392   0.131  1.00  0.00     0.156 HD
BRANCH   8  10
HETATM   10  C5  UNL     1      -2.148  -0.539  -0.101  1.00  0.00     0.079 C 
HETATM   11  C6  UNL     1      -2.408   0.111  -1.440  1.00  0.00     0.025 C 
HETATM   12  C7  UNL     1      -3.148   1.432  -1.214  1.00  0.00     0.002 C 
HETATM   13  C8  UNL     1      -4.644   1.262  -1.400  1.00  0.00     0.000 C 
HETATM   14  C9  UNL     1      -5.403   1.246  -0.092  1.00  0.00     0.000 C 
HETATM   15  C10 UNL     1      -5.534  -0.172   0.367  1.00  0.00     0.000 C 
HETATM   16  C11 UNL     1      -4.300  -0.537   1.176  1.00  0.00     0.002 C 
HETATM   17  C12 UNL     1      -3.382  -1.347   0.273  1.00  0.00     0.025 C 
ENDBRANCH   8  10
ENDBRANCH   5   8
BRANCH   6  18
HETATM   18  O7  UNL     1       1.186  -2.899  -0.310  1.00  0.00    -0.388 OA
ATOM     19  H7  UNL     1       1.801  -3.449  -0.781  1.00  0.00     0.210 HD
ENDBRANCH   6  18
BRANCH   7  20
HETATM   20  O8  UNL     1       3.493  -2.271  -0.776  1.00  0.00    -0.392 OA
ATOM     21  H8  UNL     1       3.337  -2.840  -1.520  1.00  0.00     0.210 HD
ENDBRANCH   7  20
BRANCH   2  22
HETATM   22  O4  UNL     1       1.643   1.621   1.219  1.00  0.00    -0.368 OA
ATOM     23  H4  UNL     1       1.247   2.466   1.042  1.00  0.00     0.212 HD
ENDBRANCH   2  22
BRANCH   1  24
HETATM   24  C1  UNL     1       4.383  -0.037   0.582  1.00  0.00     0.204 C 
BRANCH  24  25
HETATM   25  O3  UNL     1       5.022   0.528  -0.528  1.00  0.00    -0.259 OA
BRANCH  25  26
HETATM   26  S1  UNL     1       6.634   0.757  -0.035  1.00  0.00     0.355 S 
HETATM   27  O1  UNL     1       7.387  -0.493  -0.306  1.00  0.00    -0.176 OA
HETATM   28  O2  UNL     1       6.618   1.062   1.449  1.00  0.00    -0.176 OA
BRANCH  26  29
HETATM   29  N1  UNL     1       7.276   2.108  -0.857  1.00  0.00    -0.306 N 
ATOM     30  H12 UNL     1       8.092   2.046  -1.466  1.00  0.00     0.171 HD
ATOM     31  H11 UNL     1       6.759   2.967  -0.671  1.00  0.00     0.171 HD
ENDBRANCH  26  29
ENDBRANCH  25  26
ENDBRANCH  24  25
ENDBRANCH   1  24
TORSDOF 9
