REMARK  10 active torsions:
REMARK  status: ('A' for Active; 'I' for Inactive)
REMARK    1  A    between atoms: O1_1  and  C1_3 
REMARK    2  A    between atoms: C3_5  and  O2_6 
REMARK    3  A    between atoms: O2_6  and  C4_7 
REMARK    4  A    between atoms: C10_14  and  C11_15 
REMARK    5  A    between atoms: C11_15  and  O4_16 
REMARK    6  A    between atoms: O4_16  and  C12_17 
REMARK    7  A    between atoms: C14_20  and  O6_21 
REMARK    8  A    between atoms: C15_23  and  O7_24 
REMARK    9  A    between atoms: C16_26  and  O8_27 
REMARK   10  A    between atoms: C17_29  and  O9_30 
ROOT
HETATM    1  C1  UNL     1      -0.044   0.703   2.164  1.00  0.00     0.154 C 
HETATM    2  C2  UNL     1       1.194  -0.140   1.983  1.00  0.00     0.095 C 
HETATM    3  C3  UNL     1       1.711  -0.122   0.579  1.00  0.00     0.263 C 
HETATM    4  O3  UNL     1       0.862   0.510  -0.314  1.00  0.00    -0.351 OA
HETATM    5  C10 UNL     1      -0.455   0.097  -0.197  1.00  0.00     0.179 C 
HETATM    6  C17 UNL     1      -1.062   0.322   1.146  1.00  0.00     0.178 C 
ENDROOT
BRANCH   5   7
HETATM    7  C11 UNL     1      -1.325   0.670  -1.295  1.00  0.00     0.205 C 
BRANCH   7   8
HETATM    8  O4  UNL     1      -2.631   0.273  -1.203  1.00  0.00    -0.356 OA
BRANCH   8   9
HETATM    9  C12 UNL     1      -3.488   0.738  -2.144  1.00  0.00     0.290 C 
HETATM   10  O5  UNL     1      -3.976  -0.255  -3.009  1.00  0.00    -0.356 OA
HETATM   11  C13 UNL     1      -4.426  -1.281  -2.144  1.00  0.00     0.205 C 
HETATM   12  C14 UNL     1      -5.326  -0.674  -1.104  1.00  0.00     0.173 C 
HETATM   13  C15 UNL     1      -5.845   0.693  -1.555  1.00  0.00     0.182 C 
HETATM   14  C16 UNL     1      -4.616   1.576  -1.659  1.00  0.00     0.204 C 
BRANCH  12  15
HETATM   15  O6  UNL     1      -6.377  -1.528  -0.835  1.00  0.00    -0.391 OA
ATOM     16  H6  UNL     1      -6.946  -1.144  -0.178  1.00  0.00     0.210 HD
ENDBRANCH  12  15
BRANCH  13  17
HETATM   17  O7  UNL     1      -6.672   1.154  -0.548  1.00  0.00    -0.390 OA
ATOM     18  H7  UNL     1      -6.994   2.003  -0.828  1.00  0.00     0.210 HD
ENDBRANCH  13  17
BRANCH  14  19
HETATM   19  O8  UNL     1      -4.410   2.039  -0.338  1.00  0.00    -0.388 OA
ATOM     20  H8  UNL     1      -5.131   2.575  -0.028  1.00  0.00     0.210 HD
ENDBRANCH  14  19
ENDBRANCH   8   9
ENDBRANCH   7   8
ENDBRANCH   5   7
BRANCH   6  21
HETATM   21  O9  UNL     1      -1.776  -0.794   1.574  1.00  0.00    -0.390 OA
ATOM     22  H9  UNL     1      -2.425  -1.037   0.925  1.00  0.00     0.210 HD
ENDBRANCH   6  21
BRANCH   3  23
HETATM   23  O2  UNL     1       2.889   0.663   0.603  1.00  0.00    -0.356 OA
BRANCH  23  24
HETATM   24  C4  UNL     1       4.007  -0.065   0.269  1.00  0.00     0.124 C 
HETATM   25  C5  UNL     1       5.017  -0.142   1.392  1.00  0.00     0.032 C 
HETATM   26  C6  UNL     1       5.860  -1.379   1.161  1.00  0.00     0.002 C 
HETATM   27  C7  UNL     1       6.160  -1.493  -0.320  1.00  0.00     0.000 C 
HETATM   28  C8  UNL     1       6.131  -0.106  -0.929  1.00  0.00     0.002 C 
HETATM   29  C9  UNL     1       4.712   0.429  -0.963  1.00  0.00     0.032 C 
ENDBRANCH  23  24
ENDBRANCH   3  23
BRANCH   1  30
HETATM   30  O1  UNL     1      -0.598   0.524   3.425  1.00  0.00    -0.393 OA
ATOM     31  H1  UNL     1      -1.378   1.055   3.539  1.00  0.00     0.210 HD
ENDBRANCH   1  30
TORSDOF 10
