REMARK  10 active torsions:
REMARK  status: ('A' for Active; 'I' for Inactive)
REMARK    1  A    between atoms: C3_4  and  O2_5 
REMARK    2  A    between atoms: O2_5  and  C4_6 
REMARK    3  A    between atoms: C4_6  and  C5_7 
REMARK    4  A    between atoms: C11_13  and  O3_14 
REMARK    5  A    between atoms: C12_16  and  O4_17 
REMARK    6  A    between atoms: O4_17  and  C13_18 
REMARK    7  A    between atoms: C14_20  and  O6_21 
REMARK    8  A    between atoms: C15_23  and  O7_24 
REMARK    9  A    between atoms: C16_26  and  O8_27 
REMARK   10  A    between atoms: C17_29  and  O9_30 
ROOT
HETATM    1  C1  UNL     1       0.934  -3.396  -1.912  1.00  0.00     0.042 C 
HETATM    2  C2  UNL     1       0.490  -2.772  -0.605  1.00  0.00     0.152 C 
HETATM    3  O1  UNL     1      -0.579  -1.930  -0.885  1.00  0.00    -0.351 OA
HETATM    4  C3  UNL     1      -0.829  -1.025   0.121  1.00  0.00     0.291 C 
HETATM    5  C11 UNL     1       0.245   0.032   0.088  1.00  0.00     0.205 C 
HETATM    6  C12 UNL     1       1.566  -0.531  -0.314  1.00  0.00     0.189 C 
HETATM    7  C17 UNL     1       1.676  -2.016  -0.047  1.00  0.00     0.178 C 
ENDROOT
BRANCH   6   8
HETATM    8  O4  UNL     1       2.645   0.119   0.235  1.00  0.00    -0.348 OA
BRANCH   8   9
HETATM    9  C13 UNL     1       3.485   0.710  -0.685  1.00  0.00     0.295 C 
HETATM   10  O5  UNL     1       3.648   2.047  -0.347  1.00  0.00    -0.326 OA
HETATM   11  C14 UNL     1       4.494   2.095   0.747  1.00  0.00     0.291 C 
HETATM   12  C15 UNL     1       5.312   0.841   0.760  1.00  0.00     0.206 C 
HETATM   13  C16 UNL     1       4.921   0.200  -0.555  1.00  0.00     0.207 C 
BRANCH  11  14
HETATM   14  O6  UNL     1       5.349   3.183   0.575  1.00  0.00    -0.368 OA
ATOM     15  H6  UNL     1       5.930   3.216   1.326  1.00  0.00     0.212 HD
ENDBRANCH  11  14
BRANCH  12  16
HETATM   16  O7  UNL     1       6.680   1.081   0.838  1.00  0.00    -0.388 OA
ATOM     17  H7  UNL     1       7.199   0.285   0.846  1.00  0.00     0.210 HD
ENDBRANCH  12  16
BRANCH  13  18
HETATM   18  O8  UNL     1       5.643   0.799  -1.578  1.00  0.00    -0.388 OA
ATOM     19  H8  UNL     1       6.535   0.482  -1.497  1.00  0.00     0.210 HD
ENDBRANCH  13  18
ENDBRANCH   8   9
ENDBRANCH   6   8
BRANCH   5  20
HETATM   20  O3  UNL     1       0.391   0.674   1.312  1.00  0.00    -0.388 OA
ATOM     21  H3  UNL     1       1.068   1.340   1.291  1.00  0.00     0.210 HD
ENDBRANCH   5  20
BRANCH   7  22
HETATM   22  O9  UNL     1       1.680  -2.203   1.333  1.00  0.00    -0.390 OA
ATOM     23  H9  UNL     1       2.425  -1.728   1.683  1.00  0.00     0.210 HD
ENDBRANCH   7  22
BRANCH   4  24
HETATM   24  O2  UNL     1      -2.051  -0.406  -0.126  1.00  0.00    -0.358 OA
BRANCH  24  25
HETATM   25  C4  UNL     1      -2.846  -0.560   1.003  1.00  0.00     0.175 C 
BRANCH  25  26
HETATM   26  C5  UNL     1      -4.201   0.075   0.849  1.00  0.00     0.009 C 
HETATM   27  C6  UNL     1      -4.986  -0.506  -0.299  1.00  0.00     0.007 C 
HETATM   28  C7  UNL     1      -4.899   0.472  -1.447  1.00  0.00     0.000 C 
HETATM   29  C8  UNL     1      -5.572   1.776  -1.118  1.00  0.00     0.000 C 
HETATM   30  C9  UNL     1      -5.302   2.217   0.291  1.00  0.00     0.000 C 
HETATM   31  C10 UNL     1      -4.026   1.561   0.747  1.00  0.00     0.007 C 
ENDBRANCH  25  26
ENDBRANCH  24  25
ENDBRANCH   4  24
TORSDOF 10
