REMARK  10 active torsions:
REMARK  status: ('A' for Active; 'I' for Inactive)
REMARK    1  A    between atoms: N1_1  and  C1_5 
REMARK    2  A    between atoms: C3_7  and  N2_8 
REMARK    3  A    between atoms: C4_12  and  O1_13 
REMARK    4  A    between atoms: O1_13  and  C5_14 
REMARK    5  A    between atoms: C6_16  and  C7_17 
REMARK    6  A    between atoms: C7_17  and  O3_18 
REMARK    7  A    between atoms: C8_20  and  O4_21 
REMARK    8  A    between atoms: C9_24  and  O6_25 
REMARK    9  A    between atoms: O6_25  and  C10_26 
REMARK       I    between atoms: C10_26  and  N3_28 
REMARK   10  A    between atoms: N3_28  and  C11_29 
ROOT
HETATM    1  C1  UNL     1      -0.393   1.950  -0.288  1.00  0.00     0.241 C 
HETATM    2  C2  UNL     1      -0.093   2.157   1.171  1.00  0.00     0.075 C 
HETATM    3  C3  UNL     1       0.889   1.158   1.726  1.00  0.00     0.240 C 
HETATM    4  C4  UNL     1       1.699   0.668   0.522  1.00  0.00     0.296 C 
HETATM    5  O5  UNL     1       0.852  -0.112  -0.206  1.00  0.00    -0.327 OA
HETATM    6  C9  UNL     1      -0.217   0.581  -0.804  1.00  0.00     0.305 C 
ENDROOT
BRANCH   4   7
HETATM    7  O1  UNL     1       2.780  -0.091   0.915  1.00  0.00    -0.327 OA
BRANCH   7   8
HETATM    8  C5  UNL     1       3.994   0.482   0.607  1.00  0.00     0.294 C 
HETATM    9  O2  UNL     1       5.013   0.361   1.531  1.00  0.00    -0.348 OA
HETATM   10  C6  UNL     1       5.925   0.320   0.508  1.00  0.00     0.181 C 
HETATM   11  C8  UNL     1       4.844  -0.328  -0.361  1.00  0.00     0.204 C 
BRANCH  10  12
HETATM   12  C7  UNL     1       7.123  -0.594   0.684  1.00  0.00     0.199 C 
BRANCH  12  13
HETATM   13  O3  UNL     1       7.977  -0.545  -0.389  1.00  0.00    -0.398 OA
ATOM     14  H3  UNL     1       8.727  -1.117  -0.279  1.00  0.00     0.209 HD
ENDBRANCH  12  13
ENDBRANCH  10  12
BRANCH  11  15
HETATM   15  O4  UNL     1       4.906   0.191  -1.639  1.00  0.00    -0.388 OA
ATOM     16  H4  UNL     1       5.437  -0.315  -2.243  1.00  0.00     0.210 HD
ENDBRANCH  11  15
ENDBRANCH   7   8
ENDBRANCH   4   7
BRANCH   3  17
HETATM   17  N2  UNL     1       1.724   1.669   2.777  1.00  0.00    -0.070 N 
ATOM     18  H23 UNL     1       2.209   2.511   2.468  1.00  0.00     0.274 HD
ATOM     19  H22 UNL     1       1.153   2.061   3.526  1.00  0.00     0.274 HD
ATOM     20  H21 UNL     1       2.389   0.993   3.153  1.00  0.00     0.274 HD
ENDBRANCH   3  17
BRANCH   6  21
HETATM   21  O6  UNL     1      -1.407  -0.158  -0.637  1.00  0.00    -0.259 OA
BRANCH  21  22
HETATM   22  C10 UNL     1      -2.015  -0.870  -1.736  1.00  0.00     0.437 C 
HETATM   23  O7  UNL     1      -1.318  -0.713  -2.780  1.00  0.00    -0.221 OA
HETATM   24  N3  UNL     1      -3.154  -1.569  -1.558  1.00  0.00    -0.385 NA
BRANCH  24  25
HETATM   25  C11 UNL     1      -4.312  -2.281  -1.380  1.00  0.00     0.169 C 
HETATM   26  C12 UNL     1      -5.594  -1.477  -1.728  1.00  0.00     0.039 C 
HETATM   27  C13 UNL     1      -5.718  -0.223  -0.950  1.00  0.00     0.003 C 
HETATM   28  C14 UNL     1      -5.004  -0.185   0.342  1.00  0.00     0.000 C 
HETATM   29  C15 UNL     1      -4.605  -1.473   0.935  1.00  0.00     0.003 C 
HETATM   30  C16 UNL     1      -4.585  -2.679   0.087  1.00  0.00     0.039 C 
ENDBRANCH  24  25
ENDBRANCH  21  22
ENDBRANCH   6  21
BRANCH   1  31
HETATM   31  N1  UNL     1       0.265   2.967  -1.121  1.00  0.00    -0.070 N 
ATOM     32  H13 UNL     1       0.022   3.911  -0.820  1.00  0.00     0.274 HD
ATOM     33  H12 UNL     1       1.270   3.000  -0.947  1.00  0.00     0.274 HD
ATOM     34  H11 UNL     1       0.062   2.827  -2.111  1.00  0.00     0.274 HD
ENDBRANCH   1  31
TORSDOF 10
