REMARK  13 active torsions:
REMARK  status: ('A' for Active; 'I' for Inactive)
REMARK    1  A    between atoms: C2_2  and  C4_4 
REMARK    2  A    between atoms: C4_4  and  C5_5 
REMARK    3  A    between atoms: C5_5  and  N1_6 
REMARK    4  A    between atoms: C5_5  and  C15_22 
REMARK       I    between atoms: N1_6  and  C6_8 
REMARK    5  A    between atoms: C6_8  and  C7_10 
REMARK    6  A    between atoms: C7_10  and  N2_12 
REMARK       I    between atoms: N2_12  and  C9_14 
REMARK    7  A    between atoms: C9_14  and  O3_16 
REMARK    8  A    between atoms: O3_16  and  C10_17 
REMARK       I    between atoms: C15_22  and  N3_24 
REMARK    9  A    between atoms: C18_27  and  C19_28 
REMARK   10  A    between atoms: C19_28  and  N4_29 
REMARK   11  A    between atoms: C19_28  and  C25_38 
REMARK       I    between atoms: N4_29  and  C20_31 
REMARK   12  A    between atoms: C20_31  and  O6_33 
REMARK   13  A    between atoms: O6_33  and  C21_34 
ROOT
HETATM    1  C15 UNL     1       0.585   0.619  -0.474  1.00  0.00     0.243 C 
HETATM    2  O4  UNL     1       1.306  -0.451  -0.468  1.00  0.00    -0.271 OA
HETATM    3  N3  UNL     1      -0.742   0.449  -0.108  1.00  0.00    -0.346 N 
HETATM    4  C16 UNL     1      -1.718   1.495  -0.125  1.00  0.00     0.127 C 
HETATM    5  C17 UNL     1      -2.325   1.495   1.283  1.00  0.00     0.026 C 
HETATM    6  C18 UNL     1      -3.221   0.332   1.365  1.00  0.00     0.012 C 
HETATM    7  C28 UNL     1      -2.671  -0.873   0.646  1.00  0.00     0.031 C 
HETATM    8  C29 UNL     1      -1.210  -0.844   0.341  1.00  0.00     0.083 C 
HETATM    9  C30 UNL     1      -0.967  -1.830  -0.794  1.00  0.00     0.032 C 
ENDROOT
BRANCH   1  10
HETATM   10  C5  UNL     1       1.266   1.879  -0.872  1.00  0.00     0.177 C 
BRANCH  10  11
HETATM   11  C4  UNL     1       1.361   2.845   0.256  1.00  0.00     0.038 C 
BRANCH  11  12
HETATM   12  C2  UNL     1       1.860   4.208  -0.022  1.00  0.00    -0.020 C 
HETATM   13  C1  UNL     1       1.812   4.960   1.337  1.00  0.00     0.009 C 
HETATM   14  C3  UNL     1       3.237   4.384  -0.533  1.00  0.00     0.009 C 
ENDBRANCH  11  12
ENDBRANCH  10  11
BRANCH  10  15
HETATM   15  N1  UNL     1       2.533   1.561  -1.464  1.00  0.00    -0.346 N 
HETATM   16  C6  UNL     1       3.670   1.049  -0.800  1.00  0.00     0.240 C 
HETATM   17  O1  UNL     1       3.657   0.841   0.423  1.00  0.00    -0.271 OA
ATOM     18  H1  UNL     1       2.622   1.721  -2.467  1.00  0.00     0.163 HD
BRANCH  16  19
HETATM   19  C7  UNL     1       4.921   0.741  -1.554  1.00  0.00     0.174 C 
HETATM   20  C8  UNL     1       5.338   1.838  -2.502  1.00  0.00     0.042 C 
BRANCH  19  21
HETATM   21  N2  UNL     1       6.001   0.330  -0.703  1.00  0.00    -0.324 N 
HETATM   22  C9  UNL     1       6.532  -0.974  -0.720  1.00  0.00     0.361 C 
HETATM   23  O2  UNL     1       6.042  -1.826  -1.501  1.00  0.00    -0.238 OA
ATOM     24  H2  UNL     1       6.401   1.012  -0.058  1.00  0.00     0.165 HD
BRANCH  22  25
HETATM   25  O3  UNL     1       7.588  -1.359   0.101  1.00  0.00    -0.299 OA
BRANCH  25  26
HETATM   26  C10 UNL     1       8.130  -2.665   0.098  1.00  0.00     0.133 C 
HETATM   27  C11 UNL     1       8.279  -3.233   1.462  1.00  0.00     0.032 C 
HETATM   28  C12 UNL     1       9.647  -3.840   1.609  1.00  0.00     0.002 C 
HETATM   29  C13 UNL     1      10.263  -3.724   0.210  1.00  0.00     0.002 C 
HETATM   30  C14 UNL     1       9.574  -2.521  -0.392  1.00  0.00     0.032 C 
ENDBRANCH  25  26
ENDBRANCH  22  25
ENDBRANCH  19  21
ENDBRANCH  16  19
ENDBRANCH  10  15
ENDBRANCH   1  10
BRANCH   6  31
HETATM   31  C19 UNL     1      -4.679   0.537   1.052  1.00  0.00     0.098 C 
BRANCH  31  32
HETATM   32  N4  UNL     1      -5.378  -0.773   1.157  1.00  0.00    -0.331 N 
HETATM   33  C20 UNL     1      -6.196  -1.188   0.070  1.00  0.00     0.361 C 
HETATM   34  O5  UNL     1      -6.339  -0.476  -0.969  1.00  0.00    -0.238 OA
ATOM     35  H4  UNL     1      -5.273  -1.357   1.986  1.00  0.00     0.165 HD
BRANCH  33  36
HETATM   36  O6  UNL     1      -6.892  -2.385   0.060  1.00  0.00    -0.294 OA
BRANCH  36  37
HETATM   37  C21 UNL     1      -7.707  -2.830  -0.973  1.00  0.00     0.061 C 
HETATM   38  C22 UNL     1      -8.275  -4.194  -0.558  1.00  0.00     0.046 C 
HETATM   39  C23 UNL     1      -8.917  -1.957  -1.221  1.00  0.00     0.046 C 
HETATM   40  C24 UNL     1      -6.953  -3.043  -2.242  1.00  0.00     0.046 C 
ENDBRANCH  36  37
ENDBRANCH  33  36
ENDBRANCH  31  32
BRANCH  31  41
HETATM   41  C25 UNL     1      -5.440   1.415   1.974  1.00  0.00     0.060 C 
HETATM   42  C26 UNL     1      -5.099   2.840   2.162  1.00  0.00     0.240 C 
HETATM   43  N5  UNL     1      -6.557   3.083   2.291  1.00  0.00    -0.074 N 
HETATM   44  C27 UNL     1      -6.676   2.008   1.283  1.00  0.00     0.240 C 
ATOM     45  H52 UNL     1      -7.041   3.050   3.188  1.00  0.00     0.277 HD
ATOM     46  H51 UNL     1      -6.973   4.005   2.161  1.00  0.00     0.277 HD
ENDBRANCH  31  41
ENDBRANCH   6  31
TORSDOF 13
