REMARK  12 active torsions:
REMARK  status: ('A' for Active; 'I' for Inactive)
REMARK    1  A    between atoms: C2_2  and  C3_3 
REMARK    2  A    between atoms: C3_3  and  C5_5 
REMARK    3  A    between atoms: C17_17  and  O1_18 
REMARK    4  A    between atoms: C20_22  and  O2_23 
REMARK    5  A    between atoms: O2_23  and  C21_24 
REMARK    6  A    between atoms: C21_24  and  C22_25 
REMARK    7  A    between atoms: C22_25  and  C23_26 
REMARK    8  A    between atoms: C23_26  and  N1_27 
REMARK       I    between atoms: N1_27  and  C24_29 
REMARK       I    between atoms: C24_29  and  N4_34 
REMARK    9  A    between atoms: N4_34  and  C26_36 
REMARK   10  A    between atoms: C27_37  and  O3_38 
REMARK   11  A    between atoms: C27_37  and  N5_40 
REMARK   12  A    between atoms: C31_44  and  O4_45 
ROOT
HETATM    1  N1  UNL     1       3.954  -0.069   0.231  1.00  0.00    -0.225 N 
ATOM      2  H1  UNL     1       3.582   0.778  -0.199  1.00  0.00     0.177 HD
HETATM    3  C24 UNL     1       4.979  -0.789  -0.418  1.00  0.00     0.687 C 
HETATM    4  N2  UNL     1       4.768  -1.892  -0.990  1.00  0.00    -0.126 N 
ATOM      5  H2  UNL     1       3.830  -2.293  -0.994  1.00  0.00     0.197 HD
HETATM    6  C25 UNL     1       5.816  -2.563  -1.617  1.00  0.00     0.196 C 
HETATM    7  N3  UNL     1       6.699  -3.111  -2.125  1.00  0.00    -0.171 NA
HETATM    8  N4  UNL     1       6.309  -0.198  -0.411  1.00  0.00    -0.197 N 
ATOM      9  H4  UNL     1       7.060  -0.578  -0.987  1.00  0.00     0.183 HD
ENDROOT
BRANCH   1  10
HETATM   10  C23 UNL     1       3.430  -0.514   1.488  1.00  0.00     0.140 C 
BRANCH  10  11
HETATM   11  C22 UNL     1       2.648  -1.787   1.368  1.00  0.00     0.046 C 
BRANCH  11  12
HETATM   12  C21 UNL     1       1.465  -1.557   0.458  1.00  0.00     0.169 C 
BRANCH  12  13
HETATM   13  O2  UNL     1       0.653  -0.594   1.041  1.00  0.00    -0.385 OA
BRANCH  13  14
HETATM   14  C20 UNL     1      -0.480  -0.315   0.329  1.00  0.00     0.129 C 
HETATM   15  C19 UNL     1      -0.560   1.140   0.039  1.00  0.00     0.026 C 
HETATM   16  C13 UNL     1      -1.597   1.315  -1.043  1.00  0.00    -0.031 C 
HETATM   17  C18 UNL     1       0.713   1.847  -0.222  1.00  0.00     0.039 C 
HETATM   18  C12 UNL     1      -2.781   0.428  -0.936  1.00  0.00     0.029 C 
HETATM   19  C14 UNL     1      -0.896   1.072  -2.388  1.00  0.00     0.016 C 
HETATM   20  C15 UNL     1      -1.938   2.808  -1.056  1.00  0.00     0.012 C 
HETATM   21  C11 UNL     1      -2.923  -0.499  -2.118  1.00  0.00     0.009 C 
HETATM   22  C31 UNL     1      -3.017  -0.200   0.401  1.00  0.00     0.069 C 
HETATM   23  C10 UNL     1      -4.227  -1.281  -2.027  1.00  0.00     0.010 C 
HETATM   24  C8  UNL     1      -4.348  -2.029  -0.778  1.00  0.00    -0.037 C 
HETATM   25  C7  UNL     1      -5.750  -2.532  -0.532  1.00  0.00     0.010 C 
HETATM   26  C9  UNL     1      -3.489  -3.299  -0.931  1.00  0.00     0.015 C 
HETATM   27  C32 UNL     1      -4.020  -1.276   0.482  1.00  0.00     0.037 C 
HETATM   28  C6  UNL     1      -5.826  -2.603   0.994  1.00  0.00     0.010 C 
HETATM   29  C5  UNL     1      -5.187  -1.196   1.373  1.00  0.00     0.025 C 
HETATM   30  C30 UNL     1      -1.734  -0.657   1.090  1.00  0.00     0.071 C 
HETATM   31  C16 UNL     1      -1.057   3.616  -0.164  1.00  0.00     0.032 C 
HETATM   32  C17 UNL     1       0.421   3.322  -0.372  1.00  0.00     0.118 C 
BRANCH  29  33
HETATM   33  C3  UNL     1      -6.244  -0.238   1.296  1.00  0.00    -0.064 C 
HETATM   34  C4  UNL     1      -6.400   0.665   0.370  1.00  0.00     0.019 C 
BRANCH  33  35
HETATM   35  C2  UNL     1      -7.261  -0.190   2.339  1.00  0.00    -0.004 C 
HETATM   36  C1  UNL     1      -7.239  -1.023   3.343  1.00  0.00     0.012 C 
ENDBRANCH  33  35
ENDBRANCH  29  33
BRANCH  22  37
HETATM   37  O4  UNL     1      -3.506   0.853   1.224  1.00  0.00    -0.389 OA
ATOM     38  H4  UNL     1      -3.656   0.454   2.073  1.00  0.00     0.210 HD
ENDBRANCH  22  37
BRANCH  32  39
HETATM   39  O1  UNL     1       1.105   4.102   0.573  1.00  0.00    -0.396 OA
ATOM     40  H1  UNL     1       2.028   3.918   0.443  1.00  0.00     0.210 HD
ENDBRANCH  32  39
ENDBRANCH  13  14
ENDBRANCH  12  13
ENDBRANCH  11  12
ENDBRANCH  10  11
ENDBRANCH   1  10
BRANCH   8  41
HETATM   41  C26 UNL     1       6.519   0.908   0.413  1.00  0.00     0.161 C 
HETATM   42  C27 UNL     1       7.778   1.583   0.508  1.00  0.00     0.153 C 
BRANCH  42  43
HETATM   43  O3  UNL     1       7.805   2.616   1.330  1.00  0.00    -0.345 OA
ATOM     44  H3  UNL     1       8.640   3.064   1.393  1.00  0.00     0.219 HD
ENDBRANCH  42  43
BRANCH  42  45
HETATM   45  N5  UNL     1       8.990   1.330  -0.128  1.00  0.00    -0.370 N 
HETATM   46  C28 UNL     1      10.140   2.247   0.190  1.00  0.00     0.151 C 
HETATM   47  C29 UNL     1       9.335   0.302  -1.062  1.00  0.00     0.151 C 
ENDBRANCH  42  45
ENDBRANCH   8  41
TORSDOF 12
