REMARK  12 active torsions:
REMARK  status: ('A' for Active; 'I' for Inactive)
REMARK    1  A    between atoms: C2_2  and  C3_3 
REMARK    2  A    between atoms: C3_3  and  C5_5 
REMARK    3  A    between atoms: C5_5  and  N1_6 
REMARK    4  A    between atoms: C5_5  and  C11_15 
REMARK       I    between atoms: N1_6  and  C6_8 
REMARK    5  A    between atoms: C6_8  and  O2_10 
REMARK    6  A    between atoms: O2_10  and  C7_11 
REMARK       I    between atoms: C11_15  and  N2_17 
REMARK    7  A    between atoms: N2_17  and  C12_19 
REMARK    8  A    between atoms: C12_19  and  C13_20 
REMARK    9  A    between atoms: C12_19  and  C29_43 
REMARK       I    between atoms: C13_20  and  N3_22 
REMARK   10  A    between atoms: N3_22  and  C14_24 
REMARK   11  A    between atoms: N4_32  and  C21_33 
REMARK   12  A    between atoms: C25_37  and  O6_38 
ROOT
HETATM    1  C13 UNL     1      -0.381   0.232   0.850  1.00  0.00     0.241 C 
HETATM    2  O4  UNL     1      -0.445  -0.631  -0.057  1.00  0.00    -0.271 OA
HETATM    3  N3  UNL     1       0.886   0.620   1.329  1.00  0.00    -0.355 N 
ATOM      4  H3  UNL     1       0.943   1.327   2.062  1.00  0.00     0.162 HD
ENDROOT
BRANCH   1   5
HETATM    5  C12 UNL     1      -1.626   0.820   1.385  1.00  0.00     0.180 C 
BRANCH   5   6
HETATM    6  N2  UNL     1      -2.706   0.751   0.421  1.00  0.00    -0.346 N 
HETATM    7  C11 UNL     1      -3.853  -0.066   0.534  1.00  0.00     0.241 C 
HETATM    8  O3  UNL     1      -3.892  -0.785   1.603  1.00  0.00    -0.271 OA
ATOM      9  H2  UNL     1      -2.632   1.341  -0.408  1.00  0.00     0.163 HD
BRANCH   7  10
HETATM   10  C5  UNL     1      -4.949  -0.145  -0.434  1.00  0.00     0.182 C 
BRANCH  10  11
HETATM   11  C3  UNL     1      -4.574  -0.736  -1.772  1.00  0.00     0.013 C 
HETATM   12  C4  UNL     1      -4.379  -2.238  -1.719  1.00  0.00     0.012 C 
BRANCH  11  13
HETATM   13  C2  UNL     1      -3.477  -0.018  -2.499  1.00  0.00     0.002 C 
HETATM   14  C1  UNL     1      -3.474  -0.539  -3.933  1.00  0.00     0.005 C 
ENDBRANCH  11  13
ENDBRANCH  10  11
BRANCH  10  15
HETATM   15  N1  UNL     1      -6.023  -0.963   0.157  1.00  0.00    -0.323 N 
HETATM   16  C6  UNL     1      -7.330  -0.442   0.383  1.00  0.00     0.362 C 
HETATM   17  O1  UNL     1      -7.630   0.750   0.088  1.00  0.00    -0.238 OA
ATOM     18  H1  UNL     1      -5.825  -1.931   0.412  1.00  0.00     0.165 HD
BRANCH  16  19
HETATM   19  O2  UNL     1      -8.311  -1.216   0.929  1.00  0.00    -0.294 OA
BRANCH  19  20
HETATM   20  C7  UNL     1      -9.629  -0.798   1.191  1.00  0.00     0.061 C 
HETATM   21  C8  UNL     1      -9.709   0.363   2.150  1.00  0.00     0.046 C 
HETATM   22  C9  UNL     1     -10.493  -1.913   1.713  1.00  0.00     0.046 C 
HETATM   23  C10 UNL     1     -10.222  -0.318  -0.118  1.00  0.00     0.046 C 
ENDBRANCH  19  20
ENDBRANCH  16  19
ENDBRANCH  10  15
ENDBRANCH   7  10
ENDBRANCH   5   6
BRANCH   5  24
HETATM   24  C29 UNL     1      -1.482   2.173   1.994  1.00  0.00     0.009 C 
HETATM   25  C30 UNL     1      -2.804   2.510   2.675  1.00  0.00     0.012 C 
HETATM   26  C31 UNL     1      -1.093   3.243   1.036  1.00  0.00     0.012 C 
ENDBRANCH   5  24
ENDBRANCH   1   5
BRANCH   3  27
HETATM   27  C14 UNL     1       2.128   0.035   0.803  1.00  0.00     0.084 C 
HETATM   28  C15 UNL     1       3.114  -0.051   1.931  1.00  0.00     0.025 C 
HETATM   29  C16 UNL     1       3.709  -1.413   2.143  1.00  0.00     0.002 C 
HETATM   30  C17 UNL     1       5.118  -1.248   2.634  1.00  0.00     0.001 C 
HETATM   31  C18 UNL     1       6.078  -2.207   1.934  1.00  0.00     0.009 C 
HETATM   32  C19 UNL     1       6.193  -1.934   0.472  1.00  0.00     0.103 C 
HETATM   33  C20 UNL     1       7.225  -0.927   0.167  1.00  0.00     0.220 C 
HETATM   34  O5  UNL     1       8.064  -0.543   1.052  1.00  0.00    -0.273 OA
HETATM   35  N4  UNL     1       7.385  -0.296  -1.108  1.00  0.00    -0.346 N 
HETATM   36  C24 UNL     1       6.208  -0.159  -1.967  1.00  0.00     0.157 C 
HETATM   37  C25 UNL     1       5.458   1.116  -1.635  1.00  0.00     0.136 C 
HETATM   38  C26 UNL     1       4.105   1.047  -2.297  1.00  0.00     0.033 C 
HETATM   39  C27 UNL     1       3.089   0.273  -1.508  1.00  0.00     0.004 C 
HETATM   40  C28 UNL     1       2.707   0.996  -0.259  1.00  0.00     0.025 C 
BRANCH  35  41
HETATM   41  C21 UNL     1       8.623   0.213  -1.587  1.00  0.00     0.079 C 
HETATM   42  C22 UNL     1       9.684  -0.864  -1.743  1.00  0.00     0.032 C 
HETATM   43  C23 UNL     1       9.208   1.311  -0.740  1.00  0.00     0.032 C 
ENDBRANCH  35  41
BRANCH  37  44
HETATM   44  O6  UNL     1       6.139   2.243  -2.151  1.00  0.00    -0.394 OA
ATOM     45  H6  UNL     1       5.669   3.042  -1.943  1.00  0.00     0.210 HD
ENDBRANCH  37  44
ENDBRANCH   3  27
TORSDOF 12
