REMARK  9 active torsions:
REMARK  status: ('A' for Active; 'I' for Inactive)
REMARK    1  A    between atoms: C2_2  and  C3_3 
REMARK    2  A    between atoms: C11_14  and  C12_15 
REMARK    3  A    between atoms: C12_15  and  C13_16 
REMARK    4  A    between atoms: C13_16  and  C14_17 
REMARK    5  A    between atoms: C14_17  and  N2_18 
REMARK    6  A    between atoms: C19_28  and  S1_29 
REMARK    7  A    between atoms: S1_29  and  N6_32 
REMARK    8  A    between atoms: N6_32  and  C21_34 
REMARK    9  A    between atoms: C21_34  and  C22_35 
ROOT
HETATM    1  C3  UNL     1      -1.630  -3.442   0.833  1.00  0.00     0.026 C 
HETATM    2  C4  UNL     1      -0.786  -4.774   0.727  1.00  0.00     0.038 C 
HETATM    3  C5  UNL     1      -2.868  -3.747   0.083  1.00  0.00     0.031 C 
HETATM    4  C6  UNL     1      -4.141  -3.154   0.587  1.00  0.00     0.008 C 
HETATM    5  C7  UNL     1      -4.834  -2.500  -0.584  1.00  0.00     0.052 C 
HETATM    6  C8  UNL     1      -5.745  -1.408  -0.183  1.00  0.00    -0.014 C 
HETATM    7  C9  UNL     1      -7.198  -1.590  -0.569  1.00  0.00     0.063 C 
HETATM    8  N1  UNL     1      -5.354  -0.403   0.424  1.00  0.00    -0.333 N 
ATOM      9  H1  UNL     1      -6.127   0.236   0.612  1.00  0.00     0.168 HD
HETATM   10  C10 UNL     1      -4.167   0.095   0.917  1.00  0.00     0.244 C 
HETATM   11  O1  UNL     1      -4.216   0.623   2.101  1.00  0.00    -0.271 OA
HETATM   12  C11 UNL     1      -2.829   0.131   0.317  1.00  0.00     0.174 C 
HETATM   13  N5  UNL     1      -1.846   0.115   1.400  1.00  0.00    -0.375 N 
ATOM     14  H5  UNL     1      -2.171   0.401   2.324  1.00  0.00     0.160 HD
HETATM   15  C16 UNL     1      -0.481  -0.261   1.286  1.00  0.00     0.055 A 
HETATM   16  C17 UNL     1       0.429   0.692   1.772  1.00  0.00     0.033 A 
HETATM   17  C18 UNL     1       1.783   0.534   1.692  1.00  0.00     0.028 A 
HETATM   18  C19 UNL     1       2.297  -0.599   1.117  1.00  0.00     0.082 A 
HETATM   19  C28 UNL     1       1.413  -1.522   0.649  1.00  0.00     0.056 A 
HETATM   20  C29 UNL     1       0.004  -1.407   0.709  1.00  0.00     0.057 A 
HETATM   21  N7  UNL     1      -0.731  -2.495   0.205  1.00  0.00    -0.379 N 
ATOM     22  H7  UNL     1      -0.607  -2.647  -0.796  1.00  0.00     0.160 HD
ENDROOT
BRANCH  18  23
HETATM   23  S1  UNL     1       4.032  -0.766   1.028  1.00  0.00     0.264 S 
HETATM   24  O2  UNL     1       4.324  -2.259   1.008  1.00  0.00    -0.200 OA
HETATM   25  O3  UNL     1       4.645  -0.208   2.248  1.00  0.00    -0.200 OA
BRANCH  23  26
HETATM   26  N6  UNL     1       4.575  -0.099  -0.422  1.00  0.00    -0.290 N 
HETATM   27  C20 UNL     1       4.082  -0.704  -1.606  1.00  0.00     0.168 C 
BRANCH  26  28
HETATM   28  C21 UNL     1       4.825   1.279  -0.451  1.00  0.00     0.080 C 
BRANCH  28  29
HETATM   29  C22 UNL     1       6.223   1.706  -0.094  1.00  0.00     0.025 C 
HETATM   30  C23 UNL     1       7.258   1.116  -1.024  1.00  0.00     0.010 C 
HETATM   31  C24 UNL     1       8.631   1.459  -0.490  1.00  0.00     0.001 C 
HETATM   32  C25 UNL     1       8.560   2.540   0.570  1.00  0.00     0.000 C 
HETATM   33  C26 UNL     1       7.679   3.663   0.101  1.00  0.00     0.001 C 
HETATM   34  C27 UNL     1       6.283   3.210  -0.264  1.00  0.00     0.010 C 
ENDBRANCH  28  29
ENDBRANCH  26  28
ENDBRANCH  23  26
ENDBRANCH  18  23
BRANCH   1  35
HETATM   35  C2  UNL     1      -1.772  -3.292   2.319  1.00  0.00     0.026 C 
HETATM   36  C1  UNL     1      -2.476  -4.556   2.843  1.00  0.00     0.007 C 
ENDBRANCH   1  35
BRANCH  12  37
HETATM   37  C12 UNL     1      -2.706   1.430  -0.473  1.00  0.00     0.036 C 
BRANCH  37  38
HETATM   38  C13 UNL     1      -3.762   1.449  -1.547  1.00  0.00     0.022 C 
BRANCH  38  39
HETATM   39  C14 UNL     1      -3.645   2.744  -2.375  1.00  0.00     0.122 C 
BRANCH  39  40
HETATM   40  N2  UNL     1      -3.819   3.896  -1.547  1.00  0.00    -0.367 N 
HETATM   41  C15 UNL     1      -4.713   4.795  -1.750  1.00  0.00     0.196 C 
HETATM   42  N3  UNL     1      -5.591   4.669  -2.847  1.00  0.00    -0.067 NA
HETATM   43  N4  UNL     1      -4.828   5.909  -0.888  1.00  0.00    -0.067 NA
ATOM     44  H2  UNL     1      -3.196   4.011  -0.747  1.00  0.00     0.161 HD
ENDBRANCH  39  40
ENDBRANCH  38  39
ENDBRANCH  37  38
ENDBRANCH  12  37
TORSDOF 9
