REMARK  9 active torsions:
REMARK  status: ('A' for Active; 'I' for Inactive)
REMARK    1  A    between atoms: C2_2  and  C5_5 
REMARK    2  A    between atoms: C5_5  and  C6_6 
REMARK    3  A    between atoms: C7_7  and  C8_8 
REMARK    4  A    between atoms: C9_9  and  C10_10 
REMARK    5  A    between atoms: C14_16  and  O2_17 
REMARK    6  A    between atoms: N1_19  and  C15_20 
REMARK    7  A    between atoms: C15_20  and  C16_21 
REMARK    8  A    between atoms: C16_21  and  C17_22 
REMARK    9  A    between atoms: C17_22  and  O3_23 
ROOT
HETATM    1  C6  UNL     1      -0.153   0.890  -0.676  1.00  0.00     0.052 A 
HETATM    2  C7  UNL     1       1.190   1.196  -0.497  1.00  0.00     0.048 A 
HETATM    3  C13 UNL     1       1.235   2.580  -0.320  1.00  0.00     0.079 A 
HETATM    4  C14 UNL     1      -0.038   3.051  -0.397  1.00  0.00     0.144 A 
HETATM    5  N1  UNL     1      -0.912   2.020  -0.617  1.00  0.00    -0.327 N 
ENDROOT
BRANCH   2   6
HETATM    6  C8  UNL     1       2.362   0.356  -0.541  1.00  0.00    -0.062 C 
HETATM    7  C9  UNL     1       3.353  -0.325  -0.600  1.00  0.00    -0.064 C 
BRANCH   7   8
HETATM    8  C10 UNL     1       4.545  -1.173  -0.669  1.00  0.00     0.252 A 
HETATM    9  O1  UNL     1       5.695  -0.619   0.082  1.00  0.00    -0.340 OA
HETATM   10  C11 UNL     1       5.003  -1.875   0.455  1.00  0.00     0.172 A 
HETATM   11  C12 UNL     1       5.954  -3.053   0.256  1.00  0.00     0.068 C 
HETATM   12 CL1  UNL     1       4.311  -1.738   2.055  1.00  0.00    -0.085 Cl
ENDBRANCH   7   8
ENDBRANCH   2   6
BRANCH   1  13
HETATM   13  C5  UNL     1      -0.680  -0.436  -0.947  1.00  0.00     0.013 C 
BRANCH  13  14
HETATM   14  C2  UNL     1      -0.919  -1.448   0.079  1.00  0.00    -0.031 C 
HETATM   15  C1  UNL     1       0.268  -1.875   0.904  1.00  0.00     0.019 C 
HETATM   16  C3  UNL     1      -2.132  -1.267   0.962  1.00  0.00     0.019 C 
HETATM   17  C4  UNL     1      -1.277  -2.798  -0.677  1.00  0.00     0.019 C 
ENDBRANCH  13  14
ENDBRANCH   1  13
BRANCH   5  18
HETATM   18  C15 UNL     1      -2.335   2.236  -0.716  1.00  0.00     0.133 C 
BRANCH  18  19
HETATM   19  C16 UNL     1      -3.066   2.410   0.561  1.00  0.00     0.046 C 
BRANCH  19  20
HETATM   20  C17 UNL     1      -4.551   2.614   0.216  1.00  0.00     0.165 C 
BRANCH  20  21
HETATM   21  O3  UNL     1      -5.031   1.502  -0.470  1.00  0.00    -0.401 OA
ATOM     22  H3  UNL     1      -5.948   1.628  -0.683  1.00  0.00     0.209 HD
ENDBRANCH  20  21
ENDBRANCH  19  20
ENDBRANCH  18  19
ENDBRANCH   5  18
BRANCH   4  23
HETATM   23  O2  UNL     1      -0.442   4.392  -0.275  1.00  0.00    -0.346 OA
ATOM     24  H2  UNL     1      -1.332   4.721  -0.329  1.00  0.00     0.219 HD
ENDBRANCH   4  23
TORSDOF 9
