REMARK  8 active torsions:
REMARK  status: ('A' for Active; 'I' for Inactive)
REMARK    1  A    between atoms: C2_4  and  C3_5 
REMARK    2  A    between atoms: C3_5  and  N2_6 
REMARK    3  A    between atoms: C5_11  and  S1_12 
REMARK    4  A    between atoms: S1_12  and  C6_13 
REMARK    5  A    between atoms: C6_13  and  C7_14 
REMARK    6  A    between atoms: C9_17  and  C10_18 
REMARK    7  A    between atoms: C10_18  and  O2_20 
REMARK    8  A    between atoms: C17_36  and  C18_37 
ROOT
HETATM    1  C7  UNL     1      -2.316  -0.609  -0.883  1.00  0.00     0.031 C 
HETATM    2  C8  UNL     1      -3.350  -1.115  -0.071  1.00  0.00     0.090 C 
HETATM    3  N4  UNL     1      -4.027  -2.229  -0.570  1.00  0.00    -0.099 NA
HETATM    4  C9  UNL     1      -3.775  -0.658   1.154  1.00  0.00     0.135 C 
HETATM    5  N5  UNL     1      -3.054   0.187   1.953  1.00  0.00    -0.334 N 
ATOM      6  H5  UNL     1      -3.026  -0.017   2.952  1.00  0.00     0.168 HD
HETATM    7  C12 UNL     1      -2.366   1.287   1.511  1.00  0.00     0.153 A 
HETATM    8  N6  UNL     1      -2.075   2.372   2.243  1.00  0.00    -0.174 N 
ATOM      9  H6  UNL     1      -2.323   2.504   3.224  1.00  0.00     0.186 HD
HETATM   10  C13 UNL     1      -1.409   3.256   1.489  1.00  0.00     0.680 A 
HETATM   11  N7  UNL     1      -0.964   4.410   1.843  1.00  0.00    -0.234 N 
ATOM     12  H71 UNL     1      -0.457   5.083   1.269  1.00  0.00     0.174 HD
ATOM     13  H72 UNL     1      -1.084   4.783   2.785  1.00  0.00     0.174 HD
HETATM   14  N8  UNL     1      -1.249   2.757   0.228  1.00  0.00    -0.180 N 
HETATM   15  C14 UNL     1      -0.600   3.408  -0.889  1.00  0.00     0.176 C 
HETATM   16  C15 UNL     1      -1.835   1.548   0.242  1.00  0.00     0.146 A 
HETATM   17  C16 UNL     1      -1.894   0.701  -0.871  1.00  0.00     0.212 C 
HETATM   18  O3  UNL     1      -1.533   1.171  -1.970  1.00  0.00    -0.285 OA
ENDROOT
BRANCH   1  19
HETATM   19  C6  UNL     1      -1.725  -1.529  -1.860  1.00  0.00     0.125 C 
BRANCH  19  20
HETATM   20  S1  UNL     1      -0.327  -0.820  -2.686  1.00  0.00    -0.106 SA
BRANCH  20  21
HETATM   21  C5  UNL     1       1.167  -0.781  -1.785  1.00  0.00     0.106 A 
HETATM   22  N3  UNL     1       1.548   0.200  -0.981  1.00  0.00    -0.185 N 
HETATM   23  C4  UNL     1       2.738   0.191  -0.293  1.00  0.00     0.680 A 
ATOM     24  H3  UNL     1       0.928   1.002  -0.867  1.00  0.00     0.185 HD
HETATM   25  N2  UNL     1       3.024   1.187   0.463  1.00  0.00    -0.221 N 
HETATM   26  N10 UNL     1       3.572  -0.854  -0.426  1.00  0.00    -0.178 N 
ATOM     27  H2  UNL     1       2.372   1.967   0.544  1.00  0.00     0.178 HD
HETATM   28  C19 UNL     1       3.244  -1.885  -1.229  1.00  0.00     0.151 A 
ATOM     29  H10 UNL     1       4.456  -0.867   0.082  1.00  0.00     0.185 HD
HETATM   30  C17 UNL     1       2.056  -1.851  -1.903  1.00  0.00     0.116 A 
HETATM   31  N9  UNL     1       4.130  -2.985  -1.365  1.00  0.00    -0.081 NA
BRANCH  25  32
HETATM   32  C3  UNL     1       4.262   1.207   1.197  1.00  0.00     0.182 C 
BRANCH  32  33
HETATM   33  C2  UNL     1       5.367   1.585   0.268  1.00  0.00     0.075 C 
HETATM   34  N1  UNL     1       6.401   2.173   0.718  1.00  0.00    -0.405 N 
HETATM   35  C1  UNL     1       6.513   2.476   2.113  1.00  0.00     0.145 C 
ATOM     36  H1  UNL     1       7.155   2.430   0.081  1.00  0.00     0.158 HD
ENDBRANCH  32  33
ENDBRANCH  25  32
BRANCH  30  37
HETATM   37  C18 UNL     1       1.699  -2.939  -2.766  1.00  0.00     0.215 C 
HETATM   38  O4  UNL     1       2.469  -3.913  -2.899  1.00  0.00    -0.644 OA
HETATM   39  O5  UNL     1       0.514  -2.928  -3.458  1.00  0.00    -0.644 OA
ENDBRANCH  30  37
ENDBRANCH  20  21
ENDBRANCH  19  20
ENDBRANCH   1  19
BRANCH   4  40
HETATM   40  C10 UNL     1      -5.081  -1.099   1.643  1.00  0.00     0.311 C 
HETATM   41  O1  UNL     1      -5.508  -0.712   2.745  1.00  0.00    -0.258 OA
BRANCH  40  42
HETATM   42  O2  UNL     1      -5.879  -1.956   0.899  1.00  0.00    -0.321 OA
HETATM   43  C11 UNL     1      -7.131  -2.379   1.367  1.00  0.00     0.213 C 
ENDBRANCH  40  42
ENDBRANCH   4  40
TORSDOF 8
