REMARK  12 active torsions:
REMARK  status: ('A' for Active; 'I' for Inactive)
REMARK    1  A    between atoms: C3_4  and  S1_5 
REMARK    2  A    between atoms: S1_5  and  S2_6 
REMARK    3  A    between atoms: S2_6  and  C4_7 
REMARK    4  A    between atoms: C5_13  and  N4_14 
REMARK    5  A    between atoms: N4_14  and  C6_16 
REMARK    6  A    between atoms: C8_22  and  N7_23 
REMARK    7  A    between atoms: N7_23  and  N8_25 
REMARK    8  A    between atoms: N8_25  and  N9_26 
REMARK    9  A    between atoms: N13_39  and  N14_41 
REMARK   10  A    between atoms: N14_41  and  C12_43 
REMARK   11  A    between atoms: C12_43  and  C13_44 
REMARK       I    between atoms: C13_44  and  N15_46 
REMARK   12  A    between atoms: N15_46  and  N16_48 
ROOT
HETATM    1  C4  UNL     1      -1.824  -1.362  -2.552  1.00  0.00     0.150 A 
HETATM    2  N2  UNL     1      -0.682  -1.507  -3.242  1.00  0.00    -0.231 N 
ATOM      3  H2  UNL     1       0.181  -0.996  -3.057  1.00  0.00     0.197 HD
HETATM    4  O1  UNL     1      -0.836  -2.391  -4.179  1.00  0.00    -0.154 OA
HETATM    5  N3  UNL     1      -2.050  -2.835  -4.127  1.00  0.00    -0.222 N 
ATOM      6  H3  UNL     1      -2.441  -3.540  -4.752  1.00  0.00     0.198 HD
HETATM    7  C5  UNL     1      -2.732  -2.224  -3.117  1.00  0.00     0.179 A 
ENDROOT
BRANCH   7   8
HETATM    8  N4  UNL     1      -3.939  -2.416  -2.793  1.00  0.00    -0.172 N 
ATOM      9  H4  UNL     1      -4.457  -3.104  -3.339  1.00  0.00     0.186 HD
BRANCH   8  10
HETATM   10  C6  UNL     1      -4.639  -1.775  -1.754  1.00  0.00     0.688 A 
HETATM   11  N5  UNL     1      -5.214  -0.568  -2.010  1.00  0.00    -0.173 N 
HETATM   12  C7  UNL     1      -5.908   0.096  -1.077  1.00  0.00     0.169 A 
ATOM     13  H5  UNL     1      -5.113  -0.158  -2.938  1.00  0.00     0.186 HD
HETATM   14  N6  UNL     1      -6.563   1.276  -1.073  1.00  0.00    -0.171 N 
HETATM   15  C9  UNL     1      -6.053  -0.440   0.183  1.00  0.00     0.162 A 
HETATM   16  C8  UNL     1      -7.106   1.495   0.129  1.00  0.00     0.711 A 
ATOM     17  H6  UNL     1      -6.633   1.908  -1.870  1.00  0.00     0.186 HD
HETATM   18  N10 UNL     1      -6.780   0.431   0.882  1.00  0.00    -0.180 N 
ATOM     19  H10 UNL     1      -7.052   0.307   1.857  1.00  0.00     0.184 HD
HETATM   20  C10 UNL     1      -5.473  -1.669   0.461  1.00  0.00     0.290 A 
HETATM   21  O2  UNL     1      -5.618  -2.141   1.621  1.00  0.00    -0.265 OA
HETATM   22  N11 UNL     1      -4.793  -2.281  -0.518  1.00  0.00    -0.154 N 
ATOM     23  H11 UNL     1      -4.367  -3.185  -0.313  1.00  0.00     0.187 HD
BRANCH  16  24
HETATM   24  N7  UNL     1      -7.875   2.652   0.496  1.00  0.00    -0.045 N 
ATOM     25  H7  UNL     1      -8.569   3.022  -0.154  1.00  0.00     0.223 HD
BRANCH  24  26
HETATM   26  N8  UNL     1      -7.708   3.206   1.589  1.00  0.00    -0.229 NA
BRANCH  26  27
HETATM   27  N9  UNL     1      -7.514   3.675   2.694  1.00  0.00    -0.260 N 
ATOM     28  H92 UNL     1      -7.217   2.704   2.793  1.00  0.00     0.193 HD
ATOM     29  H91 UNL     1      -7.376   4.132   3.595  1.00  0.00     0.193 HD
ENDBRANCH  26  27
ENDBRANCH  24  26
ENDBRANCH  16  24
ENDBRANCH   8  10
ENDBRANCH   7   8
BRANCH   1  30
HETATM   30  S2  UNL     1      -1.986  -0.209  -1.209  1.00  0.00    -0.027 SA
BRANCH  30  31
HETATM   31  S1  UNL     1      -1.408  -0.986   0.659  1.00  0.00    -0.031 SA
BRANCH  31  32
HETATM   32  C3  UNL     1       0.342  -0.673   0.938  1.00  0.00     0.113 A 
HETATM   33  C2  UNL     1       1.378  -1.508   0.599  1.00  0.00     0.146 A 
HETATM   34  N1  UNL     1       2.541  -0.932   0.956  1.00  0.00    -0.194 N 
HETATM   35  C1  UNL     1       3.864  -1.545   0.745  1.00  0.00     0.175 C 
HETATM   36  C11 UNL     1       2.274   0.254   1.515  1.00  0.00     0.699 A 
HETATM   37  N12 UNL     1       0.916   0.387   1.492  1.00  0.00    -0.182 N 
HETATM   38  N13 UNL     1       3.112   1.114   1.985  1.00  0.00    -0.136 N 
ATOM     39  H12 UNL     1       0.409   1.195   1.853  1.00  0.00     0.185 HD
ATOM     40  H13 UNL     1       2.709   1.967   2.374  1.00  0.00     0.205 HD
BRANCH  38  41
HETATM   41  N14 UNL     1       4.472   1.021   2.025  1.00  0.00    -0.313 N 
ATOM     42  H14 UNL     1       4.919   0.353   2.653  1.00  0.00     0.181 HD
BRANCH  41  43
HETATM   43  C12 UNL     1       5.287   1.877   1.170  1.00  0.00     0.244 C 
BRANCH  43  44
HETATM   44  C13 UNL     1       6.735   1.602   1.379  1.00  0.00     0.254 C 
HETATM   45  O3  UNL     1       7.134   0.747   2.189  1.00  0.00    -0.270 OA
HETATM   46  N15 UNL     1       7.681   2.337   0.633  1.00  0.00    -0.275 N 
ATOM     47  H15 UNL     1       7.355   3.040  -0.030  1.00  0.00     0.189 HD
BRANCH  46  48
HETATM   48  N16 UNL     1       9.050   2.126   0.781  1.00  0.00    -0.343 N 
ATOM     49 2H16 UNL     1       9.359   1.420   1.449  1.00  0.00     0.176 HD
ATOM     50 1H16 UNL     1       9.734   2.657   0.242  1.00  0.00     0.176 HD
ENDBRANCH  46  48
ENDBRANCH  43  44
ENDBRANCH  41  43
ENDBRANCH  38  41
ENDBRANCH  31  32
ENDBRANCH  30  31
ENDBRANCH   1  30
TORSDOF 12
