REMARK  17 active torsions:
REMARK  status: ('A' for Active; 'I' for Inactive)
REMARK    1  A    between atoms: C2_2  and  C3_6 
REMARK    2  A    between atoms: C3_6  and  C4_7 
REMARK    3  A    between atoms: C3_6  and  C6_10 
REMARK    4  A    between atoms: C6_10  and  C7_12 
REMARK    5  A    between atoms: C7_12  and  O4_14 
REMARK    6  A    between atoms: O4_14  and  C8_15 
REMARK    7  A    between atoms: C8_15  and  C9_16 
REMARK    8  A    between atoms: C12_20  and  O6_21 
REMARK    9  A    between atoms: C14_24  and  O7_25 
REMARK   10  A    between atoms: C15_27  and  C16_28 
REMARK   11  A    between atoms: C16_28  and  O8_29 
REMARK   12  A    between atoms: O8_29  and  C17_30 
REMARK   13  A    between atoms: C20_34  and  O10_35 
REMARK   14  A    between atoms: C20_34  and  C21_37 
REMARK   15  A    between atoms: C21_37  and  N2_38 
REMARK   16  A    between atoms: N2_38  and  O11_40 
REMARK   17  A    between atoms: C22_42  and  O12_43 
ROOT
HETATM    1  C9  UNL     1      -0.229  -0.388   0.882  1.00  0.00     0.070 C 
HETATM    2  C10 UNL     1      -0.059   0.987   0.453  1.00  0.00     0.200 C 
HETATM    3  O5  UNL     1      -1.063   1.738   0.460  1.00  0.00    -0.286 OA
HETATM    4  C11 UNL     1       1.301   1.412   0.035  1.00  0.00     0.059 A 
HETATM    5  C12 UNL     1       1.312   2.669  -0.583  1.00  0.00     0.083 A 
HETATM    6  C13 UNL     1       2.471   3.096  -1.201  1.00  0.00     0.075 A 
HETATM    7  C14 UNL     1       3.558   2.329  -1.208  1.00  0.00     0.081 A 
HETATM    8  C15 UNL     1       3.569   1.030  -0.570  1.00  0.00     0.031 A 
HETATM    9  C19 UNL     1       2.441   0.562   0.059  1.00  0.00     0.020 A 
HETATM   10  C20 UNL     1       2.313  -0.563   0.915  1.00  0.00     0.170 C 
HETATM   11  C22 UNL     1       0.971  -1.161   0.820  1.00  0.00     0.104 C 
ENDROOT
BRANCH   1  12
HETATM   12  C8  UNL     1      -1.396  -0.902   1.296  1.00  0.00     0.164 C 
BRANCH  12  13
HETATM   13  O4  UNL     1      -2.575  -0.224   1.375  1.00  0.00    -0.284 OA
BRANCH  13  14
HETATM   14  C7  UNL     1      -3.427  -0.226   0.284  1.00  0.00     0.335 C 
HETATM   15  O3  UNL     1      -3.098  -0.859  -0.772  1.00  0.00    -0.256 OA
BRANCH  14  16
HETATM   16  C6  UNL     1      -4.682   0.491   0.356  1.00  0.00     0.240 C 
HETATM   17  O2  UNL     1      -4.973   1.102   1.409  1.00  0.00    -0.285 OA
BRANCH  16  18
HETATM   18  C3  UNL     1      -5.599   0.486  -0.826  1.00  0.00     0.180 C 
BRANCH  18  19
HETATM   19  C2  UNL     1      -6.013  -0.900  -1.170  1.00  0.00    -0.005 C 
HETATM   20  C1  UNL     1      -6.834  -1.704  -0.224  1.00  0.00     0.064 C 
HETATM   21  N1  UNL     1      -5.685  -1.462  -2.287  1.00  0.00    -0.405 N 
ATOM     22  H12 UNL     1      -5.969  -2.413  -2.523  1.00  0.00     0.155 HD
ATOM     23  H11 UNL     1      -5.122  -0.911  -2.935  1.00  0.00     0.155 HD
ENDBRANCH  18  19
BRANCH  18  24
HETATM   24  C4  UNL     1      -6.756   1.369  -0.609  1.00  0.00     0.140 C 
HETATM   25  C5  UNL     1      -7.787   1.162   0.420  1.00  0.00     0.092 C 
HETATM   26  O1  UNL     1      -6.885   2.364  -1.338  1.00  0.00    -0.297 OA
ENDBRANCH  18  24
ENDBRANCH  16  18
ENDBRANCH  14  16
ENDBRANCH  13  14
ENDBRANCH  12  13
ENDBRANCH   1  12
BRANCH  11  27
HETATM   27  O12 UNL     1       0.820  -2.452   0.670  1.00  0.00    -0.360 OA
ATOM     28  H12 UNL     1       1.618  -2.966   0.629  1.00  0.00     0.217 HD
ENDBRANCH  11  27
BRANCH  10  29
HETATM   29  O10 UNL     1       2.242   0.239   2.195  1.00  0.00    -0.373 OA
ATOM     30  H10 UNL     1       2.156  -0.514   2.768  1.00  0.00     0.212 HD
ENDBRANCH  10  29
BRANCH  10  31
HETATM   31  C21 UNL     1       3.093  -1.644   1.420  1.00  0.00     0.136 C 
BRANCH  31  32
HETATM   32  N2  UNL     1       3.264  -2.842   0.635  1.00  0.00    -0.281 N 
ATOM     33  H2  UNL     1       2.834  -2.920  -0.287  1.00  0.00     0.193 HD
BRANCH  32  34
HETATM   34  O11 UNL     1       3.972  -3.822   1.114  1.00  0.00    -0.290 OA
ATOM     35  H11 UNL     1       4.085  -4.611   0.597  1.00  0.00     0.244 HD
ENDBRANCH  32  34
ENDBRANCH  31  32
ENDBRANCH  10  31
BRANCH   5  36
HETATM   36  O6  UNL     1       0.259   3.523  -0.626  1.00  0.00    -0.360 OA
ATOM     37  H6  UNL     1       0.266   4.376  -1.045  1.00  0.00     0.217 HD
ENDBRANCH   5  36
BRANCH   8  38
HETATM   38  C16 UNL     1       4.843   0.403  -0.665  1.00  0.00     0.160 C 
BRANCH  38  39
HETATM   39  O8  UNL     1       5.297  -0.768  -0.257  1.00  0.00    -0.290 OA
BRANCH  39  40
HETATM   40  C17 UNL     1       6.608  -1.164  -0.467  1.00  0.00     0.259 C 
HETATM   41  C18 UNL     1       7.128  -2.475  -0.014  1.00  0.00     0.126 C 
HETATM   42  O9  UNL     1       7.361  -0.372  -1.063  1.00  0.00    -0.265 OA
ENDBRANCH  39  40
ENDBRANCH  38  39
ENDBRANCH   8  38
BRANCH   7  43
HETATM   43  O7  UNL     1       4.762   2.698  -1.820  1.00  0.00    -0.360 OA
ATOM     44  H7  UNL     1       5.538   2.150  -1.825  1.00  0.00     0.217 HD
ENDBRANCH   7  43
TORSDOF 17
