REMARK  0 active torsions:
REMARK  status: ('A' for Active; 'I' for Inactive)
ROOT
HETATM    1  C1  UNL     1      -0.185  -1.204  -0.224  1.00  0.00     0.004 C 
HETATM    2  C2  UNL     1       1.187  -0.571  -0.183  1.00  0.00     0.026 C 
HETATM    3  C3  UNL     1       1.109   0.917  -0.357  1.00  0.00     0.167 C 
HETATM    4  O1  UNL     1       0.209   1.519   0.531  1.00  0.00    -0.391 OA
HETATM    5  C4  UNL     1      -1.062   1.008   0.172  1.00  0.00     0.167 C 
HETATM    6  C5  UNL     1      -1.057  -0.410   0.755  1.00  0.00     0.026 C 
ENDROOT
TORSDOF 0
