REMARK  12 active torsions:
REMARK  status: ('A' for Active; 'I' for Inactive)
REMARK    1  A    between atoms: C2_3  and  C3_4 
REMARK    2  A    between atoms: C3_4  and  O1_5 
REMARK    3  A    between atoms: C3_4  and  C5_8 
REMARK       I    between atoms: C5_8  and  N3_10 
REMARK    4  A    between atoms: N3_10  and  C6_12 
REMARK    5  A    between atoms: C6_12  and  C7_13 
REMARK       I    between atoms: C7_13  and  N4_15 
REMARK    6  A    between atoms: N4_15  and  C8_17 
REMARK    7  A    between atoms: C12_30  and  N9_31 
REMARK    8  A    between atoms: N9_31  and  N10_33 
REMARK    9  A    between atoms: N10_33  and  C13_35 
REMARK   10  A    between atoms: C13_35  and  C14_36 
REMARK   11  A    between atoms: C14_36  and  O4_37 
REMARK   12  A    between atoms: C17_43  and  N12_44 
ROOT
HETATM    1  O1  UNL     1       4.832  -0.402   2.925  1.00  0.00    -0.260 OA
HETATM    2  C4  UNL     1       5.644   0.297   3.735  1.00  0.00     0.229 C 
HETATM    3  N2  UNL     1       6.345   0.877   4.437  1.00  0.00    -0.164 NA
ENDROOT
BRANCH   1   4
HETATM    4  C3  UNL     1       3.969   0.138   1.955  1.00  0.00     0.301 C 
BRANCH   4   5
HETATM    5  C2  UNL     1       4.441  -0.324   0.634  1.00  0.00     0.126 A 
HETATM    6  N1  UNL     1       4.840  -1.557   0.267  1.00  0.00    -0.323 N 
HETATM    7  C1  UNL     1       4.877  -2.688   1.156  1.00  0.00     0.159 C 
HETATM    8  C19 UNL     1       5.173  -1.484  -1.033  1.00  0.00     0.140 A 
HETATM    9  C16 UNL     1       4.978  -0.187  -1.485  1.00  0.00     0.122 A 
HETATM   10  N14 UNL     1       5.630  -2.437  -1.870  1.00  0.00    -0.336 N 
HETATM   11  N11 UNL     1       4.532   0.485  -0.436  1.00  0.00    -0.337 N 
HETATM   12  C17 UNL     1       5.252   0.136  -2.794  1.00  0.00     0.131 A 
ATOM     13  H11 UNL     1       4.291   1.476  -0.439  1.00  0.00     0.167 HD
HETATM   14  N13 UNL     1       5.706  -0.840  -3.598  1.00  0.00    -0.337 N 
HETATM   15  C18 UNL     1       5.889  -2.094  -3.141  1.00  0.00     0.183 A 
ATOM     16  H13 UNL     1       5.916  -0.627  -4.573  1.00  0.00     0.168 HD
ATOM     17  H14 UNL     1       5.775  -3.393  -1.546  1.00  0.00     0.168 HD
BRANCH  12  18
HETATM   18  N12 UNL     1       5.082   1.329  -3.243  1.00  0.00    -0.383 N 
ATOM     19 2H12 UNL     1       4.737   2.070  -2.633  1.00  0.00     0.157 HD
ATOM     20 1H12 UNL     1       5.285   1.568  -4.213  1.00  0.00     0.157 HD
ENDBRANCH  12  18
ENDBRANCH   4   5
BRANCH   4  21
HETATM   21  C5  UNL     1       2.551  -0.150   2.203  1.00  0.00     0.256 C 
HETATM   22  O2  UNL     1       2.158  -0.819   3.194  1.00  0.00    -0.270 OA
HETATM   23  N3  UNL     1       1.557   0.328   1.310  1.00  0.00    -0.350 N 
ATOM     24  H3  UNL     1       1.850   0.873   0.499  1.00  0.00     0.163 HD
BRANCH  23  25
HETATM   25  C6  UNL     1       0.144   0.074   1.503  1.00  0.00     0.225 C 
BRANCH  25  26
HETATM   26  C7  UNL     1      -0.673   0.685   0.427  1.00  0.00     0.240 C 
HETATM   27  O3  UNL     1      -0.070   1.317  -0.477  1.00  0.00    -0.271 OA
HETATM   28  N4  UNL     1      -2.089   0.565   0.412  1.00  0.00    -0.311 N 
ATOM     29  H4  UNL     1      -2.533  -0.306   0.121  1.00  0.00     0.170 HD
BRANCH  28  30
HETATM   30  C8  UNL     1      -2.802   1.576   0.772  1.00  0.00     0.128 A 
HETATM   31  N5  UNL     1      -2.239   2.735   1.161  1.00  0.00    -0.318 N 
HETATM   32  C9  UNL     1      -3.038   3.754   1.525  1.00  0.00     0.179 A 
ATOM     33  H5  UNL     1      -1.224   2.839   1.179  1.00  0.00     0.170 HD
HETATM   34  S1  UNL     1      -2.305   5.139   1.988  1.00  0.00    -0.040 SA
HETATM   35  N6  UNL     1      -4.379   3.668   1.520  1.00  0.00    -0.318 N 
HETATM   36  C10 UNL     1      -4.999   2.537   1.143  1.00  0.00     0.126 A 
ATOM     37  H6  UNL     1      -4.935   4.474   1.807  1.00  0.00     0.170 HD
HETATM   38  N7  UNL     1      -6.331   2.402   1.121  1.00  0.00    -0.338 N 
HETATM   39  C15 UNL     1      -4.180   1.471   0.761  1.00  0.00     0.098 A 
HETATM   40  C11 UNL     1      -6.871   1.236   0.729  1.00  0.00     0.183 A 
ATOM     41  H7  UNL     1      -6.931   3.178   1.400  1.00  0.00     0.168 HD
HETATM   42  N8  UNL     1      -6.103   0.201   0.360  1.00  0.00    -0.337 N 
HETATM   43  C12 UNL     1      -4.772   0.290   0.366  1.00  0.00     0.138 A 
ATOM     44  H8  UNL     1      -6.545  -0.671   0.069  1.00  0.00     0.168 HD
BRANCH  43  45
HETATM   45  N9  UNL     1      -3.990  -0.675   0.020  1.00  0.00    -0.289 N 
ATOM     46  H9  UNL     1      -2.977  -0.555   0.043  1.00  0.00     0.188 HD
BRANCH  45  47
HETATM   47  N10 UNL     1      -4.550  -1.886  -0.386  1.00  0.00    -0.333 N 
ATOM     48  H10 UNL     1      -5.281  -2.298   0.194  1.00  0.00     0.180 HD
BRANCH  47  49
HETATM   49  C13 UNL     1      -4.155  -2.584  -1.574  1.00  0.00     0.165 C 
BRANCH  49  50
HETATM   50  C14 UNL     1      -4.371  -1.761  -2.829  1.00  0.00     0.185 C 
BRANCH  50  51
HETATM   51  O4  UNL     1      -5.708  -1.428  -2.971  1.00  0.00    -0.399 OA
ATOM     52  H4  UNL     1      -5.843  -0.912  -3.757  1.00  0.00     0.209 HD
ENDBRANCH  50  51
ENDBRANCH  49  50
ENDBRANCH  47  49
ENDBRANCH  45  47
ENDBRANCH  43  45
ENDBRANCH  28  30
ENDBRANCH  25  26
ENDBRANCH  23  25
ENDBRANCH   4  21
ENDBRANCH   1   4
TORSDOF 12
