REMARK  8 active torsions:
REMARK  status: ('A' for Active; 'I' for Inactive)
REMARK    1  A    between atoms: O1_2  and  C2_3 
REMARK    2  A    between atoms: N6_27  and  C13_28 
REMARK    3  A    between atoms: N8_37  and  C21_38 
REMARK    4  A    between atoms: C21_38  and  C22_39 
REMARK    5  A    between atoms: C22_39  and  N9_40 
REMARK    6  A    between atoms: N9_40  and  C23_42 
REMARK    7  A    between atoms: C23_42  and  C24_43 
REMARK    8  A    between atoms: C24_43  and  N10_44 
ROOT
HETATM    1  C2  UNL     1       0.256  -1.651  -1.486  1.00  0.00     0.561 C 
HETATM    2  N1  UNL     1      -0.273  -2.343  -0.343  1.00  0.00    -0.020 N 
ATOM      3  H11 UNL     1      -1.187  -1.974  -0.082  1.00  0.00     0.282 HD
ATOM      4  H12 UNL     1       0.247  -2.106   0.502  1.00  0.00     0.282 HD
HETATM    5  C3  UNL     1      -0.326  -3.778  -0.537  1.00  0.00     0.239 C 
HETATM    6  C4  UNL     1      -1.768  -4.172  -0.883  1.00  0.00     0.055 C 
HETATM    7  C5  UNL     1      -2.536  -4.529   0.356  1.00  0.00     0.234 C 
HETATM    8  N2  UNL     1      -3.442  -3.502   0.804  1.00  0.00    -0.073 N 
ATOM      9  H21 UNL     1      -2.948  -2.802   1.357  1.00  0.00     0.277 HD
ATOM     10  H22 UNL     1      -4.075  -3.866   1.516  1.00  0.00     0.277 HD
HETATM   11  C6  UNL     1      -4.185  -2.874  -0.268  1.00  0.00     0.259 C 
HETATM   12  C7  UNL     1      -5.498  -2.319   0.307  1.00  0.00     0.206 C 
HETATM   13  O2  UNL     1      -5.281  -1.669   1.518  1.00  0.00    -0.323 OA
HETATM   14  C8  UNL     1      -5.852  -0.546   2.034  1.00  0.00     0.227 C 
HETATM   15  N3  UNL     1      -6.616  -0.625   3.237  1.00  0.00    -0.056 NA
HETATM   16  N4  UNL     1      -5.732   0.588   1.483  1.00  0.00    -0.357 N 
ATOM     17  H4  UNL     1      -6.210   1.345   1.971  1.00  0.00     0.162 HD
HETATM   18  C9  UNL     1      -5.049   0.990   0.305  1.00  0.00     0.150 C 
HETATM   19  C10 UNL     1      -3.540   1.049   0.502  1.00  0.00     0.252 C 
HETATM   20  N5  UNL     1      -3.214   1.800   1.694  1.00  0.00    -0.072 N 
ATOM     21  H51 UNL     1      -2.925   1.187   2.457  1.00  0.00     0.277 HD
ATOM     22  H52 UNL     1      -4.047   2.202   2.124  1.00  0.00     0.277 HD
HETATM   23  C11 UNL     1      -2.225   2.803   1.419  1.00  0.00     0.252 C 
HETATM   24  C12 UNL     1      -0.874   2.140   1.272  1.00  0.00     0.150 C 
HETATM   25  N6  UNL     1      -0.318   2.340  -0.041  1.00  0.00    -0.378 N 
HETATM   26  C19 UNL     1       0.069   1.248  -0.869  1.00  0.00     0.153 C 
HETATM   27  C20 UNL     1       0.737   0.134  -0.086  1.00  0.00     0.298 C 
HETATM   28  N8  UNL     1       1.372  -0.787  -1.048  1.00  0.00     0.151 N 
ENDROOT
BRANCH  28  29
HETATM   29  C21 UNL     1       2.279  -1.636  -0.315  1.00  0.00     0.322 C 
BRANCH  29  30
HETATM   30  C22 UNL     1       3.531  -0.917   0.169  1.00  0.00     0.085 C 
BRANCH  30  31
HETATM   31  N9  UNL     1       4.298  -0.380  -0.881  1.00  0.00    -0.399 N 
ATOM     32  H9  UNL     1       4.041  -0.563  -1.851  1.00  0.00     0.158 HD
BRANCH  31  33
HETATM   33  C23 UNL     1       5.426   0.414  -0.582  1.00  0.00     0.138 C 
BRANCH  33  34
HETATM   34  C24 UNL     1       6.559  -0.345   0.015  1.00  0.00     0.141 C 
BRANCH  34  35
HETATM   35  N10 UNL     1       6.337  -0.976   1.261  1.00  0.00    -0.365 N 
HETATM   36  C25 UNL     1       7.264  -1.083   2.145  1.00  0.00     0.197 C 
HETATM   37  N11 UNL     1       8.545  -0.557   1.873  1.00  0.00    -0.067 NA
HETATM   38  N12 UNL     1       6.983  -1.727   3.373  1.00  0.00    -0.067 NA
ATOM     39  H10 UNL     1       5.413  -1.358   1.464  1.00  0.00     0.161 HD
ENDBRANCH  34  35
ENDBRANCH  33  34
ENDBRANCH  31  33
ENDBRANCH  30  31
ENDBRANCH  29  30
ENDBRANCH  28  29
BRANCH   1  40
HETATM   40  O1  UNL     1       0.697  -2.530  -2.475  1.00  0.00    -0.342 OA
HETATM   41  C1  UNL     1       0.024  -2.393  -3.671  1.00  0.00     0.206 C 
ENDBRANCH   1  40
BRANCH  25  42
HETATM   42  C13 UNL     1      -0.147   3.672  -0.502  1.00  0.00     0.030 A 
HETATM   43  C14 UNL     1       0.047   3.906  -1.856  1.00  0.00     0.031 A 
HETATM   44  C15 UNL     1       0.232   5.168  -2.379  1.00  0.00     0.029 A 
HETATM   45  C16 UNL     1       0.221   6.218  -1.506  1.00  0.00     0.046 A 
HETATM   46  N7  UNL     1       0.411   7.529  -2.015  1.00  0.00    -0.102 NA
HETATM   47  C17 UNL     1       0.032   6.011  -0.169  1.00  0.00     0.029 A 
HETATM   48  C18 UNL     1      -0.151   4.753   0.334  1.00  0.00     0.031 A 
ENDBRANCH  25  42
TORSDOF 8
