REMARK  3 active torsions:
REMARK  status: ('A' for Active; 'I' for Inactive)
REMARK    1  A    between atoms: N2_4  and  N3_6 
REMARK    2  A    between atoms: C1_8  and  N4_9 
REMARK    3  A    between atoms: N4_9  and  C2_11 
ROOT
HETATM    1  N3  UNL     1       2.035  -0.208   0.443  1.00  0.00    -0.283 N 
ATOM      2  H3  UNL     1       1.760  -0.929   1.110  1.00  0.00     0.189 HD
HETATM    3  C1  UNL     1       1.145   0.641   0.048  1.00  0.00     0.195 C 
ENDROOT
BRANCH   1   4
HETATM    4  N2  UNL     1       3.356  -0.181  -0.004  1.00  0.00    -0.248 N 
HETATM    5  N1  UNL     1       3.980  -1.279  -0.138  1.00  0.00    -0.331 N 
ATOM      6  H12 UNL     1       3.509  -2.157   0.082  1.00  0.00     0.178 HD
ATOM      7  H11 UNL     1       4.946  -1.259  -0.465  1.00  0.00     0.178 HD
ATOM      8  H2  UNL     1       3.813   0.705  -0.219  1.00  0.00     0.207 HD
ENDBRANCH   1   4
BRANCH   3   9
HETATM    9  N4  UNL     1      -0.194   0.624   0.493  1.00  0.00    -0.373 N 
ATOM     10  H4  UNL     1      -0.535   1.444   0.995  1.00  0.00     0.161 HD
BRANCH   9  11
HETATM   11  C2  UNL     1      -1.108  -0.456   0.293  1.00  0.00     0.159 A 
HETATM   12  C3  UNL     1      -2.497  -0.248   0.860  1.00  0.00     0.113 A 
HETATM   13  C4  UNL     1      -2.238  -0.352  -0.628  1.00  0.00     0.152 A 
HETATM   14  O1  UNL     1      -2.808  -0.329  -1.699  1.00  0.00    -0.296 OA
ENDBRANCH   9  11
ENDBRANCH   3   9
TORSDOF 3
