REMARK  5 active torsions:
REMARK  status: ('A' for Active; 'I' for Inactive)
REMARK    1  A    between atoms: C2_2  and  C3_3 
REMARK    2  A    between atoms: C3_3  and  N1_4 
REMARK    3  A    between atoms: N1_4  and  N2_5 
REMARK    4  A    between atoms: N2_5  and  C4_7 
REMARK    5  A    between atoms: C5_10  and  N4_11 
ROOT
HETATM    1  C4  UNL     1       1.840   0.866  -0.349  1.00  0.00     0.163 A 
HETATM    2  N3  UNL     1       2.838   1.775  -0.396  1.00  0.00    -0.322 N 
ATOM      3  H3  UNL     1       3.154   2.745  -0.410  1.00  0.00     0.169 HD
HETATM    4  C5  UNL     1       3.118   0.412  -0.411  1.00  0.00     0.146 A 
ENDROOT
BRANCH   1   5
HETATM    5  N2  UNL     1       0.567   0.736  -0.289  1.00  0.00    -0.286 N 
ATOM      6  H2  UNL     1       0.007   1.588  -0.261  1.00  0.00     0.184 HD
BRANCH   5   7
HETATM    7  N1  UNL     1      -0.103  -0.470  -0.259  1.00  0.00    -0.136 NA
BRANCH   7   8
HETATM    8  C3  UNL     1      -1.327  -0.282   0.486  1.00  0.00     0.161 C 
BRANCH   8   9
HETATM    9  C2  UNL     1      -2.496  -0.918  -0.171  1.00  0.00    -0.019 C 
HETATM   10  C1  UNL     1      -3.540  -0.206  -0.548  1.00  0.00     0.008 C 
ENDBRANCH   8   9
ENDBRANCH   7   8
ENDBRANCH   5   7
ENDBRANCH   1   5
BRANCH   4  11
HETATM   11  N4  UNL     1       3.941  -0.562  -0.452  1.00  0.00    -0.382 N 
ATOM     12  H42 UNL     1       4.146  -1.561  -0.463  1.00  0.00     0.157 HD
ATOM     13  H41 UNL     1       4.901  -0.903  -0.499  1.00  0.00     0.157 HD
ENDBRANCH   4  11
TORSDOF 5
