REMARK  4 active torsions:
REMARK  status: ('A' for Active; 'I' for Inactive)
REMARK    1  A    between atoms: N1_2  and  N2_4 
REMARK    2  A    between atoms: C2_6  and  N3_7 
REMARK    3  A    between atoms: C4_9  and  C5_10 
REMARK    4  A    between atoms: C5_10  and  N4_11 
ROOT
HETATM    1  N3  UNL     1       0.594   0.346   0.346  1.00  0.00    -0.366 N 
HETATM    2  C3  UNL     1       1.409   1.444   0.964  1.00  0.00     0.151 A 
HETATM    3  C4  UNL     1       1.832  -0.001   0.957  1.00  0.00     0.128 A 
ENDROOT
BRANCH   1   4
HETATM    4  C2  UNL     1      -0.604   0.041  -0.350  1.00  0.00     0.195 C 
HETATM    5  N2  UNL     1      -1.722   0.643  -0.121  1.00  0.00    -0.301 N 
ATOM      6  H2  UNL     1      -1.741   1.371   0.593  1.00  0.00     0.187 HD
BRANCH   5   7
HETATM    7  N1  UNL     1      -2.900   0.352  -0.796  1.00  0.00    -0.340 N 
HETATM    8  C1  UNL     1      -3.879  -0.542  -0.225  1.00  0.00     0.167 C 
ATOM      9  H1  UNL     1      -3.076   0.775  -1.707  1.00  0.00     0.179 HD
ENDBRANCH   5   7
ENDBRANCH   1   4
BRANCH   3  10
HETATM   10  C5  UNL     1       3.056  -0.307   0.170  1.00  0.00     0.256 C 
BRANCH  10  11
HETATM   11  N4  UNL     1       2.916  -1.425  -0.731  1.00  0.00    -0.077 N 
ATOM     12  H43 UNL     1       2.600  -2.253  -0.226  1.00  0.00     0.274 HD
ATOM     13  H42 UNL     1       2.118  -1.286  -1.351  1.00  0.00     0.274 HD
ATOM     14  H41 UNL     1       3.756  -1.635  -1.271  1.00  0.00     0.274 HD
ENDBRANCH  10  11
ENDBRANCH   3  10
TORSDOF 4
