REMARK  4 active torsions:
REMARK  status: ('A' for Active; 'I' for Inactive)
REMARK    1  A    between atoms: N2_4  and  N3_6 
REMARK    2  A    between atoms: N3_6  and  C1_8 
REMARK    3  A    between atoms: N4_9  and  N5_11 
REMARK    4  A    between atoms: N5_11  and  C2_13 
ROOT
HETATM    1  N3  UNL     1       1.205  -0.256   0.145  1.00  0.00    -0.281 N 
ATOM      2  H3  UNL     1       0.922  -0.420   1.111  1.00  0.00     0.189 HD
ENDROOT
BRANCH   1   3
HETATM    3  N2  UNL     1       2.348   0.509  -0.072  1.00  0.00    -0.248 N 
HETATM    4  N1  UNL     1       2.460   1.655   0.452  1.00  0.00    -0.331 N 
ATOM      5  H12 UNL     1       1.699   2.006   1.034  1.00  0.00     0.178 HD
ATOM      6  H11 UNL     1       3.297   2.215   0.293  1.00  0.00     0.178 HD
ATOM      7  H2  UNL     1       3.099   0.143  -0.657  1.00  0.00     0.207 HD
ENDBRANCH   1   3
BRANCH   1   8
HETATM    8  C1  UNL     1       0.413  -0.818  -0.869  1.00  0.00     0.215 C 
HETATM    9  N4  UNL     1      -0.845  -0.901  -0.708  1.00  0.00    -0.293 N 
ATOM     10  H4  UNL     1      -1.427  -1.308  -1.440  1.00  0.00     0.187 HD
BRANCH   9  11
HETATM   11  N5  UNL     1      -1.427  -0.439   0.461  1.00  0.00    -0.276 N 
ATOM     12  H5  UNL     1      -1.129  -0.856   1.343  1.00  0.00     0.189 HD
BRANCH  11  13
HETATM   13  C2  UNL     1      -2.407   0.573   0.504  1.00  0.00     0.368 C 
HETATM   14  O1  UNL     1      -2.785   1.094  -0.559  1.00  0.00    -0.282 OA
ENDBRANCH  11  13
ENDBRANCH   9  11
ENDBRANCH   1   8
TORSDOF 4
