REMARK  14 active torsions:
REMARK  status: ('A' for Active; 'I' for Inactive)
REMARK    1  A    between atoms: N1_1  and  C1_5 
REMARK    2  A    between atoms: C1_5  and  C2_6 
REMARK    3  A    between atoms: C2_6  and  C3_7 
REMARK    4  A    between atoms: C3_7  and  C4_8 
REMARK    5  A    between atoms: C4_8  and  C5_9 
REMARK    6  A    between atoms: C5_9  and  C6_10 
REMARK    7  A    between atoms: C6_10  and  N2_11 
REMARK    8  A    between atoms: C6_10  and  O1_15 
REMARK    9  A    between atoms: O1_15  and  C7_16 
REMARK   10  A    between atoms: C8_20  and  C9_21 
REMARK   11  A    between atoms: C10_24  and  O3_25 
REMARK   12  A    between atoms: C11_27  and  O4_28 
REMARK   13  A    between atoms: C12_30  and  C13_31 
REMARK   14  A    between atoms: C13_31  and  O5_32 
ROOT
HETATM    1  C7  UNL     1      -0.896   0.033  -0.705  1.00  0.00     0.474 C 
HETATM    2  N3  UNL     1      -1.654   0.945  -1.532  1.00  0.00     0.002 N 
ATOM      3  H31 UNL     1      -2.094   0.446  -2.305  1.00  0.00     0.286 HD
ATOM      4  H32 UNL     1      -1.029   1.558  -2.056  1.00  0.00     0.286 HD
HETATM    5  C8  UNL     1      -2.617   1.707  -0.816  1.00  0.00     0.339 C 
HETATM    6  O2  UNL     1      -3.084   1.148   0.342  1.00  0.00    -0.325 OA
HETATM    7  C10 UNL     1      -3.903   0.060   0.203  1.00  0.00     0.290 C 
HETATM    8  C11 UNL     1      -3.091  -1.205   0.372  1.00  0.00     0.204 C 
HETATM    9  C12 UNL     1      -2.525  -1.586  -0.957  1.00  0.00     0.183 C 
HETATM   10  O6  UNL     1      -1.174  -1.279  -0.993  1.00  0.00    -0.329 OA
ENDROOT
BRANCH   1  11
HETATM   11  O1  UNL     1       0.454   0.265  -0.969  1.00  0.00    -0.305 OA
BRANCH  11  12
HETATM   12  C6  UNL     1       1.133   0.734   0.165  1.00  0.00     0.322 C 
BRANCH  12  13
HETATM   13  C5  UNL     1       2.166  -0.288   0.505  1.00  0.00     0.061 C 
BRANCH  13  14
HETATM   14  C4  UNL     1       2.944  -0.095   1.749  1.00  0.00     0.004 C 
BRANCH  14  15
HETATM   15  C3  UNL     1       3.825   1.095   1.842  1.00  0.00     0.002 C 
BRANCH  15  16
HETATM   16  C2  UNL     1       4.925   1.141   0.807  1.00  0.00     0.027 C 
BRANCH  16  17
HETATM   17  C1  UNL     1       5.829  -0.072   0.967  1.00  0.00     0.229 C 
BRANCH  17  18
HETATM   18  N1  UNL     1       6.856   0.087  -0.077  1.00  0.00    -0.079 N 
ATOM     19  H13 UNL     1       6.478   0.202  -1.017  1.00  0.00     0.274 HD
ATOM     20  H12 UNL     1       7.349   0.979  -0.042  1.00  0.00     0.274 HD
ATOM     21  H11 UNL     1       7.462  -0.726   0.030  1.00  0.00     0.274 HD
ENDBRANCH  17  18
ENDBRANCH  16  17
ENDBRANCH  15  16
ENDBRANCH  14  15
ENDBRANCH  13  14
ENDBRANCH  12  13
BRANCH  12  22
HETATM   22  N2  UNL     1       1.673   2.028  -0.007  1.00  0.00    -0.053 N 
ATOM     23  H23 UNL     1       2.209   2.311   0.813  1.00  0.00     0.277 HD
ATOM     24  H22 UNL     1       2.421   2.021  -0.701  1.00  0.00     0.277 HD
ATOM     25  H21 UNL     1       0.967   2.727  -0.239  1.00  0.00     0.277 HD
ENDBRANCH  12  22
ENDBRANCH  11  12
ENDBRANCH   1  11
BRANCH   5  26
HETATM   26  C9  UNL     1      -3.726   2.102  -1.773  1.00  0.00     0.147 C 
HETATM   27  S1  UNL     1      -5.013   3.074  -0.985  1.00  0.00    -0.093 SA
ENDBRANCH   5  26
BRANCH   9  28
HETATM   28  C13 UNL     1      -2.626  -3.097  -1.190  1.00  0.00     0.199 C 
BRANCH  28  29
HETATM   29  O5  UNL     1      -1.921  -3.699  -0.167  1.00  0.00    -0.398 OA
ATOM     30  H5  UNL     1      -1.984  -4.636  -0.311  1.00  0.00     0.209 HD
ENDBRANCH  28  29
ENDBRANCH   9  28
BRANCH   8  31
HETATM   31  O4  UNL     1      -3.906  -2.275   0.795  1.00  0.00    -0.388 OA
ATOM     32  H4  UNL     1      -3.396  -3.069   0.901  1.00  0.00     0.210 HD
ENDBRANCH   8  31
BRANCH   7  33
HETATM   33  O3  UNL     1      -4.812   0.078   1.286  1.00  0.00    -0.368 OA
ATOM     34  H3  UNL     1      -5.380  -0.677   1.190  1.00  0.00     0.212 HD
ENDBRANCH   7  33
TORSDOF 14
