REMARK  14 active torsions:
REMARK  status: ('A' for Active; 'I' for Inactive)
REMARK    1  A    between atoms: C2_2  and  N1_4 
REMARK    2  A    between atoms: C5_10  and  N4_11 
REMARK    3  A    between atoms: C6_16  and  N6_17 
REMARK    4  A    between atoms: C8_23  and  N8_24 
REMARK    5  A    between atoms: N8_24  and  C9_25 
REMARK    6  A    between atoms: C9_25  and  C10_26 
REMARK    7  A    between atoms: C10_26  and  C11_27 
REMARK    8  A    between atoms: C11_27  and  C12_28 
REMARK    9  A    between atoms: C12_28  and  N9_29 
REMARK   10  A    between atoms: N9_29  and  N10_30 
REMARK   11  A    between atoms: N10_30  and  C13_31 
REMARK   12  A    between atoms: C13_31  and  N11_32 
REMARK   13  A    between atoms: C13_31  and  C14_36 
REMARK   14  A    between atoms: C14_36  and  N12_37 
ROOT
HETATM    1  N1  UNL     1      -3.523  -0.957  -1.094  1.00  0.00    -0.245 N 
HETATM    2  N2  UNL     1      -4.827  -0.935  -1.161  1.00  0.00    -0.237 N 
ATOM      3  H2  UNL     1      -5.290  -1.547  -1.833  1.00  0.00     0.208 HD
HETATM    4  N3  UNL     1      -5.574  -0.156  -0.398  1.00  0.00    -0.280 N 
ATOM      5  H3  UNL     1      -6.589  -0.184  -0.497  1.00  0.00     0.188 HD
HETATM    6  C4  UNL     1      -5.022   0.672   0.505  1.00  0.00     0.125 A 
HETATM    7  C5  UNL     1      -5.833   1.470   1.283  1.00  0.00     0.145 A 
HETATM    8  N5  UNL     1      -5.228   2.278   2.168  1.00  0.00    -0.175 N 
ATOM      9  H5  UNL     1      -5.801   2.881   2.759  1.00  0.00     0.186 HD
HETATM   10  C6  UNL     1      -3.890   2.317   2.300  1.00  0.00     0.678 A 
HETATM   11  N7  UNL     1      -3.085   1.529   1.533  1.00  0.00    -0.185 N 
ATOM     12  H7  UNL     1      -2.071   1.565   1.640  1.00  0.00     0.184 HD
HETATM   13  C7  UNL     1      -3.656   0.691   0.619  1.00  0.00     0.140 A 
HETATM   14  C8  UNL     1      -2.903  -0.141  -0.199  1.00  0.00     0.226 A 
ENDROOT
BRANCH  14  15
HETATM   15  N8  UNL     1      -1.703  -0.171  -0.149  1.00  0.00    -0.400 NA
BRANCH  15  16
HETATM   16  C9  UNL     1      -0.416   0.057   0.178  1.00  0.00     0.157 C 
BRANCH  16  17
HETATM   17  C10 UNL     1       0.266   1.258  -0.431  1.00  0.00     0.061 C 
BRANCH  17  18
HETATM   18  C11 UNL     1       1.670   1.345   0.078  1.00  0.00     0.023 C 
BRANCH  18  19
HETATM   19  C12 UNL     1       2.553   0.180  -0.227  1.00  0.00     0.131 C 
BRANCH  19  20
HETATM   20  N9  UNL     1       3.900   0.411   0.309  1.00  0.00    -0.146 NA
BRANCH  20  21
HETATM   21  N10 UNL     1       4.706  -0.672   0.020  1.00  0.00    -0.114 NA
BRANCH  21  22
HETATM   22  C13 UNL     1       5.890  -0.698   0.863  1.00  0.00     0.316 C 
BRANCH  22  23
HETATM   23  N11 UNL     1       6.722  -1.842   0.545  1.00  0.00    -0.058 N 
ATOM     24 3H11 UNL     1       6.199  -2.716   0.601  1.00  0.00     0.276 HD
ATOM     25 2H11 UNL     1       6.963  -1.870  -0.446  1.00  0.00     0.276 HD
ATOM     26 1H11 UNL     1       7.553  -1.860   1.137  1.00  0.00     0.276 HD
ENDBRANCH  22  23
BRANCH  22  27
HETATM   27  C14 UNL     1       6.670   0.581   0.639  1.00  0.00     0.280 C 
BRANCH  27  28
HETATM   28  N12 UNL     1       7.855   0.623   1.442  1.00  0.00    -0.076 N 
ATOM     29 3H12 UNL     1       7.641   0.485   2.430  1.00  0.00     0.274 HD
ATOM     30 2H12 UNL     1       8.438  -0.200   1.290  1.00  0.00     0.274 HD
ATOM     31 1H12 UNL     1       8.380   1.484   1.291  1.00  0.00     0.274 HD
ENDBRANCH  27  28
ENDBRANCH  22  27
ENDBRANCH  21  22
ENDBRANCH  20  21
ENDBRANCH  19  20
ENDBRANCH  18  19
ENDBRANCH  17  18
ENDBRANCH  16  17
ENDBRANCH  15  16
ENDBRANCH  14  15
BRANCH   1  32
HETATM   32  C2  UNL     1      -2.802  -1.841  -1.968  1.00  0.00     0.104 C 
HETATM   33  C1  UNL     1      -2.702  -3.247  -1.488  1.00  0.00     0.034 C 
HETATM   34  C3  UNL     1      -3.550  -1.861  -3.292  1.00  0.00     0.034 C 
ENDBRANCH   1  32
BRANCH   7  35
HETATM   35  N4  UNL     1      -7.103   1.390   1.112  1.00  0.00    -0.383 N 
ATOM     36  H42 UNL     1      -7.563   0.776   0.440  1.00  0.00     0.157 HD
ATOM     37  H41 UNL     1      -7.703   1.981   1.688  1.00  0.00     0.157 HD
ENDBRANCH   7  35
BRANCH  10  38
HETATM   38  N6  UNL     1      -3.302   3.087   3.145  1.00  0.00    -0.234 N 
ATOM     39  H62 UNL     1      -3.905   3.677   3.719  1.00  0.00     0.174 HD
ATOM     40  H61 UNL     1      -2.287   3.117   3.245  1.00  0.00     0.174 HD
ENDBRANCH  10  38
TORSDOF 14
