REMARK  11 active torsions:
REMARK  status: ('A' for Active; 'I' for Inactive)
REMARK    1  A    between atoms: C2_2  and  C3_3 
REMARK    2  A    between atoms: C3_3  and  N1_4 
REMARK    3  A    between atoms: N1_4  and  S1_6 
REMARK    4  A    between atoms: S1_6  and  C4_9 
REMARK    5  A    between atoms: C5_12  and  N3_13 
REMARK    6  A    between atoms: C7_20  and  N6_21 
REMARK    7  A    between atoms: N6_21  and  N7_23 
REMARK    8  A    between atoms: N8_25  and  N9_27 
REMARK    9  A    between atoms: N9_27  and  C8_29 
REMARK   10  A    between atoms: C8_29  and  C9_33 
REMARK   11  A    between atoms: C9_33  and  N11_34 
ROOT
HETATM    1  C4  UNL     1       1.884  -1.271   0.605  1.00  0.00     0.195 A 
HETATM    2  N2  UNL     1       2.818  -2.251   0.377  1.00  0.00    -0.177 N 
ATOM      3  H2  UNL     1       3.688  -2.241   0.909  1.00  0.00     0.185 HD
HETATM    4  C5  UNL     1       2.615  -3.221  -0.527  1.00  0.00     0.678 A 
HETATM    5  N4  UNL     1       1.467  -3.236  -1.230  1.00  0.00    -0.177 N 
ATOM      6  H4  UNL     1       1.324  -3.978  -1.915  1.00  0.00     0.185 HD
HETATM    7  C6  UNL     1       0.502  -2.317  -1.069  1.00  0.00     0.163 A 
HETATM    8  N5  UNL     1      -0.704  -2.318  -1.791  1.00  0.00    -0.080 NA
HETATM    9  C7  UNL     1       0.725  -1.318  -0.128  1.00  0.00     0.132 A 
ENDROOT
BRANCH   9  10
HETATM   10  N6  UNL     1      -0.298  -0.351   0.061  1.00  0.00    -0.279 N 
ATOM     11  H6  UNL     1      -0.260   0.571  -0.374  1.00  0.00     0.189 HD
BRANCH  10  12
HETATM   12  N7  UNL     1      -1.358  -0.742   0.879  1.00  0.00    -0.228 N 
HETATM   13  N8  UNL     1      -2.524  -0.375   0.626  1.00  0.00    -0.227 N 
ATOM     14  H8  UNL     1      -3.289  -0.667   1.234  1.00  0.00     0.210 HD
ATOM     15  H7  UNL     1      -1.179  -1.333   1.691  1.00  0.00     0.210 HD
BRANCH  13  16
HETATM   16  N9  UNL     1      -2.787   0.427  -0.475  1.00  0.00    -0.272 N 
ATOM     17  H9  UNL     1      -2.062   0.704  -1.137  1.00  0.00     0.190 HD
BRANCH  16  18
HETATM   18  C8  UNL     1      -4.164   0.841  -0.613  1.00  0.00     0.116 C 
HETATM   19  N10 UNL     1      -4.575   2.003  -0.272  1.00  0.00    -0.386 N 
ATOM     20 2H10 UNL     1      -3.934   2.693   0.120  1.00  0.00     0.157 HD
ATOM     21 1H10 UNL     1      -5.547   2.295  -0.369  1.00  0.00     0.157 HD
BRANCH  18  22
HETATM   22  C9  UNL     1      -5.093  -0.160  -1.181  1.00  0.00     0.308 C 
BRANCH  22  23
HETATM   23  N11 UNL     1      -6.425   0.405  -1.213  1.00  0.00    -0.072 N 
HETATM   24  C10 UNL     1      -6.855   0.541   0.161  1.00  0.00     0.267 C 
ATOM     25 2H11 UNL     1      -6.479   1.277  -1.739  1.00  0.00     0.277 HD
ATOM     26 1H11 UNL     1      -7.076  -0.132  -1.786  1.00  0.00     0.277 HD
ENDBRANCH  22  23
ENDBRANCH  18  22
ENDBRANCH  16  18
ENDBRANCH  13  16
ENDBRANCH  10  12
ENDBRANCH   9  10
BRANCH   1  27
HETATM   27  S1  UNL     1       2.194  -0.019   1.776  1.00  0.00     0.277 S 
HETATM   28  O1  UNL     1       3.007  -0.554   2.926  1.00  0.00    -0.199 OA
HETATM   29  O2  UNL     1       0.912   0.493   2.327  1.00  0.00    -0.199 OA
BRANCH  27  30
HETATM   30  N1  UNL     1       3.009   1.315   1.025  1.00  0.00    -0.314 N 
ATOM     31  H1  UNL     1       2.632   2.261   0.970  1.00  0.00     0.172 HD
BRANCH  30  32
HETATM   32  C3  UNL     1       4.282   0.918   0.490  1.00  0.00     0.132 C 
BRANCH  32  33
HETATM   33  C2  UNL     1       4.956   2.106  -0.154  1.00  0.00     0.016 C 
HETATM   34  C1  UNL     1       5.154   3.158   0.912  1.00  0.00     0.006 C 
ENDBRANCH  32  33
ENDBRANCH  30  32
ENDBRANCH  27  30
ENDBRANCH   1  27
BRANCH   4  35
HETATM   35  N3  UNL     1       3.514  -4.142  -0.729  1.00  0.00    -0.234 N 
ATOM     36  H32 UNL     1       4.384  -4.131  -0.196  1.00  0.00     0.174 HD
ATOM     37  H31 UNL     1       3.360  -4.880  -1.416  1.00  0.00     0.174 HD
ENDBRANCH   4  35
TORSDOF 11
