REMARK  12 active torsions:
REMARK  status: ('A' for Active; 'I' for Inactive)
REMARK    1  A    between atoms: O1_2  and  C2_3 
REMARK    2  A    between atoms: C2_3  and  O2_4 
REMARK    3  A    between atoms: O2_4  and  C3_5 
REMARK    4  A    between atoms: C3_5  and  C4_6 
REMARK    5  A    between atoms: C4_6  and  C5_7 
REMARK    6  A    between atoms: C5_7  and  C6_8 
REMARK    7  A    between atoms: C6_8  and  O3_9 
REMARK    8  A    between atoms: O3_9  and  C7_10 
REMARK    9  A    between atoms: C8_11  and  C9_12 
REMARK   10  A    between atoms: C10_15  and  N2_16 
REMARK   11  A    between atoms: C11_21  and  N4_22 
REMARK   12  A    between atoms: C12_29  and  N7_30 
ROOT
HETATM    1  C7  UNL     1      -1.970  -1.756  -0.121  1.00  0.00     0.169 A 
HETATM    2  C8  UNL     1      -2.812  -0.726  -0.382  1.00  0.00     0.133 A 
HETATM    3  N6  UNL     1      -4.063  -0.990  -0.855  1.00  0.00    -0.185 N 
ATOM      4  H6  UNL     1      -4.691  -0.211  -1.051  1.00  0.00     0.184 HD
HETATM    5  C12 UNL     1      -4.501  -2.264  -1.074  1.00  0.00     0.679 A 
HETATM    6  N8  UNL     1      -3.657  -3.272  -0.809  1.00  0.00    -0.154 N 
ATOM      7  H8  UNL     1      -3.973  -4.229  -0.968  1.00  0.00     0.187 HD
HETATM    8  C13 UNL     1      -2.422  -3.075  -0.346  1.00  0.00     0.295 A 
HETATM    9  O4  UNL     1      -1.699  -4.068  -0.125  1.00  0.00    -0.264 OA
ENDROOT
BRANCH   2  10
HETATM   10  C9  UNL     1      -2.426   0.681  -0.140  1.00  0.00     0.166 A 
HETATM   11  N1  UNL     1      -1.232   1.052   0.334  1.00  0.00    -0.173 N 
HETATM   12  C10 UNL     1      -0.932   2.342   0.539  1.00  0.00     0.692 A 
ATOM     13  H1  UNL     1      -0.535   0.338   0.544  1.00  0.00     0.186 HD
HETATM   14  N3  UNL     1      -1.842   3.336   0.268  1.00  0.00    -0.023 N 
HETATM   15  C11 UNL     1      -3.019   2.979  -0.199  1.00  0.00     0.692 A 
ATOM     16  H3  UNL     1      -1.612   4.318   0.424  1.00  0.00     0.203 HD
HETATM   17  N5  UNL     1      -3.300   1.669  -0.397  1.00  0.00    -0.173 N 
ATOM     18  H5  UNL     1      -4.220   1.420  -0.759  1.00  0.00     0.186 HD
BRANCH  12  19
HETATM   19  N2  UNL     1       0.200   2.740   1.010  1.00  0.00    -0.234 N 
ATOM     20  H22 UNL     1       0.875   2.002   1.211  1.00  0.00     0.174 HD
ATOM     21  H21 UNL     1       0.428   3.722   1.166  1.00  0.00     0.174 HD
ENDBRANCH  12  19
BRANCH  15  22
HETATM   22  N4  UNL     1      -3.882   3.899  -0.457  1.00  0.00    -0.234 N 
ATOM     23  H42 UNL     1      -3.670   4.886  -0.308  1.00  0.00     0.174 HD
ATOM     24  H41 UNL     1      -4.795   3.622  -0.819  1.00  0.00     0.174 HD
ENDBRANCH  15  22
ENDBRANCH   2  10
BRANCH   1  25
HETATM   25  O3  UNL     1      -0.664  -1.684   0.350  1.00  0.00    -0.344 OA
BRANCH  25  26
HETATM   26  C6  UNL     1       0.433  -1.696  -0.553  1.00  0.00     0.176 C 
BRANCH  26  27
HETATM   27  C5  UNL     1       1.776  -1.738   0.114  1.00  0.00     0.029 C 
BRANCH  27  28
HETATM   28  C4  UNL     1       2.100  -0.618   1.024  1.00  0.00     0.028 C 
BRANCH  28  29
HETATM   29  C3  UNL     1       3.489  -0.836   1.607  1.00  0.00     0.170 C 
BRANCH  29  30
HETATM   30  O2  UNL     1       4.469  -0.899   0.647  1.00  0.00    -0.367 OA
BRANCH  30  31
HETATM   31  C2  UNL     1       4.610   0.214  -0.141  1.00  0.00     0.337 C 
BRANCH  31  32
HETATM   32  O1  UNL     1       4.923   1.367   0.576  1.00  0.00    -0.372 OA
HETATM   33  C1  UNL     1       5.036   2.413  -0.337  1.00  0.00     0.204 C 
ENDBRANCH  31  32
ENDBRANCH  30  31
ENDBRANCH  29  30
ENDBRANCH  28  29
ENDBRANCH  27  28
ENDBRANCH  26  27
ENDBRANCH  25  26
ENDBRANCH   1  25
BRANCH   5  34
HETATM   34  N7  UNL     1      -5.702  -2.461  -1.525  1.00  0.00    -0.234 N 
ATOM     35  H72 UNL     1      -6.344  -1.694  -1.727  1.00  0.00     0.174 HD
ATOM     36  H71 UNL     1      -6.029  -3.413  -1.689  1.00  0.00     0.174 HD
ENDBRANCH   5  34
TORSDOF 12
