REMARK  11 active torsions:
REMARK  status: ('A' for Active; 'I' for Inactive)
REMARK    1  A    between atoms: N1_1  and  C1_5 
REMARK    2  A    between atoms: C1_5  and  C2_6 
REMARK    3  A    between atoms: C2_6  and  C3_7 
REMARK    4  A    between atoms: C3_7  and  N2_8 
REMARK    5  A    between atoms: N2_8  and  C4_10 
REMARK    6  A    between atoms: C4_10  and  C5_11 
REMARK    7  A    between atoms: C5_11  and  C6_12 
REMARK    8  A    between atoms: C6_12  and  N3_13 
REMARK    9  A    between atoms: N3_13  and  C7_16 
REMARK   10  A    between atoms: C7_16  and  N4_17 
REMARK   11  A    between atoms: C7_16  and  C8_21 
ROOT
HETATM    1  C7  UNL     1      -1.380   0.268   1.459  1.00  0.00     0.415 C 
ENDROOT
BRANCH   1   2
HETATM    2  N3  UNL     1      -0.263   0.754   0.740  1.00  0.00    -0.042 N 
ATOM      3  H32 UNL     1      -0.474   1.628   0.259  1.00  0.00     0.280 HD
ATOM      4  H31 UNL     1      -0.057   0.177  -0.075  1.00  0.00     0.280 HD
BRANCH   2   5
HETATM    5  C6  UNL     1       0.891   0.884   1.613  1.00  0.00     0.240 C 
BRANCH   5   6
HETATM    6  C5  UNL     1       1.474  -0.394   2.091  1.00  0.00     0.072 C 
BRANCH   6   7
HETATM    7  C4  UNL     1       1.941  -1.407   1.134  1.00  0.00     0.057 C 
BRANCH   7   8
HETATM    8  N2  UNL     1       2.981  -1.091   0.267  1.00  0.00    -0.402 N 
ATOM      9  H2  UNL     1       3.906  -1.496   0.408  1.00  0.00     0.158 HD
BRANCH   8  10
HETATM   10  C3  UNL     1       2.753  -0.212  -0.804  1.00  0.00     0.120 C 
BRANCH  10  11
HETATM   11  C2  UNL     1       4.017  -0.079  -1.675  1.00  0.00     0.047 C 
BRANCH  11  12
HETATM   12  C1  UNL     1       5.124   0.461  -0.794  1.00  0.00     0.231 C 
BRANCH  12  13
HETATM   13  N1  UNL     1       6.358   0.622  -1.523  1.00  0.00    -0.079 N 
ATOM     14  H13 UNL     1       6.636  -0.247  -1.978  1.00  0.00     0.274 HD
ATOM     15  H12 UNL     1       6.227   1.202  -2.352  1.00  0.00     0.274 HD
ATOM     16  H11 UNL     1       7.104   0.986  -0.930  1.00  0.00     0.274 HD
ENDBRANCH  12  13
ENDBRANCH  11  12
ENDBRANCH  10  11
ENDBRANCH   8  10
ENDBRANCH   7   8
ENDBRANCH   6   7
ENDBRANCH   5   6
ENDBRANCH   2   5
ENDBRANCH   1   2
BRANCH   1  17
HETATM   17  N4  UNL     1      -1.931   1.233   2.399  1.00  0.00    -0.046 N 
ATOM     18  H43 UNL     1      -1.209   1.568   3.037  1.00  0.00     0.277 HD
ATOM     19  H42 UNL     1      -2.159   2.108   1.926  1.00  0.00     0.277 HD
ATOM     20  H41 UNL     1      -2.736   0.883   2.917  1.00  0.00     0.277 HD
ENDBRANCH   1  17
BRANCH   1  21
HETATM   21  C8  UNL     1      -2.430  -0.403   0.661  1.00  0.00     0.031 A 
HETATM   22  C9  UNL     1      -2.669  -1.728   0.603  1.00  0.00     0.008 A 
HETATM   23  C10 UNL     1      -3.800  -2.007  -0.306  1.00  0.00     0.177 A 
HETATM   24  N5  UNL     1      -4.186  -0.711  -0.795  1.00  0.00    -0.279 N 
HETATM   25  N6  UNL     1      -5.137  -0.367  -1.643  1.00  0.00    -0.248 N 
HETATM   26  C13 UNL     1      -3.391   0.247  -0.226  1.00  0.00     0.129 A 
HETATM   27  C11 UNL     1      -5.390   0.900  -1.998  1.00  0.00     0.341 A 
ATOM     28  H6  UNL     1      -5.710  -1.106  -2.050  1.00  0.00     0.192 HD
HETATM   29  O1  UNL     1      -6.317   1.190  -2.819  1.00  0.00    -0.245 OA
HETATM   30  N7  UNL     1      -4.648   1.881  -1.475  1.00  0.00    -0.272 N 
HETATM   31  C12 UNL     1      -3.668   1.545  -0.603  1.00  0.00     0.278 A 
ATOM     32  H7  UNL     1      -4.815   2.855  -1.726  1.00  0.00     0.173 HD
HETATM   33  O2  UNL     1      -2.964   2.461  -0.103  1.00  0.00    -0.265 OA
ENDBRANCH   1  21
TORSDOF 11
