REMARK  14 active torsions:
REMARK  status: ('A' for Active; 'I' for Inactive)
REMARK    1  A    between atoms: C2_2  and  N1_3 
REMARK    2  A    between atoms: N1_3  and  C3_4 
REMARK    3  A    between atoms: C3_4  and  N2_5 
REMARK    4  A    between atoms: N2_5  and  C4_8 
REMARK    5  A    between atoms: C4_8  and  C5_9 
REMARK    6  A    between atoms: C5_9  and  O1_10 
REMARK    7  A    between atoms: C7_13  and  C8_14 
REMARK    8  A    between atoms: C8_14  and  C9_15 
REMARK    9  A    between atoms: C9_15  and  C10_16 
REMARK   10  A    between atoms: C10_16  and  O2_17 
REMARK   11  A    between atoms: C11_19  and  O3_20 
REMARK   12  A    between atoms: C12_22  and  O4_23 
REMARK   13  A    between atoms: C13_25  and  C14_26 
REMARK   14  A    between atoms: C14_26  and  O5_27 
ROOT
HETATM    1  N1  UNL     1      -0.730  -0.859   0.228  1.00  0.00    -0.035 N 
HETATM    2  C6  UNL     1       0.545  -0.251   0.441  1.00  0.00     0.247 C 
HETATM    3  C7  UNL     1       1.270   0.210  -0.774  1.00  0.00     0.043 C 
HETATM    4  C11 UNL     1       1.348  -0.895  -1.771  1.00  0.00     0.154 C 
HETATM    5  C12 UNL     1       0.000  -1.523  -2.024  1.00  0.00     0.180 C 
HETATM    6  C13 UNL     1      -0.705  -1.903  -0.747  1.00  0.00     0.246 C 
ENDROOT
BRANCH   1   7
HETATM    7  C2  UNL     1      -1.126  -1.429   1.514  1.00  0.00     0.236 C 
HETATM    8  C1  UNL     1      -0.427  -2.700   1.864  1.00  0.00     0.035 C 
ENDBRANCH   1   7
BRANCH   1   9
HETATM    9  C3  UNL     1      -1.676   0.204  -0.046  1.00  0.00     0.468 C 
BRANCH   9  10
HETATM   10  N2  UNL     1      -2.234   0.791   1.171  1.00  0.00    -0.049 N 
ATOM     11  H22 UNL     1      -2.638   0.080   1.781  1.00  0.00     0.279 HD
ATOM     12  H21 UNL     1      -1.503   1.132   1.794  1.00  0.00     0.279 HD
BRANCH  10  13
HETATM   13  C4  UNL     1      -3.195   1.832   0.850  1.00  0.00     0.260 C 
BRANCH  13  14
HETATM   14  C5  UNL     1      -2.582   3.054   0.234  1.00  0.00     0.191 C 
BRANCH  14  15
HETATM   15  O1  UNL     1      -1.660   3.586   1.135  1.00  0.00    -0.399 OA
ATOM     16  H1  UNL     1      -1.272   4.360   0.745  1.00  0.00     0.209 HD
ENDBRANCH  14  15
ENDBRANCH  13  14
ENDBRANCH  10  13
ENDBRANCH   9  10
ENDBRANCH   1   9
BRANCH   6  17
HETATM   17  C14 UNL     1      -2.021  -2.492  -1.103  1.00  0.00     0.200 C 
BRANCH  17  18
HETATM   18  O5  UNL     1      -1.774  -3.502  -2.071  1.00  0.00    -0.399 OA
ATOM     19  H5  UNL     1      -2.616  -3.879  -2.299  1.00  0.00     0.209 HD
ENDBRANCH  17  18
ENDBRANCH   6  17
BRANCH   3  20
HETATM   20  C8  UNL     1       2.697   0.546  -0.362  1.00  0.00     0.011 C 
BRANCH  20  21
HETATM   21  C9  UNL     1       2.759   1.625   0.675  1.00  0.00     0.027 C 
BRANCH  21  22
HETATM   22  C10 UNL     1       4.225   1.860   0.997  1.00  0.00     0.164 C 
BRANCH  22  23
HETATM   23  O2  UNL     1       4.395   2.846   1.950  1.00  0.00    -0.401 OA
ATOM     24  H2  UNL     1       5.312   2.993   2.151  1.00  0.00     0.209 HD
ENDBRANCH  22  23
ENDBRANCH  21  22
ENDBRANCH  20  21
ENDBRANCH   3  20
BRANCH   5  25
HETATM   25  O4  UNL     1      -0.816  -0.710  -2.794  1.00  0.00    -0.391 OA
ATOM     26  H4  UNL     1      -1.665  -1.105  -2.953  1.00  0.00     0.210 HD
ENDBRANCH   5  25
BRANCH   4  27
HETATM   27  O3  UNL     1       1.806  -0.346  -2.981  1.00  0.00    -0.393 OA
ATOM     28  H3  UNL     1       1.856  -1.050  -3.617  1.00  0.00     0.210 HD
ENDBRANCH   4  27
TORSDOF 14
