REMARK  3 active torsions:
REMARK  status: ('A' for Active; 'I' for Inactive)
REMARK    1  A    between atoms: C1_2  and  C2_4 
REMARK    2  A    between atoms: C4_8  and  N3_9 
REMARK    3  A    between atoms: N3_9  and  C5_11 
ROOT
HETATM    1  C2  UNL     1      -1.121   0.060  -0.041  1.00  0.00     0.072 A 
HETATM    2  C3  UNL     1      -0.785  -1.166  -0.559  1.00  0.00     0.108 A 
HETATM    3  N2  UNL     1       0.562  -1.307  -0.541  1.00  0.00    -0.350 N 
ATOM      4  H2  UNL     1       1.086  -2.120  -0.866  1.00  0.00     0.166 HD
HETATM    5  C4  UNL     1       1.083  -0.191  -0.021  1.00  0.00     0.133 A 
HETATM    6  C6  UNL     1       0.037   0.688   0.302  1.00  0.00     0.107 A 
HETATM    7  N4  UNL     1       0.203   1.958   0.869  1.00  0.00    -0.097 NA
ENDROOT
BRANCH   5   8
HETATM    8  N3  UNL     1       2.458   0.095   0.185  1.00  0.00    -0.319 N 
ATOM      9  H3  UNL     1       2.701   0.997   0.594  1.00  0.00     0.169 HD
BRANCH   8  10
HETATM   10  C5  UNL     1       3.502  -0.778  -0.136  1.00  0.00     0.354 C 
HETATM   11  O2  UNL     1       3.421  -1.918  -0.641  1.00  0.00    -0.283 OA
ENDBRANCH   8  10
ENDBRANCH   5   8
BRANCH   1  12
HETATM   12  C1  UNL     1      -2.497   0.572   0.102  1.00  0.00     0.268 C 
HETATM   13  N1  UNL     1      -3.619  -0.199  -0.302  1.00  0.00    -0.057 NA
HETATM   14  O1  UNL     1      -2.614   1.717   0.597  1.00  0.00    -0.271 OA
ENDBRANCH   1  12
TORSDOF 3
