REMARK  14 active torsions:
REMARK  status: ('A' for Active; 'I' for Inactive)
REMARK    1  A    between atoms: C2_2  and  C3_3 
REMARK    2  A    between atoms: C3_3  and  C4_4 
REMARK    3  A    between atoms: C4_4  and  C5_5 
REMARK    4  A    between atoms: C5_5  and  C6_6 
REMARK    5  A    between atoms: C6_6  and  C7_7 
REMARK    6  A    between atoms: C7_7  and  C8_8 
REMARK    7  A    between atoms: C8_8  and  C9_9 
REMARK    8  A    between atoms: C11_14  and  C12_15 
REMARK    9  A    between atoms: C12_15  and  C14_17 
REMARK   10  A    between atoms: C17_23  and  C18_24 
REMARK   11  A    between atoms: C18_24  and  C20_26 
REMARK   12  A    between atoms: C25_33  and  C26_34 
REMARK   13  A    between atoms: C26_34  and  C28_36 
REMARK   14  A    between atoms: C30_40  and  O4_41 
ROOT
HETATM    1  C9  UNL     1       1.089  -0.396   0.389  1.00  0.00     0.159 C 
HETATM    2  N1  UNL     1       0.134  -0.821  -0.583  1.00  0.00    -0.347 N 
ATOM      3  H1  UNL     1       0.133  -0.334  -1.479  1.00  0.00     0.163 HD
HETATM    4  C10 UNL     1      -0.806  -1.853  -0.412  1.00  0.00     0.241 C 
HETATM    5  O1  UNL     1      -0.873  -2.732  -1.350  1.00  0.00    -0.271 OA
HETATM    6  C11 UNL     1      -1.741  -2.077   0.698  1.00  0.00     0.180 C 
HETATM    7  N2  UNL     1      -3.117  -2.209   0.209  1.00  0.00    -0.346 N 
ATOM      8  H2  UNL     1      -3.239  -2.774  -0.631  1.00  0.00     0.163 HD
HETATM    9  C16 UNL     1      -4.284  -1.658   0.749  1.00  0.00     0.240 C 
HETATM   10  O2  UNL     1      -5.228  -2.428   1.192  1.00  0.00    -0.272 OA
HETATM   11  C17 UNL     1      -4.596  -0.217   0.886  1.00  0.00     0.202 C 
HETATM   12  N3  UNL     1      -3.423   0.602   1.105  1.00  0.00    -0.086 NA
HETATM   13  O3  UNL     1      -3.664   1.769   0.467  1.00  0.00    -0.286 OA
HETATM   14  C22 UNL     1      -3.235   2.896   1.106  1.00  0.00     0.196 C 
HETATM   15  C23 UNL     1      -1.941   3.447   0.464  1.00  0.00     0.030 C 
HETATM   16  C24 UNL     1      -1.187   2.341  -0.162  1.00  0.00     0.028 C 
HETATM   17  C25 UNL     1      -0.074   2.571  -1.063  1.00  0.00     0.087 C 
HETATM   18  N4  UNL     1       1.172   2.030  -0.570  1.00  0.00    -0.368 N 
ATOM     19  H4  UNL     1       2.005   2.438  -0.994  1.00  0.00     0.161 HD
HETATM   20  C30 UNL     1       1.434   1.046   0.386  1.00  0.00     0.135 C 
ENDROOT
BRANCH   1  21
HETATM   21  C8  UNL     1       2.307  -1.270   0.190  1.00  0.00     0.033 C 
BRANCH  21  22
HETATM   22  C7  UNL     1       3.456  -1.022   1.086  1.00  0.00     0.002 C 
BRANCH  22  23
HETATM   23  C6  UNL     1       4.545  -2.039   0.692  1.00  0.00     0.000 C 
BRANCH  23  24
HETATM   24  C5  UNL     1       5.730  -1.779   1.629  1.00  0.00     0.000 C 
BRANCH  24  25
HETATM   25  C4  UNL     1       6.283  -0.401   1.518  1.00  0.00     0.000 C 
BRANCH  25  26
HETATM   26  C3  UNL     1       6.827   0.021   0.220  1.00  0.00    -0.000 C 
BRANCH  26  27
HETATM   27  C2  UNL     1       8.025  -0.653  -0.336  1.00  0.00    -0.005 C 
HETATM   28  C1  UNL     1       7.974  -2.090  -0.649  1.00  0.00     0.005 C 
ENDBRANCH  26  27
ENDBRANCH  25  26
ENDBRANCH  24  25
ENDBRANCH  23  24
ENDBRANCH  22  23
ENDBRANCH  21  22
ENDBRANCH   1  21
BRANCH  20  29
HETATM   29  O4  UNL     1       2.079   1.355   1.477  1.00  0.00    -0.348 OA
ATOM     30  H4  UNL     1       2.300   2.279   1.475  1.00  0.00     0.219 HD
ENDBRANCH  20  29
BRANCH   6  31
HETATM   31  C12 UNL     1      -1.517  -3.321   1.503  1.00  0.00     0.013 C 
HETATM   32  C13 UNL     1      -0.212  -3.465   2.186  1.00  0.00     0.012 C 
BRANCH  31  33
HETATM   33  C14 UNL     1      -1.831  -4.603   0.793  1.00  0.00     0.002 C 
HETATM   34  C15 UNL     1      -1.567  -5.794   1.724  1.00  0.00     0.005 C 
ENDBRANCH  31  33
ENDBRANCH   6  31
BRANCH  17  35
HETATM   35  C26 UNL     1       0.157   3.971  -1.579  1.00  0.00     0.004 C 
HETATM   36  C27 UNL     1       0.414   5.004  -0.537  1.00  0.00     0.012 C 
BRANCH  35  37
HETATM   37  C28 UNL     1      -0.781   4.378  -2.678  1.00  0.00     0.002 C 
HETATM   38  C29 UNL     1      -0.482   5.808  -3.137  1.00  0.00     0.005 C 
ENDBRANCH  35  37
ENDBRANCH  17  35
BRANCH  11  39
HETATM   39  C18 UNL     1      -5.425   0.287  -0.277  1.00  0.00     0.012 C 
HETATM   40  C19 UNL     1      -6.735  -0.502  -0.307  1.00  0.00     0.012 C 
BRANCH  39  41
HETATM   41  C20 UNL     1      -4.773   0.098  -1.600  1.00  0.00     0.002 C 
HETATM   42  C21 UNL     1      -5.720   0.652  -2.662  1.00  0.00     0.005 C 
ENDBRANCH  39  41
ENDBRANCH  11  39
TORSDOF 14
