REMARK  14 active torsions:
REMARK  status: ('A' for Active; 'I' for Inactive)
REMARK       I    between atoms: C2_2  and  N1_4 
REMARK    1  A    between atoms: N1_4  and  C3_6 
REMARK    2  A    between atoms: C3_6  and  C4_7 
REMARK    3  A    between atoms: C4_7  and  C5_8 
REMARK    4  A    between atoms: C5_8  and  C6_9 
REMARK    5  A    between atoms: C6_9  and  C7_10 
REMARK    6  A    between atoms: C7_10  and  N2_11 
REMARK    7  A    between atoms: C7_10  and  C13_20 
REMARK       I    between atoms: N2_11  and  C8_13 
REMARK    8  A    between atoms: C8_13  and  C9_15 
REMARK       I    between atoms: C13_20  and  N3_22 
REMARK    9  A    between atoms: N3_22  and  C14_24 
REMARK   10  A    between atoms: C14_24  and  C15_25 
REMARK   11  A    between atoms: C14_24  and  C22_32 
REMARK   12  A    between atoms: C15_25  and  C16_26 
REMARK   13  A    between atoms: C22_32  and  C23_33 
REMARK   14  A    between atoms: C30_40  and  O5_41 
ROOT
HETATM    1  C13 UNL     1       0.658   0.898   0.296  1.00  0.00     0.264 C 
HETATM    2  O4  UNL     1       0.117   1.666   1.152  1.00  0.00    -0.266 OA
HETATM    3  N3  UNL     1      -0.193   0.324  -0.677  1.00  0.00    -0.351 N 
ATOM      4  H3  UNL     1       0.187  -0.311  -1.379  1.00  0.00     0.163 HD
ENDROOT
BRANCH   1   5
HETATM    5  C7  UNL     1       2.078   0.681   0.397  1.00  0.00     0.080 C 
BRANCH   5   6
HETATM    6  C6  UNL     1       2.650  -0.457  -0.394  1.00  0.00     0.063 C 
BRANCH   6   7
HETATM    7  C5  UNL     1       4.104  -0.179  -0.690  1.00  0.00     0.008 C 
BRANCH   7   8
HETATM    8  C4  UNL     1       4.747  -1.308  -1.489  1.00  0.00     0.020 C 
BRANCH   8   9
HETATM    9  C3  UNL     1       6.186  -0.972  -1.715  1.00  0.00     0.122 C 
BRANCH   9  10
HETATM   10  N1  UNL     1       6.338   0.261  -2.440  1.00  0.00    -0.361 N 
HETATM   11  C2  UNL     1       7.648   0.772  -2.746  1.00  0.00     0.213 C 
HETATM   12  C1  UNL     1       7.829   2.041  -3.495  1.00  0.00     0.117 C 
HETATM   13  O1  UNL     1       8.628   0.109  -2.357  1.00  0.00    -0.274 OA
ATOM     14  H1  UNL     1       5.511   0.777  -2.740  1.00  0.00     0.162 HD
ENDBRANCH   9  10
ENDBRANCH   8   9
ENDBRANCH   7   8
ENDBRANCH   6   7
ENDBRANCH   5   6
BRANCH   5  15
HETATM   15  N2  UNL     1       2.645   0.914   1.685  1.00  0.00    -0.324 N 
HETATM   16  C8  UNL     1       3.305   0.053   2.560  1.00  0.00     0.251 C 
HETATM   17  O2  UNL     1       3.496  -1.151   2.326  1.00  0.00    -0.270 OA
ATOM     18  H2  UNL     1       2.552   1.872   2.022  1.00  0.00     0.169 HD
BRANCH  16  19
HETATM   19  C9  UNL     1       3.828   0.576   3.873  1.00  0.00     0.213 C 
HETATM   20  C10 UNL     1       2.666   1.142   4.653  1.00  0.00     0.044 C 
HETATM   21  C11 UNL     1       2.308  -0.022   5.535  1.00  0.00     0.029 C 
HETATM   22  C12 UNL     1       3.576  -0.843   5.602  1.00  0.00     0.168 C 
HETATM   23  O3  UNL     1       4.425  -0.405   4.617  1.00  0.00    -0.376 OA
ENDBRANCH  16  19
ENDBRANCH   5  15
ENDBRANCH   1   5
BRANCH   3  24
HETATM   24  C14 UNL     1      -1.629   0.647  -0.672  1.00  0.00     0.085 C 
BRANCH  24  25
HETATM   25  C15 UNL     1      -2.242   0.878  -1.953  1.00  0.00     0.029 C 
BRANCH  25  26
HETATM   26  C16 UNL     1      -2.367  -0.063  -3.052  1.00  0.00    -0.013 C 
HETATM   27  C17 UNL     1      -1.200  -0.681  -3.699  1.00  0.00     0.005 C 
HETATM   28  C18 UNL     1      -1.691  -1.537  -4.882  1.00  0.00     0.000 C 
HETATM   29  C19 UNL     1      -2.470  -0.793  -5.894  1.00  0.00     0.000 C 
HETATM   30  C20 UNL     1      -3.674  -0.155  -5.198  1.00  0.00     0.000 C 
HETATM   31  C21 UNL     1      -3.110   0.746  -4.159  1.00  0.00     0.005 C 
ENDBRANCH  25  26
ENDBRANCH  24  25
BRANCH  24  32
HETATM   32  C22 UNL     1      -2.256  -0.409   0.212  1.00  0.00     0.032 C 
BRANCH  32  33
HETATM   33  C23 UNL     1      -3.725  -0.287   0.415  1.00  0.00     0.016 C 
HETATM   34  C24 UNL     1      -4.273  -1.411   1.267  1.00  0.00     0.007 C 
HETATM   35  C25 UNL     1      -3.576  -1.754   2.505  1.00  0.00     0.000 C 
HETATM   36  C26 UNL     1      -4.155  -1.212   3.775  1.00  0.00     0.000 C 
HETATM   37  C27 UNL     1      -5.470  -0.533   3.659  1.00  0.00     0.000 C 
HETATM   38  C28 UNL     1      -5.475   0.831   3.052  1.00  0.00     0.002 C 
HETATM   39  C29 UNL     1      -4.209   1.242   2.389  1.00  0.00     0.032 C 
HETATM   40  C30 UNL     1      -4.200   1.056   0.905  1.00  0.00     0.122 C 
BRANCH  40  41
HETATM   41  O5  UNL     1      -5.515   1.308   0.442  1.00  0.00    -0.395 OA
ATOM     42  H5  UNL     1      -5.815   2.155   0.751  1.00  0.00     0.210 HD
ENDBRANCH  40  41
ENDBRANCH  32  33
ENDBRANCH  24  32
ENDBRANCH   3  24
TORSDOF 14
