REMARK  13 active torsions:
REMARK  status: ('A' for Active; 'I' for Inactive)
REMARK    1  A    between atoms: C2_2  and  N1_3 
REMARK    2  A    between atoms: N1_3  and  C3_4 
REMARK       I    between atoms: N1_3  and  C5_6 
REMARK       I    between atoms: C5_6  and  N2_8 
REMARK    3  A    between atoms: N2_8  and  C6_10 
REMARK    4  A    between atoms: C7_11  and  C8_12 
REMARK    5  A    between atoms: C8_12  and  C9_13 
REMARK    6  A    between atoms: C9_13  and  C10_14 
REMARK    7  A    between atoms: C10_14  and  C11_15 
REMARK    8  A    between atoms: C11_15  and  C12_16 
REMARK    9  A    between atoms: C12_16  and  N3_17 
REMARK       I    between atoms: N3_17  and  C13_19 
REMARK   10  A    between atoms: C13_19  and  C14_21 
REMARK   11  A    between atoms: C27_35  and  O3_36 
REMARK   12  A    between atoms: C28_38  and  C30_40 
REMARK   13  A    between atoms: C30_40  and  O4_41 
ROOT
HETATM    1  C14 UNL     1      -2.877  -0.615  -0.344  1.00  0.00     0.093 C 
HETATM    2  N4  UNL     1      -3.678   0.350  -1.000  1.00  0.00    -0.351 N 
HETATM    3  C15 UNL     1      -3.910  -0.047  -2.372  1.00  0.00     0.129 C 
HETATM    4  C16 UNL     1      -4.696  -1.239  -2.661  1.00  0.00     0.020 C 
HETATM    5  C17 UNL     1      -6.172  -1.218  -2.549  1.00  0.00     0.002 C 
HETATM    6  C18 UNL     1      -6.805  -0.887  -1.256  1.00  0.00     0.001 C 
HETATM    7  C19 UNL     1      -6.055  -1.098   0.004  1.00  0.00     0.018 C 
HETATM    8  C20 UNL     1      -5.389   0.103   0.637  1.00  0.00     0.026 C 
HETATM    9  C21 UNL     1      -6.441   0.842   1.467  1.00  0.00     0.018 C 
HETATM   10  C22 UNL     1      -7.064   2.006   0.853  1.00  0.00     0.002 C 
HETATM   11  C23 UNL     1      -6.290   2.853  -0.065  1.00  0.00     0.010 C 
HETATM   12  C24 UNL     1      -4.812   2.434  -0.189  1.00  0.00     0.028 C 
HETATM   13  C25 UNL     1      -4.143   3.073   0.936  1.00  0.00     0.016 C 
HETATM   14  C26 UNL     1      -4.774   0.982  -0.423  1.00  0.00     0.004 C 
HETATM   15  C27 UNL     1      -4.366  -0.362   1.634  1.00  0.00     0.148 C 
HETATM   16  C28 UNL     1      -3.080  -0.931   1.072  1.00  0.00     0.052 C 
HETATM   17  C29 UNL     1      -3.200  -2.451   1.266  1.00  0.00     0.027 C 
ENDROOT
BRANCH   1  18
HETATM   18  C13 UNL     1      -1.472  -0.401  -0.796  1.00  0.00     0.265 C 
HETATM   19  N3  UNL     1      -0.450  -1.358  -0.570  1.00  0.00    -0.356 N 
ATOM     20  H3  UNL     1      -0.710  -2.217  -0.086  1.00  0.00     0.162 HD
HETATM   21  O2  UNL     1      -1.129   0.647  -1.408  1.00  0.00    -0.266 OA
BRANCH  19  22
HETATM   22  C12 UNL     1       0.912  -1.215  -0.966  1.00  0.00     0.123 C 
BRANCH  22  23
HETATM   23  C11 UNL     1       1.650  -0.063  -0.374  1.00  0.00     0.020 C 
BRANCH  23  24
HETATM   24  C10 UNL     1       3.060   0.031  -0.839  1.00  0.00     0.002 C 
BRANCH  24  25
HETATM   25  C9  UNL     1       3.917  -1.181  -0.512  1.00  0.00     0.004 C 
BRANCH  25  26
HETATM   26  C8  UNL     1       4.001  -1.450   0.935  1.00  0.00     0.028 C 
BRANCH  26  27
HETATM   27  C7  UNL     1       4.540  -0.466   1.843  1.00  0.00    -0.009 C 
HETATM   28  C6  UNL     1       5.902  -0.066   2.011  1.00  0.00     0.088 C 
BRANCH  28  29
HETATM   29  N2  UNL     1       6.814   0.385   1.063  1.00  0.00    -0.319 N 
HETATM   30  C5  UNL     1       7.527  -0.283   0.049  1.00  0.00     0.322 C 
HETATM   31  N1  UNL     1       8.403   0.354  -0.863  1.00  0.00    -0.335 N 
HETATM   32  O1  UNL     1       7.400  -1.525  -0.082  1.00  0.00    -0.247 OA
ATOM     33  H2  UNL     1       7.001   1.386   1.111  1.00  0.00     0.169 HD
BRANCH  31  34
HETATM   34  C2  UNL     1       9.119  -0.417  -1.873  1.00  0.00     0.123 C 
HETATM   35  C1  UNL     1      10.438  -0.861  -1.306  1.00  0.00     0.026 C 
ENDBRANCH  31  34
BRANCH  31  36
HETATM   36  C3  UNL     1       8.576   1.781  -0.802  1.00  0.00     0.123 C 
HETATM   37  C4  UNL     1       9.676   2.213   0.130  1.00  0.00     0.026 C 
ENDBRANCH  31  36
ENDBRANCH  28  29
ENDBRANCH  26  27
ENDBRANCH  25  26
ENDBRANCH  24  25
ENDBRANCH  23  24
ENDBRANCH  22  23
ENDBRANCH  19  22
ENDBRANCH   1  18
BRANCH  16  38
HETATM   38  C30 UNL     1      -1.999  -0.545   2.055  1.00  0.00     0.182 C 
BRANCH  38  39
HETATM   39  O4  UNL     1      -1.669   0.753   2.186  1.00  0.00    -0.400 OA
ATOM     40  H4  UNL     1      -0.989   0.996   2.804  1.00  0.00     0.209 HD
ENDBRANCH  38  39
ENDBRANCH  16  38
BRANCH  15  41
HETATM   41  O3  UNL     1      -4.971  -1.128   2.599  1.00  0.00    -0.393 OA
ATOM     42  H3  UNL     1      -4.324  -1.422   3.229  1.00  0.00     0.210 HD
ENDBRANCH  15  41
TORSDOF 13
