REMARK  1 active torsions:
REMARK  status: ('A' for Active; 'I' for Inactive)
REMARK    1  A    between atoms: C4_7  and  C5_8 
ROOT
HETATM    1  F1  UNL     1       6.410   0.623   0.249  1.00  0.00    -0.186 F 
HETATM    2  C1  UNL     1       5.109   0.253   0.016  1.00  0.00     0.190 A 
HETATM    3  C2  UNL     1       4.052   0.902   0.631  1.00  0.00     0.093 A 
HETATM    4  C3  UNL     1       2.736   0.522   0.391  1.00  0.00     0.066 A 
HETATM    5  N1  UNL     1       1.574   0.977   0.848  1.00  0.00    -0.344 N 
ATOM      6  H1  UNL     1       1.468   1.748   1.508  1.00  0.00     0.167 HD
HETATM    7  C4  UNL     1       0.557   0.274   0.315  1.00  0.00     0.086 A 
HETATM    8  N2  UNL     1       1.136  -0.639  -0.495  1.00  0.00    -0.343 N 
ATOM      9  H2  UNL     1       0.629  -1.329  -1.049  1.00  0.00     0.167 HD
HETATM   10  C11 UNL     1       2.477  -0.510  -0.468  1.00  0.00     0.076 A 
HETATM   11  C12 UNL     1       3.545  -1.139  -1.067  1.00  0.00     0.122 A 
HETATM   12  N3  UNL     1       4.825  -0.762  -0.827  1.00  0.00    -0.341 N 
ATOM     13  H3  UNL     1       5.587  -1.255  -1.292  1.00  0.00     0.167 HD
ENDROOT
BRANCH   7  14
HETATM   14  C5  UNL     1      -0.889   0.475   0.575  1.00  0.00     0.053 C 
HETATM   15  C6  UNL     1      -1.557   0.957  -0.720  1.00  0.00     0.012 C 
HETATM   16  C7  UNL     1      -3.009   1.213  -0.289  1.00  0.00     0.001 C 
HETATM   17  C8  UNL     1      -3.642  -0.141  -0.197  1.00  0.00     0.000 C 
HETATM   18  C9  UNL     1      -2.749  -1.206   0.340  1.00  0.00     0.001 C 
HETATM   19  C10 UNL     1      -1.571  -0.742   1.114  1.00  0.00     0.012 C 
ENDBRANCH   7  14
TORSDOF 1
