REMARK  0 active torsions:
REMARK  status: ('A' for Active; 'I' for Inactive)
ROOT
HETATM    1  C1  UNL     1      -1.776   0.109  -0.032  1.00  0.00     0.040 C 
HETATM    2  C2  UNL     1      -0.382  -0.418  -0.087  1.00  0.00     0.186 C 
HETATM    3  C3  UNL     1       0.555   0.076   1.002  1.00  0.00     0.081 C 
HETATM    4  C4  UNL     1       1.556   0.002  -0.163  1.00  0.00     0.283 C 
HETATM    5 CL1  UNL     1       2.879   1.134  -0.079  1.00  0.00    -0.095 Cl
HETATM    6  N1  UNL     1       0.419   0.416  -0.999  1.00  0.00    -0.054 N 
ATOM      7  H11 UNL     1       0.200   1.397  -1.175  1.00  0.00     0.279 HD
ATOM      8  H12 UNL     1       0.409   0.283  -2.010  1.00  0.00     0.279 HD
ENDROOT
TORSDOF 0
