REMARK  0 active torsions:
REMARK  status: ('A' for Active; 'I' for Inactive)
ROOT
HETATM    1  C1  UNL     1       1.492   1.325  -0.378  1.00  0.00     0.012 C 
HETATM    2  C2  UNL     1       0.547   0.162  -0.580  1.00  0.00     0.012 C 
HETATM    3  C3  UNL     1       1.248  -1.125  -0.152  1.00  0.00     0.237 C 
HETATM    4  N1  UNL     1       0.120  -2.024   0.089  1.00  0.00    -0.074 N 
ATOM      5  H11 UNL     1       0.369  -2.872   0.598  1.00  0.00     0.277 HD
ATOM      6  H12 UNL     1      -0.225  -2.489  -0.751  1.00  0.00     0.277 HD
HETATM    7  C4  UNL     1      -0.871  -1.209   0.757  1.00  0.00     0.237 C 
HETATM    8  C5  UNL     1      -0.520   0.230   0.491  1.00  0.00     0.012 C 
HETATM    9  C6  UNL     1      -1.729   0.993   0.085  1.00  0.00     0.012 C 
ENDROOT
TORSDOF 0
