REMARK  1 active torsions:
REMARK  status: ('A' for Active; 'I' for Inactive)
REMARK    1  A    between atoms: C3_3  and  C6_6 
ROOT
HETATM    1  C1  UNL     1      -3.188   1.930  -0.039  1.00  0.00     0.098 C 
HETATM    2  C2  UNL     1      -2.549   0.869  -0.188  1.00  0.00    -0.173 C 
HETATM    3  C3  UNL     1      -1.781  -0.404  -0.432  1.00  0.00     0.032 C 
HETATM    4  C4  UNL     1      -2.459  -0.793  -1.690  1.00  0.00     0.033 C 
HETATM    5  C5  UNL     1      -2.469  -1.372   0.619  1.00  0.00     0.033 C 
ENDROOT
BRANCH   3   6
HETATM    6  C6  UNL     1      -0.473  -0.079  -0.029  1.00  0.00    -0.015 A 
HETATM    7  C7  UNL     1      -0.322   0.341   1.331  1.00  0.00    -0.052 A 
HETATM    8  C8  UNL     1      -1.376   0.571   2.256  1.00  0.00     0.049 C 
HETATM    9  C9  UNL     1       0.945   0.616   1.824  1.00  0.00     0.016 A 
HETATM   10  C10 UNL     1       2.062   0.509   1.084  1.00  0.00    -0.034 A 
HETATM   11  C11 UNL     1       3.389   0.802   1.617  1.00  0.00     0.050 C 
HETATM   12  C12 UNL     1       1.938   0.109  -0.219  1.00  0.00     0.056 A 
HETATM   13  N1  UNL     1       3.050  -0.012  -0.970  1.00  0.00    -0.332 N 
HETATM   14  C15 UNL     1       0.686  -0.193  -0.808  1.00  0.00     0.068 A 
HETATM   15  C13 UNL     1       3.026  -0.407  -2.249  1.00  0.00     0.179 A 
ATOM     16  H1  UNL     1       3.951   0.207  -0.545  1.00  0.00     0.168 HD
HETATM   17  S1  UNL     1       4.435  -0.518  -3.065  1.00  0.00    -0.040 SA
HETATM   18  N2  UNL     1       1.864  -0.697  -2.823  1.00  0.00    -0.299 N 
HETATM   19  C14 UNL     1       0.702  -0.591  -2.106  1.00  0.00     0.260 A 
ATOM     20  H2  UNL     1       1.837  -0.998  -3.797  1.00  0.00     0.171 HD
HETATM   21  O1  UNL     1      -0.322  -0.875  -2.701  1.00  0.00    -0.267 OA
ENDBRANCH   3   6
TORSDOF 1
