REMARK  0 active torsions:
REMARK  status: ('A' for Active; 'I' for Inactive)
ROOT
HETATM    1  C1  UNL     1       4.524  -0.193   0.029  1.00  0.00     0.055 C 
HETATM    2  C2  UNL     1       3.238   0.478  -0.197  1.00  0.00     0.021 A 
HETATM    3  C3  UNL     1       2.050  -0.223   0.038  1.00  0.00    -0.035 A 
HETATM    4  C4  UNL     1       2.245  -1.664   0.190  1.00  0.00     0.050 C 
HETATM    5  C5  UNL     1       0.875   0.438  -0.161  1.00  0.00     0.035 A 
HETATM    6  C6  UNL     1       0.898   1.768  -0.607  1.00  0.00     0.164 A 
HETATM    7  N1  UNL     1      -0.365   2.186  -0.752  1.00  0.00    -0.335 N 
ATOM      8  H1  UNL     1      -0.654   3.111  -1.071  1.00  0.00     0.168 HD
HETATM    9  C7  UNL     1      -1.182   1.189  -0.408  1.00  0.00     0.053 A 
HETATM   10  C8  UNL     1      -2.564   1.144  -0.390  1.00  0.00    -0.016 A 
HETATM   11  C9  UNL     1      -3.333   2.340  -0.822  1.00  0.00     0.052 C 
HETATM   12  C10 UNL     1      -3.189   0.005   0.022  1.00  0.00     0.067 A 
HETATM   13  C11 UNL     1      -2.463  -1.081   0.421  1.00  0.00     0.058 A 
HETATM   14  C12 UNL     1      -1.049  -1.064   0.416  1.00  0.00    -0.021 A 
HETATM   15  C13 UNL     1      -0.456  -2.189   1.145  1.00  0.00     0.052 C 
HETATM   16  C14 UNL     1      -0.440   0.071  -0.016  1.00  0.00     0.014 A 
HETATM   17  N2  UNL     1      -3.650  -1.836   0.682  1.00  0.00    -0.321 N 
ATOM     18  H2  UNL     1      -3.857  -2.776   1.020  1.00  0.00     0.169 HD
HETATM   19  C15 UNL     1      -4.411  -0.722   0.272  1.00  0.00     0.259 A 
HETATM   20  O1  UNL     1      -5.665  -0.482   0.172  1.00  0.00    -0.267 OA
HETATM   21  O2  UNL     1       2.033   2.378  -0.817  1.00  0.00    -0.257 OA
HETATM   22  C16 UNL     1       3.172   1.787  -0.626  1.00  0.00     0.296 A 
HETATM   23  O3  UNL     1       4.227   2.439  -0.841  1.00  0.00    -0.259 OA
ENDROOT
TORSDOF 0
