REMARK  1 active torsions:
REMARK  status: ('A' for Active; 'I' for Inactive)
REMARK    1  A    between atoms: N1_1  and  C1_4 
ROOT
HETATM    1  C1  UNL     1       0.274   1.314  -0.359  1.00  0.00     0.077 A 
HETATM    2  C2  UNL     1      -1.070   0.894  -0.447  1.00  0.00     0.131 A 
HETATM    3  O1  UNL     1      -2.146   1.560  -0.792  1.00  0.00    -0.305 OA
HETATM    4  C3  UNL     1      -3.223   0.781  -0.741  1.00  0.00     0.088 A 
HETATM    5  C4  UNL     1      -4.558   0.996  -1.002  1.00  0.00     0.038 A 
HETATM    6  C5  UNL     1      -5.464  -0.026  -0.857  1.00  0.00     0.003 A 
HETATM    7  C6  UNL     1      -5.012  -1.257  -0.450  1.00  0.00     0.001 A 
HETATM    8  C7  UNL     1      -3.682  -1.471  -0.191  1.00  0.00     0.017 A 
HETATM    9  C8  UNL     1      -2.776  -0.461  -0.332  1.00  0.00     0.027 A 
HETATM   10  C9  UNL     1      -1.392  -0.392  -0.142  1.00  0.00     0.083 A 
HETATM   11  N2  UNL     1      -0.510  -1.315   0.245  1.00  0.00    -0.339 N 
ATOM     12  H2  UNL     1      -0.804  -2.267   0.462  1.00  0.00     0.167 HD
HETATM   13  C10 UNL     1       0.795  -0.942   0.340  1.00  0.00     0.120 A 
HETATM   14  N3  UNL     1       1.886  -1.632   0.694  1.00  0.00    -0.341 N 
ATOM     15  H3  UNL     1       1.899  -2.615   0.966  1.00  0.00     0.167 HD
HETATM   16  C11 UNL     1       2.961  -0.828   0.636  1.00  0.00     0.045 A 
HETATM   17  C12 UNL     1       4.300  -1.026   0.892  1.00  0.00     0.030 A 
HETATM   18  C13 UNL     1       5.243  -0.045   0.765  1.00  0.00     0.002 A 
HETATM   19  C14 UNL     1       4.846   1.204   0.361  1.00  0.00     0.001 A 
HETATM   20  C15 UNL     1       3.496   1.451   0.089  1.00  0.00     0.015 A 
HETATM   21  C16 UNL     1       2.568   0.448   0.225  1.00  0.00     0.007 A 
HETATM   22  C17 UNL     1       1.181   0.347   0.043  1.00  0.00     0.050 A 
ENDROOT
BRANCH   1  23
HETATM   23  N1  UNL     1       0.527   2.487  -0.644  1.00  0.00    -0.396 N 
ATOM     24  H12 UNL     1      -0.141   3.199  -0.940  1.00  0.00     0.156 HD
ATOM     25  H11 UNL     1       1.499   2.791  -0.580  1.00  0.00     0.156 HD
ENDBRANCH   1  23
TORSDOF 1
