REMARK  0 active torsions:
REMARK  status: ('A' for Active; 'I' for Inactive)
ROOT
HETATM    1  C1  UNL     1       2.112  -0.455  -0.486  1.00  0.00     0.011 C 
HETATM    2  C2  UNL     1       0.960  -0.011   0.419  1.00  0.00    -0.001 C 
HETATM    3  C3  UNL     1       0.310   1.167  -0.260  1.00  0.00     0.007 C 
HETATM    4  C4  UNL     1      -1.123   1.261   0.217  1.00  0.00     0.020 C 
HETATM    5  C5  UNL     1      -1.849   0.044  -0.290  1.00  0.00     0.113 C 
HETATM    6  N1  UNL     1      -1.128  -1.167  -0.168  1.00  0.00    -0.421 N 
ATOM      7  H1  UNL     1      -1.405  -2.015  -0.663  1.00  0.00     0.153 HD
HETATM    8  C6  UNL     1       0.013  -1.127   0.693  1.00  0.00     0.118 C 
ENDROOT
TORSDOF 0
