REMARK  0 active torsions:
REMARK  status: ('A' for Active; 'I' for Inactive)
ROOT
HETATM    1  C1  UNL     1       2.683   0.276  -0.109  1.00  0.00     0.124 C 
HETATM    2  N1  UNL     1       1.324   0.230  -0.252  1.00  0.00    -0.337 N 
HETATM    3  C2  UNL     1       0.609  -0.968   0.066  1.00  0.00     0.089 C 
HETATM    4  C3  UNL     1      -0.680  -1.295  -0.509  1.00  0.00    -0.009 C 
HETATM    5  C4  UNL     1      -1.993  -0.892   0.139  1.00  0.00     0.040 C 
HETATM    6  C5  UNL     1      -2.082   0.660   0.329  1.00  0.00     0.088 C 
HETATM    7  C6  UNL     1      -0.772   1.161   0.214  1.00  0.00    -0.125 C 
HETATM    8  C7  UNL     1       0.593   1.488   0.064  1.00  0.00     0.343 C 
HETATM    9  F1  UNL     1       0.946   2.335  -1.008  1.00  0.00    -0.213 F 
ENDROOT
TORSDOF 0
