REMARK  1 active torsions:
REMARK  status: ('A' for Active; 'I' for Inactive)
REMARK    1  A    between atoms: N1_1  and  C1_5 
ROOT
HETATM    1  C1  UNL     1       1.541   0.260   0.319  1.00  0.00     0.250 C 
HETATM    2  C2  UNL     1       0.683  -0.991   0.420  1.00  0.00     0.005 C 
HETATM    3  C3  UNL     1      -0.432  -1.262  -0.438  1.00  0.00    -0.028 C 
HETATM    4  C4  UNL     1      -1.863  -0.840  -0.089  1.00  0.00     0.038 C 
HETATM    5  C5  UNL     1      -1.970   0.715   0.080  1.00  0.00     0.086 C 
HETATM    6  C6  UNL     1      -0.655   1.175   0.275  1.00  0.00    -0.144 C 
HETATM    7  C7  UNL     1       0.681   1.565   0.458  1.00  0.00     0.270 C 
HETATM    8  F1  UNL     1       1.242   2.447  -0.489  1.00  0.00    -0.234 F 
ENDROOT
BRANCH   1   9
HETATM    9  N1  UNL     1       2.324   0.276  -0.865  1.00  0.00    -0.068 N 
ATOM     10  H13 UNL     1       2.891  -0.568  -0.945  1.00  0.00     0.275 HD
ATOM     11  H12 UNL     1       1.742   0.159  -1.695  1.00  0.00     0.275 HD
ATOM     12  H11 UNL     1       2.900   1.115  -0.933  1.00  0.00     0.275 HD
ENDBRANCH   1   9
TORSDOF 1
