REMARK  0 active torsions:
REMARK  status: ('A' for Active; 'I' for Inactive)
ROOT
HETATM    1  C1  UNL     1       0.505   1.360   0.234  1.00  0.00    -0.030 A 
HETATM    2  C2  UNL     1      -0.374   1.373   0.378  1.00  0.00    -0.030 A 
HETATM    3  C3  UNL     1      -1.535   0.677   0.402  1.00  0.00     0.026 A 
HETATM    4  C4  UNL     1      -0.764  -0.727  -0.077  1.00  0.00     0.004 A 
HETATM    5  C5  UNL     1       0.678  -0.767  -0.249  1.00  0.00     0.004 A 
HETATM    6  C6  UNL     1       1.603   0.629  -0.108  1.00  0.00     0.026 A 
ENDROOT
TORSDOF 0
