REMARK  1 active torsions:
REMARK  status: ('A' for Active; 'I' for Inactive)
REMARK    1  A    between atoms: O1_1  and  C1_3 
ROOT
HETATM    1  C1  UNL     1       1.151   0.386  -0.328  1.00  0.00     0.118 C 
HETATM    2  C2  UNL     1       0.705  -1.025  -0.042  1.00  0.00     0.032 C 
HETATM    3  C3  UNL     1      -0.803  -0.940  -0.286  1.00  0.00     0.002 C 
HETATM    4  C4  UNL     1      -1.098   0.296   0.577  1.00  0.00     0.002 C 
HETATM    5  C5  UNL     1      -0.031   1.246   0.043  1.00  0.00     0.032 C 
ENDROOT
BRANCH   1   6
HETATM    6  O1  UNL     1       2.240   0.776   0.441  1.00  0.00    -0.396 OA
ATOM      7  H1  UNL     1       2.521   1.665   0.261  1.00  0.00     0.210 HD
ENDBRANCH   1   6
TORSDOF 1
