REMARK  5 active torsions:
REMARK  status: ('A' for Active; 'I' for Inactive)
REMARK    1  A    between atoms: C4_8  and  C5_9 
REMARK    2  A    between atoms: C9_17  and  C10_18 
REMARK    3  A    between atoms: C11_19  and  C12_20 
REMARK    4  A    between atoms: C17_25  and  C18_26 
REMARK    5  A    between atoms: C19_27  and  C20_28 
ROOT
HETATM    1  C5  UNL     1      -3.750   0.978  -0.552  1.00  0.00     0.024 A 
HETATM    2  C6  UNL     1      -4.268   2.196  -0.974  1.00  0.00     0.104 A 
HETATM    3  N3  UNL     1      -3.349   2.918  -1.630  1.00  0.00    -0.349 N 
ATOM      4  H3  UNL     1      -3.487   3.844  -2.035  1.00  0.00     0.166 HD
HETATM    5  C7  UNL     1      -2.211   2.200  -1.657  1.00  0.00     0.133 A 
HETATM    6  N4  UNL     1      -0.976   2.421  -2.158  1.00  0.00    -0.348 N 
ATOM      7  H4  UNL     1      -0.775   3.292  -2.649  1.00  0.00     0.167 HD
HETATM    8  C8  UNL     1      -0.011   1.496  -2.012  1.00  0.00     0.128 A 
HETATM    9  C9  UNL     1      -0.203   0.300  -1.366  1.00  0.00     0.103 A 
HETATM   10  N8  UNL     1      -1.462   0.110  -0.873  1.00  0.00    -0.344 N 
ATOM     11  H8  UNL     1      -1.668  -0.760  -0.381  1.00  0.00     0.167 HD
HETATM   12  C22 UNL     1      -2.429   1.010  -1.007  1.00  0.00     0.090 A 
ENDROOT
BRANCH   9  13
HETATM   13  C10 UNL     1       0.807  -0.700  -1.172  1.00  0.00    -0.042 C 
HETATM   14  C11 UNL     1       1.650  -1.555  -0.970  1.00  0.00    -0.058 C 
BRANCH  14  15
HETATM   15  C12 UNL     1       2.632  -2.567  -0.692  1.00  0.00     0.036 A 
HETATM   16  C13 UNL     1       2.411  -3.896  -1.052  1.00  0.00     0.022 A 
HETATM   17  C14 UNL     1       3.334  -4.874  -0.753  1.00  0.00     0.002 A 
HETATM   18  C15 UNL     1       4.478  -4.499  -0.091  1.00  0.00     0.002 A 
HETATM   19  C16 UNL     1       4.698  -3.186   0.264  1.00  0.00     0.022 A 
HETATM   20  C17 UNL     1       3.777  -2.185  -0.030  1.00  0.00     0.036 A 
BRANCH  20  21
HETATM   21  C18 UNL     1       4.064  -0.824   0.330  1.00  0.00    -0.057 C 
HETATM   22  C19 UNL     1       4.329   0.335   0.609  1.00  0.00    -0.023 C 
BRANCH  22  23
HETATM   23  C20 UNL     1       4.661   1.701   0.899  1.00  0.00     0.177 A 
HETATM   24  N5  UNL     1       5.850   2.224   1.311  1.00  0.00    -0.329 N 
HETATM   25  C21 UNL     1       5.732   3.551   1.463  1.00  0.00     0.199 A 
ATOM     26  H5  UNL     1       6.701   1.687   1.478  1.00  0.00     0.168 HD
HETATM   27  N6  UNL     1       4.470   3.871   1.149  1.00  0.00    -0.294 N 
HETATM   28  N7  UNL     1       3.838   2.746   0.812  1.00  0.00    -0.277 N 
ATOM     29  H6  UNL     1       4.065   4.807   1.165  1.00  0.00     0.187 HD
ATOM     30  H7  UNL     1       2.860   2.693   0.527  1.00  0.00     0.189 HD
ENDBRANCH  22  23
ENDBRANCH  20  21
ENDBRANCH  14  15
ENDBRANCH   9  13
BRANCH   1  31
HETATM   31  C4  UNL     1      -4.403  -0.100   0.162  1.00  0.00     0.018 A 
HETATM   32  C2  UNL     1      -5.118  -0.036   1.326  1.00  0.00     0.034 A 
HETATM   33  C1  UNL     1      -5.340   1.198   2.141  1.00  0.00     0.070 C 
HETATM   34  N1  UNL     1      -5.590  -1.268   1.635  1.00  0.00    -0.305 N 
HETATM   35  N2  UNL     1      -5.168  -2.081   0.668  1.00  0.00    -0.311 N 
ATOM     36  H1  UNL     1      -6.155  -1.522   2.445  1.00  0.00     0.186 HD
HETATM   37  C3  UNL     1      -4.443  -1.411  -0.246  1.00  0.00     0.121 A 
ATOM     38  H2  UNL     1      -5.368  -3.080   0.626  1.00  0.00     0.186 HD
ENDBRANCH   1  31
TORSDOF 5
