REMARK  2 active torsions:
REMARK  status: ('A' for Active; 'I' for Inactive)
REMARK    1  A    between atoms: C5_8  and  N2_9 
REMARK    2  A    between atoms: N2_9  and  C6_11 
ROOT
HETATM    1  N2  UNL     1       0.796  -1.559   1.076  1.00  0.00    -0.339 N 
ATOM      2  H2  UNL     1       0.822  -2.556   1.288  1.00  0.00     0.167 HD
ENDROOT
BRANCH   1   3
HETATM    3  C5  UNL     1      -0.392  -0.877   1.403  1.00  0.00     0.034 A 
HETATM    4  C4  UNL     1      -0.561  -0.300   2.640  1.00  0.00     0.032 A 
HETATM    5  C3  UNL     1      -1.709   0.361   2.965  1.00  0.00     0.033 A 
HETATM    6  C2  UNL     1      -2.729   0.452   2.021  1.00  0.00     0.046 A 
HETATM    7  N1  UNL     1      -3.854   1.102   2.344  1.00  0.00    -0.322 N 
HETATM    8  C16 UNL     1      -2.554  -0.131   0.773  1.00  0.00     0.004 A 
HETATM    9  C1  UNL     1      -4.841   1.200   1.455  1.00  0.00     0.257 A 
ATOM     10  H1  UNL     1      -3.955   1.521   3.268  1.00  0.00     0.169 HD
HETATM   11  O1  UNL     1      -5.897   1.823   1.791  1.00  0.00    -0.267 OA
HETATM   12  C22 UNL     1      -4.741   0.648   0.200  1.00  0.00     0.043 A 
HETATM   13  C17 UNL     1      -3.578  -0.039  -0.173  1.00  0.00    -0.008 A 
HETATM   14  C21 UNL     1      -5.785   0.774  -0.685  1.00  0.00     0.018 A 
HETATM   15  C18 UNL     1      -3.489  -0.587  -1.431  1.00  0.00     0.013 A 
HETATM   16  C19 UNL     1      -4.534  -0.465  -2.327  1.00  0.00     0.001 A 
HETATM   17  C20 UNL     1      -5.677   0.217  -1.945  1.00  0.00     0.001 A 
HETATM   18  C15 UNL     1      -1.407  -0.797   0.435  1.00  0.00     0.044 A 
ENDBRANCH   1   3
BRANCH   1  19
HETATM   19  C6  UNL     1       1.842  -1.063   0.544  1.00  0.00     0.153 A 
HETATM   20  N3  UNL     1       2.890  -1.893   0.306  1.00  0.00    -0.337 N 
HETATM   21  C7  UNL     1       4.003  -1.394  -0.252  1.00  0.00     0.061 A 
ATOM     22  H3  UNL     1       2.832  -2.882   0.548  1.00  0.00     0.167 HD
HETATM   23  C8  UNL     1       5.074  -2.239  -0.497  1.00  0.00     0.032 A 
HETATM   24  C12 UNL     1       4.091  -0.036  -0.588  1.00  0.00     0.072 A 
HETATM   25  C9  UNL     1       6.198  -1.720  -1.064  1.00  0.00     0.002 A 
HETATM   26  C10 UNL     1       6.288  -0.395  -1.393  1.00  0.00     0.002 A 
HETATM   27  C11 UNL     1       5.229   0.467  -1.158  1.00  0.00     0.032 A 
HETATM   28  N4  UNL     1       3.043   0.778  -0.346  1.00  0.00    -0.242 N 
HETATM   29  C13 UNL     1       2.842   2.077  -0.552  1.00  0.00     0.347 A 
HETATM   30  C14 UNL     1       1.920   0.271   0.218  1.00  0.00     0.176 A 
HETATM   31  O2  UNL     1       3.564   2.967  -1.040  1.00  0.00    -0.245 OA
HETATM   32  N5  UNL     1       1.586   2.399  -0.118  1.00  0.00    -0.249 N 
HETATM   33  N6  UNL     1       1.052   1.285   0.344  1.00  0.00    -0.278 N 
ATOM     34  H5  UNL     1       1.148   3.320  -0.146  1.00  0.00     0.192 HD
ATOM     35  H6  UNL     1       0.115   1.206   0.740  1.00  0.00     0.189 HD
ENDBRANCH   1  19
TORSDOF 2
