REMARK  5 active torsions:
REMARK  status: ('A' for Active; 'I' for Inactive)
REMARK    1  A    between atoms: C6_8  and  N2_9 
REMARK    2  A    between atoms: N2_9  and  C7_11 
REMARK    3  A    between atoms: C7_11  and  O1_12 
REMARK    4  A    between atoms: N3_14  and  C8_16 
REMARK    5  A    between atoms: C9_19  and  C10_20 
ROOT
HETATM    1  C8  UNL     1      -1.441  -1.059  -0.287  1.00  0.00     0.685 A 
HETATM    2  N4  UNL     1      -2.700  -0.660  -0.428  1.00  0.00    -0.191 N 
ATOM      3  H4  UNL     1      -3.324  -0.746   0.374  1.00  0.00     0.184 HD
HETATM    4  C9  UNL     1      -3.201  -0.148  -1.571  1.00  0.00     0.062 A 
HETATM    5  C16 UNL     1      -2.383  -0.016  -2.686  1.00  0.00     0.048 A 
HETATM    6  C17 UNL     1      -1.077  -0.438  -2.513  1.00  0.00     0.108 A 
HETATM    7  N8  UNL     1      -0.614  -0.939  -1.367  1.00  0.00    -0.202 N 
ATOM      8  H8  UNL     1       0.360  -1.233  -1.297  1.00  0.00     0.183 HD
ENDROOT
BRANCH   1   9
HETATM    9  N3  UNL     1      -0.960  -1.569   0.828  1.00  0.00    -0.155 N 
HETATM   10  C7  UNL     1       0.298  -1.969   0.988  1.00  0.00     0.237 C 
ATOM     11  H3  UNL     1      -1.594  -1.663   1.621  1.00  0.00     0.188 HD
BRANCH  10  12
HETATM   12  N2  UNL     1       1.547  -2.363   1.135  1.00  0.00    -0.302 N 
ATOM     13  H2  UNL     1       1.703  -3.364   1.251  1.00  0.00     0.171 HD
BRANCH  12  14
HETATM   14  C6  UNL     1       2.598  -1.600   1.147  1.00  0.00     0.152 A 
HETATM   15  N1  UNL     1       3.873  -1.994   1.294  1.00  0.00    -0.335 N 
HETATM   16  C5  UNL     1       4.817  -1.080   1.289  1.00  0.00     0.051 A 
ATOM     17  H1  UNL     1       4.104  -2.981   1.407  1.00  0.00     0.168 HD
HETATM   18  C4  UNL     1       6.204  -1.332   1.433  1.00  0.00     0.031 A 
HETATM   19  C18 UNL     1       4.445   0.222   1.133  1.00  0.00     0.035 A 
HETATM   20  C3  UNL     1       7.073  -0.282   1.410  1.00  0.00     0.009 A 
HETATM   21  C2  UNL     1       6.730   1.019   1.257  1.00  0.00    -0.061 A 
HETATM   22  C1  UNL     1       7.726   2.110   1.238  1.00  0.00     0.048 C 
HETATM   23  C19 UNL     1       5.372   1.276   1.114  1.00  0.00     0.028 A 
HETATM   24  S1  UNL     1       2.747   0.096   0.998  1.00  0.00    -0.052 SA
ENDBRANCH  12  14
ENDBRANCH  10  12
BRANCH  10  25
HETATM   25  O1  UNL     1       0.042  -2.169   2.562  1.00  0.00    -0.332 OA
ATOM     26  H1  UNL     1      -0.858  -1.885   2.456  1.00  0.00     0.221 HD
ENDBRANCH  10  25
ENDBRANCH   1   9
BRANCH   4  27
HETATM   27  C10 UNL     1      -4.588   0.301  -1.650  1.00  0.00     0.009 A 
HETATM   28  C11 UNL     1      -5.154   0.783  -2.787  1.00  0.00     0.102 A 
HETATM   29  N5  UNL     1      -6.460   1.199  -2.751  1.00  0.00    -0.362 N 
HETATM   30  C12 UNL     1      -7.160   1.130  -1.614  1.00  0.00     0.077 A 
ATOM     31  H5  UNL     1      -6.900   1.563  -3.596  1.00  0.00     0.165 HD
HETATM   32  C13 UNL     1      -8.472   1.470  -1.264  1.00  0.00     0.139 A 
HETATM   33  C14 UNL     1      -6.603   0.641  -0.440  1.00  0.00     0.077 A 
HETATM   34  N6  UNL     1      -8.642   1.184   0.053  1.00  0.00    -0.309 N 
HETATM   35  N7  UNL     1      -7.536   0.696   0.529  1.00  0.00    -0.299 N 
ATOM     36  H6  UNL     1      -9.501   1.329   0.584  1.00  0.00     0.186 HD
ATOM     37  H7  UNL     1      -7.395   0.398   1.494  1.00  0.00     0.187 HD
HETATM   38  C15 UNL     1      -5.309   0.222  -0.450  1.00  0.00     0.048 A 
ENDBRANCH   4  27
TORSDOF 5
