REMARK  3 active torsions:
REMARK  status: ('A' for Active; 'I' for Inactive)
REMARK       I    between atoms: C1_2  and  N1_3 
REMARK       I    between atoms: C1_2  and  N3_16 
REMARK    1  A    between atoms: N1_3  and  C2_5 
REMARK    2  A    between atoms: N3_16  and  C11_18 
REMARK    3  A    between atoms: C14_23  and  C15_24 
ROOT
HETATM    1  C11 UNL     1      -0.094  -0.074  -1.654  1.00  0.00     0.234 A 
HETATM    2  N4  UNL     1       0.572  -1.136  -2.118  1.00  0.00    -0.318 N 
ATOM      3  H4  UNL     1       0.207  -1.865  -2.731  1.00  0.00     0.169 HD
HETATM    4  C12 UNL     1       1.814  -1.055  -1.620  1.00  0.00     0.090 A 
HETATM    5  C13 UNL     1       2.964  -1.839  -1.726  1.00  0.00     0.066 A 
HETATM    6  C14 UNL     1       4.110  -1.481  -1.081  1.00  0.00     0.060 A 
HETATM    7  N5  UNL     1       4.086  -0.342  -0.338  1.00  0.00    -0.298 N 
ATOM      8  H5  UNL     1       4.937  -0.063   0.150  1.00  0.00     0.187 HD
HETATM    9  N6  UNL     1       3.028   0.410  -0.219  1.00  0.00    -0.277 N 
ATOM     10  H6  UNL     1       3.065   1.254   0.352  1.00  0.00     0.189 HD
HETATM   11  C21 UNL     1       1.895   0.077  -0.844  1.00  0.00     0.193 A 
HETATM   12  O2  UNL     1       0.700   0.636  -0.901  1.00  0.00    -0.258 OA
ENDROOT
BRANCH   1  13
HETATM   13  N3  UNL     1      -1.328   0.177  -1.930  1.00  0.00    -0.274 N 
HETATM   14  C1  UNL     1      -1.941   1.335  -1.386  1.00  0.00     0.328 C 
HETATM   15  O1  UNL     1      -2.665   2.045  -2.172  1.00  0.00    -0.247 OA
HETATM   16  N1  UNL     1      -1.806   1.756  -0.038  1.00  0.00    -0.294 N 
ATOM     17  H1  UNL     1      -0.870   1.961   0.312  1.00  0.00     0.172 HD
ATOM     18  H3  UNL     1      -1.859  -0.451  -2.534  1.00  0.00     0.174 HD
BRANCH  16  19
HETATM   19  C2  UNL     1      -2.812   1.895   0.777  1.00  0.00     0.109 A 
HETATM   20  C3  UNL     1      -2.553   2.315   2.077  1.00  0.00     0.049 A 
HETATM   21  C4  UNL     1      -3.585   2.481   2.977  1.00  0.00     0.017 A 
HETATM   22  C5  UNL     1      -4.887   2.232   2.600  1.00  0.00    -0.009 A 
HETATM   23  C6  UNL     1      -5.967   2.384   3.465  1.00  0.00     0.013 A 
HETATM   24  C10 UNL     1      -5.125   1.817   1.310  1.00  0.00     0.043 A 
HETATM   25  C7  UNL     1      -7.268   2.132   3.071  1.00  0.00     0.001 A 
HETATM   26  C8  UNL     1      -7.501   1.715   1.772  1.00  0.00     0.002 A 
HETATM   27  C9  UNL     1      -6.424   1.566   0.917  1.00  0.00     0.030 A 
HETATM   28  N2  UNL     1      -4.088   1.662   0.441  1.00  0.00    -0.342 N 
ATOM     29  H2  UNL     1      -4.292   1.354  -0.510  1.00  0.00     0.167 HD
ENDBRANCH  16  19
ENDBRANCH   1  13
BRANCH   6  30
HETATM   30  C15 UNL     1       5.318  -2.274  -1.175  1.00  0.00    -0.008 A 
HETATM   31  C16 UNL     1       5.421  -3.444  -1.885  1.00  0.00     0.014 A 
HETATM   32  C17 UNL     1       6.611  -4.180  -1.957  1.00  0.00     0.001 A 
HETATM   33  C18 UNL     1       7.733  -3.732  -1.297  1.00  0.00     0.000 A 
HETATM   34  C19 UNL     1       7.637  -2.562  -0.583  1.00  0.00     0.001 A 
HETATM   35  C20 UNL     1       6.469  -1.835  -0.510  1.00  0.00     0.014 A 
ENDBRANCH   6  30
TORSDOF 3
