REMARK  6 active torsions:
REMARK  status: ('A' for Active; 'I' for Inactive)
REMARK    1  A    between atoms: N1_2  and  C3_4 
REMARK    2  A    between atoms: N1_2  and  C11_14 
REMARK    3  A    between atoms: C3_4  and  C4_5 
REMARK    4  A    between atoms: C4_5  and  C5_6 
REMARK    5  A    between atoms: C5_6  and  N2_7 
REMARK    6  A    between atoms: N2_7  and  C6_9 
ROOT
HETATM    1  C3  UNL     1       0.494  -0.464  -0.087  1.00  0.00     0.238 C 
ENDROOT
BRANCH   1   2
HETATM    2  N1  UNL     1       1.438   0.608   0.120  1.00  0.00    -0.070 N 
HETATM    3  C1  UNL     1       1.468   0.900   1.543  1.00  0.00     0.272 C 
HETATM    4  C2  UNL     1       0.961   1.757  -0.603  1.00  0.00     0.272 C 
BRANCH   2   5
HETATM    5  C11 UNL     1       2.720   0.229  -0.389  1.00  0.00     0.189 C 
HETATM    6  C12 UNL     1       3.454  -0.765   0.483  1.00  0.00     0.033 C 
HETATM    7  C13 UNL     1       4.498  -1.417  -0.434  1.00  0.00     0.002 C 
HETATM    8  C14 UNL     1       5.448  -0.370  -0.950  1.00  0.00     0.000 C 
HETATM    9  C15 UNL     1       5.102   1.000  -0.469  1.00  0.00     0.002 C 
HETATM   10  C16 UNL     1       3.646   1.365  -0.656  1.00  0.00     0.033 C 
ENDBRANCH   2   5
ENDBRANCH   1   2
BRANCH   1  11
HETATM   11  C4  UNL     1      -0.813  -0.265   0.628  1.00  0.00     0.047 C 
BRANCH  11  12
HETATM   12  C5  UNL     1      -1.688  -1.463   0.315  1.00  0.00     0.115 C 
BRANCH  12  13
HETATM   13  N2  UNL     1      -2.970  -1.451   0.909  1.00  0.00    -0.417 N 
ATOM     14  H2  UNL     1      -3.224  -2.116   1.639  1.00  0.00     0.153 HD
BRANCH  13  15
HETATM   15  C6  UNL     1      -3.885  -0.478   0.448  1.00  0.00     0.076 C 
HETATM   16  C7  UNL     1      -4.263  -0.591  -1.003  1.00  0.00     0.024 C 
HETATM   17  C8  UNL     1      -5.476   0.351  -1.054  1.00  0.00     0.002 C 
HETATM   18  C9  UNL     1      -6.123   0.238   0.299  1.00  0.00     0.002 C 
HETATM   19  C10 UNL     1      -5.260  -0.693   1.098  1.00  0.00     0.024 C 
ENDBRANCH  13  15
ENDBRANCH  12  13
ENDBRANCH  11  12
ENDBRANCH   1  11
TORSDOF 6
