REMARK  6 active torsions:
REMARK  status: ('A' for Active; 'I' for Inactive)
REMARK    1  A    between atoms: C3_5  and  O1_6 
REMARK    2  A    between atoms: O1_6  and  C4_7 
REMARK    3  A    between atoms: C4_7  and  C5_8 
REMARK    4  A    between atoms: C5_8  and  C6_9 
REMARK    5  A    between atoms: C13_16  and  C14_17 
REMARK    6  A    between atoms: C14_17  and  C15_18 
ROOT
HETATM    1  C1  UNL     1       2.952  -2.784   0.263  1.00  0.00     0.097 A 
HETATM    2  N1  UNL     1       1.737  -3.017   0.754  1.00  0.00    -0.372 N 
ATOM      3  H1  UNL     1       1.437  -3.899   1.169  1.00  0.00     0.164 HD
HETATM    4  C2  UNL     1       0.966  -1.935   0.627  1.00  0.00     0.124 A 
HETATM    5  C3  UNL     1       1.718  -0.964   0.027  1.00  0.00     0.091 A 
HETATM    6  C13 UNL     1       2.976  -1.475  -0.212  1.00  0.00    -0.008 A 
ENDROOT
BRANCH   5   7
HETATM    7  O1  UNL     1       1.277   0.294  -0.277  1.00  0.00    -0.349 OA
BRANCH   7   8
HETATM    8  C4  UNL     1       0.065   0.906  -0.104  1.00  0.00     0.176 C 
BRANCH   8   9
HETATM    9  C5  UNL     1      -1.095   0.284  -0.854  1.00  0.00     0.032 C 
BRANCH   9  10
HETATM   10  C6  UNL     1      -2.303   1.103  -0.510  1.00  0.00    -0.008 C 
HETATM   11  C7  UNL     1      -2.616   1.119   0.971  1.00  0.00     0.010 C 
HETATM   12  C8  UNL     1      -4.118   1.013   1.072  1.00  0.00    -0.014 C 
HETATM   13  C9  UNL     1      -4.484  -0.424   0.876  1.00  0.00     0.005 C 
HETATM   14  C12 UNL     1      -4.538   1.575  -0.300  1.00  0.00     0.009 C 
HETATM   15  C10 UNL     1      -3.991  -0.669  -0.557  1.00  0.00     0.005 C 
HETATM   16  C11 UNL     1      -3.589   0.657  -1.106  1.00  0.00    -0.010 C 
ENDBRANCH   9  10
ENDBRANCH   8   9
ENDBRANCH   7   8
ENDBRANCH   5   7
BRANCH   6  17
HETATM   17  C14 UNL     1       4.192  -0.888  -0.792  1.00  0.00     0.047 C 
BRANCH  17  18
HETATM   18  C15 UNL     1       4.996  -0.119   0.183  1.00  0.00    -0.010 A 
HETATM   19  C16 UNL     1       4.445   1.062   0.867  1.00  0.00     0.005 A 
HETATM   20  C17 UNL     1       5.645   1.179  -0.104  1.00  0.00     0.005 A 
ENDBRANCH  17  18
ENDBRANCH   6  17
TORSDOF 6
