REMARK  6 active torsions:
REMARK  status: ('A' for Active; 'I' for Inactive)
REMARK    1  A    between atoms: C2_2  and  C3_3 
REMARK    2  A    between atoms: C3_3  and  C4_4 
REMARK    3  A    between atoms: C4_4  and  C6_6 
REMARK    4  A    between atoms: C6_6  and  C8_8 
REMARK    5  A    between atoms: C16_16  and  C17_17 
REMARK    6  A    between atoms: C17_17  and  N1_18 
ROOT
HETATM    1  C8  UNL     1      -0.295  -0.731  -0.505  1.00  0.00    -0.004 C 
HETATM    2  C9  UNL     1      -0.969   0.498  -1.139  1.00  0.00     0.011 C 
HETATM    3  C10 UNL     1      -2.389   0.566  -0.664  1.00  0.00    -0.005 C 
HETATM    4  C11 UNL     1      -2.714   1.928  -0.103  1.00  0.00    -0.006 A 
HETATM    5  C12 UNL     1      -3.758   2.184   0.883  1.00  0.00     0.010 A 
HETATM    6  C13 UNL     1      -2.386   1.865   1.347  1.00  0.00    -0.009 A 
HETATM    7  C14 UNL     1      -2.144   0.400   1.694  1.00  0.00     0.010 C 
HETATM    8  C15 UNL     1      -2.451  -0.358   0.487  1.00  0.00    -0.004 C 
HETATM    9  C16 UNL     1      -1.413  -1.418   0.069  1.00  0.00     0.020 C 
ENDROOT
BRANCH   1  10
HETATM   10  C6  UNL     1       0.947  -0.352   0.193  1.00  0.00    -0.010 C 
HETATM   11  C7  UNL     1       1.630  -1.501   0.860  1.00  0.00     0.011 C 
BRANCH  10  12
HETATM   12  C4  UNL     1       1.950   0.297  -0.765  1.00  0.00    -0.011 C 
HETATM   13  C5  UNL     1       2.320  -0.551  -1.925  1.00  0.00     0.010 C 
BRANCH  12  14
HETATM   14  C3  UNL     1       3.120   0.792   0.031  1.00  0.00     0.031 C 
BRANCH  14  15
HETATM   15  C2  UNL     1       4.012   1.655  -0.830  1.00  0.00    -0.037 C 
HETATM   16  C1  UNL     1       4.228   2.913  -0.520  1.00  0.00     0.007 C 
ENDBRANCH  14  15
ENDBRANCH  12  14
ENDBRANCH  10  12
ENDBRANCH   1  10
BRANCH   9  17
HETATM   17  C17 UNL     1      -1.399  -2.584   0.938  1.00  0.00     0.234 C 
BRANCH  17  18
HETATM   18  N1  UNL     1      -0.780  -3.751   0.287  1.00  0.00    -0.079 N 
ATOM     19  H13 UNL     1      -1.230  -3.959  -0.604  1.00  0.00     0.274 HD
ATOM     20  H12 UNL     1       0.156  -3.532  -0.053  1.00  0.00     0.274 HD
ATOM     21  H11 UNL     1      -0.770  -4.569   0.896  1.00  0.00     0.274 HD
ENDBRANCH  17  18
ENDBRANCH   9  17
TORSDOF 6
