REMARK  12 active torsions:
REMARK  status: ('A' for Active; 'I' for Inactive)
REMARK    1  A    between atoms: C2_2  and  C3_3 
REMARK    2  A    between atoms: C3_3  and  C4_4 
REMARK    3  A    between atoms: C4_4  and  C5_5 
REMARK    4  A    between atoms: C5_5  and  C6_6 
REMARK    5  A    between atoms: C6_6  and  C7_7 
REMARK    6  A    between atoms: C7_7  and  C8_8 
REMARK    7  A    between atoms: C8_8  and  N1_9 
REMARK    8  A    between atoms: C13_14  and  N2_15 
REMARK       I    between atoms: N2_15  and  C14_17 
REMARK       I    between atoms: C14_17  and  N3_19 
REMARK    9  A    between atoms: C24_31  and  N5_32 
REMARK   10  A    between atoms: N5_32  and  C26_34 
REMARK   11  A    between atoms: C26_34  and  N6_36 
REMARK   12  A    between atoms: N6_36  and  C27_38 
ROOT
HETATM    1  N1  UNL     1       2.134   0.373  -0.321  1.00  0.00    -0.002 N 
HETATM    2  C9  UNL     1       2.789   0.395   0.971  1.00  0.00     0.283 C 
HETATM    3  C10 UNL     1       1.504  -0.933  -0.392  1.00  0.00     0.272 C 
HETATM    4  C11 UNL     1       0.101  -0.667  -0.754  1.00  0.00     0.105 C 
HETATM    5  C12 UNL     1      -0.952  -1.716  -0.742  1.00  0.00     0.051 C 
HETATM    6  C13 UNL     1      -2.205  -0.890  -1.098  1.00  0.00     0.088 C 
HETATM    7  C21 UNL     1      -2.096   0.598  -0.703  1.00  0.00     0.037 C 
HETATM    8  C22 UNL     1      -1.163   1.430  -1.409  1.00  0.00     0.061 C 
HETATM    9  C23 UNL     1      -0.711   0.622  -2.662  1.00  0.00     0.125 C 
HETATM   10  N4  UNL     1       0.179  -0.272  -2.089  1.00  0.00    -0.415 N 
ATOM     11  H4  UNL     1       0.924  -0.658  -2.669  1.00  0.00     0.153 HD
HETATM   12  C24 UNL     1       0.031   2.107  -0.942  1.00  0.00     0.095 C 
HETATM   13  C29 UNL     1       1.271   1.517  -0.499  1.00  0.00     0.364 C 
HETATM   14  O2  UNL     1       1.954   2.464  -0.041  1.00  0.00    -0.258 OA
ENDROOT
BRANCH   6  15
HETATM   15  N2  UNL     1      -3.252  -1.428  -0.251  1.00  0.00    -0.338 N 
HETATM   16  C14 UNL     1      -4.412  -2.058  -0.755  1.00  0.00     0.318 C 
HETATM   17  O1  UNL     1      -4.493  -2.132  -2.022  1.00  0.00    -0.247 OA
HETATM   18  N3  UNL     1      -5.453  -2.595   0.008  1.00  0.00    -0.334 N 
HETATM   19  C15 UNL     1      -5.443  -2.554   1.453  1.00  0.00     0.127 C 
HETATM   20  C20 UNL     1      -6.556  -3.203  -0.754  1.00  0.00     0.127 C 
HETATM   21  C16 UNL     1      -6.463  -1.518   1.929  1.00  0.00     0.020 C 
HETATM   22  C17 UNL     1      -6.911  -0.611   0.831  1.00  0.00     0.002 C 
HETATM   23  C18 UNL     1      -7.905  -1.195  -0.112  1.00  0.00     0.002 C 
HETATM   24  C19 UNL     1      -7.876  -2.694  -0.214  1.00  0.00     0.020 C 
ATOM     25  H2  UNL     1      -3.146  -1.348   0.760  1.00  0.00     0.164 HD
ENDBRANCH   6  15
BRANCH  12  26
HETATM   26  N5  UNL     1      -0.309   3.426  -0.372  1.00  0.00    -0.327 N 
HETATM   27  C25 UNL     1      -0.586   4.493  -1.375  1.00  0.00     0.159 C 
BRANCH  26  28
HETATM   28  C26 UNL     1      -0.441   3.739   0.962  1.00  0.00     0.173 C 
HETATM   29  S1  UNL     1      -0.274   2.425   2.016  1.00  0.00    -0.041 SA
BRANCH  28  30
HETATM   30  N6  UNL     1      -0.736   4.909   1.610  1.00  0.00    -0.367 N 
ATOM     31  H6  UNL     1      -0.735   4.812   2.625  1.00  0.00     0.161 HD
BRANCH  30  32
HETATM   32  C27 UNL     1      -1.043   6.229   1.181  1.00  0.00     0.117 C 
HETATM   33  C28 UNL     1      -2.395   6.431   0.556  1.00  0.00     0.026 C 
ENDBRANCH  30  32
ENDBRANCH  28  30
ENDBRANCH  26  28
ENDBRANCH  12  26
BRANCH   1  34
HETATM   34  C8  UNL     1       3.088   0.414  -1.410  1.00  0.00     0.247 C 
BRANCH  34  35
HETATM   35  C7  UNL     1       4.455  -0.086  -1.181  1.00  0.00     0.029 C 
BRANCH  35  36
HETATM   36  C6  UNL     1       4.579  -1.538  -0.818  1.00  0.00     0.002 C 
BRANCH  36  37
HETATM   37  C5  UNL     1       5.967  -2.028  -0.574  1.00  0.00     0.000 C 
BRANCH  37  38
HETATM   38  C4  UNL     1       6.592  -1.300   0.570  1.00  0.00     0.000 C 
BRANCH  38  39
HETATM   39  C3  UNL     1       8.006  -1.761   0.871  1.00  0.00    -0.000 C 
BRANCH  39  40
HETATM   40  C2  UNL     1       7.977  -3.212   1.217  1.00  0.00    -0.005 C 
HETATM   41  C1  UNL     1       9.419  -3.618   1.521  1.00  0.00     0.005 C 
ENDBRANCH  39  40
ENDBRANCH  38  39
ENDBRANCH  37  38
ENDBRANCH  36  37
ENDBRANCH  35  36
ENDBRANCH  34  35
ENDBRANCH   1  34
TORSDOF 12
