REMARK  12 active torsions:
REMARK  status: ('A' for Active; 'I' for Inactive)
REMARK    1  A    between atoms: C2_2  and  C3_3 
REMARK    2  A    between atoms: C3_3  and  C4_4 
REMARK       I    between atoms: C4_4  and  N1_6 
REMARK    3  A    between atoms: N2_9  and  C7_10 
REMARK    4  A    between atoms: C7_10  and  O2_11 
REMARK    5  A    between atoms: C7_10  and  C8_13 
REMARK    6  A    between atoms: C8_13  and  C9_14 
REMARK    7  A    between atoms: C8_13  and  N5_26 
REMARK    8  A    between atoms: C9_14  and  C10_15 
REMARK       I    between atoms: N5_26  and  C18_28 
REMARK       I    between atoms: C18_28  and  N6_30 
REMARK    9  A    between atoms: N6_30  and  C19_32 
REMARK   10  A    between atoms: C19_32  and  C20_33 
REMARK   11  A    between atoms: C23_36  and  C24_37 
REMARK   12  A    between atoms: C24_37  and  C26_39 
ROOT
HETATM    1  C8  UNL     1       1.733   0.037   0.236  1.00  0.00     0.165 C 
ENDROOT
BRANCH   1   2
HETATM    2  C7  UNL     1       2.410   1.329   0.101  1.00  0.00     0.137 C 
BRANCH   2   3
HETATM    3  N2  UNL     1       3.739   1.667  -0.191  1.00  0.00    -0.361 N 
HETATM    4  C6  UNL     1       4.059   3.119  -0.196  1.00  0.00     0.144 C 
HETATM    5  C5  UNL     1       4.969   3.469  -1.354  1.00  0.00     0.145 C 
HETATM    6  N1  UNL     1       6.182   2.669  -1.115  1.00  0.00    -0.349 N 
HETATM    7  C4  UNL     1       7.427   3.289  -0.875  1.00  0.00     0.219 C 
HETATM    8  C31 UNL     1       6.007   1.257  -1.141  1.00  0.00     0.145 C 
HETATM    9  O1  UNL     1       7.485   4.543  -0.867  1.00  0.00    -0.273 OA
HETATM   10  C30 UNL     1       4.780   0.715  -0.497  1.00  0.00     0.144 C 
BRANCH   7  11
HETATM   11  C3  UNL     1       8.653   2.507  -0.636  1.00  0.00     0.103 C 
BRANCH  11  12
HETATM   12  C2  UNL     1       9.818   3.469  -0.366  1.00  0.00     0.005 C 
HETATM   13  C1  UNL     1      11.095   2.713  -0.113  1.00  0.00     0.005 C 
ENDBRANCH  11  12
ENDBRANCH   7  11
ENDBRANCH   2   3
BRANCH   2  14
HETATM   14  O2  UNL     1       1.630   2.354   0.285  1.00  0.00    -0.348 OA
ATOM     15  H2  UNL     1       0.729   2.125   0.483  1.00  0.00     0.219 HD
ENDBRANCH   2  14
ENDBRANCH   1   2
BRANCH   1  16
HETATM   16  C9  UNL     1       2.207  -0.711   1.487  1.00  0.00     0.076 C 
BRANCH  16  17
HETATM   17  C10 UNL     1       1.523  -1.979   1.722  1.00  0.00    -0.011 A 
HETATM   18  C11 UNL     1       0.349  -2.096   2.516  1.00  0.00     0.098 A 
HETATM   19  N3  UNL     1      -0.094  -3.346   2.504  1.00  0.00    -0.363 N 
HETATM   20  C12 UNL     1       0.719  -4.092   1.741  1.00  0.00     0.059 A 
ATOM     21  H3  UNL     1      -0.920  -3.686   2.996  1.00  0.00     0.165 HD
HETATM   22  C13 UNL     1       0.709  -5.434   1.413  1.00  0.00     0.033 A 
HETATM   23  C17 UNL     1       1.730  -3.248   1.251  1.00  0.00     0.068 A 
HETATM   24  C14 UNL     1       1.688  -5.942   0.611  1.00  0.00     0.020 A 
HETATM   25  C15 UNL     1       2.651  -5.076   0.162  1.00  0.00     0.091 A 
HETATM   26  N4  UNL     1       2.690  -3.770   0.461  1.00  0.00    -0.359 N 
HETATM   27  C16 UNL     1       3.749  -2.911  -0.009  1.00  0.00     0.156 C 
ENDBRANCH  16  17
ENDBRANCH   1  16
BRANCH   1  28
HETATM   28  N5  UNL     1       0.303   0.290   0.423  1.00  0.00    -0.331 N 
HETATM   29  C18 UNL     1      -0.678  -0.254  -0.443  1.00  0.00     0.316 C 
HETATM   30  O3  UNL     1      -0.308  -0.983  -1.393  1.00  0.00    -0.247 OA
HETATM   31  N6  UNL     1      -2.061  -0.004  -0.276  1.00  0.00    -0.343 N 
ATOM     32  H6  UNL     1      -2.345   0.592   0.501  1.00  0.00     0.164 HD
ATOM     33  H5  UNL     1       0.003   0.877   1.202  1.00  0.00     0.165 HD
BRANCH  31  34
HETATM   34  C19 UNL     1      -3.094  -0.533  -1.127  1.00  0.00     0.129 C 
BRANCH  34  35
HETATM   35  C20 UNL     1      -4.465  -0.094  -0.732  1.00  0.00     0.003 C 
HETATM   36  C21 UNL     1      -4.896  -0.473   0.642  1.00  0.00     0.006 C 
HETATM   37  C22 UNL     1      -6.359  -0.465   0.888  1.00  0.00     0.005 C 
HETATM   38  C23 UNL     1      -7.277  -0.296  -0.254  1.00  0.00    -0.011 C 
HETATM   39  C28 UNL     1      -6.702   0.193  -1.537  1.00  0.00     0.005 C 
HETATM   40  C29 UNL     1      -5.442  -0.601  -1.797  1.00  0.00     0.006 C 
BRANCH  38  41
HETATM   41  C24 UNL     1      -8.432   0.656   0.112  1.00  0.00    -0.015 C 
HETATM   42  C25 UNL     1      -9.361   0.807  -1.083  1.00  0.00     0.010 C 
BRANCH  41  43
HETATM   43  C26 UNL     1      -9.230   0.112   1.262  1.00  0.00     0.000 C 
HETATM   44  C27 UNL     1     -10.365   0.996   1.666  1.00  0.00     0.005 C 
ENDBRANCH  41  43
ENDBRANCH  38  41
ENDBRANCH  34  35
ENDBRANCH  31  34
ENDBRANCH   1  28
TORSDOF 12
