REMARK  11 active torsions:
REMARK  status: ('A' for Active; 'I' for Inactive)
REMARK    1  A    between atoms: C2_2  and  C3_3 
REMARK    2  A    between atoms: C3_3  and  C4_4 
REMARK    3  A    between atoms: C4_4  and  N1_5 
REMARK    4  A    between atoms: N1_5  and  C5_6 
REMARK       I    between atoms: N1_5  and  C24_35 
REMARK    5  A    between atoms: C6_7  and  O1_8 
REMARK    6  A    between atoms: C6_7  and  N2_10 
REMARK    7  A    between atoms: N2_10  and  C8_12 
REMARK       I    between atoms: N3_20  and  C16_21 
REMARK       I    between atoms: C16_21  and  N4_23 
REMARK    8  A    between atoms: N4_23  and  C17_25 
REMARK    9  A    between atoms: C17_25  and  C18_26 
REMARK       I    between atoms: C24_35  and  N6_37 
REMARK   10  A    between atoms: N6_37  and  C25_39 
REMARK   11  A    between atoms: C25_39  and  C26_40 
ROOT
HETATM    1  C8  UNL     1       0.724  -1.603   0.476  1.00  0.00     0.036 A 
HETATM    2  C9  UNL     1       1.093  -1.228  -0.780  1.00  0.00     0.032 A 
HETATM    3  C10 UNL     1       2.418  -1.397  -1.220  1.00  0.00     0.032 A 
HETATM    4  C11 UNL     1       3.349  -1.945  -0.370  1.00  0.00     0.045 A 
HETATM    5  C12 UNL     1       2.973  -2.330   0.915  1.00  0.00    -0.027 A 
HETATM    6  C13 UNL     1       1.646  -2.150   1.323  1.00  0.00     0.039 A 
HETATM    7  C14 UNL     1       4.183  -2.900   1.564  1.00  0.00     0.061 C 
HETATM    8  C15 UNL     1       4.955  -3.394   0.329  1.00  0.00     0.138 C 
HETATM    9  N3  UNL     1       4.741  -2.212  -0.534  1.00  0.00    -0.299 N 
HETATM   10  C16 UNL     1       5.699  -1.511  -1.287  1.00  0.00     0.322 C 
HETATM   11  O2  UNL     1       6.854  -2.038  -1.355  1.00  0.00    -0.247 OA
HETATM   12  N4  UNL     1       5.508  -0.293  -1.965  1.00  0.00    -0.342 N 
ATOM     13  H4  UNL     1       4.583   0.134  -1.916  1.00  0.00     0.164 HD
ENDROOT
BRANCH   1  14
HETATM   14  N2  UNL     1      -0.669  -1.390   0.875  1.00  0.00    -0.331 N 
HETATM   15  C7  UNL     1      -1.393  -2.591   1.136  1.00  0.00     0.158 C 
BRANCH  14  16
HETATM   16  C6  UNL     1      -1.144  -0.078   0.971  1.00  0.00     0.158 C 
HETATM   17  C5  UNL     1      -2.425   0.492   1.304  1.00  0.00     0.151 C 
BRANCH  17  18
HETATM   18  N1  UNL     1      -3.547  -0.304   1.614  1.00  0.00    -0.306 N 
HETATM   19  C24 UNL     1      -4.417  -0.727   0.525  1.00  0.00     0.322 C 
HETATM   20  O3  UNL     1      -5.424  -1.368   0.865  1.00  0.00    -0.247 OA
HETATM   21  N6  UNL     1      -4.123  -0.426  -0.797  1.00  0.00    -0.342 N 
ATOM     22  H6  UNL     1      -3.248   0.086  -0.913  1.00  0.00     0.164 HD
BRANCH  18  23
HETATM   23  C4  UNL     1      -3.922  -0.713   2.925  1.00  0.00     0.133 C 
BRANCH  23  24
HETATM   24  C3  UNL     1      -4.857   0.145   3.677  1.00  0.00     0.020 C 
BRANCH  24  25
HETATM   25  C2  UNL     1      -4.452   1.514   4.054  1.00  0.00    -0.003 C 
HETATM   26  C1  UNL     1      -3.263   1.582   5.006  1.00  0.00     0.005 C 
ENDBRANCH  24  25
ENDBRANCH  23  24
ENDBRANCH  18  23
BRANCH  21  27
HETATM   27  C25 UNL     1      -4.790  -0.685  -2.016  1.00  0.00     0.129 C 
BRANCH  27  28
HETATM   28  C26 UNL     1      -6.093  -0.056  -2.305  1.00  0.00     0.003 C 
HETATM   29  C27 UNL     1      -6.007   1.466  -2.268  1.00  0.00     0.006 C 
HETATM   30  C28 UNL     1      -7.378   2.046  -1.938  1.00  0.00     0.000 C 
HETATM   31  C29 UNL     1      -8.473   1.270  -2.601  1.00  0.00     0.000 C 
HETATM   32  C30 UNL     1      -8.520  -0.183  -2.272  1.00  0.00     0.000 C 
HETATM   33  C31 UNL     1      -7.223  -0.502  -1.459  1.00  0.00     0.006 C 
ENDBRANCH  27  28
ENDBRANCH  21  27
ENDBRANCH  17  18
BRANCH  16  34
HETATM   34  O1  UNL     1      -0.239   0.847   0.702  1.00  0.00    -0.345 OA
ATOM     35  H1  UNL     1       0.605   0.471   0.482  1.00  0.00     0.219 HD
ENDBRANCH  16  34
ENDBRANCH  14  16
ENDBRANCH   1  14
BRANCH  12  36
HETATM   36  C17 UNL     1       6.520   0.397  -2.723  1.00  0.00     0.131 C 
BRANCH  36  37
HETATM   37  C18 UNL     1       7.644   0.800  -1.840  1.00  0.00     0.040 C 
HETATM   38  C19 UNL     1       8.741   1.537  -2.578  1.00  0.00     0.194 C 
HETATM   39  C20 UNL     1       9.543   2.105  -1.400  1.00  0.00     0.067 C 
HETATM   40  N5  UNL     1       8.232   2.871  -2.748  1.00  0.00    -0.066 N 
HETATM   41  C21 UNL     1       8.280   2.937  -1.278  1.00  0.00     0.192 C 
HETATM   42  C22 UNL     1       7.227   1.955  -0.899  1.00  0.00     0.020 C 
HETATM   43  C23 UNL     1       7.227   1.545   0.533  1.00  0.00     0.012 C 
ATOM     44  H52 UNL     1       8.698   3.560  -3.339  1.00  0.00     0.278 HD
ATOM     45  H51 UNL     1       7.380   3.065  -3.274  1.00  0.00     0.278 HD
ENDBRANCH  36  37
ENDBRANCH  12  36
TORSDOF 11
