REMARK  8 active torsions:
REMARK  status: ('A' for Active; 'I' for Inactive)
REMARK    1  A    between atoms: C3_3  and  N1_4 
REMARK    2  A    between atoms: N1_4  and  C4_5 
REMARK    3  A    between atoms: C4_5  and  C5_6 
REMARK       I    between atoms: C5_6  and  N2_8 
REMARK    4  A    between atoms: N2_8  and  C6_10 
REMARK    5  A    between atoms: C6_10  and  C7_11 
REMARK       I    between atoms: C7_11  and  N3_13 
REMARK    6  A    between atoms: N3_13  and  C8_15 
REMARK    7  A    between atoms: C8_15  and  C9_16 
REMARK       I    between atoms: N4_24  and  C17_25 
REMARK       I    between atoms: C17_25  and  N5_27 
REMARK    8  A    between atoms: N5_27  and  C18_29 
ROOT
HETATM    1  C1  UNL     1      -0.526   1.903   3.670  1.00  0.00     0.098 C 
HETATM    2  C2  UNL     1      -0.108   0.947   3.023  1.00  0.00    -0.159 C 
HETATM    3  C3  UNL     1       0.379  -0.198   2.283  1.00  0.00     0.332 C 
ENDROOT
BRANCH   3   4
HETATM    4  N1  UNL     1       0.931   0.188   0.984  1.00  0.00     0.029 N 
HETATM    5  C15 UNL     1       0.694  -0.802   0.010  1.00  0.00     0.274 A 
HETATM    6  C16 UNL     1       1.987  -1.271  -0.532  1.00  0.00     0.166 A 
HETATM    7  N4  UNL     1       2.977  -0.575   0.230  1.00  0.00    -0.263 N 
HETATM    8  C17 UNL     1       4.409  -0.729   0.088  1.00  0.00     0.325 C 
HETATM    9  C22 UNL     1       2.340   0.285   1.142  1.00  0.00     0.290 A 
HETATM   10  O3  UNL     1       5.178  -0.052   0.826  1.00  0.00    -0.247 OA
HETATM   11  N5  UNL     1       4.934  -1.635  -0.874  1.00  0.00    -0.335 N 
ATOM     12  H5  UNL     1       4.298  -2.175  -1.461  1.00  0.00     0.165 HD
HETATM   13  N6  UNL     1       2.954   1.057   2.002  1.00  0.00    -0.364 N 
ATOM     14  H62 UNL     1       2.492   1.681   2.664  1.00  0.00     0.159 HD
ATOM     15  H61 UNL     1       3.965   1.127   2.115  1.00  0.00     0.159 HD
BRANCH   4  16
HETATM   16  C4  UNL     1       0.494   1.506   0.602  1.00  0.00     0.287 C 
BRANCH  16  17
HETATM   17  C5  UNL     1      -0.902   1.741   0.320  1.00  0.00     0.266 C 
HETATM   18  O1  UNL     1      -1.197   2.953  -0.014  1.00  0.00    -0.267 OA
HETATM   19  N2  UNL     1      -1.943   0.823   0.368  1.00  0.00    -0.338 N 
ATOM     20  H2  UNL     1      -1.715  -0.136   0.632  1.00  0.00     0.164 HD
BRANCH  19  21
HETATM   21  C6  UNL     1      -3.341   1.128   0.069  1.00  0.00     0.114 C 
HETATM   22  C11 UNL     1      -3.470   1.632  -1.348  1.00  0.00     0.041 C 
HETATM   23  C12 UNL     1      -4.537   2.677  -1.281  1.00  0.00     0.003 C 
HETATM   24  C13 UNL     1      -4.382   3.302   0.069  1.00  0.00     0.003 C 
HETATM   25  C14 UNL     1      -3.799   2.248   0.957  1.00  0.00     0.041 C 
BRANCH  21  26
HETATM   26  C7  UNL     1      -4.201  -0.063   0.220  1.00  0.00     0.246 C 
HETATM   27  O2  UNL     1      -3.675  -1.194   0.175  1.00  0.00    -0.271 OA
HETATM   28  N3  UNL     1      -5.580   0.071   0.419  1.00  0.00    -0.355 N 
ATOM     29  H3  UNL     1      -5.929   1.029   0.461  1.00  0.00     0.162 HD
BRANCH  28  30
HETATM   30  C8  UNL     1      -6.560  -0.948   0.570  1.00  0.00     0.149 C 
BRANCH  30  31
HETATM   31  C9  UNL     1      -6.712  -1.796  -0.618  1.00  0.00    -0.018 C 
HETATM   32  C10 UNL     1      -6.120  -1.704  -1.779  1.00  0.00     0.008 C 
ENDBRANCH  30  31
ENDBRANCH  28  30
ENDBRANCH  21  26
ENDBRANCH  19  21
ENDBRANCH  16  17
ENDBRANCH   4  16
BRANCH  11  33
HETATM   33  C18 UNL     1       6.387  -1.798  -1.028  1.00  0.00     0.023 C 
HETATM   34  C19 UNL     1       7.047  -0.500  -1.438  1.00  0.00     0.037 C 
HETATM   35  C20 UNL     1       6.982  -2.264   0.292  1.00  0.00     0.037 C 
HETATM   36  C21 UNL     1       6.650  -2.819  -2.113  1.00  0.00     0.037 C 
ENDBRANCH  11  33
ENDBRANCH   3   4
TORSDOF 8
