REMARK  7 active torsions:
REMARK  status: ('A' for Active; 'I' for Inactive)
REMARK    1  A    between atoms: C2_2  and  N1_3 
REMARK    2  A    between atoms: C2_2  and  C20_30 
REMARK       I    between atoms: N1_3  and  C3_5 
REMARK       I    between atoms: C3_5  and  N3_9 
REMARK    3  A    between atoms: N3_9  and  C5_11 
REMARK    4  A    between atoms: C5_11  and  C6_12 
REMARK       I    between atoms: C6_12  and  N4_14 
REMARK    5  A    between atoms: N4_14  and  C7_16 
REMARK    6  A    between atoms: C7_16  and  C8_17 
REMARK    7  A    between atoms: C8_17  and  N5_18 
ROOT
HETATM    1  C5  UNL     1      -0.108  -1.974  -0.308  1.00  0.00     0.128 C 
HETATM    2  C15 UNL     1      -0.130  -2.995  -1.393  1.00  0.00     0.041 C 
HETATM    3  C16 UNL     1       0.002  -4.415  -0.927  1.00  0.00     0.003 C 
HETATM    4  C17 UNL     1      -0.974  -4.630   0.203  1.00  0.00     0.000 C 
HETATM    5  C18 UNL     1      -0.509  -3.825   1.380  1.00  0.00     0.003 C 
HETATM    6  C19 UNL     1      -0.033  -2.450   1.080  1.00  0.00     0.041 C 
ENDROOT
BRANCH   1   7
HETATM    7  N3  UNL     1       1.043  -1.103  -0.611  1.00  0.00    -0.208 N 
HETATM    8  C3  UNL     1       2.385  -1.384  -0.483  1.00  0.00     0.674 C 
HETATM    9  N1  UNL     1       3.204  -0.506   0.277  1.00  0.00    -0.196 N 
HETATM   10  N2  UNL     1       2.941  -2.399  -1.019  1.00  0.00    -0.231 N 
ATOM     11  H1  UNL     1       3.287  -0.650   1.283  1.00  0.00     0.184 HD
HETATM   12  C4  UNL     1       4.358  -2.709  -0.899  1.00  0.00     0.165 C 
ATOM     13  H2  UNL     1       2.357  -3.032  -1.565  1.00  0.00     0.177 HD
ATOM     14  H3  UNL     1       0.816  -0.172  -0.961  1.00  0.00     0.179 HD
BRANCH   9  15
HETATM   15  C2  UNL     1       3.910   0.567  -0.329  1.00  0.00     0.021 C 
HETATM   16  C1  UNL     1       3.903   0.657  -1.642  1.00  0.00     0.039 C 
BRANCH  15  17
HETATM   17  C20 UNL     1       4.617   1.568   0.489  1.00  0.00     0.036 C 
HETATM   18  C21 UNL     1       5.016   2.807  -0.196  1.00  0.00     0.017 C 
HETATM   19  C22 UNL     1       6.418   2.837  -0.720  1.00  0.00     0.080 C 
HETATM   20  C23 UNL     1       7.416   2.326   0.321  1.00  0.00     0.243 C 
HETATM   21  F1  UNL     1       8.674   2.467  -0.180  1.00  0.00    -0.206 F 
HETATM   22  F2  UNL     1       7.254   3.036   1.497  1.00  0.00    -0.206 F 
HETATM   23  C24 UNL     1       7.028   0.883   0.564  1.00  0.00     0.080 C 
HETATM   24  C25 UNL     1       5.700   0.891   1.280  1.00  0.00     0.017 C 
ENDBRANCH  15  17
ENDBRANCH   9  15
ENDBRANCH   1   7
BRANCH   1  25
HETATM   25  C6  UNL     1      -1.359  -1.147  -0.483  1.00  0.00     0.246 C 
HETATM   26  O1  UNL     1      -1.291  -0.210  -1.307  1.00  0.00    -0.271 OA
HETATM   27  N4  UNL     1      -2.545  -1.380   0.217  1.00  0.00    -0.357 N 
ATOM     28  H4  UNL     1      -2.542  -2.158   0.877  1.00  0.00     0.162 HD
BRANCH  27  29
HETATM   29  C7  UNL     1      -3.774  -0.634   0.103  1.00  0.00     0.150 C 
BRANCH  29  30
HETATM   30  C8  UNL     1      -3.552   0.783   0.488  1.00  0.00     0.256 C 
BRANCH  30  31
HETATM   31  N5  UNL     1      -4.741   1.601   0.404  1.00  0.00    -0.069 N 
HETATM   32  C9  UNL     1      -4.587   2.693   1.343  1.00  0.00     0.272 C 
HETATM   33  C10 UNL     1      -5.920   0.814   0.679  1.00  0.00     0.237 C 
HETATM   34  C11 UNL     1      -7.184   1.580   0.588  1.00  0.00     0.028 C 
HETATM   35  C12 UNL     1      -7.191   2.756  -0.300  1.00  0.00     0.003 C 
HETATM   36  C13 UNL     1      -5.967   3.042  -1.080  1.00  0.00     0.028 C 
HETATM   37  C14 UNL     1      -4.860   2.053  -0.967  1.00  0.00     0.237 C 
ENDBRANCH  30  31
ENDBRANCH  29  30
ENDBRANCH  27  29
ENDBRANCH   1  25
TORSDOF 7
