REMARK  9 active torsions:
REMARK  status: ('A' for Active; 'I' for Inactive)
REMARK    1  A    between atoms: C2_2  and  N1_3 
REMARK    2  A    between atoms: C2_2  and  C13_23 
REMARK       I    between atoms: N1_3  and  C3_4 
REMARK       I    between atoms: C3_4  and  N2_6 
REMARK    3  A    between atoms: N2_6  and  C4_8 
REMARK    4  A    between atoms: C7_11  and  N3_12 
REMARK       I    between atoms: N3_12  and  C8_14 
REMARK    5  A    between atoms: C8_14  and  C9_16 
REMARK    6  A    between atoms: C9_16  and  C10_17 
REMARK    7  A    between atoms: C10_17  and  C11_18 
REMARK    8  A    between atoms: C18_28  and  C19_29 
REMARK    9  A    between atoms: C20_30  and  C21_31 
ROOT
HETATM    1  N1  UNL     1      -1.463   0.593   0.953  1.00  0.00    -0.391 NA
HETATM    2  C3  UNL     1      -0.134   0.514   0.722  1.00  0.00     0.393 C 
HETATM    3  O1  UNL     1       0.657   1.468   0.485  1.00  0.00    -0.230 OA
HETATM    4  N2  UNL     1       0.568  -0.772   0.720  1.00  0.00    -0.296 N 
ATOM      5  H2  UNL     1       0.063  -1.640   0.902  1.00  0.00     0.172 HD
ENDROOT
BRANCH   4   6
HETATM    6  C4  UNL     1       1.939  -0.788   0.465  1.00  0.00     0.052 A 
HETATM    7  C5  UNL     1       2.447  -1.540  -0.606  1.00  0.00     0.035 A 
HETATM    8  C6  UNL     1       3.780  -1.604  -0.909  1.00  0.00     0.051 A 
HETATM    9  C7  UNL     1       4.656  -0.878  -0.096  1.00  0.00     0.107 A 
HETATM   10  N4  UNL     1       4.152  -0.163   0.932  1.00  0.00    -0.350 N 
HETATM   11  C12 UNL     1       2.863  -0.081   1.247  1.00  0.00     0.119 A 
ATOM     12  H4  UNL     1       4.812   0.355   1.513  1.00  0.00     0.166 HD
BRANCH   9  13
HETATM   13  N3  UNL     1       5.873  -0.914  -0.383  1.00  0.00    -0.313 N 
HETATM   14  C8  UNL     1       6.897  -0.254   0.305  1.00  0.00     0.223 C 
HETATM   15  O2  UNL     1       7.627  -0.988   1.049  1.00  0.00    -0.273 OA
ATOM     16  H3  UNL     1       6.143  -1.475  -1.191  1.00  0.00     0.170 HD
BRANCH  14  17
HETATM   17  C9  UNL     1       7.125   1.196   0.183  1.00  0.00     0.104 C 
BRANCH  17  18
HETATM   18  C10 UNL     1       8.425   1.634   0.766  1.00  0.00     0.020 C 
BRANCH  18  19
HETATM   19  C11 UNL     1       9.576   1.030   0.029  1.00  0.00     0.085 C 
HETATM   20 BR1  UNL     1       9.478   1.588  -1.840  1.00  0.00    -0.097 Br
ENDBRANCH  18  19
ENDBRANCH  17  18
ENDBRANCH  14  17
ENDBRANCH   9  13
ENDBRANCH   4   6
BRANCH   1  21
HETATM   21  C2  UNL     1      -2.825   0.674   1.189  1.00  0.00     0.170 C 
HETATM   22  C1  UNL     1      -3.248  -0.339   2.235  1.00  0.00     0.048 C 
BRANCH  21  23
HETATM   23  C13 UNL     1      -3.677   0.610  -0.065  1.00  0.00     0.037 C 
HETATM   24  C14 UNL     1      -3.667  -0.674  -0.799  1.00  0.00     0.009 C 
HETATM   25  C15 UNL     1      -4.258  -0.362  -2.192  1.00  0.00     0.001 C 
HETATM   26  C16 UNL     1      -5.587   0.307  -2.111  1.00  0.00     0.001 C 
HETATM   27  C17 UNL     1      -5.652   1.445  -1.147  1.00  0.00     0.018 C 
HETATM   28  C18 UNL     1      -5.123   0.955   0.207  1.00  0.00     0.072 C 
BRANCH  28  29
HETATM   29  C19 UNL     1      -5.944  -0.239   0.506  1.00  0.00    -0.099 C 
HETATM   30  C20 UNL     1      -6.635  -1.216   0.750  1.00  0.00    -0.075 C 
BRANCH  30  31
HETATM   31  C21 UNL     1      -7.442  -2.411   1.044  1.00  0.00     0.315 C 
HETATM   32  F1  UNL     1      -6.709  -3.172   1.957  1.00  0.00    -0.242 F 
ENDBRANCH  30  31
ENDBRANCH  28  29
ENDBRANCH  21  23
ENDBRANCH   1  21
TORSDOF 9
