REMARK  6 active torsions:
REMARK  status: ('A' for Active; 'I' for Inactive)
REMARK    1  A    between atoms: C1_2  and  C2_3 
REMARK       I    between atoms: C1_2  and  N2_16 
REMARK    2  A    between atoms: C2_3  and  N1_4 
REMARK       I    between atoms: N1_4  and  C3_6 
REMARK    3  A    between atoms: C3_6  and  C4_8 
REMARK    4  A    between atoms: N2_16  and  C12_18 
REMARK    5  A    between atoms: C12_18  and  C13_19 
REMARK    6  A    between atoms: C13_19  and  C14_20 
ROOT
HETATM    1  O1  UNL     1       0.930  -0.406  -1.306  1.00  0.00    -0.272 OA
HETATM    2  C1  UNL     1       1.483  -0.436  -0.175  1.00  0.00     0.235 C 
HETATM    3  N2  UNL     1       2.871  -0.737  -0.117  1.00  0.00    -0.359 N 
ATOM      4  H2  UNL     1       3.349  -0.768   0.783  1.00  0.00     0.162 HD
ENDROOT
BRANCH   2   5
HETATM    5  C2  UNL     1       0.750  -0.172   1.067  1.00  0.00     0.225 C 
BRANCH   5   6
HETATM    6  N1  UNL     1      -0.641   0.093   0.808  1.00  0.00    -0.352 N 
HETATM    7  C3  UNL     1      -1.438  -0.915   0.215  1.00  0.00     0.227 C 
HETATM    8  O2  UNL     1      -1.010  -2.047  -0.101  1.00  0.00    -0.273 OA
ATOM      9  H1  UNL     1      -1.048   0.997   1.049  1.00  0.00     0.162 HD
BRANCH   7  10
HETATM   10  C4  UNL     1      -2.888  -0.584  -0.043  1.00  0.00     0.045 A 
HETATM   11  C5  UNL     1      -3.159   0.548  -0.935  1.00  0.00     0.020 C 
HETATM   12  C6  UNL     1      -3.815   1.737  -0.325  1.00  0.00     0.001 C 
HETATM   13  C7  UNL     1      -5.315   1.600  -0.533  1.00  0.00     0.000 C 
HETATM   14  C8  UNL     1      -5.832   0.332   0.104  1.00  0.00     0.000 C 
HETATM   15  C9  UNL     1      -5.004  -0.121   1.251  1.00  0.00     0.006 C 
HETATM   16  C10 UNL     1      -3.863  -1.012   0.927  1.00  0.00     0.004 A 
HETATM   17  C11 UNL     1      -3.784  -1.824  -0.302  1.00  0.00     0.025 A 
ENDBRANCH   7  10
ENDBRANCH   5   6
ENDBRANCH   2   5
BRANCH   3  18
HETATM   18  C12 UNL     1       3.600  -0.997  -1.327  1.00  0.00     0.128 C 
BRANCH  18  19
HETATM   19  C13 UNL     1       5.044  -1.295  -1.069  1.00  0.00     0.076 C 
BRANCH  19  20
HETATM   20  C14 UNL     1       5.764  -0.188  -0.402  1.00  0.00     0.013 A 
HETATM   21  C15 UNL     1       5.277   1.036  -0.023  1.00  0.00     0.047 A 
HETATM   22  C16 UNL     1       6.319   1.747   0.569  1.00  0.00     0.046 A 
HETATM   23 BR1  UNL     1       6.253   3.502   1.291  1.00  0.00    -0.048 Br
HETATM   24  C17 UNL     1       7.415   0.925   0.529  1.00  0.00     0.097 A 
HETATM   25 BR2  UNL     1       9.167   1.343   1.196  1.00  0.00    -0.030 Br
HETATM   26  N3  UNL     1       7.075  -0.230  -0.053  1.00  0.00    -0.353 N 
ATOM     27  H3  UNL     1       7.702  -1.019  -0.210  1.00  0.00     0.166 HD
ENDBRANCH  19  20
ENDBRANCH  18  19
ENDBRANCH   3  18
TORSDOF 6
