REMARK  7 active torsions:
REMARK  status: ('A' for Active; 'I' for Inactive)
REMARK    1  A    between atoms: C3_3  and  C4_4 
REMARK    2  A    between atoms: C9_13  and  C10_14 
REMARK       I    between atoms: C10_14  and  N2_16 
REMARK    3  A    between atoms: N2_16  and  C11_18 
REMARK    4  A    between atoms: C11_18  and  C12_19 
REMARK    5  A    between atoms: C11_18  and  C16_23 
REMARK    6  A    between atoms: C12_19  and  C13_20 
REMARK       I    between atoms: C16_23  and  N3_25 
REMARK    7  A    between atoms: N3_25  and  C17_27 
ROOT
HETATM    1  C1  UNL     1       4.997  -4.858  -5.555  1.00  0.00     0.112 C 
HETATM    2  C2  UNL     1       4.409  -4.003  -4.535  1.00  0.00    -0.105 C 
HETATM    3  C3  UNL     1       3.882  -3.294  -3.719  1.00  0.00    -0.054 C 
ENDROOT
BRANCH   3   4
HETATM    4  C4  UNL     1       3.132  -2.439  -2.824  1.00  0.00     0.100 C 
HETATM    5 CL1  UNL     1       1.475  -2.230  -3.448  1.00  0.00    -0.073 Cl
HETATM    6  C5  UNL     1       3.559  -1.914  -1.735  1.00  0.00     0.030 A 
HETATM    7  C6  UNL     1       4.937  -2.167  -1.291  1.00  0.00     0.040 A 
HETATM    8  C9  UNL     1       2.771  -1.026  -0.875  1.00  0.00     0.061 A 
HETATM    9 BR1  UNL     1       6.155  -3.303  -2.217  1.00  0.00    -0.049 Br
HETATM   10  C7  UNL     1       5.448  -1.632  -0.187  1.00  0.00     0.107 A 
HETATM   11  N1  UNL     1       4.683  -0.786   0.624  1.00  0.00    -0.373 N 
HETATM   12  C8  UNL     1       3.352  -0.516   0.234  1.00  0.00     0.105 A 
ATOM     13  H1  UNL     1       5.075  -0.376   1.472  1.00  0.00     0.164 HD
BRANCH   8  14
HETATM   14  C10 UNL     1       1.411  -0.634  -1.106  1.00  0.00     0.254 C 
HETATM   15  O1  UNL     1       0.708  -0.967  -2.056  1.00  0.00    -0.268 OA
HETATM   16  N2  UNL     1       0.738   0.248  -0.156  1.00  0.00    -0.344 N 
ATOM     17  H2  UNL     1       1.231   0.581   0.672  1.00  0.00     0.163 HD
BRANCH  16  18
HETATM   18  C11 UNL     1      -0.627   0.645  -0.395  1.00  0.00     0.177 C 
BRANCH  18  19
HETATM   19  C12 UNL     1      -0.846   2.074  -0.714  1.00  0.00     0.038 C 
BRANCH  19  20
HETATM   20  C13 UNL     1      -0.454   3.098   0.270  1.00  0.00    -0.020 C 
HETATM   21  C14 UNL     1      -0.825   4.458  -0.359  1.00  0.00     0.009 C 
HETATM   22  C15 UNL     1       0.989   3.201   0.620  1.00  0.00     0.009 C 
ENDBRANCH  19  20
ENDBRANCH  18  19
BRANCH  18  23
HETATM   23  C16 UNL     1      -1.539   0.113   0.658  1.00  0.00     0.240 C 
HETATM   24  O2  UNL     1      -1.113  -0.629   1.576  1.00  0.00    -0.271 OA
HETATM   25  N3  UNL     1      -2.918   0.436   0.650  1.00  0.00    -0.355 N 
ATOM     26  H3  UNL     1      -3.304   1.039  -0.076  1.00  0.00     0.162 HD
BRANCH  25  27
HETATM   27  C17 UNL     1      -3.768  -0.101   1.684  1.00  0.00     0.084 C 
HETATM   28  C18 UNL     1      -4.070   0.975   2.736  1.00  0.00     0.025 C 
HETATM   29  C19 UNL     1      -5.252   0.364   3.458  1.00  0.00     0.002 C 
HETATM   30  C20 UNL     1      -5.931  -0.568   2.507  1.00  0.00     0.002 C 
HETATM   31  C21 UNL     1      -5.125  -0.522   1.234  1.00  0.00     0.025 C 
ENDBRANCH  25  27
ENDBRANCH  18  23
ENDBRANCH  16  18
ENDBRANCH   8  14
ENDBRANCH   3   4
TORSDOF 7
