REMARK  7 active torsions:
REMARK  status: ('A' for Active; 'I' for Inactive)
REMARK       I    between atoms: C2_2  and  N1_4 
REMARK    1  A    between atoms: N1_4  and  C3_6 
REMARK    2  A    between atoms: C3_6  and  C4_7 
REMARK    3  A    between atoms: C4_7  and  N3_11 
REMARK    4  A    between atoms: N3_11  and  C5_13 
REMARK    5  A    between atoms: C5_13  and  C6_14 
REMARK    6  A    between atoms: C6_14  and  N4_15 
REMARK    7  A    between atoms: N5_19  and  C10_20 
ROOT
HETATM    1  C4  UNL     1      -0.794   0.982  -1.346  1.00  0.00     0.099 C 
HETATM    2  N2  UNL     1      -0.568   2.106  -1.880  1.00  0.00    -0.387 N 
ATOM      3  H21 UNL     1       0.289   2.361  -2.371  1.00  0.00     0.157 HD
ATOM      4  H22 UNL     1      -1.312   2.801  -1.825  1.00  0.00     0.157 HD
ENDROOT
BRANCH   1   5
HETATM    5  C3  UNL     1      -2.050   0.608  -0.627  1.00  0.00     0.090 C 
HETATM    6  C16 UNL     1      -2.502  -0.735  -1.108  1.00  0.00     0.039 C 
HETATM    7  C17 UNL     1      -3.989  -0.931  -1.218  1.00  0.00     0.003 C 
HETATM    8  C18 UNL     1      -4.469  -2.230  -0.608  1.00  0.00     0.000 C 
HETATM    9  C19 UNL     1      -5.806  -2.204   0.007  1.00  0.00     0.000 C 
HETATM   10  C20 UNL     1      -6.156  -1.146   0.965  1.00  0.00     0.000 C 
HETATM   11  C21 UNL     1      -5.774  -1.377   2.394  1.00  0.00     0.000 C 
HETATM   12  C22 UNL     1      -4.329  -1.254   2.715  1.00  0.00     0.000 C 
HETATM   13  C23 UNL     1      -3.663   0.009   2.253  1.00  0.00     0.000 C 
HETATM   14  C24 UNL     1      -2.249  -0.331   1.751  1.00  0.00     0.003 C 
HETATM   15  C25 UNL     1      -1.672   0.651   0.831  1.00  0.00     0.039 C 
BRANCH   5  16
HETATM   16  N1  UNL     1      -3.018   1.629  -0.960  1.00  0.00    -0.345 N 
HETATM   17  C2  UNL     1      -3.472   1.929  -2.264  1.00  0.00     0.214 C 
HETATM   18  C1  UNL     1      -4.477   3.004  -2.471  1.00  0.00     0.117 C 
HETATM   19  O1  UNL     1      -3.084   1.342  -3.305  1.00  0.00    -0.274 OA
ATOM     20  H1  UNL     1      -3.404   2.177  -0.191  1.00  0.00     0.163 HD
ENDBRANCH   5  16
ENDBRANCH   1   5
BRANCH   1  21
HETATM   21  N3  UNL     1       0.247   0.009  -1.423  1.00  0.00    -0.376 N 
ATOM     22  H3  UNL     1       0.213  -0.759  -0.753  1.00  0.00     0.160 HD
BRANCH  21  23
HETATM   23  C5  UNL     1       1.335   0.010  -2.353  1.00  0.00     0.149 C 
BRANCH  23  24
HETATM   24  C6  UNL     1       2.371   1.060  -2.191  1.00  0.00     0.256 C 
BRANCH  24  25
HETATM   25  N4  UNL     1       3.097   1.068  -0.954  1.00  0.00    -0.066 N 
HETATM   26  C7  UNL     1       2.817   2.325  -0.243  1.00  0.00     0.272 C 
HETATM   27  C8  UNL     1       4.513   1.139  -1.322  1.00  0.00     0.267 C 
HETATM   28  C9  UNL     1       5.456   0.946  -0.192  1.00  0.00     0.301 C 
HETATM   29  N5  UNL     1       5.173  -0.388   0.370  1.00  0.00     0.096 N 
HETATM   30  C14 UNL     1       3.847  -0.238   0.963  1.00  0.00     0.301 C 
HETATM   31  C15 UNL     1       2.781   0.012  -0.052  1.00  0.00     0.267 C 
BRANCH  29  32
HETATM   32  C10 UNL     1       6.112  -0.603   1.424  1.00  0.00     0.223 C 
HETATM   33  C11 UNL     1       6.194  -2.021   1.947  1.00  0.00     0.036 C 
HETATM   34  C12 UNL     1       7.706  -1.987   1.781  1.00  0.00     0.004 C 
HETATM   35  C13 UNL     1       7.524  -0.747   0.911  1.00  0.00     0.036 C 
ENDBRANCH  29  32
ENDBRANCH  24  25
ENDBRANCH  23  24
ENDBRANCH  21  23
ENDBRANCH   1  21
TORSDOF 7
