REMARK  7 active torsions:
REMARK  status: ('A' for Active; 'I' for Inactive)
REMARK    1  A    between atoms: N1_2  and  C2_3 
REMARK    2  A    between atoms: C2_3  and  C3_4 
REMARK    3  A    between atoms: C3_4  and  N2_5 
REMARK    4  A    between atoms: C3_4  and  C4_9 
REMARK    5  A    between atoms: C4_9  and  N3_10 
REMARK    6  A    between atoms: C21_27  and  C22_28 
REMARK    7  A    between atoms: C22_28  and  N4_29 
ROOT
HETATM    1  C3  UNL     1      -1.236   1.820   0.050  1.00  0.00     0.237 C 
ENDROOT
BRANCH   1   2
HETATM    2  C2  UNL     1      -2.676   1.931  -0.278  1.00  0.00     0.271 C 
BRANCH   2   3
HETATM    3  N1  UNL     1      -3.660   1.630   0.672  1.00  0.00    -0.068 N 
HETATM    4  C1  UNL     1      -3.289   1.785   2.060  1.00  0.00     0.272 C 
HETATM    5  C19 UNL     1      -4.771   2.583   0.478  1.00  0.00     0.237 C 
HETATM    6  C20 UNL     1      -5.962   1.817   0.034  1.00  0.00     0.036 C 
HETATM    7  C21 UNL     1      -5.470   0.452  -0.350  1.00  0.00     0.031 C 
HETATM    8  C24 UNL     1      -4.253   0.314   0.538  1.00  0.00     0.243 C 
BRANCH   7   9
HETATM    9  C22 UNL     1      -6.481  -0.630  -0.037  1.00  0.00     0.128 C 
BRANCH   9  10
HETATM   10  N4  UNL     1      -7.723  -0.437  -0.727  1.00  0.00    -0.366 N 
HETATM   11  C23 UNL     1      -8.434  -1.436  -1.099  1.00  0.00     0.196 C 
HETATM   12  N5  UNL     1      -9.653  -1.202  -1.778  1.00  0.00    -0.067 NA
HETATM   13  N6  UNL     1      -8.032  -2.765  -0.849  1.00  0.00    -0.067 NA
ATOM     14  H4  UNL     1      -8.046   0.510  -0.925  1.00  0.00     0.161 HD
ENDBRANCH   9  10
ENDBRANCH   7   9
ENDBRANCH   2   3
ENDBRANCH   1   2
BRANCH   1  15
HETATM   15  N2  UNL     1      -0.814   2.665   1.145  1.00  0.00    -0.072 N 
ATOM     16  H23 UNL     1      -1.066   3.637   0.965  1.00  0.00     0.274 HD
ATOM     17  H22 UNL     1      -1.384   2.490   1.973  1.00  0.00     0.274 HD
ATOM     18  H21 UNL     1       0.178   2.589   1.371  1.00  0.00     0.274 HD
ENDBRANCH   1  15
BRANCH   1  19
HETATM   19  C4  UNL     1      -0.771   0.423   0.115  1.00  0.00     0.306 C 
BRANCH  19  20
HETATM   20  N3  UNL     1       0.599   0.195   0.422  1.00  0.00     0.090 N 
HETATM   21  C5  UNL     1       0.759  -1.269   0.416  1.00  0.00     0.272 C 
HETATM   22  C6  UNL     1       2.065  -1.712   0.950  1.00  0.00     0.030 C 
HETATM   23  C7  UNL     1       2.677  -2.691  -0.051  1.00  0.00     0.002 C 
HETATM   24  C8  UNL     1       4.017  -3.188   0.379  1.00  0.00     0.000 C 
HETATM   25  C9  UNL     1       4.988  -3.142  -0.801  1.00  0.00     0.000 C 
HETATM   26  C10 UNL     1       6.370  -2.735  -0.381  1.00  0.00     0.000 C 
HETATM   27  C11 UNL     1       6.736  -1.339  -0.895  1.00  0.00     0.000 C 
HETATM   28  C12 UNL     1       6.531  -0.388   0.242  1.00  0.00     0.000 C 
HETATM   29  C13 UNL     1       6.628   1.059  -0.151  1.00  0.00     0.000 C 
HETATM   30  C14 UNL     1       5.723   1.426  -1.292  1.00  0.00     0.000 C 
HETATM   31  C15 UNL     1       4.277   1.015  -1.016  1.00  0.00     0.000 C 
HETATM   32  C16 UNL     1       3.808   1.820   0.151  1.00  0.00     0.002 C 
HETATM   33  C17 UNL     1       2.338   1.932   0.295  1.00  0.00     0.030 C 
HETATM   34  C18 UNL     1       1.562   0.837  -0.413  1.00  0.00     0.272 C 
ENDBRANCH  19  20
ENDBRANCH   1  19
TORSDOF 7
