REMARK  6 active torsions:
REMARK  status: ('A' for Active; 'I' for Inactive)
REMARK       I    between atoms: C1_4  and  N3_6 
REMARK       I    between atoms: N4_9  and  C4_10 
REMARK    1  A    between atoms: C4_10  and  C5_12 
REMARK    2  A    between atoms: C16_23  and  C17_24 
REMARK       I    between atoms: C17_24  and  N5_26 
REMARK    3  A    between atoms: N5_26  and  C18_28 
REMARK    4  A    between atoms: C18_28  and  C19_29 
REMARK    5  A    between atoms: C19_29  and  C20_30 
REMARK    6  A    between atoms: C20_30  and  C21_31 
ROOT
HETATM    1  N1  UNL     1       0.552  -4.508  -0.492  1.00  0.00    -0.374 N 
ATOM      2  H11 UNL     1       0.636  -4.291  -1.485  1.00  0.00     0.158 HD
ATOM      3  H12 UNL     1       0.550  -5.481  -0.186  1.00  0.00     0.158 HD
HETATM    4  C1  UNL     1       0.451  -3.564   0.362  1.00  0.00     0.184 C 
HETATM    5  N2  UNL     1       0.335  -3.864   1.734  1.00  0.00    -0.064 NA
HETATM    6  N3  UNL     1       0.454  -2.222  -0.060  1.00  0.00    -0.339 N 
HETATM    7  C2  UNL     1       0.101  -1.928  -1.436  1.00  0.00     0.146 C 
HETATM    8  C3  UNL     1      -0.922  -0.796  -1.491  1.00  0.00     0.145 C 
HETATM    9  N4  UNL     1      -0.808   0.070  -0.364  1.00  0.00    -0.347 N 
HETATM   10  C4  UNL     1      -1.828   0.844   0.213  1.00  0.00     0.228 C 
HETATM   11  O1  UNL     1      -1.454   1.544   1.235  1.00  0.00    -0.273 OA
HETATM   12  C15 UNL     1       0.553   0.135   0.215  1.00  0.00     0.161 C 
HETATM   13  C16 UNL     1       0.792  -1.192   0.891  1.00  0.00     0.197 C 
ENDROOT
BRANCH  10  14
HETATM   14  C5  UNL     1      -3.232   0.968  -0.171  1.00  0.00     0.042 C 
HETATM   15  C6  UNL     1      -3.831   2.095   0.690  1.00  0.00     0.024 C 
HETATM   16  C7  UNL     1      -5.282   2.311   0.455  1.00  0.00    -0.013 C 
HETATM   17  C8  UNL     1      -6.042   1.047   0.768  1.00  0.00     0.009 C 
HETATM   18  C12 UNL     1      -5.498   2.719  -0.987  1.00  0.00     0.009 C 
HETATM   19  C9  UNL     1      -5.510  -0.018  -0.165  1.00  0.00    -0.013 C 
HETATM   20  C10 UNL     1      -5.708   0.365  -1.593  1.00  0.00     0.009 C 
HETATM   21  C14 UNL     1      -4.057  -0.246   0.167  1.00  0.00     0.024 C 
HETATM   22  C11 UNL     1      -4.930   1.631  -1.838  1.00  0.00    -0.013 C 
HETATM   23  C13 UNL     1      -3.456   1.396  -1.591  1.00  0.00     0.024 C 
ENDBRANCH  10  14
BRANCH  13  24
HETATM   24  C17 UNL     1       2.172  -1.242   1.389  1.00  0.00     0.242 C 
HETATM   25  O2  UNL     1       2.487  -0.385   2.286  1.00  0.00    -0.271 OA
HETATM   26  N5  UNL     1       3.183  -2.124   0.993  1.00  0.00    -0.359 N 
ATOM     27  H5  UNL     1       2.958  -2.818   0.280  1.00  0.00     0.162 HD
BRANCH  26  28
HETATM   28  C18 UNL     1       4.520  -2.116   1.527  1.00  0.00     0.122 C 
BRANCH  28  29
HETATM   29  C19 UNL     1       5.267  -0.838   1.315  1.00  0.00     0.020 C 
BRANCH  29  30
HETATM   30  C20 UNL     1       5.424  -0.493  -0.148  1.00  0.00     0.006 C 
BRANCH  30  31
HETATM   31  C21 UNL     1       6.191   0.809  -0.245  1.00  0.00    -0.014 C 
HETATM   32  C22 UNL     1       5.562   1.993   0.415  1.00  0.00     0.005 C 
HETATM   33  C23 UNL     1       5.868   2.810  -0.825  1.00  0.00     0.001 C 
HETATM   34  C24 UNL     1       5.949   1.504  -1.591  1.00  0.00     0.005 C 
ENDBRANCH  30  31
ENDBRANCH  29  30
ENDBRANCH  28  29
ENDBRANCH  26  28
ENDBRANCH  13  24
TORSDOF 6
