REMARK  2 active torsions:
REMARK  status: ('A' for Active; 'I' for Inactive)
REMARK    1  A    between atoms: C2_2  and  C3_3 
REMARK    2  A    between atoms: C4_4  and  C5_5 
ROOT
HETATM    1  C5  UNL     1       1.192  -0.456   0.610  1.00  0.00     0.004 C 
HETATM    2  C6  UNL     1      -0.062  -0.134   0.562  1.00  0.00    -0.070 C 
HETATM    3  C7  UNL     1      -1.019  -0.670   1.598  1.00  0.00     0.044 C 
HETATM    4  C8  UNL     1      -2.314  -0.909   0.825  1.00  0.00     0.028 C 
HETATM    5  C9  UNL     1      -2.023  -1.300  -0.606  1.00  0.00     0.011 C 
HETATM    6  C10 UNL     1      -1.634  -0.036  -1.355  1.00  0.00     0.015 C 
HETATM    7  C11 UNL     1      -0.714   0.745  -0.440  1.00  0.00     0.053 C 
HETATM    8  C12 UNL     1      -1.485   1.785   0.330  1.00  0.00     0.069 C 
HETATM    9  N1  UNL     1      -2.791   1.503   0.655  1.00  0.00    -0.381 N 
ATOM     10  H1  UNL     1      -3.457   2.275   0.676  1.00  0.00     0.164 HD
HETATM   11  C13 UNL     1      -3.254   0.237   0.955  1.00  0.00     0.065 C 
ENDROOT
BRANCH   1  12
HETATM   12  C4  UNL     1       2.224  -0.022  -0.310  1.00  0.00     0.000 C 
HETATM   13  C3  UNL     1       3.487  -0.389  -0.204  1.00  0.00    -0.001 C 
BRANCH  13  14
HETATM   14  C2  UNL     1       4.522   0.039  -1.116  1.00  0.00    -0.010 C 
HETATM   15  C1  UNL     1       5.770  -0.320  -1.016  1.00  0.00     0.011 C 
ENDBRANCH  13  14
ENDBRANCH   1  12
TORSDOF 2
