REMARK  2 active torsions:
REMARK  status: ('A' for Active; 'I' for Inactive)
REMARK    1  A    between atoms: C3_3  and  C4_4 
REMARK    2  A    between atoms: C7_10  and  C8_11 
ROOT
HETATM    1  C4  UNL     1       1.539  -0.351   0.020  1.00  0.00     0.213 C 
HETATM    2  N1  UNL     1       2.037  -1.610  -0.567  1.00  0.00    -0.067 N 
ATOM      3  H11 UNL     1       2.506  -2.225   0.098  1.00  0.00     0.277 HD
ATOM      4  H12 UNL     1       2.834  -1.493  -1.192  1.00  0.00     0.277 HD
HETATM    5  C5  UNL     1       0.872  -2.195  -1.195  1.00  0.00     0.233 C 
HETATM    6  C6  UNL     1      -0.230  -1.979  -0.209  1.00  0.00     0.034 C 
HETATM    7  C7  UNL     1       0.255  -0.810   0.616  1.00  0.00     0.025 C 
ENDROOT
BRANCH   7   8
HETATM    8  C8  UNL     1      -0.779   0.216   0.877  1.00  0.00    -0.008 C 
HETATM    9  C9  UNL     1      -1.975  -0.526   1.497  1.00  0.00     0.005 C 
HETATM   10  C10 UNL     1      -3.202   0.049   0.874  1.00  0.00     0.000 C 
HETATM   11  C11 UNL     1      -2.744   1.302   0.207  1.00  0.00     0.000 C 
HETATM   12  C12 UNL     1      -1.351   0.906  -0.305  1.00  0.00     0.005 C 
ENDBRANCH   7   8
BRANCH   1  13
HETATM   13  C3  UNL     1       1.443   0.597  -1.095  1.00  0.00     0.002 C 
HETATM   14  C2  UNL     1       2.219   1.655  -1.113  1.00  0.00    -0.033 C 
HETATM   15  C1  UNL     1       3.214   1.969  -0.052  1.00  0.00     0.036 C 
ENDBRANCH   1  13
TORSDOF 2
