REMARK  10 active torsions:
REMARK  status: ('A' for Active; 'I' for Inactive)
REMARK    1  A    between atoms: N1_1  and  C1_5 
REMARK    2  A    between atoms: C1_5  and  O1_6 
REMARK    3  A    between atoms: O1_6  and  C2_7 
REMARK       I    between atoms: C2_7  and  N2_9 
REMARK    4  A    between atoms: N2_9  and  N3_10 
REMARK    5  A    between atoms: N2_9  and  C3_14 
REMARK    6  A    between atoms: N3_10  and  O3_12 
REMARK    7  A    between atoms: C4_16  and  C5_17 
REMARK    8  A    between atoms: C5_17  and  S1_18 
REMARK    9  A    between atoms: C6_20  and  O5_21 
REMARK   10  A    between atoms: C7_23  and  O6_24 
ROOT
HETATM    1  C2  UNL     1      -2.363  -1.446   0.613  1.00  0.00     0.387 C 
HETATM    2  O2  UNL     1      -3.167  -2.343   1.016  1.00  0.00    -0.236 OA
HETATM    3  N2  UNL     1      -0.969  -1.540   0.862  1.00  0.00    -0.184 N 
ENDROOT
BRANCH   3   4
HETATM    4  N3  UNL     1      -0.496  -2.643   1.563  1.00  0.00    -0.201 N 
ATOM      5  H3  UNL     1       0.330  -2.515   2.147  1.00  0.00     0.216 HD
BRANCH   4   6
HETATM    6  O3  UNL     1      -1.009  -3.773   1.528  1.00  0.00    -0.274 OA
ATOM      7  H3  UNL     1      -0.686  -4.527   2.007  1.00  0.00     0.246 HD
ENDBRANCH   4   6
ENDBRANCH   3   4
BRANCH   3   8
HETATM    8  C3  UNL     1      -0.120  -0.518   0.391  1.00  0.00     0.283 C 
HETATM    9  O4  UNL     1       0.619   0.126   1.403  1.00  0.00    -0.353 OA
HETATM   10  C4  UNL     1       1.405   1.030   0.680  1.00  0.00     0.165 C 
HETATM   11  C6  UNL     1       1.794   0.314  -0.586  1.00  0.00     0.181 C 
HETATM   12  C7  UNL     1       1.016  -0.980  -0.482  1.00  0.00     0.200 C 
BRANCH  10  13
HETATM   13  C5  UNL     1       2.628   1.443   1.443  1.00  0.00     0.121 C 
BRANCH  13  14
HETATM   14  S1  UNL     1       3.698   2.600   0.652  1.00  0.00    -0.083 SA
HETATM   15  S2  UNL     1       4.717   2.025  -1.033  1.00  0.00    -0.013 SA
ENDBRANCH  13  14
ENDBRANCH  10  13
BRANCH  11  16
HETATM   16  O5  UNL     1       1.299   1.026  -1.666  1.00  0.00    -0.390 OA
ATOM     17  H5  UNL     1       1.544   0.574  -2.465  1.00  0.00     0.210 HD
ENDBRANCH  11  16
BRANCH  12  18
HETATM   18  O6  UNL     1       1.749  -1.910   0.254  1.00  0.00    -0.388 OA
ATOM     19  H6  UNL     1       2.466  -2.202  -0.297  1.00  0.00     0.210 HD
ENDBRANCH  12  18
ENDBRANCH   3   8
BRANCH   1  20
HETATM   20  O1  UNL     1      -2.929  -0.389  -0.073  1.00  0.00    -0.275 OA
BRANCH  20  21
HETATM   21  C1  UNL     1      -4.314  -0.288  -0.325  1.00  0.00     0.409 C 
BRANCH  21  22
HETATM   22  N1  UNL     1      -4.494   0.968  -1.070  1.00  0.00    -0.058 N 
ATOM     23  H13 UNL     1      -4.104   1.783  -0.596  1.00  0.00     0.276 HD
ATOM     24  H12 UNL     1      -3.920   1.030  -1.911  1.00  0.00     0.276 HD
ATOM     25  H11 UNL     1      -5.495   1.041  -1.252  1.00  0.00     0.276 HD
ENDBRANCH  21  22
ENDBRANCH  20  21
ENDBRANCH   1  20
TORSDOF 10
