REMARK  4 active torsions:
REMARK  status: ('A' for Active; 'I' for Inactive)
REMARK    1  A    between atoms: N1_1  and  N2_4 
REMARK    2  A    between atoms: C1_6  and  C2_7 
REMARK    3  A    between atoms: C2_7  and  N3_8 
REMARK    4  A    between atoms: C2_7  and  C3_12 
ROOT
HETATM    1  C2  UNL     1       0.895  -0.768   0.696  1.00  0.00     0.229 C 
ENDROOT
BRANCH   1   2
HETATM    2  C1  UNL     1       2.089  -0.256  -0.006  1.00  0.00     0.112 C 
HETATM    3  N2  UNL     1       2.378   0.979   0.079  1.00  0.00    -0.320 N 
ATOM      4  H2  UNL     1       1.765   1.575   0.635  1.00  0.00     0.185 HD
BRANCH   3   5
HETATM    5  N1  UNL     1       3.481   1.572  -0.541  1.00  0.00    -0.346 N 
ATOM      6  H12 UNL     1       4.082   0.961  -1.093  1.00  0.00     0.176 HD
ATOM      7  H11 UNL     1       3.713   2.563  -0.473  1.00  0.00     0.176 HD
ENDBRANCH   3   5
ENDBRANCH   1   2
BRANCH   1   8
HETATM    8  N3  UNL     1       0.661  -2.118   0.292  1.00  0.00    -0.070 N 
ATOM      9  H33 UNL     1       0.587  -2.213  -0.721  1.00  0.00     0.275 HD
ATOM     10  H32 UNL     1       1.478  -2.712   0.431  1.00  0.00     0.275 HD
ATOM     11  H31 UNL     1      -0.164  -2.472   0.777  1.00  0.00     0.275 HD
ENDBRANCH   1   8
BRANCH   1  12
HETATM   12  C3  UNL     1      -0.241   0.161   0.434  1.00  0.00     0.045 C 
HETATM   13  C4  UNL     1      -0.613   0.325  -0.996  1.00  0.00     0.128 C 
HETATM   14  N4  UNL     1      -1.974   0.819  -0.899  1.00  0.00    -0.381 N 
HETATM   15  C5  UNL     1      -2.526   0.460   0.207  1.00  0.00     0.089 C 
ATOM     16  H4  UNL     1      -2.435   1.379  -1.616  1.00  0.00     0.160 HD
HETATM   17  N5  UNL     1      -3.835   0.730   0.694  1.00  0.00    -0.088 NA
HETATM   18  C6  UNL     1      -1.555  -0.356   1.021  1.00  0.00     0.081 C 
ENDBRANCH   1  12
TORSDOF 4
