REMARK  4 active torsions:
REMARK  status: ('A' for Active; 'I' for Inactive)
REMARK    1  A    between atoms: C3_6  and  C4_7 
REMARK    2  A    between atoms: C4_7  and  N3_8 
REMARK    3  A    between atoms: C4_7  and  N4_12 
REMARK    4  A    between atoms: N4_12  and  N5_13 
ROOT
HETATM    1  C4  UNL     1      -1.619  -0.408  -0.563  1.00  0.00     0.332 C 
ENDROOT
BRANCH   1   2
HETATM    2  C3  UNL     1      -0.338   0.344  -0.534  1.00  0.00     0.049 A 
HETATM    3  C2  UNL     1      -0.017   1.583  -1.005  1.00  0.00     0.121 A 
HETATM    4  N2  UNL     1       1.295   1.813  -0.729  1.00  0.00    -0.308 N 
HETATM    5  N1  UNL     1       1.821   0.778  -0.107  1.00  0.00    -0.283 N 
ATOM      6  H2  UNL     1       1.800   2.666  -0.970  1.00  0.00     0.186 HD
HETATM    7  C1  UNL     1       3.202   0.691   0.333  1.00  0.00     0.179 C 
HETATM    8  C5  UNL     1       0.844  -0.147   0.031  1.00  0.00     0.143 A 
HETATM    9  N6  UNL     1       1.040  -1.396   0.656  1.00  0.00    -0.080 NA
ENDBRANCH   1   2
BRANCH   1  10
HETATM   10  N3  UNL     1      -1.336  -1.772  -0.967  1.00  0.00    -0.055 N 
ATOM     11  H33 UNL     1      -0.830  -1.823  -1.851  1.00  0.00     0.276 HD
ATOM     12  H32 UNL     1      -0.632  -2.218  -0.379  1.00  0.00     0.276 HD
ATOM     13  H31 UNL     1      -2.215  -2.288  -0.987  1.00  0.00     0.276 HD
ENDBRANCH   1  10
BRANCH   1  14
HETATM   14  N4  UNL     1      -2.233  -0.399   0.748  1.00  0.00    -0.110 NA
BRANCH  14  15
HETATM   15  N5  UNL     1      -2.519   0.863   1.212  1.00  0.00    -0.346 N 
ATOM     16  H52 UNL     1      -2.312   1.703   0.672  1.00  0.00     0.172 HD
ATOM     17  H51 UNL     1      -2.952   0.869   2.136  1.00  0.00     0.172 HD
ENDBRANCH  14  15
ENDBRANCH   1  14
TORSDOF 4
