REMARK  5 active torsions:
REMARK  status: ('A' for Active; 'I' for Inactive)
REMARK    1  A    between atoms: N1_1  and  N2_4 
REMARK    2  A    between atoms: C1_6  and  C2_7 
REMARK    3  A    between atoms: C2_7  and  N3_8 
REMARK    4  A    between atoms: C2_7  and  C3_12 
REMARK    5  A    between atoms: N4_13  and  C4_15 
ROOT
HETATM    1  C2  UNL     1      -1.414  -0.484   0.748  1.00  0.00     0.261 C 
ENDROOT
BRANCH   1   2
HETATM    2  C1  UNL     1      -2.575   0.432   0.697  1.00  0.00     0.117 C 
HETATM    3  N2  UNL     1      -3.224   0.628  -0.385  1.00  0.00    -0.320 N 
ATOM      4  H2  UNL     1      -2.940   0.145  -1.237  1.00  0.00     0.185 HD
BRANCH   3   5
HETATM    5  N1  UNL     1      -4.315   1.493  -0.416  1.00  0.00    -0.346 N 
ATOM      6  H12 UNL     1      -4.586   1.968   0.445  1.00  0.00     0.176 HD
ATOM      7  H11 UNL     1      -4.833   1.650  -1.280  1.00  0.00     0.176 HD
ENDBRANCH   3   5
ENDBRANCH   1   2
BRANCH   1   8
HETATM    8  N3  UNL     1      -1.843  -1.754   0.208  1.00  0.00    -0.066 N 
ATOM      9  H33 UNL     1      -2.667  -2.129   0.678  1.00  0.00     0.275 HD
ATOM     10  H32 UNL     1      -2.247  -1.674  -0.725  1.00  0.00     0.275 HD
ATOM     11  H31 UNL     1      -1.043  -2.385   0.243  1.00  0.00     0.275 HD
ENDBRANCH   1   8
BRANCH   1  12
HETATM   12  C3  UNL     1      -0.233   0.060   0.010  1.00  0.00     0.094 C 
HETATM   13  N4  UNL     1       0.960  -0.268   0.301  1.00  0.00    -0.392 N 
ATOM     14  H4  UNL     1       1.143  -0.923   1.061  1.00  0.00     0.159 HD
BRANCH  13  15
HETATM   15  C4  UNL     1       2.037   0.286  -0.442  1.00  0.00     0.132 C 
HETATM   16  C5  UNL     1       2.997  -0.845  -0.842  1.00  0.00     0.259 C 
HETATM   17  N5  UNL     1       3.504  -0.744   0.538  1.00  0.00    -0.071 N 
HETATM   18  C6  UNL     1       3.244   0.698   0.388  1.00  0.00     0.259 C 
ATOM     19  H52 UNL     1       3.111  -1.291   1.304  1.00  0.00     0.277 HD
ATOM     20  H51 UNL     1       4.417  -1.107   0.810  1.00  0.00     0.277 HD
ENDBRANCH  13  15
ENDBRANCH   1  12
TORSDOF 5
