REMARK  4 active torsions:
REMARK  status: ('A' for Active; 'I' for Inactive)
REMARK    1  A    between atoms: C2_2  and  N1_3 
REMARK    2  A    between atoms: C2_2  and  C3_7 
REMARK    3  A    between atoms: C3_7  and  C4_9 
REMARK    4  A    between atoms: C5_11  and  N2_12 
ROOT
HETATM    1  C3  UNL     1      -0.186   0.677   0.189  1.00  0.00     0.122 C 
HETATM    2  S1  UNL     1       0.197   1.757  -1.200  1.00  0.00    -0.087 SA
ENDROOT
BRANCH   1   3
HETATM    3  C2  UNL     1      -1.440  -0.127  -0.053  1.00  0.00     0.196 C 
HETATM    4  C1  UNL     1      -1.679  -0.994   1.152  1.00  0.00     0.041 C 
BRANCH   3   5
HETATM    5  N1  UNL     1      -2.586   0.697  -0.327  1.00  0.00    -0.074 N 
ATOM      6  H13 UNL     1      -3.435   0.141  -0.425  1.00  0.00     0.274 HD
ATOM      7  H12 UNL     1      -2.857   1.249   0.487  1.00  0.00     0.274 HD
ATOM      8  H11 UNL     1      -2.424   1.285  -1.144  1.00  0.00     0.274 HD
ENDBRANCH   3   5
ENDBRANCH   1   3
BRANCH   1   9
HETATM    9  C4  UNL     1       0.944  -0.344   0.375  1.00  0.00     0.197 A 
HETATM   10  O1  UNL     1       1.191  -1.208  -0.700  1.00  0.00    -0.346 OA
HETATM   11  C5  UNL     1       2.111  -0.172  -0.514  1.00  0.00     0.349 A 
BRANCH  11  12
HETATM   12  N2  UNL     1       3.429  -0.589  -0.066  1.00  0.00    -0.050 N 
ATOM     13  H23 UNL     1       3.629  -0.130   0.823  1.00  0.00     0.277 HD
ATOM     14  H22 UNL     1       3.380  -1.568   0.217  1.00  0.00     0.277 HD
ATOM     15  H21 UNL     1       4.235  -0.470  -0.680  1.00  0.00     0.277 HD
ENDBRANCH  11  12
ENDBRANCH   1   9
TORSDOF 4
