REMARK  4 active torsions:
REMARK  status: ('A' for Active; 'I' for Inactive)
REMARK    1  A    between atoms: N1_1  and  C1_4 
REMARK    2  A    between atoms: C1_4  and  N2_5 
REMARK    3  A    between atoms: N2_5  and  N3_7 
REMARK    4  A    between atoms: N3_7  and  C2_9 
ROOT
HETATM    1  C2  UNL     1      -0.151  -1.179  -0.126  1.00  0.00     0.152 A 
HETATM    2  N4  UNL     1      -0.999  -2.157  -0.499  1.00  0.00    -0.336 N 
ATOM      3  H4  UNL     1      -0.603  -3.071  -0.717  1.00  0.00     0.168 HD
HETATM    4  C3  UNL     1      -2.312  -2.014  -0.603  1.00  0.00     0.183 A 
HETATM    5  N5  UNL     1      -2.863  -0.808  -0.321  1.00  0.00    -0.337 N 
ATOM      6  H5  UNL     1      -3.871  -0.674  -0.396  1.00  0.00     0.168 HD
HETATM    7  C4  UNL     1      -2.068   0.213   0.059  1.00  0.00     0.138 A 
HETATM    8  N6  UNL     1      -2.365   1.478   0.395  1.00  0.00    -0.337 N 
ATOM      9  H6  UNL     1      -3.297   1.892   0.412  1.00  0.00     0.168 HD
HETATM   10  C5  UNL     1      -1.209   2.106   0.707  1.00  0.00     0.182 A 
HETATM   11  N7  UNL     1      -0.232   1.238   0.563  1.00  0.00    -0.346 N 
ATOM     12  H7  UNL     1       0.753   1.442   0.732  1.00  0.00     0.167 HD
HETATM   13  C6  UNL     1      -0.708   0.043   0.162  1.00  0.00     0.123 A 
ENDROOT
BRANCH   1  14
HETATM   14  N3  UNL     1       1.245  -1.408  -0.022  1.00  0.00    -0.283 N 
ATOM     15  H3  UNL     1       1.533  -2.276   0.429  1.00  0.00     0.188 HD
BRANCH  14  16
HETATM   16  N2  UNL     1       2.257  -0.576  -0.469  1.00  0.00    -0.295 N 
ATOM     17  H2  UNL     1       2.538  -0.644  -1.447  1.00  0.00     0.187 HD
BRANCH  16  18
HETATM   18  C1  UNL     1       2.925   0.363   0.352  1.00  0.00     0.190 C 
BRANCH  18  19
HETATM   19  N1  UNL     1       3.354   1.469  -0.072  1.00  0.00    -0.394 N 
ATOM     20  H12 UNL     1       3.204   1.683  -1.058  1.00  0.00     0.156 HD
ATOM     21  H11 UNL     1       3.836   2.146   0.520  1.00  0.00     0.156 HD
ENDBRANCH  18  19
ENDBRANCH  16  18
ENDBRANCH  14  16
ENDBRANCH   1  14
TORSDOF 4
