REMARK  8 active torsions:
REMARK  status: ('A' for Active; 'I' for Inactive)
REMARK    1  A    between atoms: C1_4  and  C2_6 
REMARK    2  A    between atoms: C5_9  and  N3_10 
REMARK    3  A    between atoms: N4_12  and  C6_14 
REMARK    4  A    between atoms: C7_17  and  N6_18 
REMARK    5  A    between atoms: C10_27  and  C11_28 
REMARK    6  A    between atoms: C11_28  and  C12_30 
REMARK    7  A    between atoms: C12_30  and  C13_32 
REMARK    8  A    between atoms: C13_32  and  N10_33 
ROOT
HETATM    1  C6  UNL     1      -0.743   0.150  -1.268  1.00  0.00     0.149 A 
HETATM    2  N5  UNL     1       0.196   0.178  -2.222  1.00  0.00    -0.175 N 
ATOM      3  H5  UNL     1       0.825   0.980  -2.263  1.00  0.00     0.186 HD
HETATM    4  C7  UNL     1       0.347  -0.793  -3.120  1.00  0.00     0.678 A 
HETATM    5  N7  UNL     1      -0.485  -1.833  -3.049  1.00  0.00    -0.185 N 
ATOM      6  H7  UNL     1      -0.397  -2.595  -3.721  1.00  0.00     0.185 HD
HETATM    7  C8  UNL     1      -1.456  -1.891  -2.086  1.00  0.00     0.107 A 
HETATM    8  S1  UNL     1      -2.619  -3.080  -1.721  1.00  0.00    -0.055 SA
HETATM    9  C9  UNL     1      -3.337  -2.334  -0.390  1.00  0.00     0.102 A 
HETATM   10  N8  UNL     1      -4.417  -2.882   0.370  1.00  0.00    -0.093 NA
HETATM   11  C10 UNL     1      -2.649  -1.127  -0.233  1.00  0.00     0.040 A 
HETATM   12  C14 UNL     1      -1.651  -0.920  -1.147  1.00  0.00     0.059 A 
ENDROOT
BRANCH   1  13
HETATM   13  N4  UNL     1      -0.691   1.235  -0.372  1.00  0.00    -0.284 N 
HETATM   14  N3  UNL     1       0.301   1.580   0.282  1.00  0.00    -0.299 N 
ATOM     15  H3  UNL     1       0.169   2.391   0.887  1.00  0.00     0.187 HD
ATOM     16  H4  UNL     1      -1.543   1.783  -0.252  1.00  0.00     0.188 HD
BRANCH  14  17
HETATM   17  C5  UNL     1       1.592   1.005   0.306  1.00  0.00     0.048 A 
HETATM   18  C4  UNL     1       2.726   1.809   0.137  1.00  0.00     0.032 A 
HETATM   19  C3  UNL     1       4.003   1.287   0.159  1.00  0.00     0.017 A 
HETATM   20  C2  UNL     1       4.208  -0.065   0.350  1.00  0.00     0.005 A 
HETATM   21  C16 UNL     1       3.107  -0.875   0.518  1.00  0.00     0.017 A 
HETATM   22  C15 UNL     1       1.839  -0.341   0.495  1.00  0.00     0.032 A 
BRANCH  20  23
HETATM   23  C1  UNL     1       5.564  -0.604   0.371  1.00  0.00     0.120 C 
HETATM   24  N1  UNL     1       5.757  -1.862   0.548  1.00  0.00    -0.387 N 
ATOM     25  H12 UNL     1       6.705  -2.239   0.563  1.00  0.00     0.157 HD
ATOM     26  H11 UNL     1       4.938  -2.457   0.672  1.00  0.00     0.157 HD
HETATM   27  N2  UNL     1       6.704   0.224   0.199  1.00  0.00    -0.082 NA
ENDBRANCH  20  23
ENDBRANCH  14  17
ENDBRANCH   1  13
BRANCH   4  28
HETATM   28  N6  UNL     1       1.275  -0.691  -4.008  1.00  0.00    -0.234 N 
ATOM     29  H62 UNL     1       1.911   0.104  -4.062  1.00  0.00     0.174 HD
ATOM     30  H61 UNL     1       1.391  -1.435  -4.696  1.00  0.00     0.174 HD
ENDBRANCH   4  28
BRANCH  11  31
HETATM   31  C11 UNL     1      -3.099  -0.258   0.911  1.00  0.00     0.107 C 
HETATM   32  N9  UNL     1      -2.229  -0.333   2.069  1.00  0.00    -0.098 NA
BRANCH  31  33
HETATM   33  C12 UNL     1      -3.599   1.068   0.593  1.00  0.00     0.199 C 
HETATM   34  O1  UNL     1      -4.107   1.289  -0.489  1.00  0.00    -0.289 OA
BRANCH  33  35
HETATM   35  C13 UNL     1      -3.511   2.175   1.577  1.00  0.00     0.314 C 
BRANCH  35  36
HETATM   36  N10 UNL     1      -4.078   3.408   1.048  1.00  0.00    -0.072 N 
ATOM     37 3H10 UNL     1      -3.649   3.664   0.159  1.00  0.00     0.274 HD
ATOM     38 2H10 UNL     1      -5.036   3.270   0.727  1.00  0.00     0.274 HD
ATOM     39 1H10 UNL     1      -4.018   4.169   1.724  1.00  0.00     0.274 HD
ENDBRANCH  35  36
ENDBRANCH  33  35
ENDBRANCH  31  33
ENDBRANCH  11  31
TORSDOF 8
