REMARK  9 active torsions:
REMARK  status: ('A' for Active; 'I' for Inactive)
REMARK    1  A    between atoms: C2_2  and  N2_4 
REMARK    2  A    between atoms: N2_4  and  C3_6 
REMARK    3  A    between atoms: C4_9  and  C5_10 
REMARK    4  A    between atoms: C5_10  and  O2_11 
REMARK    5  A    between atoms: C5_10  and  C6_13 
REMARK    6  A    between atoms: C9_16  and  N3_17 
REMARK    7  A    between atoms: N3_17  and  C10_19 
REMARK    8  A    between atoms: C10_19  and  O3_20 
REMARK    9  A    between atoms: C10_19  and  C11_22 
ROOT
HETATM    1  C6  UNL     1       1.349  -1.900  -0.537  1.00  0.00    -0.023 A 
HETATM    2  C7  UNL     1       0.372  -1.749  -1.496  1.00  0.00     0.012 A 
HETATM    3  C8  UNL     1      -0.820  -1.117  -1.157  1.00  0.00     0.030 A 
HETATM    4  C9  UNL     1      -1.055  -0.637   0.102  1.00  0.00     0.030 A 
HETATM    5  C14 UNL     1      -0.084  -0.786   1.060  1.00  0.00     0.030 A 
HETATM    6  C15 UNL     1       1.106  -1.417   0.722  1.00  0.00     0.012 A 
ENDROOT
BRANCH   4   7
HETATM    7  N3  UNL     1      -2.264  -0.008   0.421  1.00  0.00    -0.359 N 
ATOM      8  H3  UNL     1      -2.403   0.377   1.355  1.00  0.00     0.162 HD
BRANCH   7   9
HETATM    9  C10 UNL     1      -3.309   0.099  -0.557  1.00  0.00     0.276 C 
BRANCH   9  10
HETATM   10  O3  UNL     1      -3.793  -1.126  -1.005  1.00  0.00    -0.371 OA
ATOM     11  H3  UNL     1      -4.485  -1.055  -1.652  1.00  0.00     0.212 HD
ENDBRANCH   9  10
BRANCH   9  12
HETATM   12  C11 UNL     1      -4.389   0.994  -0.098  1.00  0.00     0.142 A 
HETATM   13  N4  UNL     1      -4.026   2.168   0.470  1.00  0.00    -0.292 N 
HETATM   14  N5  UNL     1      -4.953   3.010   0.902  1.00  0.00    -0.251 N 
ATOM     15  H4  UNL     1      -3.038   2.404   0.565  1.00  0.00     0.187 HD
HETATM   16  C12 UNL     1      -6.242   2.654   0.754  1.00  0.00     0.341 A 
ATOM     17  H5  UNL     1      -4.698   3.899   1.333  1.00  0.00     0.191 HD
HETATM   18  O4  UNL     1      -7.142   3.434   1.155  1.00  0.00    -0.245 OA
HETATM   19  N6  UNL     1      -6.634   1.493   0.193  1.00  0.00    -0.273 N 
HETATM   20  C13 UNL     1      -5.705   0.629  -0.249  1.00  0.00     0.278 A 
ATOM     21  H6  UNL     1      -7.626   1.273   0.105  1.00  0.00     0.173 HD
HETATM   22  O5  UNL     1      -6.002  -0.456  -0.774  1.00  0.00    -0.266 OA
ENDBRANCH   9  12
ENDBRANCH   7   9
ENDBRANCH   4   7
BRANCH   1  23
HETATM   23  C5  UNL     1       2.611  -2.570  -0.891  1.00  0.00     0.212 C 
BRANCH  23  24
HETATM   24  C4  UNL     1       3.646  -2.240   0.162  1.00  0.00     0.131 A 
HETATM   25  C3  UNL     1       4.268  -1.071   0.424  1.00  0.00     0.133 A 
HETATM   26  S1  UNL     1       5.102  -1.799   1.655  1.00  0.00     0.057 SA
HETATM   27  O1  UNL     1       4.184  -2.951   1.049  1.00  0.00    -0.271 OA
BRANCH  25  28
HETATM   28  N2  UNL     1       4.229   0.276  -0.136  1.00  0.00    -0.336 N 
ATOM     29  H2  UNL     1       3.616   0.500  -0.920  1.00  0.00     0.168 HD
BRANCH  28  30
HETATM   30  C2  UNL     1       5.059   1.256   0.434  1.00  0.00     0.107 C 
HETATM   31  C1  UNL     1       4.572   2.409   0.834  1.00  0.00     0.060 C 
HETATM   32  N1  UNL     1       6.448   1.022   0.592  1.00  0.00    -0.084 NA
ENDBRANCH  28  30
ENDBRANCH  25  28
ENDBRANCH  23  24
BRANCH  23  33
HETATM   33  O2  UNL     1       3.045  -2.061  -2.134  1.00  0.00    -0.384 OA
ATOM     34  H2  UNL     1       2.395  -2.268  -2.795  1.00  0.00     0.211 HD
ENDBRANCH  23  33
ENDBRANCH   1  23
TORSDOF 9
