REMARK  9 active torsions:
REMARK  status: ('A' for Active; 'I' for Inactive)
REMARK    1  A    between atoms: N1_1  and  C1_4 
REMARK    2  A    between atoms: C3_9  and  C4_10 
REMARK    3  A    between atoms: C4_10  and  N4_11 
REMARK    4  A    between atoms: C4_10  and  C5_15 
REMARK       I    between atoms: C5_15  and  N5_17 
REMARK    5  A    between atoms: N5_17  and  C6_19 
REMARK    6  A    between atoms: C6_19  and  C7_20 
REMARK    7  A    between atoms: C7_20  and  C8_21 
REMARK    8  A    between atoms: C8_21  and  N6_22 
REMARK    9  A    between atoms: N6_22  and  C9_24 
ROOT
HETATM    1  C5  UNL     1       2.213  -0.430   0.473  1.00  0.00     0.253 C 
HETATM    2  O1  UNL     1       1.638   0.316   1.281  1.00  0.00    -0.271 OA
HETATM    3  N5  UNL     1       1.666  -0.749  -0.777  1.00  0.00    -0.359 N 
ATOM      4  H5  UNL     1       2.250  -1.361  -1.348  1.00  0.00     0.162 HD
ENDROOT
BRANCH   3   5
HETATM    5  C6  UNL     1       0.448  -0.372  -1.385  1.00  0.00     0.124 C 
BRANCH   5   6
HETATM    6  C7  UNL     1      -0.840  -0.869  -0.887  1.00  0.00     0.039 C 
BRANCH   6   7
HETATM    7  C8  UNL     1      -1.177  -0.580   0.523  1.00  0.00     0.121 C 
BRANCH   7   8
HETATM    8  N6  UNL     1      -2.538  -1.084   0.763  1.00  0.00    -0.390 N 
ATOM      9  H6  UNL     1      -2.660  -1.919   1.336  1.00  0.00     0.159 HD
BRANCH   8  10
HETATM   10  C9  UNL     1      -3.664  -0.461   0.236  1.00  0.00     0.031 A 
HETATM   11  C10 UNL     1      -4.934  -1.016   0.232  1.00  0.00     0.058 A 
HETATM   12  C11 UNL     1      -6.051  -0.421  -0.253  1.00  0.00     0.078 A 
HETATM   13  N7  UNL     1      -7.282  -1.120  -0.185  1.00  0.00    -0.100 NA
HETATM   14  C12 UNL     1      -5.958   0.872  -0.808  1.00  0.00     0.091 A 
HETATM   15  N8  UNL     1      -6.942   1.571  -1.313  1.00  0.00    -0.291 N 
HETATM   16  C13 UNL     1      -4.718   1.457  -0.823  1.00  0.00     0.055 A 
HETATM   17  N9  UNL     1      -6.722   2.753  -1.794  1.00  0.00    -0.269 N 
ATOM     18  H8  UNL     1      -7.885   1.184  -1.328  1.00  0.00     0.187 HD
HETATM   19  S1  UNL     1      -5.066   2.958  -1.558  1.00  0.00     0.004 SA
ATOM     20  H9  UNL     1      -7.388   3.402  -2.213  1.00  0.00     0.195 HD
HETATM   21  C14 UNL     1      -3.583   0.802  -0.308  1.00  0.00     0.052 A 
ENDBRANCH   8  10
ENDBRANCH   7   8
ENDBRANCH   6   7
ENDBRANCH   5   6
ENDBRANCH   3   5
BRANCH   1  22
HETATM   22  C4  UNL     1       3.514  -0.986   0.885  1.00  0.00     0.318 C 
BRANCH  22  23
HETATM   23  C3  UNL     1       4.649  -0.045   0.615  1.00  0.00     0.067 A 
HETATM   24  C2  UNL     1       5.006   0.743  -0.420  1.00  0.00     0.134 A 
HETATM   25  N2  UNL     1       6.106   1.457  -0.322  1.00  0.00    -0.325 N 
HETATM   26  N3  UNL     1       4.185   0.806  -1.629  1.00  0.00    -0.081 NA
HETATM   27  C1  UNL     1       6.821   1.373   0.794  1.00  0.00     0.143 A 
ATOM     28  H2  UNL     1       6.404   2.062  -1.087  1.00  0.00     0.169 HD
HETATM   29  S2  UNL     1       5.936   0.266   1.738  1.00  0.00    -0.053 SA
BRANCH  27  30
HETATM   30  N1  UNL     1       7.939   1.998   1.088  1.00  0.00    -0.380 N 
ATOM     31  H12 UNL     1       8.469   2.661   0.523  1.00  0.00     0.158 HD
ATOM     32  H11 UNL     1       8.488   1.933   1.945  1.00  0.00     0.158 HD
ENDBRANCH  27  30
ENDBRANCH  22  23
BRANCH  22  33
HETATM   33  N4  UNL     1       3.502  -1.217   2.356  1.00  0.00    -0.062 N 
ATOM     34  H43 UNL     1       4.396  -1.546   2.721  1.00  0.00     0.275 HD
ATOM     35  H42 UNL     1       3.452  -0.356   2.901  1.00  0.00     0.275 HD
ATOM     36  H41 UNL     1       2.730  -1.857   2.540  1.00  0.00     0.275 HD
ENDBRANCH  22  33
ENDBRANCH   1  22
TORSDOF 9
