REMARK  9 active torsions:
REMARK  status: ('A' for Active; 'I' for Inactive)
REMARK       I    between atoms: C1_4  and  N2_5 
REMARK       I    between atoms: C1_4  and  N4_10 
REMARK    1  A    between atoms: N2_5  and  N3_7 
REMARK    2  A    between atoms: N4_10  and  C2_12 
REMARK    3  A    between atoms: C2_12  and  C3_13 
REMARK    4  A    between atoms: C3_13  and  C4_14 
REMARK    5  A    between atoms: C4_14  and  N5_15 
REMARK    6  A    between atoms: N5_15  and  C5_17 
REMARK    7  A    between atoms: N7_20  and  N8_21 
REMARK    8  A    between atoms: C7_24  and  S1_25 
REMARK    9  A    between atoms: S1_25  and  C8_26 
ROOT
HETATM    1  C5  UNL     1       0.378   0.433   0.460  1.00  0.00     0.110 A 
HETATM    2  C6  UNL     1      -0.330  -0.539   1.133  1.00  0.00     0.169 A 
HETATM    3  N6  UNL     1       0.352  -1.753   1.479  1.00  0.00    -0.078 NA
HETATM    4  N7  UNL     1      -1.618  -0.324   1.440  1.00  0.00    -0.224 N 
HETATM    5  C7  UNL     1      -2.274   0.812   1.122  1.00  0.00     0.173 A 
HETATM    6  N10 UNL     1      -1.602   1.771   0.466  1.00  0.00    -0.324 N 
ATOM      7  H10 UNL     1      -2.077   2.638   0.215  1.00  0.00     0.169 HD
HETATM    8  C14 UNL     1      -0.307   1.601   0.136  1.00  0.00     0.132 A 
HETATM    9  S2  UNL     1       0.494   2.767  -0.656  1.00  0.00    -0.058 SA
ENDROOT
BRANCH   1  10
HETATM   10  N5  UNL     1       1.743   0.301   0.099  1.00  0.00    -0.385 N 
ATOM     11  H5  UNL     1       2.442   0.643   0.758  1.00  0.00     0.159 HD
BRANCH  10  12
HETATM   12  C4  UNL     1       2.212  -0.279  -1.128  1.00  0.00     0.121 C 
BRANCH  12  13
HETATM   13  C3  UNL     1       3.735  -0.245  -1.215  1.00  0.00     0.040 C 
BRANCH  13  14
HETATM   14  C2  UNL     1       4.230   1.188  -1.161  1.00  0.00     0.139 C 
BRANCH  14  15
HETATM   15  N4  UNL     1       5.676   1.159  -1.247  1.00  0.00    -0.225 N 
HETATM   16  C1  UNL     1       6.454   0.628  -0.183  1.00  0.00     0.685 C 
HETATM   17  N1  UNL     1       6.416   1.237   0.958  1.00  0.00    -0.234 N 
HETATM   18  N2  UNL     1       7.230  -0.528  -0.407  1.00  0.00    -0.139 N 
ATOM     19  H12 UNL     1       6.974   0.856   1.722  1.00  0.00     0.174 HD
ATOM     20  H11 UNL     1       5.855   2.073   1.120  1.00  0.00     0.174 HD
ATOM     21  H2  UNL     1       7.426  -0.856  -1.353  1.00  0.00     0.205 HD
ATOM     22  H4  UNL     1       6.140   1.523  -2.079  1.00  0.00     0.177 HD
BRANCH  18  23
HETATM   23  N3  UNL     1       7.725  -1.214   0.719  1.00  0.00    -0.331 N 
ATOM     24  H32 UNL     1       7.520  -0.873   1.658  1.00  0.00     0.177 HD
ATOM     25  H31 UNL     1       8.286  -2.050   0.557  1.00  0.00     0.177 HD
ENDBRANCH  18  23
ENDBRANCH  14  15
ENDBRANCH  13  14
ENDBRANCH  12  13
ENDBRANCH  10  12
ENDBRANCH   1  10
BRANCH   4  26
HETATM   26  N8  UNL     1      -2.307  -1.310   2.112  1.00  0.00    -0.335 N 
ATOM     27  H82 UNL     1      -1.811  -2.168   2.352  1.00  0.00     0.177 HD
ATOM     28  H81 UNL     1      -3.286  -1.147   2.345  1.00  0.00     0.177 HD
ENDBRANCH   4  26
BRANCH   5  29
HETATM   29  S1  UNL     1      -3.986   0.982   1.590  1.00  0.00    -0.052 SA
BRANCH  29  30
HETATM   30  C8  UNL     1      -5.096   0.381   0.350  1.00  0.00     0.010 A 
HETATM   31  C9  UNL     1      -4.667  -0.147  -0.853  1.00  0.00     0.019 A 
HETATM   32  C10 UNL     1      -5.639  -0.583  -1.733  1.00  0.00     0.003 A 
HETATM   33  C11 UNL     1      -6.982  -0.503  -1.446  1.00  0.00     0.026 A 
HETATM   34  C12 UNL     1      -7.421   0.025  -0.241  1.00  0.00     0.047 A 
HETATM   35  N9  UNL     1      -8.810   0.109   0.068  1.00  0.00    -0.102 NA
HETATM   36  C13 UNL     1      -6.450   0.456   0.629  1.00  0.00     0.045 A 
ENDBRANCH  29  30
ENDBRANCH   5  29
TORSDOF 9
