REMARK  10 active torsions:
REMARK  status: ('A' for Active; 'I' for Inactive)
REMARK    1  A    between atoms: C2_3  and  C3_4 
REMARK    2  A    between atoms: C3_4  and  N2_5 
REMARK    3  A    between atoms: C3_4  and  N3_8 
REMARK    4  A    between atoms: N3_8  and  C4_10 
REMARK    5  A    between atoms: C4_10  and  C5_11 
REMARK    6  A    between atoms: C5_11  and  C6_12 
REMARK    7  A    between atoms: C8_14  and  N4_15 
REMARK    8  A    between atoms: N4_15  and  C9_17 
REMARK    9  A    between atoms: C9_17  and  O1_18 
REMARK   10  A    between atoms: C9_17  and  C10_20 
REMARK       I    between atoms: C10_20  and  N5_22 
ROOT
HETATM    1  N1  UNL     1      -6.559  -1.851  -0.994  1.00  0.00    -0.197 NA
HETATM    2  C1  UNL     1      -6.742  -0.704  -0.800  1.00  0.00     0.066 C 
HETATM    3  C2  UNL     1      -6.993   0.711  -0.571  1.00  0.00     0.199 C 
ENDROOT
BRANCH   3   4
HETATM    4  C3  UNL     1      -5.708   1.398  -0.332  1.00  0.00     0.083 C 
BRANCH   4   5
HETATM    5  N2  UNL     1      -5.377   2.333  -1.162  1.00  0.00    -0.388 N 
ATOM      6  H22 UNL     1      -5.986   2.571  -1.945  1.00  0.00     0.157 HD
ATOM      7  H21 UNL     1      -4.489   2.808  -0.997  1.00  0.00     0.157 HD
ENDBRANCH   4   5
BRANCH   4   8
HETATM    8  N3  UNL     1      -4.875   1.072   0.740  1.00  0.00    -0.379 N 
ATOM      9  H3  UNL     1      -5.098   1.459   1.657  1.00  0.00     0.160 HD
BRANCH   8  10
HETATM   10  C4  UNL     1      -3.729   0.227   0.626  1.00  0.00     0.126 C 
BRANCH  10  11
HETATM   11  C5  UNL     1      -2.629   0.884  -0.199  1.00  0.00     0.066 C 
BRANCH  11  12
HETATM   12  C6  UNL     1      -1.479  -0.095  -0.243  1.00  0.00    -0.014 A 
HETATM   13  C7  UNL     1      -0.437  -0.210   0.599  1.00  0.00     0.044 A 
HETATM   14  C8  UNL     1       0.482  -1.173   0.362  1.00  0.00     0.037 A 
HETATM   15  C14 UNL     1       0.262  -1.955  -0.731  1.00  0.00     0.079 A 
HETATM   16  S1  UNL     1      -1.209  -1.325  -1.388  1.00  0.00    -0.104 SA
BRANCH  14  17
HETATM   17  N4  UNL     1       1.610  -1.379   1.210  1.00  0.00    -0.356 N 
ATOM     18  H4  UNL     1       1.629  -0.904   2.113  1.00  0.00     0.162 HD
BRANCH  17  19
HETATM   19  C9  UNL     1       2.718  -2.218   0.860  1.00  0.00     0.314 C 
BRANCH  19  20
HETATM   20  O1  UNL     1       2.216  -3.527   0.682  1.00  0.00    -0.368 OA
ATOM     21  H1  UNL     1       2.950  -4.083   0.450  1.00  0.00     0.212 HD
ENDBRANCH  19  20
BRANCH  19  22
HETATM   22  C10 UNL     1       3.509  -1.802  -0.305  1.00  0.00     0.293 C 
HETATM   23  O2  UNL     1       3.613  -2.628  -1.279  1.00  0.00    -0.266 OA
HETATM   24  N5  UNL     1       4.170  -0.564  -0.445  1.00  0.00    -0.198 N 
HETATM   25  N6  UNL     1       4.884  -0.189  -1.520  1.00  0.00    -0.273 N 
HETATM   26  C13 UNL     1       4.245   0.464   0.430  1.00  0.00     0.178 A 
HETATM   27  C11 UNL     1       5.399   1.029  -1.346  1.00  0.00     0.146 A 
ATOM     28  H6  UNL     1       5.014  -0.759  -2.356  1.00  0.00     0.189 HD
HETATM   29  N7  UNL     1       6.143   1.700  -2.180  1.00  0.00    -0.382 N 
HETATM   30  C12 UNL     1       5.020   1.488  -0.116  1.00  0.00     0.141 A 
ATOM     31  H72 UNL     1       6.426   1.357  -3.098  1.00  0.00     0.157 HD
ATOM     32  H71 UNL     1       6.537   2.631  -2.047  1.00  0.00     0.157 HD
HETATM   33  N8  UNL     1       5.089   2.497   0.758  1.00  0.00    -0.279 N 
HETATM   34  N9  UNL     1       4.393   2.135   1.813  1.00  0.00    -0.240 N 
ATOM     35  H8  UNL     1       5.586   3.379   0.631  1.00  0.00     0.189 HD
HETATM   36  N10 UNL     1       3.891   0.944   1.635  1.00  0.00    -0.267 N 
ATOM     37  H9  UNL     1       4.264   2.703   2.650  1.00  0.00     0.208 HD
ATOM     38  H10 UNL     1       3.313   0.448   2.313  1.00  0.00     0.190 HD
ENDBRANCH  19  22
ENDBRANCH  17  19
ENDBRANCH  14  17
ENDBRANCH  11  12
ENDBRANCH  10  11
ENDBRANCH   8  10
ENDBRANCH   4   8
ENDBRANCH   3   4
TORSDOF 10
