REMARK  10 active torsions:
REMARK  status: ('A' for Active; 'I' for Inactive)
REMARK    1  A    between atoms: N1_1  and  C1_4 
REMARK    2  A    between atoms: C4_9  and  N3_10 
REMARK    3  A    between atoms: N3_10  and  C5_12 
REMARK    4  A    between atoms: C5_12  and  C6_13 
REMARK    5  A    between atoms: C6_13  and  N4_14 
REMARK    6  A    between atoms: N4_14  and  C7_16 
REMARK    7  A    between atoms: N10_29  and  C11_30 
REMARK    8  A    between atoms: C11_30  and  C12_31 
REMARK    9  A    between atoms: C12_31  and  C13_32 
REMARK   10  A    between atoms: C13_32  and  N11_33 
ROOT
HETATM    1  C7  UNL     1      -0.785   0.411   0.375  1.00  0.00     0.136 A 
HETATM    2  N5  UNL     1      -0.800   1.137  -0.757  1.00  0.00    -0.315 N 
ATOM      3  H5  UNL     1       0.044   1.634  -1.042  1.00  0.00     0.170 HD
HETATM    4  C8  UNL     1      -1.914   1.224  -1.530  1.00  0.00     0.195 A 
HETATM    5  N6  UNL     1      -1.934   1.989  -2.725  1.00  0.00    -0.063 NA
HETATM    6  N7  UNL     1      -3.049   0.586  -1.190  1.00  0.00    -0.313 N 
ATOM      7  H7  UNL     1      -3.875   0.665  -1.783  1.00  0.00     0.170 HD
HETATM    8  C9  UNL     1      -3.094  -0.149  -0.079  1.00  0.00     0.158 A 
HETATM    9  C10 UNL     1      -1.948  -0.243   0.722  1.00  0.00     0.139 A 
HETATM   10  N8  UNL     1      -2.326  -1.045   1.747  1.00  0.00    -0.279 N 
ATOM     11  H8  UNL     1      -1.735  -1.331   2.527  1.00  0.00     0.189 HD
HETATM   12  N9  UNL     1      -3.588  -1.396   1.568  1.00  0.00    -0.238 N 
ATOM     13  H9  UNL     1      -4.112  -2.000   2.201  1.00  0.00     0.208 HD
HETATM   14  N10 UNL     1      -4.080  -0.869   0.472  1.00  0.00    -0.260 N 
ENDROOT
BRANCH   1  15
HETATM   15  N4  UNL     1       0.244   0.296   1.142  1.00  0.00    -0.373 N 
ATOM     16  H4  UNL     1       0.162  -0.277   1.982  1.00  0.00     0.161 HD
BRANCH  15  17
HETATM   17  C6  UNL     1       1.510   0.940   0.869  1.00  0.00     0.141 C 
BRANCH  17  18
HETATM   18  C5  UNL     1       2.323   0.871   2.141  1.00  0.00     0.139 C 
BRANCH  18  19
HETATM   19  N3  UNL     1       3.622   1.462   2.049  1.00  0.00    -0.388 N 
ATOM     20  H3  UNL     1       3.809   2.317   2.573  1.00  0.00     0.159 HD
BRANCH  19  21
HETATM   21  C4  UNL     1       4.673   0.901   1.249  1.00  0.00     0.030 A 
HETATM   22  C3  UNL     1       4.572  -0.355   0.776  1.00  0.00     0.060 A 
HETATM   23  C2  UNL     1       5.565  -0.951  -0.029  1.00  0.00     0.053 A 
HETATM   24  N2  UNL     1       5.554  -2.168  -0.536  1.00  0.00    -0.336 N 
HETATM   25  C16 UNL     1       6.646  -0.165  -0.300  1.00  0.00     0.035 A 
HETATM   26  C1  UNL     1       6.587  -2.556  -1.276  1.00  0.00     0.143 A 
ATOM     27  H2  UNL     1       4.770  -2.797  -0.364  1.00  0.00     0.168 HD
HETATM   28  S1  UNL     1       7.607  -1.191  -1.268  1.00  0.00    -0.052 SA
HETATM   29  C15 UNL     1       6.756   1.147   0.193  1.00  0.00     0.023 A 
HETATM   30  C14 UNL     1       5.772   1.707   0.977  1.00  0.00     0.030 A 
BRANCH  26  31
HETATM   31  N1  UNL     1       6.754  -3.725  -1.862  1.00  0.00    -0.380 N 
ATOM     32  H12 UNL     1       6.143  -4.542  -1.867  1.00  0.00     0.158 HD
ATOM     33  H11 UNL     1       7.547  -4.023  -2.430  1.00  0.00     0.158 HD
ENDBRANCH  26  31
ENDBRANCH  19  21
ENDBRANCH  18  19
ENDBRANCH  17  18
ENDBRANCH  15  17
ENDBRANCH   1  15
BRANCH  14  34
HETATM   34  C11 UNL     1      -5.422  -1.023  -0.058  1.00  0.00     0.154 C 
BRANCH  34  35
HETATM   35  C12 UNL     1      -6.303   0.076   0.505  1.00  0.00     0.049 C 
BRANCH  35  36
HETATM   36  C13 UNL     1      -7.691  -0.118  -0.069  1.00  0.00     0.231 C 
BRANCH  36  37
HETATM   37  N11 UNL     1      -7.710  -0.043  -1.508  1.00  0.00    -0.079 N 
ATOM     38 3H11 UNL     1      -7.297   0.830  -1.835  1.00  0.00     0.274 HD
ATOM     39 2H11 UNL     1      -7.048  -0.702  -1.918  1.00  0.00     0.274 HD
ATOM     40 1H11 UNL     1      -8.645  -0.174  -1.895  1.00  0.00     0.274 HD
ENDBRANCH  36  37
ENDBRANCH  35  36
ENDBRANCH  34  35
ENDBRANCH  14  34
TORSDOF 10
