REMARK  9 active torsions:
REMARK  status: ('A' for Active; 'I' for Inactive)
REMARK    1  A    between atoms: C3_10  and  S1_11 
REMARK    2  A    between atoms: S1_11  and  C4_12 
REMARK    3  A    between atoms: C4_12  and  C5_13 
REMARK    4  A    between atoms: C7_18  and  N6_19 
REMARK    5  A    between atoms: C10_28  and  S2_29 
REMARK    6  A    between atoms: S2_29  and  C11_30 
REMARK    7  A    between atoms: C11_30  and  C12_31 
REMARK    8  A    between atoms: C12_31  and  C13_32 
REMARK    9  A    between atoms: C13_32  and  O3_33 
ROOT
HETATM    1  N1  UNL     1       3.195  -4.451   2.234  1.00  0.00    -0.234 N 
ATOM      2  H11 UNL     1       4.095  -4.845   1.961  1.00  0.00     0.174 HD
ATOM      3  H12 UNL     1       2.703  -4.824   3.046  1.00  0.00     0.174 HD
HETATM    4  C1  UNL     1       2.710  -3.440   1.596  1.00  0.00     0.678 A 
HETATM    5  N2  UNL     1       1.501  -2.911   1.963  1.00  0.00    -0.174 N 
ATOM      6  H2  UNL     1       1.011  -3.284   2.776  1.00  0.00     0.186 HD
HETATM    7  C2  UNL     1       0.962  -1.916   1.268  1.00  0.00     0.160 A 
HETATM    8  N3  UNL     1      -0.199  -1.178   1.317  1.00  0.00    -0.314 N 
ATOM      9  H3  UNL     1      -0.938  -1.281   2.012  1.00  0.00     0.170 HD
HETATM   10  C3  UNL     1      -0.200  -0.285   0.284  1.00  0.00     0.189 A 
HETATM   11  O2  UNL     1       0.902  -0.463  -0.364  1.00  0.00    -0.281 OA
HETATM   12  C9  UNL     1       1.611  -1.413   0.177  1.00  0.00     0.157 A 
HETATM   13  C10 UNL     1       2.859  -1.951  -0.197  1.00  0.00     0.124 A 
HETATM   14  N8  UNL     1       3.350  -2.954   0.539  1.00  0.00    -0.183 N 
ATOM     15  H8  UNL     1       4.249  -3.360   0.279  1.00  0.00     0.185 HD
ENDROOT
BRANCH  10  16
HETATM   16  S1  UNL     1      -1.544   0.882  -0.020  1.00  0.00    -0.081 SA
BRANCH  16  17
HETATM   17  C4  UNL     1      -3.017  -0.268  -0.177  1.00  0.00     0.130 C 
BRANCH  17  18
HETATM   18  C5  UNL     1      -4.201   0.534  -0.465  1.00  0.00     0.062 A 
HETATM   19  C6  UNL     1      -5.017   0.879   0.627  1.00  0.00     0.144 A 
HETATM   20  N4  UNL     1      -4.525   0.612   1.920  1.00  0.00    -0.081 NA
HETATM   21  N5  UNL     1      -6.185   1.522   0.399  1.00  0.00    -0.178 N 
HETATM   22  C7  UNL     1      -6.600   1.847  -0.807  1.00  0.00     0.680 A 
ATOM     23  H5  UNL     1      -6.771   1.766   1.198  1.00  0.00     0.185 HD
HETATM   24  N7  UNL     1      -5.821   1.516  -1.854  1.00  0.00    -0.156 N 
HETATM   25  C8  UNL     1      -4.650   0.878  -1.702  1.00  0.00     0.270 A 
ATOM     26  H7  UNL     1      -6.131   1.758  -2.795  1.00  0.00     0.187 HD
HETATM   27  O1  UNL     1      -3.932   0.584  -2.711  1.00  0.00    -0.267 OA
BRANCH  22  28
HETATM   28  N6  UNL     1      -7.686   2.519  -1.036  1.00  0.00    -0.234 N 
ATOM     29  H62 UNL     1      -8.276   2.770  -0.243  1.00  0.00     0.174 HD
ATOM     30  H61 UNL     1      -8.008   2.771  -1.971  1.00  0.00     0.174 HD
ENDBRANCH  22  28
ENDBRANCH  17  18
ENDBRANCH  16  17
ENDBRANCH  10  16
BRANCH  13  31
HETATM   31  S2  UNL     1       3.659  -1.214  -1.606  1.00  0.00    -0.109 SA
BRANCH  31  32
HETATM   32  C11 UNL     1       4.925  -0.053  -1.087  1.00  0.00     0.083 C 
BRANCH  32  33
HETATM   33  C12 UNL     1       4.486   1.154  -0.346  1.00  0.00     0.036 C 
BRANCH  33  34
HETATM   34  C13 UNL     1       5.771   1.966  -0.063  1.00  0.00     0.165 C 
BRANCH  34  35
HETATM   35  O3  UNL     1       6.702   1.232   0.650  1.00  0.00    -0.401 OA
ATOM     36  H3  UNL     1       7.492   1.731   0.824  1.00  0.00     0.209 HD
ENDBRANCH  34  35
ENDBRANCH  33  34
ENDBRANCH  32  33
ENDBRANCH  31  32
ENDBRANCH  13  31
TORSDOF 9
