REMARK  8 active torsions:
REMARK  status: ('A' for Active; 'I' for Inactive)
REMARK       I    between atoms: N1_1  and  C1_4 
REMARK       I    between atoms: C1_4  and  N3_6 
REMARK    1  A    between atoms: N3_6  and  N4_8 
REMARK    2  A    between atoms: N4_8  and  C2_9 
REMARK    3  A    between atoms: C4_15  and  N7_16 
REMARK    4  A    between atoms: C6_21  and  N8_22 
REMARK    5  A    between atoms: N8_22  and  C7_24 
REMARK    6  A    between atoms: C7_24  and  C8_25 
REMARK    7  A    between atoms: C8_25  and  N9_26 
REMARK    8  A    between atoms: C9_30  and  C10_31 
ROOT
HETATM    1  C2  UNL     1       1.433  -0.395   0.430  1.00  0.00     0.224 A 
HETATM    2  N5  UNL     1       1.452   0.878   0.866  1.00  0.00    -0.313 N 
ATOM      3  H5  UNL     1       2.339   1.232   1.224  1.00  0.00     0.170 HD
HETATM    4  C3  UNL     1       0.391   1.739   0.872  1.00  0.00     0.129 A 
HETATM    5  N6  UNL     1       0.374   2.996   1.293  1.00  0.00    -0.317 N 
ATOM      6  H6  UNL     1       1.223   3.421   1.665  1.00  0.00     0.169 HD
HETATM    7  C4  UNL     1      -0.731   3.691   1.231  1.00  0.00     0.218 A 
HETATM    8  S1  UNL     1      -1.834   2.574   0.556  1.00  0.00    -0.042 SA
HETATM    9  C5  UNL     1      -0.784   1.239   0.386  1.00  0.00     0.080 A 
HETATM   10  C6  UNL     1      -0.871  -0.084  -0.085  1.00  0.00     0.071 A 
HETATM   11  C9  UNL     1       0.224  -0.922  -0.074  1.00  0.00     0.129 A 
ENDROOT
BRANCH   1  12
HETATM   12  N4  UNL     1       2.495  -1.038   0.495  1.00  0.00    -0.303 NA
BRANCH  12  13
HETATM   13  N3  UNL     1       3.560  -1.696   0.557  1.00  0.00    -0.205 N 
HETATM   14  C1  UNL     1       4.708  -1.445  -0.273  1.00  0.00     0.211 C 
HETATM   15  N1  UNL     1       5.335  -2.376  -0.888  1.00  0.00    -0.372 N 
HETATM   16  N2  UNL     1       5.148  -0.110  -0.401  1.00  0.00    -0.062 NA
ATOM     17  H12 UNL     1       6.149  -2.198  -1.476  1.00  0.00     0.158 HD
ATOM     18  H11 UNL     1       5.017  -3.341  -0.795  1.00  0.00     0.158 HD
ATOM     19  H3  UNL     1       3.616  -2.455   1.236  1.00  0.00     0.204 HD
ENDBRANCH  12  13
ENDBRANCH   1  12
BRANCH  11  20
HETATM   20  C10 UNL     1       0.213  -2.275  -0.540  1.00  0.00     0.216 C 
HETATM   21  O3  UNL     1      -0.796  -2.831  -1.006  1.00  0.00    -0.644 OA
HETATM   22  O4  UNL     1       1.360  -3.055  -0.492  1.00  0.00    -0.644 OA
ENDBRANCH  11  20
BRANCH  10  23
HETATM   23  N8  UNL     1      -2.138  -0.469  -0.558  1.00  0.00    -0.386 N 
ATOM     24  H8  UNL     1      -2.250  -1.425  -0.895  1.00  0.00     0.159 HD
BRANCH  23  25
HETATM   25  C7  UNL     1      -3.295   0.401  -0.599  1.00  0.00     0.147 C 
BRANCH  25  26
HETATM   26  C8  UNL     1      -4.506  -0.377  -1.167  1.00  0.00     0.249 C 
BRANCH  26  27
HETATM   27  N9  UNL     1      -4.812  -1.517  -0.345  1.00  0.00    -0.078 N 
ATOM     28  H93 UNL     1      -4.000  -2.121  -0.221  1.00  0.00     0.274 HD
ATOM     29  H92 UNL     1      -4.957  -1.252   0.629  1.00  0.00     0.274 HD
ATOM     30  H91 UNL     1      -5.610  -2.030  -0.719  1.00  0.00     0.274 HD
ENDBRANCH  26  27
ENDBRANCH  25  26
ENDBRANCH  23  25
ENDBRANCH  10  23
BRANCH   7  31
HETATM   31  N7  UNL     1      -0.932   5.052   1.639  1.00  0.00    -0.090 N 
HETATM   32  O1  UNL     1      -2.055   5.540   1.501  1.00  0.00    -0.530 OA
HETATM   33  O2  UNL     1       0.096   5.753   2.154  1.00  0.00    -0.530 OA
ENDBRANCH   7  31
TORSDOF 8
