REMARK  7 active torsions:
REMARK  status: ('A' for Active; 'I' for Inactive)
REMARK    1  A    between atoms: S1_2  and  C2_3 
REMARK    2  A    between atoms: C4_10  and  N3_11 
REMARK       I    between atoms: N3_11  and  C5_13 
REMARK    3  A    between atoms: C7_16  and  N4_17 
REMARK    4  A    between atoms: N4_17  and  N5_19 
REMARK    5  A    between atoms: N5_19  and  C8_21 
REMARK    6  A    between atoms: C9_26  and  N8_27 
REMARK    7  A    between atoms: N8_27  and  N9_29 
ROOT
HETATM    1  C2  UNL     1      -2.888  -1.228   1.983  1.00  0.00     0.147 A 
HETATM    2  N1  UNL     1      -3.283  -1.563   0.757  1.00  0.00    -0.321 N 
ATOM      3  H1  UNL     1      -4.115  -2.139   0.630  1.00  0.00     0.169 HD
HETATM    4  C3  UNL     1      -2.594  -1.147  -0.305  1.00  0.00     0.132 A 
HETATM    5  N2  UNL     1      -2.976  -1.473  -1.517  1.00  0.00    -0.383 N 
ATOM      6  H21 UNL     1      -2.449  -1.155  -2.330  1.00  0.00     0.157 HD
ATOM      7  H22 UNL     1      -3.808  -2.050  -1.641  1.00  0.00     0.157 HD
HETATM    8  C4  UNL     1      -1.454  -0.357  -0.135  1.00  0.00     0.124 A 
HETATM    9  C7  UNL     1      -1.041  -0.010   1.105  1.00  0.00     0.153 A 
HETATM   10  N11 UNL     1      -1.796  -0.472   2.155  1.00  0.00    -0.320 N 
ATOM     11  H11 UNL     1      -1.514  -0.229   3.105  1.00  0.00     0.169 HD
ENDROOT
BRANCH   9  12
HETATM   12  N4  UNL     1       0.080   0.759   1.368  1.00  0.00    -0.269 N 
ATOM     13  H4  UNL     1       0.242   0.950   2.357  1.00  0.00     0.189 HD
BRANCH  12  14
HETATM   14  N5  UNL     1       1.014   1.310   0.517  1.00  0.00    -0.129 N 
ATOM     15  H5  UNL     1       0.845   2.242   0.140  1.00  0.00     0.205 HD
BRANCH  14  16
HETATM   16  C8  UNL     1       2.220   0.618   0.141  1.00  0.00     0.726 A 
HETATM   17  N6  UNL     1       2.632  -0.603   0.518  1.00  0.00    -0.116 N 
HETATM   18  N7  UNL     1       3.801  -0.883  -0.047  1.00  0.00    -0.116 N 
ATOM     19  H6  UNL     1       2.122  -1.224   1.146  1.00  0.00     0.206 HD
HETATM   20  C9  UNL     1       4.149   0.155  -0.792  1.00  0.00     0.731 A 
ATOM     21  H7  UNL     1       4.335  -1.744   0.072  1.00  0.00     0.206 HD
HETATM   22  N10 UNL     1       3.171   1.091  -0.679  1.00  0.00    -0.017 N 
ATOM     23  H10 UNL     1       3.161   2.001  -1.140  1.00  0.00     0.203 HD
BRANCH  20  24
HETATM   24  N8  UNL     1       5.205   0.339  -1.527  1.00  0.00    -0.070 N 
ATOM     25  H8  UNL     1       5.299   1.217  -2.037  1.00  0.00     0.212 HD
BRANCH  24  26
HETATM   26  N9  UNL     1       6.210  -0.612  -1.646  1.00  0.00    -0.024 N 
HETATM   27  O2  UNL     1       6.864  -1.025  -0.647  1.00  0.00    -0.516 OA
HETATM   28  O3  UNL     1       6.517  -1.132  -2.883  1.00  0.00    -0.516 OA
ENDBRANCH  24  26
ENDBRANCH  20  24
ENDBRANCH  14  16
ENDBRANCH  12  14
ENDBRANCH   9  12
BRANCH   8  29
HETATM   29  N3  UNL     1      -0.766   0.054  -1.293  1.00  0.00    -0.321 N 
HETATM   30  C5  UNL     1      -1.037   1.217  -2.024  1.00  0.00     0.218 C 
HETATM   31  C6  UNL     1      -0.251   1.551  -3.223  1.00  0.00     0.117 C 
HETATM   32  O1  UNL     1      -1.955   1.982  -1.657  1.00  0.00    -0.274 OA
ATOM     33  H3  UNL     1      -0.009  -0.544  -1.626  1.00  0.00     0.169 HD
ENDBRANCH   8  29
BRANCH   1  34
HETATM   34  S1  UNL     1      -3.831  -1.800   3.386  1.00  0.00    -0.098 SA
HETATM   35  C1  UNL     1      -5.123  -0.636   3.841  1.00  0.00     0.099 C 
ENDBRANCH   1  34
TORSDOF 7
