REMARK  10 active torsions:
REMARK  status: ('A' for Active; 'I' for Inactive)
REMARK    1  A    between atoms: N1_1  and  C1_4 
REMARK    2  A    between atoms: C3_10  and  N4_11 
REMARK    3  A    between atoms: N4_11  and  N5_13 
REMARK    4  A    between atoms: N6_16  and  C4_17 
REMARK    5  A    between atoms: C4_17  and  C5_18 
REMARK    6  A    between atoms: C5_18  and  N7_19 
REMARK    7  A    between atoms: C5_18  and  N8_23 
REMARK    8  A    between atoms: C8_29  and  N9_30 
REMARK    9  A    between atoms: N9_30  and  C9_32 
REMARK   10  A    between atoms: C9_32  and  C10_33 
ROOT
HETATM    1  C1  UNL     1      -0.029   1.807  -2.102  1.00  0.00     0.127 A 
HETATM    2  N2  UNL     1      -1.243   2.045  -2.651  1.00  0.00    -0.325 N 
ATOM      3  H2  UNL     1      -1.360   2.754  -3.375  1.00  0.00     0.169 HD
HETATM    4  C2  UNL     1      -2.303   1.315  -2.214  1.00  0.00     0.150 A 
HETATM    5  N3  UNL     1      -3.615   1.313  -2.563  1.00  0.00    -0.173 N 
ATOM      6  H3  UNL     1      -4.038   1.918  -3.267  1.00  0.00     0.186 HD
HETATM    7  C3  UNL     1      -4.267   0.395  -1.840  1.00  0.00     0.701 A 
HETATM    8  N6  UNL     1      -3.351  -0.182  -1.032  1.00  0.00    -0.174 N 
HETATM    9  C6  UNL     1      -2.127   0.359  -1.235  1.00  0.00     0.098 A 
HETATM   10  C7  UNL     1      -0.879   0.118  -0.675  1.00  0.00     0.067 A 
HETATM   11  C8  UNL     1       0.182   0.874  -1.137  1.00  0.00     0.074 A 
ENDROOT
BRANCH  11  12
HETATM   12  N9  UNL     1       1.443   0.607  -0.548  1.00  0.00    -0.381 N 
ATOM     13  H9  UNL     1       2.251   1.145  -0.862  1.00  0.00     0.160 HD
BRANCH  12  14
HETATM   14  C9  UNL     1       1.636  -0.390   0.475  1.00  0.00     0.178 C 
BRANCH  14  15
HETATM   15  C10 UNL     1       3.059  -0.442   0.897  1.00  0.00     0.044 A 
HETATM   16  C11 UNL     1       4.014  -1.250   0.319  1.00  0.00     0.124 A 
HETATM   17  N10 UNL     1       5.204  -1.070   0.921  1.00  0.00    -0.317 N 
HETATM   18  C12 UNL     1       6.434  -1.588   0.760  1.00  0.00     0.098 A 
HETATM   19  C16 UNL     1       4.981  -0.140   1.883  1.00  0.00     0.111 A 
HETATM   20  C13 UNL     1       7.452  -1.159   1.582  1.00  0.00     0.018 A 
HETATM   21  C14 UNL     1       7.241  -0.208   2.570  1.00  0.00     0.005 A 
HETATM   22  C15 UNL     1       5.972   0.306   2.715  1.00  0.00     0.049 A 
HETATM   23  N11 UNL     1       3.680   0.233   1.859  1.00  0.00    -0.343 N 
ATOM     24  H11 UNL     1       3.247   0.919   2.477  1.00  0.00     0.167 HD
ENDBRANCH  14  15
ENDBRANCH  12  14
ENDBRANCH  11  12
BRANCH   1  25
HETATM   25  N1  UNL     1       0.931   2.526  -2.554  1.00  0.00    -0.384 N 
ATOM     26  H12 UNL     1       0.773   3.226  -3.278  1.00  0.00     0.157 HD
ATOM     27  H11 UNL     1       1.846   2.347  -2.140  1.00  0.00     0.157 HD
ENDBRANCH   1  25
BRANCH   8  28
HETATM   28  C4  UNL     1      -3.606  -1.251  -0.074  1.00  0.00     0.210 C 
BRANCH  28  29
HETATM   29  C5  UNL     1      -4.048  -0.736   1.272  1.00  0.00     0.396 C 
BRANCH  29  30
HETATM   30  N7  UNL     1      -3.062   0.112   1.848  1.00  0.00    -0.049 N 
ATOM     31  H73 UNL     1      -2.155  -0.351   1.903  1.00  0.00     0.276 HD
ATOM     32  H72 UNL     1      -2.810   0.875   1.219  1.00  0.00     0.276 HD
ATOM     33  H71 UNL     1      -3.361   0.460   2.759  1.00  0.00     0.276 HD
ENDBRANCH  29  30
BRANCH  29  34
HETATM   34  N8  UNL     1      -4.266  -1.860   2.173  1.00  0.00    -0.049 N 
ATOM     35  H83 UNL     1      -4.919  -2.542   1.788  1.00  0.00     0.276 HD
ATOM     36  H82 UNL     1      -3.447  -2.464   2.241  1.00  0.00     0.276 HD
ATOM     37  H81 UNL     1      -4.565  -1.512   3.084  1.00  0.00     0.276 HD
ENDBRANCH  29  34
ENDBRANCH  28  29
ENDBRANCH   8  28
BRANCH   7  38
HETATM   38  N4  UNL     1      -5.534   0.084  -1.876  1.00  0.00    -0.138 N 
ATOM     39  H4  UNL     1      -5.911  -0.643  -1.268  1.00  0.00     0.205 HD
BRANCH  38  40
HETATM   40  N5  UNL     1      -6.356   0.767  -2.762  1.00  0.00    -0.331 N 
ATOM     41  H52 UNL     1      -5.964   1.491  -3.363  1.00  0.00     0.177 HD
ATOM     42  H51 UNL     1      -7.346   0.524  -2.790  1.00  0.00     0.177 HD
ENDBRANCH  38  40
ENDBRANCH   7  38
TORSDOF 10
