REMARK  8 active torsions:
REMARK  status: ('A' for Active; 'I' for Inactive)
REMARK    1  A    between atoms: C1_4  and  N2_5 
REMARK    2  A    between atoms: C1_4  and  S1_17 
REMARK    3  A    between atoms: N2_5  and  N3_7 
REMARK    4  A    between atoms: C2_9  and  N4_10 
REMARK    5  A    between atoms: S1_17  and  S2_18 
REMARK    6  A    between atoms: S2_18  and  N8_19 
REMARK    7  A    between atoms: C4_21  and  C5_22 
REMARK    8  A    between atoms: C4_21  and  C6_25 
ROOT
HETATM    1  N1  UNL     1       2.075   0.068  -3.043  1.00  0.00    -0.378 N 
ATOM      2  H11 UNL     1       2.074   0.270  -4.043  1.00  0.00     0.158 HD
ATOM      3  H12 UNL     1       2.816  -0.532  -2.680  1.00  0.00     0.158 HD
HETATM    4  C1  UNL     1       1.192   0.535  -2.249  1.00  0.00     0.165 C 
ENDROOT
BRANCH   4   5
HETATM    5  N2  UNL     1       1.193   0.249  -0.835  1.00  0.00    -0.279 N 
ATOM      6  H2  UNL     1       0.831   0.962  -0.202  1.00  0.00     0.189 HD
BRANCH   5   7
HETATM    7  N3  UNL     1       1.644  -0.905  -0.300  1.00  0.00    -0.292 N 
HETATM    8  C2  UNL     1       2.711  -1.277   0.233  1.00  0.00     0.225 C 
ATOM      9  H3  UNL     1       0.949  -1.650  -0.340  1.00  0.00     0.187 HD
BRANCH   8  10
HETATM   10  N4  UNL     1       3.886  -0.551   0.468  1.00  0.00    -0.184 N 
HETATM   11  N5  UNL     1       5.084  -1.092   1.043  1.00  0.00     0.004 NA
HETATM   12  N6  UNL     1       6.103  -0.524   0.281  1.00  0.00    -0.004 NA
HETATM   13  N7  UNL     1       5.656   0.761   0.017  1.00  0.00    -0.236 N 
HETATM   14  C3  UNL     1       4.233   0.795   0.224  1.00  0.00     0.357 C 
ATOM     15  H7  UNL     1       6.236   1.548  -0.274  1.00  0.00     0.188 HD
HETATM   16  O1  UNL     1       3.499   1.808   0.191  1.00  0.00    -0.244 OA
ENDBRANCH   8  10
ENDBRANCH   5   7
ENDBRANCH   4   5
BRANCH   4  17
HETATM   17  S1  UNL     1      -0.096   1.577  -2.880  1.00  0.00     0.002 SA
BRANCH  17  18
HETATM   18  S2  UNL     1      -1.425   2.214  -1.359  1.00  0.00     0.028 SA
BRANCH  18  19
HETATM   19  N8  UNL     1      -2.765   1.108  -1.143  1.00  0.00    -0.313 N 
HETATM   20  C4  UNL     1      -3.190   0.812   0.036  1.00  0.00     0.150 C 
ATOM     21  H8  UNL     1      -3.214   0.694  -1.960  1.00  0.00     0.175 HD
BRANCH  20  22
HETATM   22  C5  UNL     1      -2.624   1.343   1.237  1.00  0.00     0.230 C 
HETATM   23  O2  UNL     1      -1.648   2.152   1.152  1.00  0.00    -0.643 OA
HETATM   24  O3  UNL     1      -3.057   1.044   2.498  1.00  0.00    -0.643 OA
ENDBRANCH  20  22
BRANCH  20  25
HETATM   25  C6  UNL     1      -4.317  -0.125   0.076  1.00  0.00     0.109 A 
HETATM   26  C7  UNL     1      -4.988  -0.631   1.160  1.00  0.00     0.041 A 
HETATM   27  C8  UNL     1      -5.977  -1.478   0.680  1.00  0.00     0.027 A 
HETATM   28  C9  UNL     1      -5.873  -1.458  -0.686  1.00  0.00     0.142 A 
HETATM   29  O4  UNL     1      -4.897  -0.660  -0.990  1.00  0.00    -0.320 OA
ENDBRANCH  20  25
ENDBRANCH  18  19
ENDBRANCH  17  18
ENDBRANCH   4  17
TORSDOF 8
