REMARK  3 active torsions:
REMARK  status: ('A' for Active; 'I' for Inactive)
REMARK    1  A    between atoms: N1_1  and  N2_4 
REMARK    2  A    between atoms: N2_4  and  C1_6 
REMARK    3  A    between atoms: C3_8  and  C4_9 
ROOT
HETATM    1  C1  UNL     1      -1.768   0.388   0.517  1.00  0.00     0.136 A 
HETATM    2  C2  UNL     1      -0.662  -0.408   0.372  1.00  0.00     0.083 A 
HETATM    3  C3  UNL     1       0.468   0.405   0.334  1.00  0.00     0.065 A 
HETATM    4  N5  UNL     1       0.018   1.649   0.456  1.00  0.00    -0.298 N 
ATOM      5  H5  UNL     1       0.603   2.484   0.465  1.00  0.00     0.187 HD
HETATM    6  N6  UNL     1      -1.316   1.645   0.565  1.00  0.00    -0.284 N 
ATOM      7  H6  UNL     1      -1.899   2.475   0.669  1.00  0.00     0.188 HD
ENDROOT
BRANCH   3   8
HETATM    8  C4  UNL     1       1.836  -0.074   0.189  1.00  0.00     0.026 A 
HETATM    9  C5  UNL     1       2.255  -1.381   0.066  1.00  0.00     0.122 A 
HETATM   10  N3  UNL     1       3.598  -1.384  -0.045  1.00  0.00    -0.311 N 
HETATM   11  N4  UNL     1       4.041  -0.144   0.003  1.00  0.00    -0.311 N 
ATOM     12  H3  UNL     1       4.180  -2.215  -0.150  1.00  0.00     0.186 HD
HETATM   13  C6  UNL     1       2.977   0.683   0.147  1.00  0.00     0.122 A 
ATOM     14  H4  UNL     1       5.018   0.144  -0.058  1.00  0.00     0.186 HD
ENDBRANCH   3   8
BRANCH   1  15
HETATM   15  N2  UNL     1      -3.096  -0.114   0.592  1.00  0.00    -0.291 N 
ATOM     16  H2  UNL     1      -3.514  -0.358   1.490  1.00  0.00     0.188 HD
BRANCH  15  17
HETATM   17  N1  UNL     1      -3.803  -0.262  -0.582  1.00  0.00    -0.344 N 
ATOM     18  H12 UNL     1      -3.371  -0.014  -1.472  1.00  0.00     0.176 HD
ATOM     19  H11 UNL     1      -4.756  -0.622  -0.528  1.00  0.00     0.176 HD
ENDBRANCH  15  17
ENDBRANCH   1  15
TORSDOF 3
