REMARK  5 active torsions:
REMARK  status: ('A' for Active; 'I' for Inactive)
REMARK    1  A    between atoms: N1_1  and  C1_4 
REMARK    2  A    between atoms: C5_10  and  N3_11 
REMARK    3  A    between atoms: N3_11  and  N4_13 
REMARK    4  A    between atoms: C6_15  and  C7_16 
REMARK    5  A    between atoms: N5_17  and  N6_19 
ROOT
HETATM    1  N3  UNL     1      -0.060  -0.869   0.173  1.00  0.00    -0.297 N 
ATOM      2  H3  UNL     1       0.062  -1.740  -0.343  1.00  0.00     0.187 HD
ENDROOT
BRANCH   1   3
HETATM    3  C5  UNL     1      -1.230  -0.087  -0.006  1.00  0.00     0.091 A 
HETATM    4  C1  UNL     1      -2.250  -0.442  -0.865  1.00  0.00     0.127 A 
HETATM    5  N2  UNL     1      -3.361   0.339  -1.009  1.00  0.00    -0.351 N 
HETATM    6  C2  UNL     1      -3.436   1.460  -0.294  1.00  0.00     0.090 A 
ATOM      7  H2  UNL     1      -4.112   0.071  -1.646  1.00  0.00     0.166 HD
HETATM    8  C3  UNL     1      -2.473   1.886   0.579  1.00  0.00     0.019 A 
HETATM    9  C4  UNL     1      -1.355   1.100   0.724  1.00  0.00     0.036 A 
BRANCH   4  10
HETATM   10  N1  UNL     1      -2.184  -1.521  -1.556  1.00  0.00    -0.384 N 
ATOM     11  H12 UNL     1      -2.938  -1.783  -2.191  1.00  0.00     0.157 HD
ATOM     12  H11 UNL     1      -1.354  -2.104  -1.448  1.00  0.00     0.157 HD
ENDBRANCH   4  10
ENDBRANCH   1   3
BRANCH   1  13
HETATM   13  N4  UNL     1       0.930  -0.430   1.070  1.00  0.00    -0.310 N 
HETATM   14  C6  UNL     1       2.165  -0.392   0.681  1.00  0.00     0.125 C 
ATOM     15  H4  UNL     1       0.678  -0.145   2.016  1.00  0.00     0.186 HD
BRANCH  14  16
HETATM   16  C7  UNL     1       2.547  -0.793  -0.660  1.00  0.00     0.125 C 
HETATM   17  N5  UNL     1       3.770  -0.745  -1.017  1.00  0.00    -0.317 N 
ATOM     18  H5  UNL     1       4.031  -1.027  -1.962  1.00  0.00     0.185 HD
BRANCH  17  19
HETATM   19  N6  UNL     1       4.757  -0.310  -0.128  1.00  0.00    -0.345 N 
ATOM     20  H62 UNL     1       4.479  -0.031   0.813  1.00  0.00     0.176 HD
ATOM     21  H61 UNL     1       5.735  -0.272  -0.414  1.00  0.00     0.176 HD
ENDBRANCH  17  19
ENDBRANCH  14  16
ENDBRANCH   1  13
TORSDOF 5
