REMARK  3 active torsions:
REMARK  status: ('A' for Active; 'I' for Inactive)
REMARK    1  A    between atoms: C4_5  and  N1_6 
REMARK    2  A    between atoms: N1_6  and  C5_8 
REMARK    3  A    between atoms: N5_17  and  C8_18 
ROOT
HETATM    1  C1  UNL     1      -2.638   2.204  -1.601  1.00  0.00     0.012 C 
HETATM    2  C2  UNL     1      -1.439   1.682  -0.794  1.00  0.00     0.015 C 
HETATM    3  C3  UNL     1      -1.316   2.558   0.406  1.00  0.00     0.088 C 
HETATM    4  S1  UNL     1       0.479   2.677   0.766  1.00  0.00    -0.092 SA
HETATM    5  C4  UNL     1       1.061   0.994   0.884  1.00  0.00     0.161 C 
HETATM    6  N4  UNL     1       0.506  -0.152   0.742  1.00  0.00    -0.281 N 
ATOM      7  H4  UNL     1       1.102  -0.969   0.873  1.00  0.00     0.189 HD
HETATM    8  N5  UNL     1      -0.855  -0.401   0.421  1.00  0.00    -0.312 N 
HETATM    9  C12 UNL     1      -1.679   0.241  -0.535  1.00  0.00     0.103 C 
HETATM   10  C13 UNL     1      -1.638  -0.458  -1.902  1.00  0.00     0.034 C 
ENDROOT
BRANCH   5  11
HETATM   11  N1  UNL     1       2.444   0.948   1.207  1.00  0.00    -0.308 N 
ATOM     12  H1  UNL     1       2.749   1.319   2.107  1.00  0.00     0.171 HD
BRANCH  11  13
HETATM   13  C5  UNL     1       3.426   0.403   0.323  1.00  0.00     0.177 C 
HETATM   14  N2  UNL     1       4.307  -0.492   0.551  1.00  0.00    -0.361 N 
HETATM   15  C6  UNL     1       5.119  -0.772  -0.606  1.00  0.00     0.142 C 
ATOM     16  H2  UNL     1       4.423  -0.957   1.451  1.00  0.00     0.162 HD
HETATM   17  C7  UNL     1       4.837   0.392  -1.536  1.00  0.00     0.142 C 
HETATM   18  N3  UNL     1       3.550   0.825  -1.017  1.00  0.00    -0.361 N 
ATOM     19  H3  UNL     1       2.848   1.350  -1.539  1.00  0.00     0.162 HD
ENDBRANCH  11  13
ENDBRANCH   5  11
BRANCH   8  20
HETATM   20  C8  UNL     1      -1.527  -1.475   1.170  1.00  0.00     0.038 C 
HETATM   21  C9  UNL     1      -2.018  -2.566   0.254  1.00  0.00     0.039 C 
HETATM   22  C10 UNL     1      -0.526  -2.146   2.119  1.00  0.00     0.039 C 
HETATM   23  C11 UNL     1      -2.607  -0.896   2.021  1.00  0.00     0.039 C 
ENDBRANCH   8  20
TORSDOF 3
