REMARK  1 active torsions:
REMARK  status: ('A' for Active; 'I' for Inactive)
REMARK    1  A    between atoms: C3_3  and  C4_4 
ROOT
HETATM    1  C4  UNL     1       1.480  -0.378   0.378  1.00  0.00     0.072 C 
HETATM    2  C5  UNL     1       0.210  -0.581   0.684  1.00  0.00     0.055 C 
HETATM    3  C6  UNL     1      -0.982  -0.123  -0.042  1.00  0.00     0.141 C 
HETATM    4  C7  UNL     1      -1.948   0.508   0.934  1.00  0.00     0.070 C 
HETATM    5  C8  UNL     1      -2.690  -0.682   1.562  1.00  0.00     0.127 C 
HETATM    6  N1  UNL     1      -2.931  -1.474   0.372  1.00  0.00    -0.372 N 
HETATM    7  C9  UNL     1      -4.159  -2.186   0.101  1.00  0.00     0.150 C 
HETATM    8  C10 UNL     1      -1.744  -1.376  -0.392  1.00  0.00     0.112 C 
HETATM    9  N2  UNL     1      -1.369  -2.244  -1.271  1.00  0.00    -0.386 N 
ATOM     10  H21 UNL     1      -1.885  -3.092  -1.508  1.00  0.00     0.157 HD
ATOM     11  H22 UNL     1      -0.513  -2.173  -1.822  1.00  0.00     0.157 HD
HETATM   12  O1  UNL     1      -0.803   0.538  -1.195  1.00  0.00    -0.358 OA
HETATM   13  C11 UNL     1      -0.024   1.633  -1.268  1.00  0.00     0.184 C 
HETATM   14  C12 UNL     1      -0.197   2.633  -0.148  1.00  0.00     0.045 C 
HETATM   15  C13 UNL     1       1.449   1.393  -1.436  1.00  0.00     0.237 A 
HETATM   16  N3  UNL     1       1.986   1.435  -2.838  1.00  0.00    -0.122 NA
HETATM   17  S1  UNL     1       2.536   2.712  -1.919  1.00  0.00    -0.001 SA
HETATM   18  O2  UNL     1       1.950   0.323  -0.712  1.00  0.00    -0.309 OA
ENDROOT
BRANCH   1  19
HETATM   19  C3  UNL     1       2.435  -0.977   1.322  1.00  0.00     0.032 C 
HETATM   20  C2  UNL     1       3.724  -0.902   1.215  1.00  0.00    -0.028 C 
HETATM   21  C1  UNL     1       4.388  -0.193   0.112  1.00  0.00     0.036 C 
ENDBRANCH   1  19
TORSDOF 1
