REMARK  1 active torsions:
REMARK  status: ('A' for Active; 'I' for Inactive)
REMARK    1  A    between atoms: C6_7  and  C7_8 
ROOT
HETATM    1  C7  UNL     1      -0.788  -0.693  -0.036  1.00  0.00     0.145 C 
HETATM    2  N1  UNL     1      -1.146   0.393  -0.638  1.00  0.00    -0.287 N 
ATOM      3  H1  UNL     1      -0.470   0.903  -1.208  1.00  0.00     0.188 HD
HETATM    4  N2  UNL     1      -2.454   0.875  -0.514  1.00  0.00    -0.298 N 
ATOM      5  H2  UNL     1      -2.716   1.733  -0.999  1.00  0.00     0.183 HD
HETATM    6  C8  UNL     1      -3.445   0.183   0.287  1.00  0.00     0.174 C 
HETATM    7  C9  UNL     1      -4.441  -0.506  -0.617  1.00  0.00     0.065 C 
HETATM    8  C10 UNL     1      -5.692   0.332  -0.613  1.00  0.00     0.005 C 
HETATM    9  C11 UNL     1      -5.705   0.921   0.769  1.00  0.00     0.005 C 
HETATM   10  C12 UNL     1      -4.253   1.261   1.003  1.00  0.00     0.065 C 
HETATM   11  O2  UNL     1      -2.881  -0.702   1.189  1.00  0.00    -0.245 OA
HETATM   12  N3  UNL     1      -1.801  -1.331   0.736  1.00  0.00    -0.248 N 
ATOM     13  H3  UNL     1      -1.692  -2.322   0.952  1.00  0.00     0.196 HD
ENDROOT
BRANCH   1  14
HETATM   14  C6  UNL     1       0.591  -1.237  -0.143  1.00  0.00     0.195 C 
HETATM   15  O1  UNL     1       1.335  -0.401  -0.954  1.00  0.00    -0.370 OA
HETATM   16  C5  UNL     1       2.653  -0.771  -0.742  1.00  0.00     0.154 C 
HETATM   17  C4  UNL     1       3.606   0.394  -0.850  1.00  0.00     0.071 C 
HETATM   18  C14 UNL     1       2.792  -1.230   0.668  1.00  0.00     0.154 C 
HETATM   19  C2  UNL     1       4.362   0.341   0.441  1.00  0.00     0.057 C 
HETATM   20  C1  UNL     1       5.728  -0.233   0.182  1.00  0.00     0.045 C 
HETATM   21  C3  UNL     1       4.492   1.756   0.978  1.00  0.00     0.045 C 
HETATM   22  O3  UNL     1       3.616  -0.378   1.346  1.00  0.00    -0.373 OA
HETATM   23  C13 UNL     1       1.342  -1.168   1.163  1.00  0.00     0.074 C 
ENDBRANCH   1  14
TORSDOF 1
