REMARK  2 active torsions:
REMARK  status: ('A' for Active; 'I' for Inactive)
REMARK    1  A    between atoms: C6_6  and  N1_7 
REMARK    2  A    between atoms: N1_7  and  C7_9 
ROOT
HETATM    1  C7  UNL     1       0.756   0.304   0.398  1.00  0.00     0.153 A 
HETATM    2  N2  UNL     1       0.781   1.554   0.892  1.00  0.00    -0.241 N 
ATOM      3  H2  UNL     1      -0.043   2.094   1.154  1.00  0.00     0.196 HD
HETATM    4  O1  UNL     1       2.017   1.978   0.988  1.00  0.00    -0.215 OA
HETATM    5  C8  UNL     1       2.843   1.036   0.566  1.00  0.00     0.202 A 
HETATM    6  N3  UNL     1       4.171   0.969   0.461  1.00  0.00    -0.325 N 
ATOM      7  H3  UNL     1       4.751   1.760   0.740  1.00  0.00     0.169 HD
HETATM    8  C9  UNL     1       4.737  -0.153  -0.017  1.00  0.00     0.120 A 
HETATM    9  S1  UNL     1       6.528  -0.176  -0.130  1.00  0.00    -0.030 SA
HETATM   10  C10 UNL     1       4.012  -1.258  -0.413  1.00  0.00     0.149 A 
HETATM   11  C11 UNL     1       4.678  -2.427  -0.915  1.00  0.00     0.120 C 
HETATM   12  N4  UNL     1       5.206  -3.390  -1.326  1.00  0.00    -0.190 NA
HETATM   13  N5  UNL     1       2.671  -1.174  -0.301  1.00  0.00    -0.339 N 
ATOM     14  H5  UNL     1       2.093  -1.966  -0.581  1.00  0.00     0.167 HD
HETATM   15  C12 UNL     1       2.076  -0.044   0.182  1.00  0.00     0.133 A 
ENDROOT
BRANCH   1  16
HETATM   16  N1  UNL     1      -0.224  -0.479   0.144  1.00  0.00    -0.368 N 
ATOM     17  H1  UNL     1      -0.002  -1.400  -0.235  1.00  0.00     0.161 HD
BRANCH  16  18
HETATM   18  C6  UNL     1      -1.607  -0.169   0.348  1.00  0.00     0.087 C 
HETATM   19  C2  UNL     1      -2.310   0.262  -0.930  1.00  0.00     0.004 C 
HETATM   20  C1  UNL     1      -1.979   1.671  -1.318  1.00  0.00     0.012 C 
HETATM   21  C3  UNL     1      -3.761   0.228  -0.475  1.00  0.00     0.006 C 
HETATM   22  C4  UNL     1      -3.838  -0.892   0.555  1.00  0.00     0.002 C 
HETATM   23  C5  UNL     1      -2.424  -1.422   0.685  1.00  0.00     0.025 C 
ENDBRANCH  16  18
ENDBRANCH   1  16
TORSDOF 2
