REMARK  1 active torsions:
REMARK  status: ('A' for Active; 'I' for Inactive)
REMARK    1  A    between atoms: C5_8  and  N2_9 
ROOT
HETATM    1  N2  UNL     1      -0.406  -0.429  -0.499  1.00  0.00    -0.276 N 
HETATM    2  C6  UNL     1      -0.921   0.521  -1.461  1.00  0.00     0.152 C 
HETATM    3  C7  UNL     1      -2.104   1.184  -0.817  1.00  0.00     0.048 C 
HETATM    4  C8  UNL     1      -3.091   0.211  -0.241  1.00  0.00     0.153 C 
HETATM    5  C9  UNL     1      -3.949   0.948   0.724  1.00  0.00     0.070 C 
HETATM    6  N3  UNL     1      -4.603   1.518   1.489  1.00  0.00    -0.197 NA
HETATM    7  C10 UNL     1      -2.470  -0.954   0.416  1.00  0.00     0.091 C 
HETATM    8  S2  UNL     1      -3.524  -2.002   1.433  1.00  0.00    -0.035 SA
HETATM    9  N4  UNL     1      -1.233  -1.227   0.281  1.00  0.00    -0.292 N 
ATOM     10  H4  UNL     1      -0.844  -2.044   0.753  1.00  0.00     0.187 HD
ENDROOT
BRANCH   1  11
HETATM   11  C5  UNL     1       1.006  -0.517  -0.377  1.00  0.00     0.126 A 
HETATM   12  C4  UNL     1       1.668  -1.386  -1.203  1.00  0.00     0.091 A 
HETATM   13  C3  UNL     1       3.038  -1.483  -1.090  1.00  0.00     0.105 A 
HETATM   14  N1  UNL     1       3.657  -0.731  -0.187  1.00  0.00    -0.337 N 
HETATM   15  S1  UNL     1       3.816  -2.522  -2.081  1.00  0.00    -0.060 SA
HETATM   16  C2  UNL     1       2.973   0.124   0.620  1.00  0.00     0.079 A 
ATOM     17  H1  UNL     1       4.671  -0.796  -0.096  1.00  0.00     0.168 HD
HETATM   18  C1  UNL     1       3.669   0.946   1.612  1.00  0.00     0.089 C 
HETATM   19  N5  UNL     1       1.616   0.240   0.530  1.00  0.00    -0.331 N 
ATOM     20  H5  UNL     1       1.094   0.878   1.131  1.00  0.00     0.168 HD
ENDBRANCH   1  11
TORSDOF 1
