REMARK  0 active torsions:
REMARK  status: ('A' for Active; 'I' for Inactive)
ROOT
HETATM    1  C1  UNL     1       2.478  -0.285  -1.401  1.00  0.00     0.113 A 
HETATM    2  S1  UNL     1       2.163   1.320  -1.751  1.00  0.00    -0.128 SA
HETATM    3  C2  UNL     1       2.002   1.927  -0.117  1.00  0.00    -0.002 A 
HETATM    4  C3  UNL     1       2.205   0.830   0.655  1.00  0.00     0.019 A 
HETATM    5  C4  UNL     1       2.455  -0.341   0.021  1.00  0.00    -0.068 A 
HETATM    6  C5  UNL     1       2.722  -1.727   0.608  1.00  0.00     0.062 C 
HETATM    7  C6  UNL     1       1.894  -2.785  -0.120  1.00  0.00     0.236 C 
HETATM    8  N1  UNL     1       0.608  -2.270  -0.529  1.00  0.00    -0.075 N 
ATOM      9  H11 UNL     1       0.215  -2.846  -1.273  1.00  0.00     0.277 HD
ATOM     10  H12 UNL     1       0.721  -1.389  -1.031  1.00  0.00     0.277 HD
HETATM   11  C7  UNL     1      -0.334  -2.120   0.535  1.00  0.00     0.233 C 
HETATM   12  C8  UNL     1      -1.723  -2.009  -0.059  1.00  0.00     0.055 C 
HETATM   13  C9  UNL     1      -2.563  -0.997   0.723  1.00  0.00     0.234 C 
HETATM   14  N2  UNL     1      -3.329  -0.197  -0.213  1.00  0.00    -0.073 N 
ATOM     15  H21 UNL     1      -4.330  -0.350  -0.087  1.00  0.00     0.277 HD
ATOM     16  H22 UNL     1      -3.223  -0.551  -1.164  1.00  0.00     0.277 HD
HETATM   17  C10 UNL     1      -3.015   1.203  -0.152  1.00  0.00     0.253 C 
HETATM   18  C11 UNL     1      -1.937   1.569  -1.156  1.00  0.00     0.168 C 
HETATM   19  N3  UNL     1      -0.770   2.059  -0.461  1.00  0.00    -0.321 N 
ATOM     20  H3  UNL     1       0.060   1.468  -0.404  1.00  0.00     0.181 HD
HETATM   21  N4  UNL     1      -0.751   3.221   0.087  1.00  0.00    -0.251 N 
ATOM     22  H4  UNL     1      -1.568   3.830   0.043  1.00  0.00     0.207 HD
HETATM   23  N5  UNL     1       0.411   3.634   0.744  1.00  0.00    -0.318 N 
ATOM     24  H5  UNL     1       0.335   4.133   1.630  1.00  0.00     0.182 HD
HETATM   25  C12 UNL     1       1.699   3.370   0.197  1.00  0.00     0.186 C 
ENDROOT
TORSDOF 0
