REMARK  4 active torsions:
REMARK  status: ('A' for Active; 'I' for Inactive)
REMARK    1  A    between atoms: C2_2  and  C3_3 
REMARK    2  A    between atoms: C7_9  and  O3_10 
REMARK    3  A    between atoms: N1_15  and  O4_17 
REMARK    4  A    between atoms: C11_19  and  O5_21 
ROOT
HETATM    1  C1  UNL     1       3.169  -1.768   0.050  1.00  0.00     0.054 C 
HETATM    2  C2  UNL     1       2.892  -0.296   0.085  1.00  0.00     0.005 C 
HETATM    3  C4  UNL     1       1.750   0.266  -0.183  1.00  0.00     0.067 C 
HETATM    4  O2  UNL     1       1.383   1.633  -0.183  1.00  0.00    -0.340 OA
HETATM    5  C5  UNL     1       0.129   1.213   0.265  1.00  0.00     0.102 C 
HETATM    6  C6  UNL     1       0.171   1.059   1.752  1.00  0.00     0.050 C 
HETATM    7  C7  UNL     1      -1.068   1.950  -0.197  1.00  0.00     0.154 C 
HETATM    8  C8  UNL     1      -1.700   1.487  -1.465  1.00  0.00     0.041 C 
HETATM    9  C9  UNL     1      -2.386   0.152  -1.346  1.00  0.00     0.060 C 
HETATM   10  C10 UNL     1      -1.813  -0.730  -0.331  1.00  0.00     0.044 C 
HETATM   11  N1  UNL     1      -2.599  -1.166   0.556  1.00  0.00    -0.274 N 
ATOM     12  H1  UNL     1      -2.253  -1.785   1.290  1.00  0.00     0.193 HD
HETATM   13  C11 UNL     1      -0.400  -1.182  -0.217  1.00  0.00     0.107 C 
HETATM   14  C12 UNL     1      -0.111  -1.961   0.996  1.00  0.00     0.053 C 
HETATM   15  C13 UNL     1       0.415  -0.020  -0.565  1.00  0.00     0.120 C 
ENDROOT
BRANCH   2  16
HETATM   16  C3  UNL     1       4.039   0.565   0.462  1.00  0.00     0.267 C 
HETATM   17  O1  UNL     1       5.148   0.075   0.726  1.00  0.00    -0.302 OA
ENDBRANCH   2  16
BRANCH  13  18
HETATM   18  O5  UNL     1      -0.280  -2.099  -1.312  1.00  0.00    -0.383 OA
ATOM     19  H5  UNL     1       0.622  -2.388  -1.239  1.00  0.00     0.211 HD
ENDBRANCH  13  18
BRANCH   7  20
HETATM   20  O3  UNL     1      -0.843   3.342  -0.294  1.00  0.00    -0.393 OA
ATOM     21  H3  UNL     1      -1.612   3.815  -0.591  1.00  0.00     0.210 HD
ENDBRANCH   7  20
BRANCH  11  22
HETATM   22  O4  UNL     1      -3.921  -0.802   0.526  1.00  0.00    -0.290 OA
ATOM     23  H4  UNL     1      -4.512  -1.130   1.193  1.00  0.00     0.244 HD
ENDBRANCH  11  22
TORSDOF 4
