REMARK  6 active torsions:
REMARK  status: ('A' for Active; 'I' for Inactive)
REMARK    1  A    between atoms: C8_9  and  N2_10 
REMARK    2  A    between atoms: N2_10  and  S1_12 
REMARK    3  A    between atoms: S1_12  and  N3_15 
REMARK    4  A    between atoms: N3_15  and  C10_17 
REMARK    5  A    between atoms: N4_19  and  C12_20 
REMARK    6  A    between atoms: C12_20  and  C13_21 
ROOT
HETATM    1  C10 UNL     1      -0.961   0.576  -0.147  1.00  0.00     0.088 A 
HETATM    2  C11 UNL     1      -1.540  -0.659  -0.112  1.00  0.00     0.123 A 
HETATM    3  N4  UNL     1      -2.691  -0.966  -0.803  1.00  0.00    -0.352 N 
HETATM    4  C16 UNL     1      -3.327  -0.084  -1.555  1.00  0.00     0.021 A 
HETATM    5  C17 UNL     1      -4.550  -0.389  -2.302  1.00  0.00     0.069 C 
HETATM    6  C18 UNL     1      -2.765   1.199  -1.619  1.00  0.00     0.034 A 
HETATM    7  C19 UNL     1      -3.179   2.323  -2.303  1.00  0.00     0.125 A 
HETATM    8  N7  UNL     1      -2.295   3.293  -2.031  1.00  0.00    -0.306 N 
HETATM    9  C20 UNL     1      -2.336   4.648  -2.538  1.00  0.00     0.177 C 
HETATM   10  N8  UNL     1      -1.361   2.826  -1.219  1.00  0.00    -0.296 N 
ATOM     11  H8  UNL     1      -0.570   3.360  -0.859  1.00  0.00     0.187 HD
HETATM   12  C21 UNL     1      -1.622   1.527  -0.941  1.00  0.00     0.090 A 
ENDROOT
BRANCH   1  13
HETATM   13  N3  UNL     1       0.208   0.998   0.509  1.00  0.00    -0.264 N 
ATOM     14  H3  UNL     1       0.618   1.886   0.218  1.00  0.00     0.180 HD
BRANCH  13  15
HETATM   15  S1  UNL     1       1.001   0.129   1.767  1.00  0.00     0.325 S 
HETATM   16  O1  UNL     1       1.582   1.201   2.686  1.00  0.00    -0.182 OA
HETATM   17  O2  UNL     1      -0.071  -0.634   2.494  1.00  0.00    -0.182 OA
BRANCH  15  18
HETATM   18  N2  UNL     1       2.272  -0.906   1.201  1.00  0.00    -0.261 N 
HETATM   19  C9  UNL     1       1.881  -2.256   0.892  1.00  0.00     0.171 C 
BRANCH  18  20
HETATM   20  C8  UNL     1       3.555  -0.369   1.096  1.00  0.00     0.074 A 
HETATM   21  C2  UNL     1       4.407  -0.450   2.192  1.00  0.00    -0.031 A 
HETATM   22  C1  UNL     1       3.910  -1.105   3.425  1.00  0.00     0.050 C 
HETATM   23  C3  UNL     1       5.677   0.078   2.096  1.00  0.00     0.026 A 
HETATM   24  C4  UNL     1       6.060   0.669   0.914  1.00  0.00     0.091 A 
HETATM   25  N1  UNL     1       5.211   0.729  -0.123  1.00  0.00    -0.363 N 
HETATM   26  C5  UNL     1       5.647   1.361  -1.360  1.00  0.00     0.155 C 
HETATM   27  C6  UNL     1       3.962   0.232  -0.089  1.00  0.00     0.035 A 
HETATM   28  C7  UNL     1       3.029   0.288  -1.203  1.00  0.00     0.070 C 
ENDBRANCH  18  20
ENDBRANCH  15  18
ENDBRANCH  13  15
ENDBRANCH   1  13
BRANCH   3  29
HETATM   29  C12 UNL     1      -3.209  -2.331  -0.673  1.00  0.00     0.186 C 
BRANCH  29  30
HETATM   30  C13 UNL     1      -4.136  -2.487   0.461  1.00  0.00     0.044 A 
HETATM   31  C14 UNL     1      -5.500  -2.395   0.560  1.00  0.00     0.115 A 
HETATM   32  N5  UNL     1      -5.865  -2.625   1.842  1.00  0.00    -0.360 N 
HETATM   33  C15 UNL     1      -4.746  -2.855   2.526  1.00  0.00     0.180 A 
ATOM     34  H5  UNL     1      -6.815  -2.623   2.213  1.00  0.00     0.166 HD
HETATM   35  N6  UNL     1      -3.695  -2.778   1.720  1.00  0.00    -0.353 N 
ATOM     36  H6  UNL     1      -2.722  -2.913   1.994  1.00  0.00     0.166 HD
ENDBRANCH  29  30
ENDBRANCH   3  29
TORSDOF 6
