REMARK  11 active torsions:
REMARK  status: ('A' for Active; 'I' for Inactive)
REMARK    1  A    between atoms: C2_2  and  C3_3 
REMARK    2  A    between atoms: C3_3  and  C4_4 
REMARK    3  A    between atoms: N1_6  and  C6_7 
REMARK    4  A    between atoms: C7_8  and  C8_9 
REMARK    5  A    between atoms: C8_9  and  O1_11 
REMARK    6  A    between atoms: C8_9  and  O2_13 
REMARK    7  A    between atoms: C10_16  and  C11_17 
REMARK    8  A    between atoms: C15_22  and  S1_23 
REMARK    9  A    between atoms: C17_28  and  C18_29 
REMARK   10  A    between atoms: C18_29  and  C19_30 
REMARK   11  A    between atoms: C21_32  and  C22_33 
ROOT
HETATM    1  C4  UNL     1      -2.919  -0.059   1.123  1.00  0.00    -0.013 A 
HETATM    2  C5  UNL     1      -1.760   0.710   1.391  1.00  0.00     0.139 A 
HETATM    3  N1  UNL     1      -0.523   0.384   1.020  1.00  0.00    -0.217 N 
HETATM    4  N2  UNL     1      -0.310  -0.713   0.361  1.00  0.00    -0.257 N 
HETATM    5  C10 UNL     1       0.828  -1.058  -0.040  1.00  0.00     0.129 C 
HETATM    6  C17 UNL     1      -1.397  -1.542   0.052  1.00  0.00     0.042 A 
HETATM    7  C21 UNL     1      -2.697  -1.224   0.421  1.00  0.00    -0.022 A 
ENDROOT
BRANCH   3   8
HETATM    8  C6  UNL     1       0.499   1.312   1.392  1.00  0.00     0.039 C 
HETATM    9  C7  UNL     1       1.306   2.125   1.730  1.00  0.00    -0.014 C 
BRANCH   9  10
HETATM   10  C8  UNL     1       2.273   3.143   2.160  1.00  0.00     0.225 C 
HETATM   11  C9  UNL     1       2.735   3.936   0.958  1.00  0.00     0.094 C 
BRANCH  10  12
HETATM   12  O1  UNL     1       3.311   2.626   2.913  1.00  0.00    -0.356 OA
ATOM     13  H1  UNL     1       3.937   3.285   3.191  1.00  0.00     0.214 HD
ENDBRANCH  10  12
BRANCH  10  14
HETATM   14  O2  UNL     1       1.602   4.056   3.011  1.00  0.00    -0.356 OA
ATOM     15  H2  UNL     1       2.228   4.715   3.289  1.00  0.00     0.214 HD
ENDBRANCH  10  14
ENDBRANCH   9  10
ENDBRANCH   3   8
BRANCH   5  16
HETATM   16  C11 UNL     1       2.158  -0.526   0.026  1.00  0.00    -0.017 A 
HETATM   17  C12 UNL     1       3.042  -0.876   1.053  1.00  0.00     0.015 A 
HETATM   18  C13 UNL     1       4.350  -0.460   1.055  1.00  0.00     0.029 A 
HETATM   19  C14 UNL     1       4.808   0.333   0.002  1.00  0.00     0.070 A 
HETATM   20  N3  UNL     1       6.149   0.770  -0.025  1.00  0.00    -0.101 NA
HETATM   21  C15 UNL     1       3.960   0.698  -1.029  1.00  0.00     0.105 A 
HETATM   22  C16 UNL     1       2.654   0.268  -1.007  1.00  0.00     0.041 A 
BRANCH  21  23
HETATM   23  S1  UNL     1       4.483   1.678  -2.375  1.00  0.00     0.139 S 
HETATM   24  O3  UNL     1       3.381   1.874  -3.346  1.00  0.00    -0.591 OA
HETATM   25  O4  UNL     1       5.589   0.940  -3.076  1.00  0.00    -0.591 OA
HETATM   26  O5  UNL     1       5.021   3.146  -1.761  1.00  0.00    -0.591 OA
ENDBRANCH  21  23
ENDBRANCH   5  16
BRANCH   6  27
HETATM   27  C18 UNL     1      -1.107  -2.798  -0.629  1.00  0.00     0.059 C 
BRANCH  27  28
HETATM   28  C19 UNL     1      -1.231  -2.817  -2.121  1.00  0.00     0.002 C 
HETATM   29  C20 UNL     1      -0.875  -4.226  -2.658  1.00  0.00     0.005 C 
ENDBRANCH  27  28
ENDBRANCH   6  27
BRANCH   7  30
HETATM   30  C22 UNL     1      -3.802  -2.109   0.029  1.00  0.00     0.037 C 
HETATM   31  C23 UNL     1      -4.641  -1.596  -1.124  1.00  0.00     0.010 C 
ENDBRANCH   7  30
BRANCH   1  32
HETATM   32  C3  UNL     1      -4.048   0.378   1.578  1.00  0.00    -0.014 C 
BRANCH  32  33
HETATM   33  C2  UNL     1      -5.445   0.093   1.644  1.00  0.00     0.023 C 
HETATM   34  C1  UNL     1      -6.305   1.143   0.913  1.00  0.00     0.009 C 
ENDBRANCH  32  33
ENDBRANCH   1  32
TORSDOF 11
