REMARK  8 active torsions:
REMARK  status: ('A' for Active; 'I' for Inactive)
REMARK    1  A    between atoms: N1_1  and  C1_5 
REMARK    2  A    between atoms: C1_5  and  C2_6 
REMARK    3  A    between atoms: C2_6  and  N2_7 
REMARK    4  A    between atoms: N2_7  and  C3_9 
REMARK    5  A    between atoms: C5_15  and  N5_16 
REMARK    6  A    between atoms: N5_16  and  C6_18 
REMARK    7  A    between atoms: C6_18  and  C7_19 
REMARK    8  A    between atoms: C7_19  and  N6_20 
ROOT
HETATM    1  C3  UNL     1      -1.103  -1.069  -0.812  1.00  0.00     0.130 A 
HETATM    2  N3  UNL     1      -0.601  -1.709  -1.912  1.00  0.00    -0.337 N 
ATOM      3  H3  UNL     1      -1.239  -2.081  -2.615  1.00  0.00     0.168 HD
HETATM    4  C4  UNL     1       0.730  -1.853  -2.075  1.00  0.00     0.183 A 
HETATM    5  N4  UNL     1       1.592  -1.370  -1.163  1.00  0.00    -0.337 N 
ATOM      6  H4  UNL     1       2.593  -1.495  -1.317  1.00  0.00     0.168 HD
HETATM    7  C5  UNL     1       1.180  -0.728  -0.055  1.00  0.00     0.130 A 
HETATM    8  C8  UNL     1      -0.198  -0.593   0.091  1.00  0.00     0.133 A 
HETATM    9  N7  UNL     1      -0.642   0.074   1.241  1.00  0.00    -0.094 NA
ENDROOT
BRANCH   1  10
HETATM   10  N2  UNL     1      -2.326  -0.958  -0.698  1.00  0.00    -0.373 N 
ATOM     11  H2  UNL     1      -2.800  -1.388  -1.492  1.00  0.00     0.161 HD
BRANCH  10  12
HETATM   12  C2  UNL     1      -3.254  -0.420   0.192  1.00  0.00     0.148 C 
BRANCH  12  13
HETATM   13  C1  UNL     1      -3.621   1.032  -0.148  1.00  0.00     0.249 C 
BRANCH  13  14
HETATM   14  N1  UNL     1      -4.579   1.570   0.783  1.00  0.00    -0.078 N 
ATOM     15  H13 UNL     1      -5.409   0.981   0.845  1.00  0.00     0.274 HD
ATOM     16  H12 UNL     1      -4.252   1.484   1.745  1.00  0.00     0.274 HD
ATOM     17  H11 UNL     1      -4.823   2.534   0.557  1.00  0.00     0.274 HD
ENDBRANCH  13  14
ENDBRANCH  12  13
ENDBRANCH  10  12
ENDBRANCH   1  10
BRANCH   7  18
HETATM   18  N5  UNL     1       2.066  -0.219   0.925  1.00  0.00    -0.373 N 
ATOM     19  H5  UNL     1       1.673   0.243   1.745  1.00  0.00     0.161 HD
BRANCH  18  20
HETATM   20  C6  UNL     1       3.479  -0.324   0.815  1.00  0.00     0.148 C 
BRANCH  20  21
HETATM   21  C7  UNL     1       3.991   0.454  -0.355  1.00  0.00     0.249 C 
BRANCH  21  22
HETATM   22  N6  UNL     1       3.657   1.868  -0.237  1.00  0.00    -0.078 N 
ATOM     23  H63 UNL     1       2.655   2.006  -0.105  1.00  0.00     0.274 HD
ATOM     24  H62 UNL     1       3.987   2.258   0.646  1.00  0.00     0.274 HD
ATOM     25  H61 UNL     1       4.006   2.399  -1.035  1.00  0.00     0.274 HD
ENDBRANCH  21  22
ENDBRANCH  20  21
ENDBRANCH  18  20
ENDBRANCH   7  18
TORSDOF 8
