REMARK  7 active torsions:
REMARK  status: ('A' for Active; 'I' for Inactive)
REMARK    1  A    between atoms: N1_1  and  C1_4 
REMARK    2  A    between atoms: C2_7  and  N3_8 
REMARK    3  A    between atoms: N5_15  and  C5_16 
REMARK    4  A    between atoms: C5_16  and  C6_17 
REMARK    5  A    between atoms: C6_17  and  C7_18 
REMARK    6  A    between atoms: C7_18  and  O1_19 
REMARK    7  A    between atoms: O1_19  and  N6_20 
ROOT
HETATM    1  C1  UNL     1      -3.346  -1.000  -0.918  1.00  0.00     0.679 A 
HETATM    2  N2  UNL     1      -4.042   0.006  -0.284  1.00  0.00    -0.175 N 
ATOM      3  H2  UNL     1      -5.055   0.058  -0.387  1.00  0.00     0.186 HD
HETATM    4  C2  UNL     1      -3.409   0.913   0.463  1.00  0.00     0.145 A 
HETATM    5  C3  UNL     1      -2.035   0.898   0.628  1.00  0.00     0.123 A 
HETATM    6  N4  UNL     1      -1.123   1.582   1.402  1.00  0.00    -0.346 N 
ATOM      7  H4  UNL     1      -1.338   2.384   1.994  1.00  0.00     0.167 HD
HETATM    8  C4  UNL     1       0.100   1.027   1.257  1.00  0.00     0.185 A 
HETATM    9  N5  UNL     1      -0.060  -0.024   0.393  1.00  0.00    -0.327 N 
HETATM   10  C8  UNL     1      -1.294  -0.119   0.000  1.00  0.00     0.155 A 
HETATM   11  N7  UNL     1      -1.961  -1.020  -0.744  1.00  0.00    -0.174 N 
ATOM     12  H7  UNL     1      -1.427  -1.756  -1.205  1.00  0.00     0.186 HD
ENDROOT
BRANCH   9  13
HETATM   13  C5  UNL     1       1.011  -0.825  -0.171  1.00  0.00     0.133 C 
BRANCH  13  14
HETATM   14  C6  UNL     1       2.181   0.009  -0.483  1.00  0.00     0.049 C 
BRANCH  14  15
HETATM   15  C7  UNL     1       3.325  -0.288   0.574  1.00  0.00     0.202 C 
BRANCH  15  16
HETATM   16  O1  UNL     1       4.191   0.824   0.342  1.00  0.00    -0.287 OA
BRANCH  16  17
HETATM   17  N6  UNL     1       5.475   0.399   0.082  1.00  0.00    -0.311 N 
ATOM     18  H62 UNL     1       5.754  -0.582   0.061  1.00  0.00     0.184 HD
ATOM     19  H61 UNL     1       6.093   1.193  -0.084  1.00  0.00     0.184 HD
ENDBRANCH  16  17
ENDBRANCH  15  16
ENDBRANCH  14  15
ENDBRANCH  13  14
ENDBRANCH   9  13
BRANCH   4  20
HETATM   20  N3  UNL     1      -4.040   1.971   0.960  1.00  0.00    -0.383 N 
ATOM     21  H32 UNL     1      -5.053   1.982   0.838  1.00  0.00     0.157 HD
ATOM     22  H31 UNL     1      -3.556   2.664   1.531  1.00  0.00     0.157 HD
ENDBRANCH   4  20
BRANCH   1  23
HETATM   23  N1  UNL     1      -3.924  -1.840  -1.647  1.00  0.00    -0.234 N 
ATOM     24  H12 UNL     1      -4.936  -1.825  -1.774  1.00  0.00     0.174 HD
ATOM     25  H11 UNL     1      -3.409  -2.585  -2.116  1.00  0.00     0.174 HD
ENDBRANCH   1  23
TORSDOF 7
