REMARK  7 active torsions:
REMARK  status: ('A' for Active; 'I' for Inactive)
REMARK    1  A    between atoms: N1_1  and  C1_4 
REMARK    2  A    between atoms: N6_16  and  C5_17 
REMARK    3  A    between atoms: C5_17  and  C6_18 
REMARK    4  A    between atoms: C6_18  and  N7_19 
REMARK    5  A    between atoms: N7_19  and  C7_22 
REMARK    6  A    between atoms: C7_22  and  C8_23 
REMARK    7  A    between atoms: C8_23  and  N8_24 
ROOT
HETATM    1  C1  UNL     1      -4.479  -0.621  -0.235  1.00  0.00     0.132 A 
HETATM    2  N2  UNL     1      -4.702   0.703  -0.296  1.00  0.00    -0.337 N 
ATOM      3  H2  UNL     1      -5.649   1.030  -0.488  1.00  0.00     0.168 HD
HETATM    4  C2  UNL     1      -3.726   1.620  -0.114  1.00  0.00     0.183 A 
HETATM    5  N3  UNL     1      -2.478   1.186   0.137  1.00  0.00    -0.335 N 
ATOM      6  H3  UNL     1      -1.735   1.872   0.275  1.00  0.00     0.168 HD
HETATM    7  C3  UNL     1      -2.174  -0.139   0.213  1.00  0.00     0.157 A 
HETATM    8  C4  UNL     1      -3.180  -1.062   0.026  1.00  0.00     0.139 A 
HETATM    9  N4  UNL     1      -2.623  -2.269   0.158  1.00  0.00    -0.279 N 
ATOM     10  H4  UNL     1      -3.111  -3.161   0.075  1.00  0.00     0.189 HD
HETATM   11  N5  UNL     1      -1.333  -2.117   0.414  1.00  0.00    -0.238 N 
ATOM     12  H5  UNL     1      -0.663  -2.872   0.561  1.00  0.00     0.208 HD
HETATM   13  N6  UNL     1      -1.059  -0.830   0.447  1.00  0.00    -0.258 N 
ENDROOT
BRANCH  13  14
HETATM   14  C5  UNL     1       0.242  -0.240   0.694  1.00  0.00     0.180 C 
BRANCH  14  15
HETATM   15  C6  UNL     1       1.015  -0.059  -0.569  1.00  0.00     0.254 C 
BRANCH  15  16
HETATM   16  N7  UNL     1       2.292   0.549  -0.357  1.00  0.00    -0.072 N 
ATOM     17  H72 UNL     1       2.701   0.876  -1.232  1.00  0.00     0.277 HD
ATOM     18  H71 UNL     1       2.205   1.446   0.120  1.00  0.00     0.277 HD
BRANCH  16  19
HETATM   19  C7  UNL     1       3.174  -0.328   0.337  1.00  0.00     0.259 C 
BRANCH  19  20
HETATM   20  C8  UNL     1       4.555   0.280   0.537  1.00  0.00     0.257 C 
BRANCH  20  21
HETATM   21  N8  UNL     1       5.199   0.606  -0.697  1.00  0.00    -0.078 N 
ATOM     22  H83 UNL     1       5.243  -0.206  -1.313  1.00  0.00     0.274 HD
ATOM     23  H82 UNL     1       4.611   1.214  -1.267  1.00  0.00     0.274 HD
ATOM     24  H81 UNL     1       6.124   1.013  -0.563  1.00  0.00     0.274 HD
ENDBRANCH  20  21
ENDBRANCH  19  20
ENDBRANCH  16  19
ENDBRANCH  15  16
ENDBRANCH  14  15
ENDBRANCH  13  14
BRANCH   1  25
HETATM   25  N1  UNL     1      -5.415  -1.501  -0.402  1.00  0.00    -0.383 N 
ATOM     26  H12 UNL     1      -6.364  -1.179  -0.593  1.00  0.00     0.157 HD
ATOM     27  H11 UNL     1      -5.246  -2.506  -0.356  1.00  0.00     0.157 HD
ENDBRANCH   1  25
TORSDOF 7
