REMARK  12 active torsions:
REMARK  status: ('A' for Active; 'I' for Inactive)
REMARK       I    between atoms: N1_2  and  C2_3 
REMARK    1  A    between atoms: N1_2  and  C5_16 
REMARK    2  A    between atoms: C2_3  and  C3_5 
REMARK    3  A    between atoms: C3_5  and  N2_6 
REMARK    4  A    between atoms: N2_6  and  C4_8 
REMARK    5  A    between atoms: C7_20  and  N8_21 
REMARK    6  A    between atoms: N8_21  and  C8_23 
REMARK    7  A    between atoms: C8_23  and  C9_24 
REMARK    8  A    between atoms: C9_24  and  O2_25 
REMARK    9  A    between atoms: C10_29  and  N10_30 
REMARK   10  A    between atoms: N10_30  and  C11_32 
REMARK   11  A    between atoms: C13_34  and  N11_35 
REMARK   12  A    between atoms: C14_36  and  N12_37 
ROOT
HETATM    1  N11 UNL     1      -3.379   0.683  -0.599  1.00  0.00    -0.159 N 
HETATM    2  C14 UNL     1      -4.271   1.446  -1.287  1.00  0.00     0.680 A 
HETATM    3  N13 UNL     1      -5.485   1.277  -0.787  1.00  0.00    -0.185 N 
ATOM      4  H13 UNL     1      -6.339   1.729  -1.115  1.00  0.00     0.184 HD
HETATM    5  C15 UNL     1      -5.392   0.411   0.221  1.00  0.00     0.131 A 
HETATM    6  C16 UNL     1      -6.350  -0.112   1.081  1.00  0.00     0.146 A 
HETATM    7  C17 UNL     1      -7.730   0.282   0.952  1.00  0.00     0.120 C 
HETATM    8  N14 UNL     1      -8.838   0.613   0.838  1.00  0.00    -0.190 NA
HETATM    9  N15 UNL     1      -5.915  -0.982   2.009  1.00  0.00    -0.342 N 
ATOM     10  H15 UNL     1      -6.589  -1.388   2.659  1.00  0.00     0.167 HD
HETATM   11  C18 UNL     1      -4.624  -1.334   2.109  1.00  0.00     0.183 A 
HETATM   12  N16 UNL     1      -3.709  -0.818   1.269  1.00  0.00    -0.336 N 
ATOM     13  H16 UNL     1      -2.731  -1.093   1.355  1.00  0.00     0.168 HD
HETATM   14  C19 UNL     1      -4.069   0.045   0.331  1.00  0.00     0.155 A 
ENDROOT
BRANCH   2  15
HETATM   15  N12 UNL     1      -4.024   2.240  -2.292  1.00  0.00    -0.234 N 
ATOM     16 2H12 UNL     1      -3.089   2.370  -2.677  1.00  0.00     0.174 HD
ATOM     17 1H12 UNL     1      -4.693   2.812  -2.808  1.00  0.00     0.174 HD
ENDBRANCH   2  15
BRANCH   1  18
HETATM   18  C13 UNL     1      -1.984   0.678  -0.935  1.00  0.00     0.134 A 
HETATM   19  C11 UNL     1      -1.080  -0.460  -0.720  1.00  0.00     0.109 A 
HETATM   20  C12 UNL     1      -1.648  -0.281  -2.075  1.00  0.00     0.055 A 
BRANCH  19  21
HETATM   21  N10 UNL     1       0.286  -0.174  -0.424  1.00  0.00    -0.367 N 
ATOM     22  H10 UNL     1       0.564   0.805  -0.497  1.00  0.00     0.161 HD
BRANCH  21  23
HETATM   23  C10 UNL     1       1.204  -0.993  -0.079  1.00  0.00     0.146 A 
HETATM   24  C5  UNL     1       2.461  -0.502   0.161  1.00  0.00     0.097 A 
HETATM   25  C6  UNL     1       3.487  -1.335   0.535  1.00  0.00     0.139 A 
HETATM   26  N7  UNL     1       3.198  -2.659   0.656  1.00  0.00    -0.200 N 
HETATM   27  C7  UNL     1       1.975  -3.172   0.428  1.00  0.00     0.679 A 
ATOM     28  H7  UNL     1       3.946  -3.295   0.933  1.00  0.00     0.183 HD
HETATM   29  N9  UNL     1       0.996  -2.324   0.062  1.00  0.00    -0.175 N 
ATOM     30  H9  UNL     1       0.064  -2.697  -0.116  1.00  0.00     0.186 HD
BRANCH  24  31
HETATM   31  N1  UNL     1       2.671   0.919   0.009  1.00  0.00    -0.317 N 
HETATM   32  C1  UNL     1       2.742   1.439  -1.335  1.00  0.00     0.159 C 
HETATM   33  C2  UNL     1       2.797   1.738   1.141  1.00  0.00     0.242 C 
HETATM   34  O1  UNL     1       2.714   1.168   2.287  1.00  0.00    -0.271 OA
BRANCH  33  35
HETATM   35  C3  UNL     1       3.016   3.177   1.163  1.00  0.00     0.241 C 
BRANCH  35  36
HETATM   36  N2  UNL     1       3.112   3.814  -0.106  1.00  0.00    -0.215 N 
ATOM     37  H2  UNL     1       2.610   3.413  -0.898  1.00  0.00     0.178 HD
BRANCH  36  38
HETATM   38  C4  UNL     1       3.816   4.885  -0.288  1.00  0.00     0.707 A 
HETATM   39  N3  UNL     1       3.930   5.514  -1.474  1.00  0.00    -0.118 N 
HETATM   40  N4  UNL     1       4.710   6.544  -1.283  1.00  0.00    -0.212 N 
ATOM     41  H3  UNL     1       3.491   5.239  -2.353  1.00  0.00     0.207 HD
HETATM   42  N5  UNL     1       5.103   6.603  -0.015  1.00  0.00     0.009 NA
ATOM     43  H4  UNL     1       4.980   7.210  -2.006  1.00  0.00     0.206 HD
HETATM   44  N6  UNL     1       4.546   5.568   0.608  1.00  0.00    -0.114 N 
ATOM     45  H6  UNL     1       4.655   5.334   1.595  1.00  0.00     0.203 HD
ENDBRANCH  36  38
ENDBRANCH  35  36
ENDBRANCH  33  35
ENDBRANCH  24  31
BRANCH  27  46
HETATM   46  N8  UNL     1       1.807  -4.447   0.575  1.00  0.00    -0.224 N 
ATOM     47  H8  UNL     1       2.623  -4.989   0.859  1.00  0.00     0.177 HD
BRANCH  46  48
HETATM   48  C8  UNL     1       0.595  -5.166   0.379  1.00  0.00     0.164 C 
BRANCH  48  49
HETATM   49  C9  UNL     1       0.492  -6.404   1.243  1.00  0.00     0.184 C 
BRANCH  49  50
HETATM   50  O2  UNL     1      -0.728  -7.011   0.958  1.00  0.00    -0.399 OA
ATOM     51  H2  UNL     1      -0.793  -7.788   1.500  1.00  0.00     0.209 HD
ENDBRANCH  49  50
ENDBRANCH  48  49
ENDBRANCH  46  48
ENDBRANCH  27  46
ENDBRANCH  21  23
ENDBRANCH  19  21
ENDBRANCH   1  18
TORSDOF 12
