REMARK  10 active torsions:
REMARK  status: ('A' for Active; 'I' for Inactive)
REMARK    1  A    between atoms: N1_2  and  C2_3 
REMARK    2  A    between atoms: N1_2  and  C16_37 
REMARK    3  A    between atoms: C4_9  and  N4_10 
REMARK    4  A    between atoms: N4_10  and  C5_12 
REMARK    5  A    between atoms: C8_15  and  O1_16 
REMARK    6  A    between atoms: O1_16  and  N5_17 
REMARK    7  A    between atoms: C9_19  and  C10_20 
REMARK    8  A    between atoms: C14_26  and  S1_27 
REMARK    9  A    between atoms: S1_27  and  N7_28 
REMARK   10  A    between atoms: C17_40  and  N10_41 
ROOT
HETATM    1  C2  UNL     1       4.111   0.212  -0.364  1.00  0.00     0.714 A 
HETATM    2  N2  UNL     1       4.591   1.403  -0.031  1.00  0.00    -0.186 N 
ATOM      3  H2  UNL     1       5.602   1.510   0.053  1.00  0.00     0.185 HD
HETATM    4  C3  UNL     1       3.825   2.463   0.199  1.00  0.00     0.215 A 
HETATM    5  N3  UNL     1       2.485   2.339   0.094  1.00  0.00    -0.187 N 
ATOM      6  H3  UNL     1       1.877   3.140   0.267  1.00  0.00     0.185 HD
HETATM    7  C4  UNL     1       1.962   1.147  -0.241  1.00  0.00     0.694 A 
HETATM    8  N8  UNL     1       2.769   0.102  -0.466  1.00  0.00    -0.021 N 
ATOM      9  H8  UNL     1       2.361  -0.797  -0.720  1.00  0.00     0.203 HD
ENDROOT
BRANCH   7  10
HETATM   10  N4  UNL     1       0.659   0.994  -0.341  1.00  0.00    -0.214 N 
ATOM     11  H4  UNL     1       0.261   0.090  -0.596  1.00  0.00     0.178 HD
BRANCH  10  12
HETATM   12  C5  UNL     1      -0.188   2.115  -0.086  1.00  0.00     0.172 C 
HETATM   13  C6  UNL     1      -0.322   2.279   1.416  1.00  0.00     0.036 C 
HETATM   14  C7  UNL     1      -1.351   1.264   1.837  1.00  0.00     0.045 C 
HETATM   15  C8  UNL     1      -2.145   0.898   0.597  1.00  0.00     0.223 C 
HETATM   16  C15 UNL     1      -1.572   1.739  -0.455  1.00  0.00     0.181 C 
HETATM   17  O4  UNL     1      -2.125   2.087  -1.478  1.00  0.00    -0.293 OA
BRANCH  15  18
HETATM   18  O1  UNL     1      -3.531   1.183   0.815  1.00  0.00    -0.268 OA
BRANCH  18  19
HETATM   19  N5  UNL     1      -4.428   0.169   0.814  1.00  0.00    -0.276 N 
HETATM   20  C9  UNL     1      -5.539   0.167   0.144  1.00  0.00     0.127 C 
ATOM     21  H5  UNL     1      -4.215  -0.652   1.380  1.00  0.00     0.193 HD
BRANCH  20  22
HETATM   22  C10 UNL     1      -6.400  -1.007   0.252  1.00  0.00     0.007 A 
HETATM   23  C11 UNL     1      -6.038  -2.075   1.038  1.00  0.00     0.031 A 
HETATM   24  C12 UNL     1      -6.829  -3.194   1.159  1.00  0.00     0.088 A 
HETATM   25  N6  UNL     1      -7.984  -3.237   0.488  1.00  0.00    -0.374 N 
HETATM   26  C13 UNL     1      -8.386  -2.223  -0.293  1.00  0.00     0.113 A 
ATOM     27  H6  UNL     1      -8.576  -4.063   0.572  1.00  0.00     0.164 HD
HETATM   28  C14 UNL     1      -7.596  -1.077  -0.429  1.00  0.00     0.106 A 
BRANCH  28  29
HETATM   29  S1  UNL     1      -8.118   0.252  -1.446  1.00  0.00     0.259 S 
HETATM   30  O2  UNL     1      -9.447  -0.111  -2.052  1.00  0.00    -0.201 OA
HETATM   31  O3  UNL     1      -7.160   0.447  -2.577  1.00  0.00    -0.201 OA
BRANCH  29  32
HETATM   32  N7  UNL     1      -8.300   1.712  -0.572  1.00  0.00    -0.324 N 
ATOM     33  H72 UNL     1      -8.121   1.785   0.429  1.00  0.00     0.169 HD
ATOM     34  H71 UNL     1      -8.604   2.485  -1.164  1.00  0.00     0.169 HD
ENDBRANCH  29  32
ENDBRANCH  28  29
ENDBRANCH  20  22
ENDBRANCH  18  19
ENDBRANCH  15  18
ENDBRANCH  10  12
ENDBRANCH   7  10
BRANCH   1  35
HETATM   35  N1  UNL     1       4.960  -0.879  -0.586  1.00  0.00    -0.017 N 
HETATM   36  C1  UNL     1       4.253  -2.114  -1.029  1.00  0.00     0.195 C 
BRANCH  35  37
HETATM   37  C16 UNL     1       6.346  -0.978  -0.445  1.00  0.00     0.727 A 
HETATM   38  N9  UNL     1       6.969  -2.180  -0.726  1.00  0.00    -0.021 N 
HETATM   39  C17 UNL     1       8.261  -2.396  -0.625  1.00  0.00     0.705 A 
ATOM     40  H9  UNL     1       6.383  -2.956  -1.034  1.00  0.00     0.203 HD
HETATM   41  N11 UNL     1       9.048  -1.390  -0.221  1.00  0.00    -0.022 N 
HETATM   42  C18 UNL     1       8.538  -0.188   0.074  1.00  0.00     0.705 A 
ATOM     43  H11 UNL     1      10.053  -1.543  -0.137  1.00  0.00     0.203 HD
HETATM   44  N12 UNL     1       9.272   0.796   0.465  1.00  0.00    -0.234 N 
HETATM   45  N13 UNL     1       7.181  -0.018  -0.049  1.00  0.00    -0.021 N 
ATOM     46 2H12 UNL     1      10.280   0.670   0.556  1.00  0.00     0.174 HD
ATOM     47 1H12 UNL     1       8.883   1.712   0.690  1.00  0.00     0.174 HD
ATOM     48  H13 UNL     1       6.789   0.897   0.176  1.00  0.00     0.203 HD
BRANCH  39  49
HETATM   49  N10 UNL     1       8.825  -3.537  -0.893  1.00  0.00    -0.234 N 
ATOM     50 2H10 UNL     1       8.226  -4.303  -1.201  1.00  0.00     0.174 HD
ATOM     51 1H10 UNL     1       9.828  -3.705  -0.815  1.00  0.00     0.174 HD
ENDBRANCH  39  49
ENDBRANCH  35  37
ENDBRANCH   1  35
TORSDOF 10
