REMARK  13 active torsions:
REMARK  status: ('A' for Active; 'I' for Inactive)
REMARK    1  A    between atoms: N1_1  and  S1_4 
REMARK    2  A    between atoms: S1_4  and  N2_7 
REMARK    3  A    between atoms: C3_12  and  C4_13 
REMARK    4  A    between atoms: C4_13  and  N4_14 
REMARK    5  A    between atoms: N4_14  and  C5_16 
REMARK    6  A    between atoms: C7_18  and  N5_19 
REMARK    7  A    between atoms: C9_21  and  O3_22 
REMARK    8  A    between atoms: C10_24  and  O4_25 
REMARK    9  A    between atoms: C10_24  and  C11_27 
REMARK   10  A    between atoms: C11_27  and  O5_28 
REMARK   11  A    between atoms: C13_33  and  N7_34 
REMARK   12  A    between atoms: C16_38  and  C17_39 
REMARK   13  A    between atoms: C17_39  and  O6_40 
ROOT
HETATM    1  C5  UNL     1       1.606   0.785  -0.172  1.00  0.00     0.120 A 
HETATM    2  C6  UNL     1       1.040  -0.469  -0.108  1.00  0.00     0.097 A 
HETATM    3  C7  UNL     1      -0.288  -0.647   0.290  1.00  0.00     0.122 A 
HETATM    4  N6  UNL     1      -1.013   0.436   0.614  1.00  0.00    -0.176 N 
ATOM      5  H6  UNL     1      -1.984   0.329   0.907  1.00  0.00     0.186 HD
HETATM    6  C13 UNL     1      -0.457   1.670   0.553  1.00  0.00     0.686 A 
HETATM    7  N10 UNL     1       0.821   1.822   0.167  1.00  0.00    -0.177 N 
ATOM      8  H10 UNL     1       1.212   2.763   0.130  1.00  0.00     0.186 HD
ENDROOT
BRANCH   1   9
HETATM    9  N4  UNL     1       2.821   0.990  -0.534  1.00  0.00    -0.370 N 
ATOM     10  H4  UNL     1       3.149   1.956  -0.548  1.00  0.00     0.161 HD
BRANCH   9  11
HETATM   11  C4  UNL     1       3.762  -0.035  -0.923  1.00  0.00     0.181 C 
BRANCH  11  12
HETATM   12  C3  UNL     1       4.351  -0.687   0.270  1.00  0.00     0.063 A 
HETATM   13  N2  UNL     1       5.237  -1.689   0.294  1.00  0.00    -0.220 N 
HETATM   14  C1  UNL     1       5.507  -1.978   1.578  1.00  0.00     0.201 A 
HETATM   15  N3  UNL     1       4.790  -1.156   2.366  1.00  0.00    -0.359 N 
HETATM   16  C2  UNL     1       4.069  -0.351   1.564  1.00  0.00     0.117 A 
ATOM     17  H3  UNL     1       4.793  -1.145   3.386  1.00  0.00     0.166 HD
BRANCH  13  18
HETATM   18  S1  UNL     1       5.880  -2.438  -1.113  1.00  0.00     0.324 S 
HETATM   19  O1  UNL     1       6.806  -3.538  -0.674  1.00  0.00    -0.182 OA
HETATM   20  O2  UNL     1       4.794  -3.024  -1.968  1.00  0.00    -0.182 OA
BRANCH  18  21
HETATM   21  N1  UNL     1       6.762  -1.324  -2.096  1.00  0.00    -0.311 N 
ATOM     22  H12 UNL     1       7.751  -1.412  -2.331  1.00  0.00     0.170 HD
ATOM     23  H11 UNL     1       6.134  -0.578  -2.394  1.00  0.00     0.170 HD
ENDBRANCH  18  21
ENDBRANCH  13  18
ENDBRANCH  11  12
ENDBRANCH   9  11
ENDBRANCH   1   9
BRANCH   3  24
HETATM   24  N5  UNL     1      -0.879  -1.927   0.358  1.00  0.00    -0.361 N 
HETATM   25  C8  UNL     1      -0.894  -2.778   1.513  1.00  0.00     0.159 C 
HETATM   26  C9  UNL     1      -2.268  -3.380   1.465  1.00  0.00     0.174 C 
HETATM   27  C10 UNL     1      -2.531  -3.514  -0.012  1.00  0.00     0.122 C 
HETATM   28  C12 UNL     1      -1.563  -2.587  -0.720  1.00  0.00     0.167 C 
BRANCH  26  29
HETATM   29  O3  UNL     1      -2.312  -4.654   2.062  1.00  0.00    -0.391 OA
ATOM     30  H3  UNL     1      -3.182  -5.035   2.032  1.00  0.00     0.210 HD
ENDBRANCH  26  29
BRANCH  27  31
HETATM   31  O4  UNL     1      -2.311  -4.836  -0.377  1.00  0.00    -0.383 OA
ATOM     32  H4  UNL     1      -2.477  -4.921  -1.309  1.00  0.00     0.210 HD
ENDBRANCH  27  31
BRANCH  27  33
HETATM   33  C11 UNL     1      -3.945  -3.072  -0.311  1.00  0.00     0.206 C 
BRANCH  33  34
HETATM   34  O5  UNL     1      -4.877  -3.829   0.363  1.00  0.00    -0.398 OA
ATOM     35  H5  UNL     1      -5.766  -3.551   0.175  1.00  0.00     0.209 HD
ENDBRANCH  33  34
ENDBRANCH  27  33
ENDBRANCH   3  24
BRANCH   6  36
HETATM   36  N7  UNL     1      -1.266   2.776   0.906  1.00  0.00    -0.176 N 
HETATM   37  C14 UNL     1      -1.609   3.636   0.013  1.00  0.00     0.123 A 
HETATM   38  C15 UNL     1      -2.407   4.698   0.441  1.00  0.00     0.076 A 
HETATM   39  N9  UNL     1      -1.240   3.555  -1.279  1.00  0.00    -0.338 N 
HETATM   40  C16 UNL     1      -2.825   5.667  -0.436  1.00  0.00     0.037 A 
HETATM   41  N8  UNL     1      -2.432   5.546  -1.719  1.00  0.00    -0.354 N 
HETATM   42  C18 UNL     1      -1.655   4.509  -2.124  1.00  0.00     0.182 A 
ATOM     43  H8  UNL     1      -2.724   6.247  -2.400  1.00  0.00     0.166 HD
ATOM     44  H9  UNL     1      -0.658   2.785  -1.608  1.00  0.00     0.168 HD
ATOM     45  H7  UNL     1      -1.578   2.892   1.870  1.00  0.00     0.186 HD
BRANCH  40  46
HETATM   46  C17 UNL     1      -3.676   6.816  -0.026  1.00  0.00     0.221 C 
BRANCH  46  47
HETATM   47  O6  UNL     1      -3.950   6.710   1.344  1.00  0.00    -0.395 OA
ATOM     48  H6  UNL     1      -4.494   7.444   1.606  1.00  0.00     0.209 HD
ENDBRANCH  46  47
ENDBRANCH  40  46
ENDBRANCH   6  36
TORSDOF 13
