REMARK  15 active torsions:
REMARK  status: ('A' for Active; 'I' for Inactive)
REMARK    1  A    between atoms: C2_2  and  O1_3 
REMARK    2  A    between atoms: C2_2  and  C3_5 
REMARK    3  A    between atoms: C3_5  and  N1_6 
REMARK    4  A    between atoms: C3_5  and  C15_35 
REMARK       I    between atoms: N1_6  and  C4_8 
REMARK    5  A    between atoms: C4_8  and  C5_10 
REMARK    6  A    between atoms: C5_10  and  N2_11 
REMARK    7  A    between atoms: C5_10  and  C11_31 
REMARK       I    between atoms: N2_11  and  C6_13 
REMARK    8  A    between atoms: C6_13  and  C7_15 
REMARK    9  A    between atoms: C7_15  and  N3_16 
REMARK   10  A    between atoms: C7_15  and  C8_20 
REMARK   11  A    between atoms: C8_20  and  N4_21 
REMARK   12  A    between atoms: C8_20  and  C9_25 
REMARK   13  A    between atoms: C9_25  and  C10_26 
REMARK   14  A    between atoms: C10_26  and  N5_27 
REMARK       I    between atoms: C15_35  and  N6_37 
REMARK   15  A    between atoms: N6_37  and  C16_39 
ROOT
HETATM    1  C5  UNL     1       0.466  -0.458   0.276  1.00  0.00     0.184 C 
ENDROOT
BRANCH   1   2
HETATM    2  C4  UNL     1      -0.895  -0.266  -0.242  1.00  0.00     0.242 C 
HETATM    3  N1  UNL     1      -2.094  -0.399   0.479  1.00  0.00    -0.344 N 
ATOM      4  H1  UNL     1      -2.048  -0.650   1.467  1.00  0.00     0.163 HD
HETATM    5  O2  UNL     1      -0.999   0.061  -1.483  1.00  0.00    -0.271 OA
BRANCH   3   6
HETATM    6  C3  UNL     1      -3.401  -0.192  -0.133  1.00  0.00     0.205 C 
BRANCH   6   7
HETATM    7  C2  UNL     1      -4.292  -1.404   0.036  1.00  0.00     0.146 C 
HETATM    8  C1  UNL     1      -3.665  -2.636  -0.586  1.00  0.00     0.042 C 
BRANCH   7   9
HETATM    9  O1  UNL     1      -4.502  -1.692   1.369  1.00  0.00    -0.393 OA
ATOM     10  H1  UNL     1      -4.895  -0.920   1.759  1.00  0.00     0.210 HD
ENDBRANCH   7   9
ENDBRANCH   6   7
BRANCH   6  11
HETATM   11  C15 UNL     1      -4.089   0.958   0.530  1.00  0.00     0.243 C 
HETATM   12  O4  UNL     1      -3.501   1.565   1.460  1.00  0.00    -0.271 OA
HETATM   13  N6  UNL     1      -5.379   1.387   0.148  1.00  0.00    -0.355 N 
ATOM     14  H6  UNL     1      -5.869   0.903  -0.605  1.00  0.00     0.162 HD
BRANCH  13  15
HETATM   15  C16 UNL     1      -6.011   2.500   0.809  1.00  0.00     0.084 A 
HETATM   16  C17 UNL     1      -7.535   2.479   0.997  1.00  0.00     0.027 A 
HETATM   17  C18 UNL     1      -6.919   3.407   0.017  1.00  0.00     0.027 A 
ENDBRANCH  13  15
ENDBRANCH   6  11
ENDBRANCH   3   6
ENDBRANCH   1   2
BRANCH   1  18
HETATM   18  N2  UNL     1       1.461  -0.065  -0.742  1.00  0.00    -0.345 N 
HETATM   19  C6  UNL     1       2.376   0.994  -0.503  1.00  0.00     0.251 C 
HETATM   20  O3  UNL     1       2.312   1.586   0.600  1.00  0.00    -0.271 OA
ATOM     21  H2  UNL     1       1.491  -0.563  -1.632  1.00  0.00     0.163 HD
BRANCH  19  22
HETATM   22  C7  UNL     1       3.397   1.443  -1.473  1.00  0.00     0.304 C 
BRANCH  22  23
HETATM   23  N3  UNL     1       3.364   0.647  -2.694  1.00  0.00    -0.064 N 
ATOM     24  H33 UNL     1       3.454  -0.349  -2.492  1.00  0.00     0.275 HD
ATOM     25  H32 UNL     1       2.433   0.641  -3.110  1.00  0.00     0.275 HD
ATOM     26  H31 UNL     1       4.069   0.957  -3.363  1.00  0.00     0.275 HD
ENDBRANCH  22  23
BRANCH  22  27
HETATM   27  C8  UNL     1       4.776   1.519  -0.891  1.00  0.00     0.224 C 
BRANCH  27  28
HETATM   28  N4  UNL     1       4.777   2.453   0.211  1.00  0.00    -0.072 N 
ATOM     29  H43 UNL     1       4.420   3.370  -0.058  1.00  0.00     0.274 HD
ATOM     30  H42 UNL     1       4.073   2.224   0.913  1.00  0.00     0.274 HD
ATOM     31  H41 UNL     1       5.716   2.505   0.607  1.00  0.00     0.274 HD
ENDBRANCH  27  28
BRANCH  27  32
HETATM   32  C9  UNL     1       5.342   0.185  -0.527  1.00  0.00     0.062 C 
BRANCH  32  33
HETATM   33  C10 UNL     1       6.739   0.296   0.060  1.00  0.00     0.231 C 
BRANCH  33  34
HETATM   34  N5  UNL     1       7.650   0.914  -0.904  1.00  0.00    -0.079 N 
ATOM     35  H53 UNL     1       7.651   0.420  -1.796  1.00  0.00     0.274 HD
ATOM     36  H52 UNL     1       7.303   1.816  -1.231  1.00  0.00     0.274 HD
ATOM     37  H51 UNL     1       8.588   0.989  -0.510  1.00  0.00     0.274 HD
ENDBRANCH  33  34
ENDBRANCH  32  33
ENDBRANCH  27  32
ENDBRANCH  22  27
ENDBRANCH  19  22
ENDBRANCH   1  18
BRANCH   1  38
HETATM   38  C11 UNL     1       0.774  -1.850   0.764  1.00  0.00    -0.022 C 
HETATM   39  C12 UNL     1      -0.093  -2.300   1.901  1.00  0.00     0.017 C 
HETATM   40  C13 UNL     1       2.223  -1.948   1.233  1.00  0.00     0.017 C 
HETATM   41  C14 UNL     1       0.602  -2.882  -0.341  1.00  0.00     0.017 C 
ENDBRANCH   1  38
TORSDOF 15
