REMARK  10 active torsions:
REMARK  status: ('A' for Active; 'I' for Inactive)
REMARK    1  A    between atoms: C2_3  and  N2_4 
REMARK    2  A    between atoms: N2_4  and  C3_6 
REMARK    3  A    between atoms: N3_7  and  C4_9 
REMARK    4  A    between atoms: N6_12  and  N7_13 
REMARK    5  A    between atoms: C6_24  and  C7_25 
REMARK    6  A    between atoms: C7_25  and  O3_26 
REMARK    7  A    between atoms: C8_30  and  C9_31 
REMARK    8  A    between atoms: C9_31  and  N11_32 
REMARK    9  A    between atoms: C9_31  and  O4_36 
REMARK   10  A    between atoms: N12_38  and  N13_39 
ROOT
HETATM    1  C3  UNL     1       0.252   1.704  -0.430  1.00  0.00     0.179 C 
HETATM    2  N3  UNL     1      -0.749   1.627   0.358  1.00  0.00    -0.363 N 
ATOM      3  H3  UNL     1      -1.008   2.436   0.923  1.00  0.00     0.162 HD
ENDROOT
BRANCH   1   4
HETATM    4  N2  UNL     1       0.597   0.567  -1.209  1.00  0.00    -0.337 N 
ATOM      5  H2  UNL     1      -0.072   0.160  -1.863  1.00  0.00     0.168 HD
BRANCH   4   6
HETATM    6  C2  UNL     1       1.889   0.012  -1.057  1.00  0.00     0.138 A 
HETATM    7  C1  UNL     1       2.224  -1.089  -1.811  1.00  0.00     0.160 A 
HETATM    8  N1  UNL     1       1.311  -1.668  -2.721  1.00  0.00    -0.092 NA
HETATM    9  C10 UNL     1       3.490  -1.612  -1.647  1.00  0.00     0.295 A 
HETATM   10  N12 UNL     1       4.359  -1.041  -0.765  1.00  0.00    -0.208 N 
HETATM   11  O5  UNL     1       3.832  -2.624  -2.323  1.00  0.00    -0.264 OA
HETATM   12  C8  UNL     1       4.026   0.032  -0.034  1.00  0.00     0.164 A 
HETATM   13  N10 UNL     1       2.774   0.544  -0.200  1.00  0.00    -0.325 N 
ATOM     14  H10 UNL     1       2.500   1.360   0.347  1.00  0.00     0.169 HD
BRANCH  10  15
HETATM   15  N13 UNL     1       5.617  -1.591  -0.628  1.00  0.00    -0.334 N 
ATOM     16 2H13 UNL     1       6.267  -1.164   0.032  1.00  0.00     0.177 HD
ATOM     17 1H13 UNL     1       5.870  -2.408  -1.184  1.00  0.00     0.177 HD
ENDBRANCH  10  15
BRANCH  12  18
HETATM   18  C9  UNL     1       4.965   0.665   0.933  1.00  0.00     0.387 C 
BRANCH  18  19
HETATM   19  N11 UNL     1       6.271   0.790   0.312  1.00  0.00    -0.046 N 
ATOM     20 3H11 UNL     1       6.620  -0.101  -0.041  1.00  0.00     0.277 HD
ATOM     21 2H11 UNL     1       6.232   1.291  -0.576  1.00  0.00     0.277 HD
ATOM     22 1H11 UNL     1       6.914   1.224   0.974  1.00  0.00     0.277 HD
ENDBRANCH  18  19
BRANCH  18  23
HETATM   23  O4  UNL     1       4.454   1.909   1.290  1.00  0.00    -0.364 OA
ATOM     24  H4  UNL     1       5.053   2.313   1.907  1.00  0.00     0.212 HD
ENDBRANCH  18  23
ENDBRANCH  12  18
ENDBRANCH   4   6
ENDBRANCH   1   4
BRANCH   2  25
HETATM   25  C4  UNL     1      -1.522   0.408   0.460  1.00  0.00     0.250 C 
HETATM   26  N4  UNL     1      -1.224  -0.156   1.785  1.00  0.00    -0.094 NA
HETATM   27  N5  UNL     1      -1.986   0.590   2.691  1.00  0.00    -0.009 NA
HETATM   28  N6  UNL     1      -3.136   0.841   2.015  1.00  0.00    -0.191 N 
HETATM   29  C5  UNL     1      -3.002   0.707   0.626  1.00  0.00     0.208 C 
HETATM   30  N8  UNL     1      -3.359   1.980   0.014  1.00  0.00    -0.267 N 
HETATM   31  C6  UNL     1      -3.885  -0.301  -0.029  1.00  0.00     0.174 C 
HETATM   32  S1  UNL     1      -3.713   1.529  -1.637  1.00  0.00     0.317 S 
ATOM     33  H8  UNL     1      -3.394   2.905   0.443  1.00  0.00     0.176 HD
HETATM   34  O1  UNL     1      -2.701   2.060  -2.576  1.00  0.00    -0.183 OA
HETATM   35  O2  UNL     1      -5.093   1.977  -2.030  1.00  0.00    -0.183 OA
HETATM   36  N9  UNL     1      -3.625  -0.188  -1.451  1.00  0.00    -0.291 N 
ATOM     37  H9  UNL     1      -3.442  -0.914  -2.144  1.00  0.00     0.174 HD
BRANCH  28  38
HETATM   38  N7  UNL     1      -4.325   0.648   2.608  1.00  0.00    -0.328 N 
ATOM     39  H72 UNL     1      -4.422   0.745   3.619  1.00  0.00     0.178 HD
ATOM     40  H71 UNL     1      -5.189   0.837   2.100  1.00  0.00     0.178 HD
ENDBRANCH  28  38
BRANCH  31  41
HETATM   41  C7  UNL     1      -3.647  -1.705   0.440  1.00  0.00     0.194 C 
BRANCH  41  42
HETATM   42  O3  UNL     1      -4.527  -2.535  -0.284  1.00  0.00    -0.399 OA
ATOM     43  H3  UNL     1      -4.376  -3.425   0.013  1.00  0.00     0.209 HD
ENDBRANCH  41  42
ENDBRANCH  31  41
ENDBRANCH   2  25
TORSDOF 10
