REMARK  15 active torsions:
REMARK  status: ('A' for Active; 'I' for Inactive)
REMARK    1  A    between atoms: C2_2  and  C14_42 
REMARK    2  A    between atoms: N1_3  and  N2_5 
REMARK    3  A    between atoms: C3_6  and  N3_7 
REMARK    4  A    between atoms: N3_7  and  N4_9 
REMARK    5  A    between atoms: N5_12  and  C4_13 
REMARK    6  A    between atoms: C5_15  and  C6_16 
REMARK    7  A    between atoms: C6_16  and  O2_17 
REMARK    8  A    between atoms: C6_16  and  C7_19 
REMARK    9  A    between atoms: C7_19  and  O3_20 
REMARK   10  A    between atoms: C8_22  and  O4_23 
REMARK   11  A    between atoms: C9_25  and  O5_26 
REMARK   12  A    between atoms: C11_31  and  N7_32 
REMARK   13  A    between atoms: C12_37  and  N9_38 
REMARK   14  A    between atoms: C14_42  and  N10_43 
REMARK   15  A    between atoms: C14_42  and  N11_47 
ROOT
HETATM    1  N2  UNL     1      -1.831   0.319  -0.820  1.00  0.00    -0.077 N 
HETATM    2  C3  UNL     1      -0.619  -0.283  -0.758  1.00  0.00     0.724 A 
HETATM    3  N5  UNL     1       0.365   0.611  -0.793  1.00  0.00    -0.132 N 
HETATM    4  C10 UNL     1      -0.209   1.816  -0.882  1.00  0.00     0.175 A 
HETATM    5  N6  UNL     1       0.273   3.068  -0.954  1.00  0.00    -0.173 N 
ATOM      6  H6  UNL     1       1.282   3.216  -0.941  1.00  0.00     0.186 HD
HETATM    7  C11 UNL     1      -0.545   4.128  -1.043  1.00  0.00     0.679 A 
HETATM    8  N8  UNL     1      -1.868   3.975  -1.063  1.00  0.00    -0.175 N 
ATOM      9  H8  UNL     1      -2.468   4.797  -1.131  1.00  0.00     0.186 HD
HETATM   10  C12 UNL     1      -2.428   2.747  -0.994  1.00  0.00     0.148 A 
HETATM   11  C13 UNL     1      -1.603   1.643  -0.901  1.00  0.00     0.164 A 
ENDROOT
BRANCH   3  12
HETATM   12  C4  UNL     1       1.793   0.394  -0.749  1.00  0.00     0.279 C 
HETATM   13  O1  UNL     1       2.198  -0.129   0.501  1.00  0.00    -0.352 OA
HETATM   14  C5  UNL     1       3.538  -0.406   0.235  1.00  0.00     0.186 C 
HETATM   15  C8  UNL     1       3.430  -1.265  -1.007  1.00  0.00     0.182 C 
HETATM   16  C9  UNL     1       2.321  -0.535  -1.767  1.00  0.00     0.199 C 
BRANCH  14  17
HETATM   17  C6  UNL     1       4.099  -1.160   1.413  1.00  0.00     0.173 C 
BRANCH  17  18
HETATM   18  O2  UNL     1       3.402  -2.345   1.602  1.00  0.00    -0.391 OA
ATOM     19  H2  UNL     1       3.756  -2.820   2.345  1.00  0.00     0.210 HD
ENDBRANCH  17  18
BRANCH  17  20
HETATM   20  C7  UNL     1       5.561  -1.480   1.248  1.00  0.00     0.198 C 
BRANCH  20  21
HETATM   21  O3  UNL     1       5.960  -2.129   2.438  1.00  0.00    -0.398 OA
ATOM     22  H3  UNL     1       6.882  -2.331   2.334  1.00  0.00     0.209 HD
ENDBRANCH  20  21
ENDBRANCH  17  20
ENDBRANCH  14  17
BRANCH  15  23
HETATM   23  O4  UNL     1       2.954  -2.539  -0.727  1.00  0.00    -0.390 OA
ATOM     24  H4  UNL     1       2.886  -3.078  -1.506  1.00  0.00     0.210 HD
ENDBRANCH  15  23
BRANCH  16  25
HETATM   25  O5  UNL     1       2.959   0.146  -2.830  1.00  0.00    -0.388 OA
ATOM     26  H5  UNL     1       3.299  -0.452  -3.485  1.00  0.00     0.210 HD
ENDBRANCH  16  25
ENDBRANCH   3  12
BRANCH   2  27
HETATM   27  N3  UNL     1      -0.454  -1.536  -0.704  1.00  0.00    -0.136 N 
ATOM     28  H3  UNL     1       0.517  -1.846  -0.660  1.00  0.00     0.205 HD
BRANCH  27  29
HETATM   29  N4  UNL     1      -1.398  -2.546  -0.696  1.00  0.00    -0.331 N 
ATOM     30  H42 UNL     1      -2.362  -2.215  -0.741  1.00  0.00     0.177 HD
ATOM     31  H41 UNL     1      -1.265  -3.556  -0.652  1.00  0.00     0.177 HD
ENDBRANCH  27  29
ENDBRANCH   2  27
BRANCH   1  32
HETATM   32  N1  UNL     1      -3.083  -0.258  -0.781  1.00  0.00    -0.284 N 
HETATM   33  C2  UNL     1      -3.770  -0.581   0.227  1.00  0.00     0.058 C 
HETATM   34  C1  UNL     1      -5.101  -1.195  -0.001  1.00  0.00     0.069 C 
ATOM     35  H1  UNL     1      -3.510  -0.449  -1.687  1.00  0.00     0.187 HD
BRANCH  33  36
HETATM   36  C14 UNL     1      -3.334  -0.365   1.623  1.00  0.00     0.424 C 
BRANCH  36  37
HETATM   37  N10 UNL     1      -3.265  -1.605   2.372  1.00  0.00    -0.045 N 
ATOM     38 3H10 UNL     1      -4.151  -2.108   2.336  1.00  0.00     0.277 HD
ATOM     39 2H10 UNL     1      -2.672  -2.288   1.901  1.00  0.00     0.277 HD
ATOM     40 1H10 UNL     1      -2.964  -1.456   3.335  1.00  0.00     0.277 HD
ENDBRANCH  36  37
BRANCH  36  41
HETATM   41  N11 UNL     1      -4.292   0.487   2.344  1.00  0.00    -0.045 N 
ATOM     42 3H11 UNL     1      -4.452   1.369   1.858  1.00  0.00     0.277 HD
ATOM     43 2H11 UNL     1      -5.239   0.112   2.298  1.00  0.00     0.277 HD
ATOM     44 1H11 UNL     1      -3.991   0.636   3.307  1.00  0.00     0.277 HD
ENDBRANCH  36  41
ENDBRANCH  33  36
ENDBRANCH   1  32
BRANCH   7  45
HETATM   45  N7  UNL     1       0.021   5.295  -1.107  1.00  0.00    -0.234 N 
ATOM     46  H72 UNL     1       1.034   5.412  -1.092  1.00  0.00     0.174 HD
ATOM     47  H71 UNL     1      -0.601   6.101  -1.175  1.00  0.00     0.174 HD
ENDBRANCH   7  45
BRANCH  10  48
HETATM   48  N9  UNL     1      -3.668   2.679  -1.040  1.00  0.00    -0.383 N 
ATOM     49  H92 UNL     1      -4.277   3.494  -1.109  1.00  0.00     0.157 HD
ATOM     50  H91 UNL     1      -4.091   1.752  -0.988  1.00  0.00     0.157 HD
ENDBRANCH  10  48
TORSDOF 15
