REMARK  8 active torsions:
REMARK  status: ('A' for Active; 'I' for Inactive)
REMARK    1  A    between atoms: C2_3  and  C3_4 
REMARK    2  A    between atoms: C3_4  and  N2_5 
REMARK    3  A    between atoms: N2_5  and  C4_7 
REMARK    4  A    between atoms: C5_10  and  N4_11 
REMARK    5  A    between atoms: C9_21  and  N8_22 
REMARK    6  A    between atoms: N8_22  and  C10_24 
REMARK    7  A    between atoms: C10_24  and  C11_25 
REMARK    8  A    between atoms: C11_25  and  O1_26 
ROOT
HETATM    1  N1  UNL     1      -5.781  -3.347  -1.149  1.00  0.00    -0.197 NA
HETATM    2  C1  UNL     1      -4.865  -3.639  -0.470  1.00  0.00     0.060 C 
HETATM    3  C2  UNL     1      -3.725  -3.998   0.369  1.00  0.00     0.144 C 
ENDROOT
BRANCH   3   4
HETATM    4  C3  UNL     1      -2.457  -3.286  -0.133  1.00  0.00     0.152 C 
BRANCH   4   5
HETATM    5  N2  UNL     1      -2.681  -1.894  -0.085  1.00  0.00    -0.224 N 
ATOM      6  H2  UNL     1      -3.664  -1.623  -0.092  1.00  0.00     0.177 HD
BRANCH   5   7
HETATM    7  C4  UNL     1      -1.866  -0.919  -0.035  1.00  0.00     0.707 A 
HETATM    8  N3  UNL     1      -0.530  -1.015  -0.021  1.00  0.00    -0.021 N 
HETATM    9  C5  UNL     1       0.275   0.054   0.047  1.00  0.00     0.720 A 
ATOM     10  H3  UNL     1      -0.107  -1.942  -0.064  1.00  0.00     0.203 HD
HETATM   11  N7  UNL     1      -0.316   1.280   0.104  1.00  0.00    -0.021 N 
HETATM   12  C9  UNL     1      -1.645   1.434   0.092  1.00  0.00     0.707 A 
ATOM     13  H7  UNL     1       0.275   2.109   0.158  1.00  0.00     0.203 HD
HETATM   14  N9  UNL     1      -2.406   0.331   0.024  1.00  0.00    -0.022 N 
ATOM     15  H9  UNL     1      -3.421   0.431   0.016  1.00  0.00     0.203 HD
BRANCH   9  16
HETATM   16  N4  UNL     1       1.693  -0.055   0.037  1.00  0.00    -0.146 N 
HETATM   17  C6  UNL     1       2.537   0.680   0.945  1.00  0.00     0.175 C 
HETATM   18  C7  UNL     1       3.737  -0.173   1.294  1.00  0.00     0.143 C 
HETATM   19  N5  UNL     1       4.619  -0.404   0.155  1.00  0.00    -0.370 N 
HETATM   20  C8  UNL     1       4.140  -1.192  -0.958  1.00  0.00     0.171 C 
ATOM     21  H5  UNL     1       5.562  -0.014   0.144  1.00  0.00     0.161 HD
HETATM   22  N6  UNL     1       4.987  -1.951  -1.792  1.00  0.00    -0.073 NA
HETATM   23  S1  UNL     1       2.516  -1.086  -1.136  1.00  0.00     0.037 SA
ENDBRANCH   9  16
BRANCH  12  24
HETATM   24  N8  UNL     1      -2.190   2.625   0.134  1.00  0.00    -0.223 N 
ATOM     25  H8  UNL     1      -3.201   2.759   0.125  1.00  0.00     0.177 HD
BRANCH  24  26
HETATM   26  C10 UNL     1      -1.257   3.749   0.194  1.00  0.00     0.164 C 
BRANCH  26  27
HETATM   27  C11 UNL     1      -1.886   4.949  -0.458  1.00  0.00     0.184 C 
BRANCH  27  28
HETATM   28  O1  UNL     1      -1.035   6.047  -0.426  1.00  0.00    -0.399 OA
ATOM     29  H1  UNL     1      -1.432   6.805  -0.838  1.00  0.00     0.209 HD
ENDBRANCH  27  28
ENDBRANCH  26  27
ENDBRANCH  24  26
ENDBRANCH  12  24
ENDBRANCH   5   7
ENDBRANCH   4   5
ENDBRANCH   3   4
TORSDOF 8
