REMARK  5 active torsions:
REMARK  status: ('A' for Active; 'I' for Inactive)
REMARK    1  A    between atoms: C2_2  and  N1_3 
REMARK       I    between atoms: N5_12  and  C4_14 
REMARK    2  A    between atoms: C4_14  and  C5_16 
REMARK    3  A    between atoms: C5_16  and  S1_17 
REMARK    4  A    between atoms: S1_17  and  C6_18 
REMARK    5  A    between atoms: C6_18  and  C7_19 
ROOT
HETATM    1  C1  UNL     1      -3.619   0.922  -1.311  1.00  0.00     0.076 C 
HETATM    2  C2  UNL     1      -3.777   0.068  -0.088  1.00  0.00     0.264 C 
HETATM    3  N2  UNL     1      -4.309   0.914   0.973  1.00  0.00    -0.079 NA
HETATM    4  N3  UNL     1      -3.212   1.725   1.283  1.00  0.00    -0.027 NA
HETATM    5  N4  UNL     1      -2.095   0.850   1.265  1.00  0.00    -0.273 N 
ATOM      6  H4  UNL     1      -1.190   1.020   1.704  1.00  0.00     0.185 HD
HETATM    7  C3  UNL     1      -2.466  -0.308   0.524  1.00  0.00     0.151 C 
HETATM    8  N5  UNL     1      -1.866  -1.425   0.381  1.00  0.00    -0.312 N 
ATOM      9  H5  UNL     1      -2.320  -2.127  -0.203  1.00  0.00     0.170 HD
HETATM   10  C4  UNL     1      -0.634  -1.771   0.959  1.00  0.00     0.232 C 
HETATM   11  O1  UNL     1      -0.550  -2.171   2.168  1.00  0.00    -0.272 OA
ENDROOT
BRANCH  10  12
HETATM   12  C5  UNL     1       0.639  -1.694   0.199  1.00  0.00     0.177 C 
BRANCH  12  13
HETATM   13  S1  UNL     1       2.047  -2.204   1.197  1.00  0.00    -0.153 SA
BRANCH  13  14
HETATM   14  C6  UNL     1       3.594  -2.121   0.300  1.00  0.00     0.139 C 
BRANCH  14  15
HETATM   15  C7  UNL     1       3.988  -0.734  -0.056  1.00  0.00     0.069 A 
HETATM   16  N6  UNL     1       3.645  -0.122  -1.176  1.00  0.00    -0.305 N 
HETATM   17  C8  UNL     1       3.967   1.115  -1.552  1.00  0.00     0.328 A 
ATOM     18  H6  UNL     1       3.069  -0.657  -1.826  1.00  0.00     0.171 HD
HETATM   19  O2  UNL     1       3.509   1.477  -2.692  1.00  0.00    -0.247 OA
HETATM   20  N7  UNL     1       4.697   1.986  -0.879  1.00  0.00    -0.269 N 
HETATM   21  C9  UNL     1       5.259   1.781   0.331  1.00  0.00     0.293 A 
ATOM     22  H7  UNL     1       4.850   2.896  -1.313  1.00  0.00     0.174 HD
HETATM   23  O3  UNL     1       5.933   2.666   0.889  1.00  0.00    -0.260 OA
HETATM   24  S2  UNL     1       4.957   0.223   0.996  1.00  0.00    -0.015 SA
ENDBRANCH  14  15
ENDBRANCH  13  14
ENDBRANCH  12  13
ENDBRANCH  10  12
BRANCH   2  25
HETATM   25  N1  UNL     1      -4.609  -1.090  -0.316  1.00  0.00    -0.048 N 
ATOM     26  H13 UNL     1      -5.518  -0.818  -0.691  1.00  0.00     0.277 HD
ATOM     27  H12 UNL     1      -4.262  -1.639  -1.102  1.00  0.00     0.277 HD
ATOM     28  H11 UNL     1      -4.716  -1.671   0.516  1.00  0.00     0.277 HD
ENDBRANCH   2  25
TORSDOF 5
