REMARK  9 active torsions:
REMARK  status: ('A' for Active; 'I' for Inactive)
REMARK    1  A    between atoms: O1_2  and  C2_3 
REMARK    2  A    between atoms: C3_6  and  N2_7 
REMARK    3  A    between atoms: N2_7  and  C4_9 
REMARK    4  A    between atoms: C4_9  and  C5_10 
REMARK    5  A    between atoms: C5_10  and  N3_11 
REMARK    6  A    between atoms: N3_11  and  C7_13 
REMARK    7  A    between atoms: C10_20  and  N5_21 
REMARK    8  A    between atoms: C11_26  and  N7_27 
REMARK    9  A    between atoms: N7_27  and  N8_29 
ROOT
HETATM    1  C2  UNL     1      -3.249   0.982  -0.422  1.00  0.00     0.239 C 
HETATM    2  N1  UNL     1      -1.895   0.899  -0.495  1.00  0.00    -0.305 N 
ATOM      3  H1  UNL     1      -1.381   1.768  -0.640  1.00  0.00     0.171 HD
HETATM    4  C3  UNL     1      -1.169  -0.243  -0.391  1.00  0.00     0.149 C 
HETATM    5  C10 UNL     1      -1.634  -1.554  -0.445  1.00  0.00     0.159 C 
HETATM    6  N6  UNL     1      -2.846  -1.962  -0.043  1.00  0.00    -0.172 N 
ATOM      7  H6  UNL     1      -2.921  -2.968   0.110  1.00  0.00     0.186 HD
HETATM    8  C11 UNL     1      -3.985  -1.277   0.195  1.00  0.00     0.701 C 
HETATM    9  N9  UNL     1      -4.106   0.070   0.064  1.00  0.00    -0.153 N 
ATOM     10  H9  UNL     1      -4.995   0.451   0.388  1.00  0.00     0.188 HD
ENDROOT
BRANCH   4  11
HETATM   11  N2  UNL     1       0.105  -0.120  -0.220  1.00  0.00    -0.372 N 
ATOM     12  H2  UNL     1       0.678  -0.960  -0.138  1.00  0.00     0.161 HD
BRANCH  11  13
HETATM   13  C4  UNL     1       0.741   1.178  -0.141  1.00  0.00     0.141 C 
BRANCH  13  14
HETATM   14  C5  UNL     1       1.932   1.064   0.801  1.00  0.00     0.143 C 
BRANCH  14  15
HETATM   15  N3  UNL     1       2.885   0.101   0.332  1.00  0.00    -0.369 N 
HETATM   16  C6  UNL     1       2.598  -1.336   0.301  1.00  0.00     0.151 C 
BRANCH  15  17
HETATM   17  C7  UNL     1       4.165   0.476  -0.133  1.00  0.00     0.129 A 
HETATM   18  C8  UNL     1       5.313   0.544   0.613  1.00  0.00     0.134 A 
HETATM   19  C9  UNL     1       6.296   0.955  -0.265  1.00  0.00     0.308 A 
HETATM   20  O2  UNL     1       7.511   1.147   0.008  1.00  0.00    -0.258 OA
HETATM   21  O3  UNL     1       5.742   1.113  -1.442  1.00  0.00    -0.194 OA
HETATM   22  N4  UNL     1       4.467   0.831  -1.382  1.00  0.00    -0.241 N 
ATOM     23  H4  UNL     1       3.811   0.875  -2.162  1.00  0.00     0.196 HD
ENDBRANCH  15  17
ENDBRANCH  14  15
ENDBRANCH  13  14
ENDBRANCH  11  13
ENDBRANCH   4  11
BRANCH   5  24
HETATM   24  N5  UNL     1      -0.821  -2.429  -0.924  1.00  0.00    -0.382 N 
ATOM     25  H52 UNL     1       0.101  -2.119  -1.230  1.00  0.00     0.157 HD
ATOM     26  H51 UNL     1      -1.162  -3.390  -0.964  1.00  0.00     0.157 HD
ENDBRANCH   5  24
BRANCH   1  27
HETATM   27  O1  UNL     1      -3.750   2.158  -0.918  1.00  0.00    -0.327 OA
HETATM   28  C1  UNL     1      -2.973   3.193  -1.455  1.00  0.00     0.213 C 
ENDBRANCH   1  27
BRANCH   8  29
HETATM   29  N7  UNL     1      -5.039  -1.920   0.573  1.00  0.00    -0.138 N 
ATOM     30  H7  UNL     1      -5.909  -1.421   0.758  1.00  0.00     0.205 HD
BRANCH  29  31
HETATM   31  N8  UNL     1      -4.974  -3.293   0.724  1.00  0.00    -0.331 N 
ATOM     32  H82 UNL     1      -4.096  -3.777   0.535  1.00  0.00     0.177 HD
ATOM     33  H81 UNL     1      -5.807  -3.801   1.023  1.00  0.00     0.177 HD
ENDBRANCH  29  31
ENDBRANCH   8  29
TORSDOF 9
