REMARK  11 active torsions:
REMARK  status: ('A' for Active; 'I' for Inactive)
REMARK    1  A    between atoms: N1_2  and  C3_4 
REMARK    2  A    between atoms: C3_4  and  C4_5 
REMARK    3  A    between atoms: C3_4  and  C5_7 
REMARK    4  A    between atoms: C5_7  and  C6_8 
REMARK    5  A    between atoms: C6_8  and  C7_9 
REMARK    6  A    between atoms: C9_14  and  C10_15 
REMARK    7  A    between atoms: C10_15  and  C11_16 
REMARK       I    between atoms: N3_23  and  C18_24 
REMARK    8  A    between atoms: C18_24  and  C19_26 
REMARK    9  A    between atoms: C19_26  and  N4_27 
REMARK   10  A    between atoms: C19_26  and  C25_37 
REMARK       I    between atoms: N4_27  and  C20_29 
REMARK       I    between atoms: C20_29  and  N5_31 
REMARK   11  A    between atoms: N5_31  and  C21_33 
ROOT
HETATM    1  C7  UNL     1      -1.139   2.254   0.237  1.00  0.00     0.179 C 
HETATM    2  C8  UNL     1      -2.440   2.414   0.925  1.00  0.00     0.241 C 
HETATM    3  O1  UNL     1      -2.705   3.387   1.710  1.00  0.00    -0.271 OA
HETATM    4  N2  UNL     1      -3.418   1.406   0.669  1.00  0.00    -0.353 N 
ATOM      5  H2  UNL     1      -4.411   1.638   0.700  1.00  0.00     0.163 HD
HETATM    6  C9  UNL     1      -3.000   0.054   0.365  1.00  0.00     0.103 C 
HETATM    7  C17 UNL     1      -1.567  -0.192   0.730  1.00  0.00     0.152 C 
HETATM    8  N3  UNL     1      -0.683   0.860   0.315  1.00  0.00    -0.335 N 
HETATM    9  C18 UNL     1       0.655   0.557  -0.003  1.00  0.00     0.243 C 
HETATM   10  O2  UNL     1       1.462   1.507  -0.311  1.00  0.00    -0.271 OA
ENDROOT
BRANCH   1  11
HETATM   11  C6  UNL     1      -1.222   2.716  -1.199  1.00  0.00     0.037 C 
BRANCH  11  12
HETATM   12  C5  UNL     1      -1.608   4.146  -1.333  1.00  0.00     0.039 C 
BRANCH  12  13
HETATM   13  C3  UNL     1      -0.688   5.132  -0.699  1.00  0.00     0.232 C 
BRANCH  13  14
HETATM   14  N1  UNL     1      -1.244   6.476  -0.935  1.00  0.00     0.085 N 
HETATM   15  C1  UNL     1      -2.547   6.616  -0.319  1.00  0.00     0.309 C 
HETATM   16  C2  UNL     1      -0.389   7.495  -0.360  1.00  0.00     0.309 C 
ENDBRANCH  13  14
BRANCH  13  17
HETATM   17  C4  UNL     1       0.678   5.160  -1.363  1.00  0.00     0.121 C 
HETATM   18  S1  UNL     1       0.550   5.503  -3.135  1.00  0.00    -0.095 SA
ENDBRANCH  13  17
ENDBRANCH  12  13
ENDBRANCH  11  12
ENDBRANCH   1  11
BRANCH   9  19
HETATM   19  C19 UNL     1       1.280  -0.784  -0.024  1.00  0.00     0.182 C 
BRANCH  19  20
HETATM   20  N4  UNL     1       2.694  -0.726   0.320  1.00  0.00    -0.329 N 
HETATM   21  C20 UNL     1       3.246  -1.305   1.474  1.00  0.00     0.317 C 
HETATM   22  O3  UNL     1       2.511  -1.907   2.276  1.00  0.00    -0.247 OA
HETATM   23  N5  UNL     1       4.625  -1.231   1.766  1.00  0.00    -0.335 N 
ATOM     24  H5  UNL     1       5.230  -0.742   1.106  1.00  0.00     0.165 HD
ATOM     25  H4  UNL     1       3.322  -0.235  -0.316  1.00  0.00     0.165 HD
BRANCH  23  26
HETATM   26  C21 UNL     1       5.230  -1.808   2.945  1.00  0.00     0.023 C 
HETATM   27  C22 UNL     1       6.718  -1.538   2.884  1.00  0.00     0.037 C 
HETATM   28  C23 UNL     1       4.723  -1.138   4.212  1.00  0.00     0.037 C 
HETATM   29  C24 UNL     1       5.036  -3.301   3.037  1.00  0.00     0.037 C 
ENDBRANCH  23  26
ENDBRANCH  19  20
BRANCH  19  30
HETATM   30  C25 UNL     1       1.091  -1.502  -1.350  1.00  0.00     0.018 C 
HETATM   31  C26 UNL     1       1.696  -0.744  -2.501  1.00  0.00     0.007 C 
HETATM   32  C27 UNL     1       1.845  -1.718  -3.681  1.00  0.00     0.000 C 
HETATM   33  C28 UNL     1       2.956  -2.663  -3.330  1.00  0.00     0.000 C 
HETATM   34  C29 UNL     1       2.887  -3.155  -1.928  1.00  0.00     0.000 C 
HETATM   35  C30 UNL     1       1.573  -2.906  -1.242  1.00  0.00     0.007 C 
ENDBRANCH  19  30
ENDBRANCH   9  19
BRANCH   6  36
HETATM   36  C10 UNL     1      -3.936  -0.891   1.080  1.00  0.00     0.031 C 
BRANCH  36  37
HETATM   37  C11 UNL     1      -3.548  -2.344   0.798  1.00  0.00    -0.013 C 
HETATM   38  C12 UNL     1      -3.615  -2.635  -0.687  1.00  0.00     0.005 C 
HETATM   39  C13 UNL     1      -3.594  -4.133  -0.864  1.00  0.00     0.000 C 
HETATM   40  C14 UNL     1      -4.965  -4.650  -0.500  1.00  0.00     0.000 C 
HETATM   41  C15 UNL     1      -5.612  -3.724   0.489  1.00  0.00     0.000 C 
HETATM   42  C16 UNL     1      -4.563  -3.211   1.475  1.00  0.00     0.005 C 
ENDBRANCH  36  37
ENDBRANCH   6  36
TORSDOF 11
