REMARK  11 active torsions:
REMARK  status: ('A' for Active; 'I' for Inactive)
REMARK    1  A    between atoms: C2_2  and  C4_4 
REMARK    2  A    between atoms: C4_4  and  C5_6 
REMARK    3  A    between atoms: C5_6  and  C6_7 
REMARK    4  A    between atoms: C6_7  and  O2_8 
REMARK    5  A    between atoms: C15_18  and  C16_19 
REMARK       I    between atoms: C16_19  and  N1_21 
REMARK    6  A    between atoms: N1_21  and  C17_23 
REMARK    7  A    between atoms: C17_23  and  C18_24 
REMARK    8  A    between atoms: C18_24  and  C19_25 
REMARK    9  A    between atoms: C19_25  and  N2_26 
REMARK       I    between atoms: N2_26  and  C20_28 
REMARK   10  A    between atoms: C20_28  and  C21_30 
REMARK   11  A    between atoms: C22_31  and  C23_32 
ROOT
HETATM    1  C6  UNL     1      -5.030  -0.958   0.207  1.00  0.00     0.072 C 
HETATM    2  C7  UNL     1      -4.939  -1.542   1.662  1.00  0.00     0.039 C 
HETATM    3  C8  UNL     1      -3.455  -1.795   1.844  1.00  0.00     0.009 C 
HETATM    4  C9  UNL     1      -2.816  -1.160   0.657  1.00  0.00     0.006 C 
HETATM    5  C10 UNL     1      -1.403  -0.778   0.668  1.00  0.00    -0.032 C 
HETATM    6  C11 UNL     1      -0.904  -1.455   1.960  1.00  0.00     0.016 C 
HETATM    7  C12 UNL     1      -0.694  -1.577  -0.426  1.00  0.00     0.011 C 
HETATM    8  C13 UNL     1       0.161  -0.794  -1.346  1.00  0.00     0.007 C 
HETATM    9  C14 UNL     1       1.037   0.211  -0.694  1.00  0.00     0.007 C 
HETATM   10  C15 UNL     1       1.476   1.211  -1.736  1.00  0.00     0.083 C 
HETATM   11  C24 UNL     1       1.374   2.584  -1.123  1.00  0.00     0.015 C 
HETATM   12  C25 UNL     1       0.810   2.399   0.265  1.00  0.00     0.011 C 
HETATM   13  C26 UNL     1       0.364   0.991   0.432  1.00  0.00    -0.032 C 
HETATM   14  C27 UNL     1       1.146   0.567   1.703  1.00  0.00     0.016 C 
HETATM   15  C28 UNL     1      -1.084   0.697   0.587  1.00  0.00     0.031 C 
HETATM   16  C29 UNL     1      -2.035   1.302  -0.343  1.00  0.00    -0.083 C 
HETATM   17  C30 UNL     1      -2.121   2.515  -0.842  1.00  0.00     0.015 C 
HETATM   18  C31 UNL     1      -3.232   0.489  -0.880  1.00  0.00     0.046 C 
HETATM   19  C32 UNL     1      -3.856  -0.086   0.327  1.00  0.00    -0.005 C 
HETATM   20  C33 UNL     1      -4.052   0.881   1.455  1.00  0.00     0.019 C 
ENDROOT
BRANCH  10  21
HETATM   21  C16 UNL     1       2.899   0.903  -2.158  1.00  0.00     0.222 C 
HETATM   22  O3  UNL     1       3.187   0.600  -3.319  1.00  0.00    -0.273 OA
HETATM   23  N1  UNL     1       3.876   0.984  -1.136  1.00  0.00    -0.361 N 
ATOM     24  H1  UNL     1       3.552   1.248  -0.206  1.00  0.00     0.162 HD
BRANCH  23  25
HETATM   25  C17 UNL     1       5.288   0.727  -1.290  1.00  0.00     0.124 C 
BRANCH  25  26
HETATM   26  C18 UNL     1       5.471  -0.711  -1.712  1.00  0.00     0.039 C 
BRANCH  26  27
HETATM   27  C19 UNL     1       6.922  -1.093  -1.887  1.00  0.00     0.124 C 
BRANCH  27  28
HETATM   28  N2  UNL     1       7.586  -0.904  -0.590  1.00  0.00    -0.358 N 
HETATM   29  C20 UNL     1       8.960  -1.193  -0.492  1.00  0.00     0.241 C 
HETATM   30  O4  UNL     1       9.580  -1.600  -1.499  1.00  0.00    -0.269 OA
ATOM     31  H2  UNL     1       7.064  -0.571   0.220  1.00  0.00     0.162 HD
BRANCH  29  32
HETATM   32  C21 UNL     1       9.656  -1.021   0.766  1.00  0.00     0.081 C 
HETATM   33  C22 UNL     1       9.104  -0.600   1.877  1.00  0.00     0.090 C 
BRANCH  33  34
HETATM   34  C23 UNL     1       9.909  -0.468   3.078  1.00  0.00     0.198 C 
HETATM   35  O5  UNL     1       9.390  -0.064   4.156  1.00  0.00    -0.645 OA
HETATM   36  O6  UNL     1      11.253  -0.783   3.057  1.00  0.00    -0.645 OA
ENDBRANCH  33  34
ENDBRANCH  29  32
ENDBRANCH  27  28
ENDBRANCH  26  27
ENDBRANCH  25  26
ENDBRANCH  23  25
ENDBRANCH  10  21
BRANCH   1  37
HETATM   37  C5  UNL     1      -6.396  -0.452   0.114  1.00  0.00     0.122 C 
BRANCH  37  38
HETATM   38  C4  UNL     1      -6.915  -0.066  -1.203  1.00  0.00     0.157 C 
HETATM   39  O1  UNL     1      -6.239  -0.257  -2.222  1.00  0.00    -0.293 OA
BRANCH  38  40
HETATM   40  C2  UNL     1      -8.212   0.537  -1.301  1.00  0.00    -0.025 C 
HETATM   41  C1  UNL     1      -8.685   0.885  -2.475  1.00  0.00     0.022 C 
HETATM   42  C3  UNL     1      -9.024   0.771  -0.093  1.00  0.00     0.051 C 
ENDBRANCH  38  40
ENDBRANCH  37  38
ENDBRANCH   1  37
BRANCH   1  43
HETATM   43  O2  UNL     1      -4.916  -2.082  -0.599  1.00  0.00    -0.389 OA
ATOM     44  H2  UNL     1      -4.027  -2.411  -0.538  1.00  0.00     0.210 HD
ENDBRANCH   1  43
TORSDOF 11
