REMARK  13 active torsions:
REMARK  status: ('A' for Active; 'I' for Inactive)
REMARK    1  A    between atoms: C7_7  and  N1_8 
REMARK    2  A    between atoms: N1_8  and  C8_11 
REMARK    3  A    between atoms: C8_11  and  C9_12 
REMARK    4  A    between atoms: C9_12  and  O1_13 
REMARK    5  A    between atoms: C10_15  and  N2_16 
REMARK    6  A    between atoms: C10_15  and  C17_24 
REMARK    7  A    between atoms: N2_16  and  C11_18 
REMARK    8  A    between atoms: C17_24  and  C18_25 
REMARK    9  A    between atoms: C17_24  and  N4_41 
REMARK   10  A    between atoms: C18_25  and  C19_26 
REMARK   11  A    between atoms: C19_26  and  C20_27 
REMARK   12  A    between atoms: C20_27  and  O2_28 
REMARK   13  A    between atoms: C20_27  and  N3_30 
REMARK       I    between atoms: N4_41  and  C30_43 
REMARK       I    between atoms: C30_43  and  N5_45 
ROOT
HETATM    1  C17 UNL     1       1.026  -0.105  -0.766  1.00  0.00     0.140 C 
ENDROOT
BRANCH   1   2
HETATM    2  C10 UNL     1      -0.352   0.355  -0.119  1.00  0.00     0.063 C 
HETATM    3  C9  UNL     1      -1.454  -0.542  -0.348  1.00  0.00     0.093 C 
BRANCH   3   4
HETATM    4  C8  UNL     1      -2.863  -0.251   0.018  1.00  0.00     0.298 C 
BRANCH   4   5
HETATM    5  N1  UNL     1      -3.731  -1.241  -0.700  1.00  0.00    -0.065 N 
ATOM      6  H12 UNL     1      -3.480  -2.213  -0.519  1.00  0.00     0.278 HD
ATOM      7  H11 UNL     1      -3.579  -1.264  -1.708  1.00  0.00     0.278 HD
BRANCH   5   8
HETATM    8  C7  UNL     1      -5.081  -0.912  -0.325  1.00  0.00     0.190 C 
HETATM    9  C2  UNL     1      -5.984  -1.573  -1.355  1.00  0.00     0.012 C 
HETATM   10  C1  UNL     1      -5.548  -3.008  -1.482  1.00  0.00     0.012 C 
HETATM   11  C3  UNL     1      -7.413  -1.401  -0.946  1.00  0.00     0.006 C 
HETATM   12  C4  UNL     1      -7.684  -2.165   0.314  1.00  0.00     0.000 C 
HETATM   13  C5  UNL     1      -6.503  -2.321   1.210  1.00  0.00     0.002 C 
HETATM   14  C6  UNL     1      -5.456  -1.245   1.070  1.00  0.00     0.033 C 
ENDBRANCH   5   8
ENDBRANCH   4   5
ENDBRANCH   3   4
BRANCH   3  15
HETATM   15  O1  UNL     1      -1.234  -1.877   0.020  1.00  0.00    -0.361 OA
ATOM     16  H1  UNL     1      -0.332  -2.063  -0.214  1.00  0.00     0.217 HD
ENDBRANCH   3  15
BRANCH   2  17
HETATM   17  N2  UNL     1      -0.440   1.737  -0.252  1.00  0.00    -0.363 N 
ATOM     18  H2  UNL     1      -0.057   2.117  -1.118  1.00  0.00     0.165 HD
BRANCH  17  19
HETATM   19  C11 UNL     1      -0.967   2.662   0.612  1.00  0.00    -0.013 C 
HETATM   20  C12 UNL     1      -1.468   3.956  -0.073  1.00  0.00     0.052 C 
HETATM   21  C13 UNL     1      -1.120   5.102   0.839  1.00  0.00     0.006 C 
HETATM   22  C14 UNL     1      -1.036   4.714   2.270  1.00  0.00     0.001 C 
HETATM   23  C15 UNL     1      -1.904   3.592   2.718  1.00  0.00     0.006 C 
HETATM   24  C16 UNL     1      -1.910   2.413   1.712  1.00  0.00     0.052 C 
ENDBRANCH  17  19
ENDBRANCH   2  17
ENDBRANCH   1   2
BRANCH   1  25
HETATM   25  C18 UNL     1       1.521  -1.298  -0.150  1.00  0.00     0.049 C 
BRANCH  25  26
HETATM   26  C19 UNL     1       2.765  -1.966  -0.594  1.00  0.00     0.027 C 
HETATM   27  C25 UNL     1       2.610  -2.524  -2.019  1.00  0.00     0.018 C 
HETATM   28  C26 UNL     1       3.595  -3.636  -2.225  1.00  0.00     0.001 C 
HETATM   29  C27 UNL     1       3.117  -4.928  -1.579  1.00  0.00     0.000 C 
HETATM   30  C28 UNL     1       2.324  -4.454  -0.358  1.00  0.00     0.001 C 
HETATM   31  C29 UNL     1       2.967  -3.237   0.263  1.00  0.00     0.018 C 
BRANCH  26  32
HETATM   32  C20 UNL     1       3.992  -1.190  -0.511  1.00  0.00     0.122 C 
BRANCH  32  33
HETATM   33  O2  UNL     1       4.663  -0.955  -1.611  1.00  0.00    -0.349 OA
ATOM     34  H2  UNL     1       5.465  -0.448  -1.557  1.00  0.00     0.219 HD
ENDBRANCH  32  33
BRANCH  32  35
HETATM   35  N3  UNL     1       4.614  -0.625   0.635  1.00  0.00    -0.361 N 
HETATM   36  C21 UNL     1       5.924   0.005   0.425  1.00  0.00     0.151 C 
HETATM   37  C22 UNL     1       6.019   1.265   1.209  1.00  0.00     0.187 C 
HETATM   38  O3  UNL     1       5.437   1.248   2.461  1.00  0.00    -0.388 OA
HETATM   39  C23 UNL     1       5.232  -0.071   2.873  1.00  0.00     0.187 C 
HETATM   40  C24 UNL     1       4.105  -0.600   1.962  1.00  0.00     0.151 C 
ENDBRANCH  32  35
ENDBRANCH  26  32
ENDBRANCH  25  26
ENDBRANCH   1  25
BRANCH   1  41
HETATM   41  N4  UNL     1       1.804   1.089  -0.582  1.00  0.00    -0.333 N 
HETATM   42  C30 UNL     1       2.332   1.838  -1.672  1.00  0.00     0.318 C 
HETATM   43  O4  UNL     1       2.153   1.377  -2.830  1.00  0.00    -0.247 OA
HETATM   44  N5  UNL     1       3.030   3.060  -1.550  1.00  0.00    -0.343 N 
HETATM   45  C31 UNL     1       3.618   3.687  -2.709  1.00  0.00     0.154 C 
HETATM   46  C32 UNL     1       3.099   3.760  -0.287  1.00  0.00     0.154 C 
ATOM     47  H4  UNL     1       1.985   1.413   0.368  1.00  0.00     0.165 HD
ENDBRANCH   1  41
TORSDOF 13
