REMARK  12 active torsions:
REMARK  status: ('A' for Active; 'I' for Inactive)
REMARK    1  A    between atoms: N1_1  and  C1_4 
REMARK    2  A    between atoms: C4_9  and  N3_10 
REMARK    3  A    between atoms: N4_13  and  C7_14 
REMARK    4  A    between atoms: C7_14  and  C8_15 
REMARK    5  A    between atoms: C8_15  and  O1_16 
REMARK    6  A    between atoms: N7_28  and  N8_30 
REMARK    7  A    between atoms: N8_30  and  C12_32 
REMARK    8  A    between atoms: C12_32  and  C13_33 
REMARK    9  A    between atoms: C13_33  and  N9_34 
REMARK   10  A    between atoms: C15_38  and  N11_39 
REMARK   11  A    between atoms: C16_44  and  N13_45 
REMARK   12  A    between atoms: N13_45  and  N14_47 
ROOT
HETATM    1  C1  UNL     1       0.156   1.577   0.102  1.00  0.00     0.678 A 
HETATM    2  N2  UNL     1       0.936   0.527  -0.188  1.00  0.00    -0.186 N 
ATOM      3  H2  UNL     1       1.948   0.647  -0.227  1.00  0.00     0.184 HD
HETATM    4  C2  UNL     1       0.388  -0.711  -0.434  1.00  0.00     0.122 A 
HETATM    5  C3  UNL     1      -0.973  -0.778  -0.359  1.00  0.00     0.155 A 
HETATM    6  C4  UNL     1      -1.792   0.307  -0.058  1.00  0.00     0.145 A 
HETATM    7  N5  UNL     1      -1.187   1.479   0.169  1.00  0.00    -0.175 N 
ATOM      8  H5  UNL     1      -1.745   2.303   0.394  1.00  0.00     0.186 HD
HETATM    9  S1  UNL     1      -1.386  -2.459  -0.708  1.00  0.00     0.270 S 
HETATM   10  O2  UNL     1      -1.966  -3.096   0.526  1.00  0.00    -0.200 OA
HETATM   11  O3  UNL     1      -2.256  -2.603  -1.892  1.00  0.00    -0.200 OA
HETATM   12  N6  UNL     1       0.207  -3.038  -0.955  1.00  0.00    -0.263 N 
ATOM     13  H6  UNL     1       0.481  -3.991  -1.195  1.00  0.00     0.180 HD
HETATM   14  C11 UNL     1       1.058  -1.943  -0.761  1.00  0.00     0.159 A 
HETATM   15  N7  UNL     1       2.358  -2.081  -0.880  1.00  0.00    -0.287 N 
ATOM     16  H7  UNL     1       2.753  -2.992  -1.115  1.00  0.00     0.188 HD
ENDROOT
BRANCH  15  17
HETATM   17  N8  UNL     1       3.220  -0.963  -0.682  1.00  0.00    -0.333 N 
ATOM     18  H8  UNL     1       3.398  -0.632   0.266  1.00  0.00     0.180 HD
BRANCH  17  19
HETATM   19  C12 UNL     1       3.835  -0.301  -1.773  1.00  0.00     0.160 C 
BRANCH  19  20
HETATM   20  C13 UNL     1       4.732   0.848  -1.444  1.00  0.00     0.169 C 
BRANCH  20  21
HETATM   21  N9  UNL     1       5.850   0.519  -0.614  1.00  0.00    -0.175 N 
HETATM   22  C14 UNL     1       6.887  -0.106  -1.252  1.00  0.00     0.218 A 
HETATM   23  N10 UNL     1       7.979  -0.517  -0.568  1.00  0.00    -0.187 N 
HETATM   24  C15 UNL     1       8.080  -0.325   0.757  1.00  0.00     0.691 A 
ATOM     25  H10 UNL     1       8.738  -0.980  -1.067  1.00  0.00     0.185 HD
HETATM   26  N12 UNL     1       7.057   0.288   1.365  1.00  0.00    -0.021 N 
HETATM   27  C16 UNL     1       5.943   0.715   0.699  1.00  0.00     0.714 A 
ATOM     28  H12 UNL     1       7.112   0.443   2.372  1.00  0.00     0.203 HD
BRANCH  24  29
HETATM   29  N11 UNL     1       9.131  -0.730   1.376  1.00  0.00    -0.234 N 
ATOM     30 2H11 UNL     1       9.910  -1.197   0.913  1.00  0.00     0.174 HD
ATOM     31 1H11 UNL     1       9.208  -0.584   2.383  1.00  0.00     0.174 HD
ENDBRANCH  24  29
BRANCH  27  32
HETATM   32  N13 UNL     1       5.007   1.346   1.316  1.00  0.00    -0.138 N 
ATOM     33  H13 UNL     1       4.207   1.685   0.782  1.00  0.00     0.205 HD
BRANCH  32  34
HETATM   34  N14 UNL     1       5.049   1.582   2.691  1.00  0.00    -0.331 N 
ATOM     35 2H14 UNL     1       5.856   1.236   3.209  1.00  0.00     0.177 HD
ATOM     36 1H14 UNL     1       4.307   2.082   3.180  1.00  0.00     0.177 HD
ENDBRANCH  32  34
ENDBRANCH  27  32
ENDBRANCH  20  21
ENDBRANCH  19  20
ENDBRANCH  17  19
ENDBRANCH  15  17
BRANCH   1  37
HETATM   37  N1  UNL     1       0.665   2.743   0.334  1.00  0.00    -0.234 N 
ATOM     38  H12 UNL     1       1.681   2.817   0.283  1.00  0.00     0.174 HD
ATOM     39  H11 UNL     1       0.071   3.542   0.555  1.00  0.00     0.174 HD
ENDBRANCH   1  37
BRANCH   6  40
HETATM   40  N3  UNL     1      -3.203   0.154  -0.004  1.00  0.00    -0.362 N 
HETATM   41  C5  UNL     1      -3.809  -0.226   1.239  1.00  0.00     0.154 C 
HETATM   42  C6  UNL     1      -5.005  -1.089   0.955  1.00  0.00     0.292 C 
HETATM   43  N4  UNL     1      -5.871  -0.405   0.051  1.00  0.00     0.093 N 
HETATM   44  C9  UNL     1      -5.277  -0.277  -1.244  1.00  0.00     0.292 C 
HETATM   45  C10 UNL     1      -3.934   0.401  -1.223  1.00  0.00     0.154 C 
BRANCH  43  46
HETATM   46  C7  UNL     1      -6.377   0.848   0.520  1.00  0.00     0.298 C 
BRANCH  46  47
HETATM   47  C8  UNL     1      -7.340   0.669   1.676  1.00  0.00     0.194 C 
BRANCH  47  48
HETATM   48  O1  UNL     1      -8.424  -0.113   1.274  1.00  0.00    -0.399 OA
ATOM     49  H1  UNL     1      -9.028  -0.225   1.999  1.00  0.00     0.209 HD
ENDBRANCH  47  48
ENDBRANCH  46  47
ENDBRANCH  43  46
ENDBRANCH   6  40
TORSDOF 12
