REMARK  9 active torsions:
REMARK  status: ('A' for Active; 'I' for Inactive)
REMARK    1  A    between atoms: C2_7  and  N3_8 
REMARK    2  A    between atoms: C5_11  and  N4_12 
REMARK    3  A    between atoms: N4_12  and  O1_14 
REMARK    4  A    between atoms: O1_14  and  C6_15 
REMARK    5  A    between atoms: C6_15  and  C7_16 
REMARK    6  A    between atoms: C7_16  and  N5_17 
REMARK    7  A    between atoms: N5_17  and  C8_19 
REMARK    8  A    between atoms: N6_21  and  C10_22 
REMARK    9  A    between atoms: C13_31  and  C14_32 
ROOT
HETATM    1  C7  UNL     1       0.264  -0.500   0.223  1.00  0.00     0.144 C 
ENDROOT
BRANCH   1   2
HETATM    2  C6  UNL     1      -0.642   0.672   0.806  1.00  0.00     0.220 C 
BRANCH   2   3
HETATM    3  O1  UNL     1      -1.225   1.043  -0.381  1.00  0.00    -0.283 OA
BRANCH   3   4
HETATM    4  N4  UNL     1      -2.109   0.287  -0.866  1.00  0.00    -0.296 N 
ATOM      5  H4  UNL     1      -2.059  -0.023  -1.837  1.00  0.00     0.188 HD
BRANCH   4   6
HETATM    6  C5  UNL     1      -3.157  -0.114  -0.040  1.00  0.00     0.125 C 
HETATM    7  C4  UNL     1      -3.883   1.142   0.506  1.00  0.00     0.048 C 
HETATM    8  C3  UNL     1      -5.160   0.526   0.951  1.00  0.00     0.126 C 
HETATM    9  N3  UNL     1      -5.466  -0.412  -0.176  1.00  0.00    -0.365 N 
HETATM   10  C16 UNL     1      -4.313  -0.704  -0.907  1.00  0.00     0.151 C 
BRANCH   9  11
HETATM   11  C2  UNL     1      -6.866  -0.799  -0.254  1.00  0.00     0.124 A 
HETATM   12  N2  UNL     1      -7.700  -0.215  -1.040  1.00  0.00    -0.177 N 
HETATM   13  C1  UNL     1      -9.058  -0.391  -0.909  1.00  0.00     0.680 A 
ATOM     14  H2  UNL     1      -7.346   0.393  -1.778  1.00  0.00     0.185 HD
HETATM   15  N1  UNL     1      -9.892   0.253  -1.604  1.00  0.00    -0.234 N 
HETATM   16  N12 UNL     1      -9.404  -1.189   0.081  1.00  0.00    -0.156 N 
ATOM     17  H12 UNL     1      -9.624   0.871  -2.370  1.00  0.00     0.174 HD
ATOM     18  H11 UNL     1     -10.899   0.122  -1.507  1.00  0.00     0.174 HD
HETATM   19  C18 UNL     1      -8.633  -1.847   0.934  1.00  0.00     0.263 A 
ATOM     20  H12 UNL     1     -10.408  -1.318   0.209  1.00  0.00     0.187 HD
HETATM   21  C17 UNL     1      -7.230  -1.663   0.774  1.00  0.00     0.123 A 
HETATM   22  O4  UNL     1      -9.000  -2.591   1.836  1.00  0.00    -0.268 OA
ENDBRANCH   9  11
ENDBRANCH   4   6
ENDBRANCH   3   4
ENDBRANCH   2   3
ENDBRANCH   1   2
BRANCH   1  23
HETATM   23  N5  UNL     1       0.945   0.002  -0.884  1.00  0.00    -0.392 N 
ATOM     24  H5  UNL     1       0.668  -0.359  -1.797  1.00  0.00     0.155 HD
BRANCH  23  25
HETATM   25  C8  UNL     1       1.956   0.939  -0.866  1.00  0.00     0.300 C 
HETATM   26  C9  UNL     1       3.301   0.335  -1.275  1.00  0.00     0.180 C 
HETATM   27  N6  UNL     1       4.216   0.830  -0.247  1.00  0.00    -0.341 N 
HETATM   28  C15 UNL     1       3.601   1.973   0.290  1.00  0.00     0.360 C 
HETATM   29  N11 UNL     1       2.192   1.504   0.464  1.00  0.00    -0.037 N 
ATOM     30 2H11 UNL     1       1.522   2.207   0.776  1.00  0.00     0.281 HD
ATOM     31 1H11 UNL     1       2.023   0.879   1.252  1.00  0.00     0.281 HD
BRANCH  27  32
HETATM   32  C10 UNL     1       5.405   0.121   0.009  1.00  0.00     0.121 C 
HETATM   33  N7  UNL     1       5.189  -1.192   0.143  1.00  0.00    -0.318 N 
HETATM   34  C11 UNL     1       6.065  -2.261   0.379  1.00  0.00     0.191 C 
ATOM     35  H7  UNL     1       4.210  -1.465   0.058  1.00  0.00     0.170 HD
HETATM   36  N8  UNL     1       5.489  -3.555   0.531  1.00  0.00    -0.063 NA
HETATM   37  N9  UNL     1       7.350  -2.142   0.384  1.00  0.00    -0.343 N 
HETATM   38  C12 UNL     1       8.231  -1.053   0.145  1.00  0.00     0.294 C 
ATOM     39  H9  UNL     1       7.835  -3.012   0.606  1.00  0.00     0.164 HD
HETATM   40  O2  UNL     1       7.625  -0.065  -0.626  1.00  0.00    -0.350 OA
HETATM   41  C13 UNL     1       6.720   0.721   0.122  1.00  0.00     0.279 C 
BRANCH  41  42
HETATM   42  C14 UNL     1       6.856   2.079  -0.438  1.00  0.00     0.267 C 
HETATM   43  N10 UNL     1       7.882   2.856   0.140  1.00  0.00    -0.059 NA
HETATM   44  O3  UNL     1       6.132   2.491  -1.349  1.00  0.00    -0.273 OA
ENDBRANCH  41  42
ENDBRANCH  27  32
ENDBRANCH  23  25
ENDBRANCH   1  23
TORSDOF 9
