REMARK  11 active torsions:
REMARK  status: ('A' for Active; 'I' for Inactive)
REMARK    1  A    between atoms: C2_2  and  N1_3 
REMARK       I    between atoms: N1_3  and  C3_4 
REMARK    2  A    between atoms: N1_3  and  C15_45 
REMARK    3  A    between atoms: C3_4  and  C4_6 
REMARK    4  A    between atoms: C6_11  and  N3_12 
REMARK       I    between atoms: N3_12  and  C7_14 
REMARK    5  A    between atoms: C7_14  and  C8_16 
REMARK    6  A    between atoms: C8_16  and  C9_17 
REMARK    7  A    between atoms: N6_21  and  C10_22 
REMARK    8  A    between atoms: C12_27  and  O5_28 
REMARK    9  A    between atoms: C13_30  and  C14_31 
REMARK   10  A    between atoms: C14_31  and  N8_32 
REMARK   11  A    between atoms: C14_31  and  O6_36 
ROOT
HETATM    1  C8  UNL     1       1.162   0.903  -1.173  1.00  0.00     0.181 C 
ENDROOT
BRANCH   1   2
HETATM    2  C7  UNL     1       0.448  -0.213  -0.553  1.00  0.00     0.226 C 
HETATM    3  N3  UNL     1      -0.851  -0.617  -0.948  1.00  0.00    -0.325 N 
ATOM      4  H3  UNL     1      -1.301  -0.098  -1.702  1.00  0.00     0.165 HD
HETATM    5  O3  UNL     1       0.982  -0.879   0.388  1.00  0.00    -0.273 OA
BRANCH   3   6
HETATM    6  C6  UNL     1      -1.574  -1.703  -0.362  1.00  0.00     0.382 C 
HETATM    7  C5  UNL     1      -2.023  -2.727  -1.319  1.00  0.00     0.270 C 
HETATM    8  N2  UNL     1      -3.422  -2.536  -1.445  1.00  0.00    -0.322 N 
HETATM    9  O2  UNL     1      -1.376  -3.607  -1.929  1.00  0.00    -0.269 OA
HETATM   10  C4  UNL     1      -3.759  -1.176  -0.974  1.00  0.00     0.383 C 
ATOM     11  H2  UNL     1      -4.086  -3.223  -1.802  1.00  0.00     0.165 HD
HETATM   12  N11 UNL     1      -2.830  -1.149   0.172  1.00  0.00    -0.016 N 
ATOM     13 2H11 UNL     1      -2.730  -0.231   0.606  1.00  0.00     0.283 HD
ATOM     14 1H11 UNL     1      -3.178  -1.629   1.002  1.00  0.00     0.283 HD
BRANCH  10  15
HETATM   15  C3  UNL     1      -5.127  -1.133  -0.424  1.00  0.00     0.277 C 
HETATM   16  N1  UNL     1      -5.813   0.030  -0.006  1.00  0.00    -0.287 N 
HETATM   17  O1  UNL     1      -5.695  -2.248  -0.337  1.00  0.00    -0.269 OA
BRANCH  16  18
HETATM   18  C2  UNL     1      -5.233   1.360  -0.101  1.00  0.00     0.130 C 
HETATM   19  C1  UNL     1      -5.611   1.923  -1.458  1.00  0.00     0.027 C 
ENDBRANCH  16  18
BRANCH  16  20
HETATM   20  C15 UNL     1      -7.127  -0.031   0.531  1.00  0.00     0.180 C 
HETATM   21  N12 UNL     1      -7.801   1.020   0.945  1.00  0.00    -0.360 N 
HETATM   22  C16 UNL     1      -9.094   0.671   1.438  1.00  0.00     0.142 C 
ATOM     23  H12 UNL     1      -7.441   1.974   0.917  1.00  0.00     0.162 HD
HETATM   24  C17 UNL     1      -8.910  -0.797   1.799  1.00  0.00     0.142 C 
HETATM   25  N13 UNL     1      -7.965  -1.166   0.725  1.00  0.00    -0.360 N 
ATOM     26  H13 UNL     1      -7.922  -2.053   0.224  1.00  0.00     0.162 HD
ENDBRANCH  16  20
ENDBRANCH  10  15
ENDBRANCH   3   6
ENDBRANCH   1   2
BRANCH   1  27
HETATM   27  C9  UNL     1       2.510   1.092  -0.544  1.00  0.00     0.119 A 
HETATM   28  N4  UNL     1       2.818   1.886   0.507  1.00  0.00    -0.269 N 
HETATM   29  N5  UNL     1       4.116   1.754   0.736  1.00  0.00     0.018 NA
ATOM     30  H4  UNL     1       2.170   2.477   1.027  1.00  0.00     0.185 HD
HETATM   31  N6  UNL     1       4.664   0.910  -0.120  1.00  0.00    -0.003 N 
HETATM   32  N10 UNL     1       3.666   0.509  -0.904  1.00  0.00    -0.253 N 
ATOM     33  H10 UNL     1       3.765  -0.152  -1.674  1.00  0.00     0.190 HD
BRANCH  31  34
HETATM   34  C10 UNL     1       6.027   0.502  -0.203  1.00  0.00     0.720 A 
HETATM   35  N7  UNL     1       6.484  -0.189  -1.261  1.00  0.00    -0.151 N 
HETATM   36  C11 UNL     1       7.765  -0.590  -1.369  1.00  0.00     0.295 A 
ATOM     37  H7  UNL     1       5.834  -0.419  -2.013  1.00  0.00     0.188 HD
HETATM   38  O4  UNL     1       8.179  -1.244  -2.378  1.00  0.00    -0.265 OA
HETATM   39  C12 UNL     1       8.640  -0.281  -0.359  1.00  0.00     0.162 A 
HETATM   40  C13 UNL     1       8.171   0.430   0.728  1.00  0.00     0.120 A 
HETATM   41  N9  UNL     1       6.878   0.805   0.782  1.00  0.00    -0.185 N 
ATOM     42  H9  UNL     1       6.542   1.330   1.590  1.00  0.00     0.184 HD
BRANCH  39  43
HETATM   43  O5  UNL     1       9.970  -0.688  -0.452  1.00  0.00    -0.354 OA
ATOM     44  H5  UNL     1      10.576  -0.474   0.248  1.00  0.00     0.218 HD
ENDBRANCH  39  43
BRANCH  40  45
HETATM   45  C14 UNL     1       9.135   0.753   1.811  1.00  0.00     0.370 C 
BRANCH  45  46
HETATM   46  N8  UNL     1      10.371   1.235   1.215  1.00  0.00    -0.047 N 
ATOM     47  H83 UNL     1      10.756   0.580   0.535  1.00  0.00     0.277 HD
ATOM     48  H82 UNL     1      10.217   2.022   0.584  1.00  0.00     0.277 HD
ATOM     49  H81 UNL     1      11.033   1.457   1.959  1.00  0.00     0.277 HD
ENDBRANCH  45  46
BRANCH  45  50
HETATM   50  O6  UNL     1       9.443  -0.383   2.548  1.00  0.00    -0.365 OA
ATOM     51  H6  UNL     1      10.060  -0.176   3.241  1.00  0.00     0.212 HD
ENDBRANCH  45  50
ENDBRANCH  40  45
ENDBRANCH  31  34
ENDBRANCH   1  27
TORSDOF 11
