REMARK  2 active torsions:
REMARK  status: ('A' for Active; 'I' for Inactive)
REMARK    1  A    between atoms: C2_2  and  C3_4 
REMARK    2  A    between atoms: C3_4  and  C4_5 
ROOT
HETATM    1  C4  UNL     1      -0.334  -0.336   0.967  1.00  0.00    -0.010 C 
HETATM    2  C5  UNL     1      -0.815   1.060   1.019  1.00  0.00     0.024 C 
HETATM    3  C6  UNL     1      -1.484   1.420  -0.315  1.00  0.00     0.114 C 
HETATM    4  N1  UNL     1      -2.685   0.604  -0.316  1.00  0.00    -0.421 N 
ATOM      5  H1  UNL     1      -3.621   1.010  -0.319  1.00  0.00     0.153 HD
HETATM    6  C7  UNL     1      -2.465  -0.796  -0.313  1.00  0.00     0.114 C 
HETATM    7  C8  UNL     1      -1.429  -1.319   0.618  1.00  0.00     0.024 C 
ENDROOT
BRANCH   1   8
HETATM    8  C3  UNL     1       0.831  -0.641   0.085  1.00  0.00     0.020 C 
BRANCH   8   9
HETATM    9  C2  UNL     1       2.119   0.037   0.345  1.00  0.00     0.055 C 
HETATM   10  C1  UNL     1       3.125  -0.515  -0.702  1.00  0.00     0.022 C 
HETATM   11  S1  UNL     1       2.021   1.817  -0.106  1.00  0.00    -0.093 SA
ENDBRANCH   8   9
ENDBRANCH   1   8
TORSDOF 2
