REMARK  2 active torsions:
REMARK  status: ('A' for Active; 'I' for Inactive)
REMARK    1  A    between atoms: C2_2  and  C3_3 
REMARK    2  A    between atoms: C5_7  and  C6_8 
ROOT
HETATM    1  C3  UNL     1      -1.308   0.207   0.512  1.00  0.00     0.223 C 
HETATM    2  C4  UNL     1      -0.859  -1.194   0.183  1.00  0.00     0.088 C 
HETATM    3  N1  UNL     1       0.504  -1.339   0.512  1.00  0.00    -0.393 N 
ATOM      4  H1  UNL     1       0.889  -2.246   0.777  1.00  0.00     0.159 HD
HETATM    5  C5  UNL     1       1.320  -0.185   0.463  1.00  0.00     0.124 C 
HETATM    6  C8  UNL     1       0.776   1.025  -0.161  1.00  0.00     0.259 C 
HETATM    7  N2  UNL     1      -0.623   1.083  -0.384  1.00  0.00    -0.064 N 
ATOM      8  H21 UNL     1      -0.977   2.038  -0.326  1.00  0.00     0.278 HD
ATOM      9  H22 UNL     1      -0.860   0.892  -1.357  1.00  0.00     0.278 HD
ENDROOT
BRANCH   5  10
HETATM   10  C6  UNL     1       2.645  -0.592  -0.195  1.00  0.00     0.102 C 
HETATM   11  C7  UNL     1       3.593   0.568  -0.298  1.00  0.00     0.029 C 
HETATM   12 CL1  UNL     1       3.454  -1.869   0.742  1.00  0.00    -0.123 Cl
ENDBRANCH   5  10
BRANCH   1  13
HETATM   13  C2  UNL     1      -2.805   0.349   0.489  1.00  0.00     0.034 C 
HETATM   14  C1  UNL     1      -3.428   0.033  -0.825  1.00  0.00     0.007 C 
ENDBRANCH   1  13
TORSDOF 2
