REMARK  2 active torsions:
REMARK  status: ('A' for Active; 'I' for Inactive)
REMARK    1  A    between atoms: C2_2  and  C3_3 
REMARK    2  A    between atoms: C3_3  and  N1_4 
ROOT
HETATM    1  C3  UNL     1      -0.573   0.045  -0.249  1.00  0.00     0.127 C 
HETATM    2  C5  UNL     1       0.195   0.096  -1.517  1.00  0.00     0.044 C 
HETATM    3  C6  UNL     1       1.342  -0.899  -1.571  1.00  0.00     0.056 C 
HETATM    4  C7  UNL     1       2.172  -0.833  -0.355  1.00  0.00    -0.002 C 
HETATM    5  N2  UNL     1       3.192  -1.560  -0.248  1.00  0.00    -0.404 N 
ATOM      6  H21 UNL     1       3.766  -1.514   0.594  1.00  0.00     0.155 HD
ATOM      7  H22 UNL     1       3.475  -2.205  -0.986  1.00  0.00     0.155 HD
HETATM    8  C8  UNL     1       1.763   0.098   0.710  1.00  0.00     0.129 C 
HETATM    9 CL1  UNL     1       2.630  -0.225   2.241  1.00  0.00    -0.119 Cl
HETATM   10  C9  UNL     1       0.295  -0.158   0.964  1.00  0.00     0.065 C 
ENDROOT
BRANCH   1  11
HETATM   11  C2  UNL     1      -1.472   1.236  -0.038  1.00  0.00     0.034 C 
HETATM   12  C1  UNL     1      -0.767   2.540   0.083  1.00  0.00     0.007 C 
ENDBRANCH   1  11
BRANCH   1  13
HETATM   13  N1  UNL     1      -1.460  -1.128  -0.343  1.00  0.00    -0.070 N 
HETATM   14  C4  UNL     1      -2.197  -1.343   0.875  1.00  0.00     0.267 C 
ATOM     15  H12 UNL     1      -2.084  -1.057  -1.147  1.00  0.00     0.277 HD
ATOM     16  H11 UNL     1      -0.942  -1.963  -0.615  1.00  0.00     0.277 HD
ENDBRANCH   1  13
TORSDOF 2
