REMARK  3 active torsions:
REMARK  status: ('A' for Active; 'I' for Inactive)
REMARK    1  A    between atoms: C1_4  and  C2_5 
REMARK    2  A    between atoms: C1_4  and  N2_7 
REMARK    3  A    between atoms: N2_7  and  C3_9 
ROOT
HETATM    1  N2  UNL     1       1.015  -0.672  -0.206  1.00  0.00    -0.366 N 
ATOM      2  H2  UNL     1       1.021  -1.456  -0.859  1.00  0.00     0.162 HD
ENDROOT
BRANCH   1   3
HETATM    3  C1  UNL     1       2.204   0.062   0.044  1.00  0.00     0.085 C 
HETATM    4  N1  UNL     1       2.645   0.172   1.246  1.00  0.00    -0.388 N 
ATOM      5  H12 UNL     1       3.499   0.699   1.426  1.00  0.00     0.157 HD
ATOM      6  H11 UNL     1       2.112  -0.281   1.988  1.00  0.00     0.157 HD
BRANCH   3   7
HETATM    7  C2  UNL     1       2.979   0.721  -1.036  1.00  0.00     0.190 C 
HETATM    8 CL1  UNL     1       4.399   1.548  -0.399  1.00  0.00    -0.122 Cl
ENDBRANCH   3   7
ENDBRANCH   1   3
BRANCH   1   9
HETATM    9  C3  UNL     1      -0.196  -0.301   0.469  1.00  0.00     0.145 C 
HETATM   10  C4  UNL     1      -1.371  -1.114   0.149  1.00  0.00     0.037 C 
HETATM   11  C5  UNL     1      -2.566  -0.377  -0.174  1.00  0.00     0.013 C 
HETATM   12  C6  UNL     1      -2.507   1.050   0.193  1.00  0.00     0.076 C 
HETATM   13  S1  UNL     1      -0.707   1.394   0.067  1.00  0.00    -0.144 SA
ENDBRANCH   1   9
TORSDOF 3
