REMARK  2 active torsions:
REMARK  status: ('A' for Active; 'I' for Inactive)
REMARK    1  A    between atoms: N3_11  and  C6_12 
REMARK    2  A    between atoms: C6_12  and  C7_13 
ROOT
HETATM    1  C1  UNL     1      -1.406  -0.787   1.358  1.00  0.00     0.034 C 
HETATM    2  C2  UNL     1      -0.901  -0.405   0.007  1.00  0.00     0.032 C 
HETATM    3  C3  UNL     1      -1.593  -1.162  -1.094  1.00  0.00     0.034 C 
HETATM    4  C4  UNL     1      -1.188   1.068  -0.229  1.00  0.00     0.103 C 
HETATM    5  C5  UNL     1       0.003   1.503  -1.011  1.00  0.00     0.087 C 
HETATM    6  N1  UNL     1       0.218   2.699  -1.428  1.00  0.00    -0.388 N 
ATOM      7  H11 UNL     1       1.033   2.997  -1.963  1.00  0.00     0.157 HD
ATOM      8  H12 UNL     1      -0.388   3.510  -1.303  1.00  0.00     0.157 HD
HETATM    9  N2  UNL     1       0.863   0.353  -1.188  1.00  0.00    -0.308 N 
ATOM     10  H2  UNL     1       1.575   0.224  -1.907  1.00  0.00     0.182 HD
HETATM   11  N3  UNL     1       0.521  -0.543  -0.175  1.00  0.00    -0.220 NA
ENDROOT
BRANCH  11  12
HETATM   12  C6  UNL     1       1.289  -0.340   1.010  1.00  0.00     0.129 C 
BRANCH  12  13
HETATM   13  C7  UNL     1       2.749  -0.285   0.630  1.00  0.00     0.131 C 
HETATM   14 CL1  UNL     1       3.237  -1.779  -0.165  1.00  0.00    -0.129 Cl
ENDBRANCH  12  13
ENDBRANCH  11  12
TORSDOF 2
