REMARK  16 active torsions:
REMARK  status: ('A' for Active; 'I' for Inactive)
REMARK    1  A    between atoms: C2_2  and  C4_4 
REMARK    2  A    between atoms: C4_4  and  C5_5 
REMARK    3  A    between atoms: C5_5  and  N1_6 
REMARK    4  A    between atoms: C5_5  and  C20_28 
REMARK    5  A    between atoms: N1_6  and  C6_8 
REMARK    6  A    between atoms: C6_8  and  C7_9 
REMARK    7  A    between atoms: C6_8  and  C14_16 
REMARK    8  A    between atoms: C7_9  and  C8_10 
REMARK    9  A    between atoms: C14_16  and  O1_17 
REMARK   10  A    between atoms: C14_16  and  C15_19 
REMARK   11  A    between atoms: C15_19  and  N2_20 
REMARK   12  A    between atoms: N2_20  and  C16_22 
REMARK       I    between atoms: C20_28  and  N3_30 
REMARK   13  A    between atoms: N3_30  and  C21_32 
REMARK   14  A    between atoms: C21_32  and  C22_33 
REMARK   15  A    between atoms: C22_33  and  O5_34 
REMARK   16  A    between atoms: C22_33  and  C23_36 
ROOT
HETATM    1  C6  UNL     1      -1.711   0.533  -0.232  1.00  0.00     0.014 C 
ENDROOT
BRANCH   1   2
HETATM    2  N1  UNL     1      -0.325   0.356  -0.088  1.00  0.00    -0.381 N 
ATOM      3  H1  UNL     1       0.103   0.472   0.831  1.00  0.00     0.160 HD
BRANCH   2   4
HETATM    4  C5  UNL     1       0.470   0.027  -1.173  1.00  0.00     0.174 C 
BRANCH   4   5
HETATM    5  C4  UNL     1       0.290  -1.192  -1.997  1.00  0.00     0.038 C 
BRANCH   5   6
HETATM    6  C2  UNL     1       1.365  -1.188  -3.089  1.00  0.00    -0.020 C 
HETATM    7  C1  UNL     1       1.194  -2.461  -3.929  1.00  0.00     0.009 C 
HETATM    8  C3  UNL     1       1.276  -0.052  -4.044  1.00  0.00     0.009 C 
ENDBRANCH   5   6
ENDBRANCH   4   5
BRANCH   4   9
HETATM    9  C20 UNL     1       1.968   0.114  -0.893  1.00  0.00     0.244 C 
HETATM   10  O4  UNL     1       2.665   1.022  -1.381  1.00  0.00    -0.271 OA
HETATM   11  N3  UNL     1       2.551  -0.868  -0.065  1.00  0.00    -0.337 N 
ATOM     12  H3  UNL     1       1.859  -1.501   0.336  1.00  0.00     0.168 HD
BRANCH  11  13
HETATM   13  C21 UNL     1       3.855  -1.177   0.335  1.00  0.00     0.095 C 
BRANCH  13  14
HETATM   14  C22 UNL     1       4.718  -0.039   0.756  1.00  0.00     0.160 C 
BRANCH  14  15
HETATM   15  O5  UNL     1       5.066   0.826  -0.276  1.00  0.00    -0.390 OA
ATOM     16  H5  UNL     1       5.617   1.552  -0.007  1.00  0.00     0.210 HD
ENDBRANCH  14  15
BRANCH  14  17
HETATM   17  C23 UNL     1       5.856  -0.411   1.666  1.00  0.00     0.011 C 
HETATM   18  C24 UNL     1       6.681   0.860   1.932  1.00  0.00     0.012 C 
HETATM   19  C25 UNL     1       5.232  -0.750   3.041  1.00  0.00     0.012 C 
ENDBRANCH  14  17
ENDBRANCH  13  14
ENDBRANCH  11  13
ENDBRANCH   4   9
ENDBRANCH   2   4
ENDBRANCH   1   2
BRANCH   1  20
HETATM   20  C7  UNL     1      -2.381   1.608   0.554  1.00  0.00     0.059 C 
BRANCH  20  21
HETATM   21  C8  UNL     1      -2.025   3.017   0.291  1.00  0.00    -0.009 C 
HETATM   22  C9  UNL     1      -0.633   3.468   0.429  1.00  0.00     0.005 C 
HETATM   23  C10 UNL     1      -0.624   4.992   0.554  1.00  0.00     0.000 C 
HETATM   24  C11 UNL     1      -1.357   5.614  -0.584  1.00  0.00     0.000 C 
HETATM   25  C12 UNL     1      -2.738   5.030  -0.815  1.00  0.00     0.000 C 
HETATM   26  C13 UNL     1      -2.607   3.527  -1.030  1.00  0.00     0.005 C 
ENDBRANCH  20  21
ENDBRANCH   1  20
BRANCH   1  27
HETATM   27  C14 UNL     1      -2.516  -0.709  -0.213  1.00  0.00     0.180 C 
BRANCH  27  28
HETATM   28  O1  UNL     1      -3.907  -0.382  -0.368  1.00  0.00    -0.388 OA
ATOM     29  H1  UNL     1      -4.424  -1.179  -0.356  1.00  0.00     0.210 HD
ENDBRANCH  27  28
BRANCH  27  30
HETATM   30  C15 UNL     1      -2.419  -1.609   0.994  1.00  0.00     0.152 C 
BRANCH  30  31
HETATM   31  N2  UNL     1      -3.240  -2.796   0.744  1.00  0.00    -0.406 N 
ATOM     32  H2  UNL     1      -3.667  -2.969  -0.166  1.00  0.00     0.154 HD
BRANCH  31  33
HETATM   33  C16 UNL     1      -3.411  -3.690   1.827  1.00  0.00     0.179 C 
HETATM   34  C17 UNL     1      -4.258  -4.874   1.349  1.00  0.00     0.062 C 
HETATM   35  C18 UNL     1      -5.118  -5.259   2.505  1.00  0.00     0.181 C 
HETATM   36  O2  UNL     1      -5.369  -4.037   3.120  1.00  0.00    -0.320 OA
HETATM   37  C19 UNL     1      -4.371  -3.125   2.863  1.00  0.00     0.281 C 
HETATM   38  O3  UNL     1      -4.289  -2.023   3.413  1.00  0.00    -0.263 OA
ENDBRANCH  31  33
ENDBRANCH  30  31
ENDBRANCH  27  30
ENDBRANCH   1  27
TORSDOF 16
