REMARK  18 active torsions:
REMARK  status: ('A' for Active; 'I' for Inactive)
REMARK    1  A    between atoms: C2_2  and  C3_3 
REMARK    2  A    between atoms: C3_3  and  N1_4 
REMARK    3  A    between atoms: C3_3  and  C10_15 
REMARK    4  A    between atoms: N1_4  and  C4_6 
REMARK    5  A    between atoms: C4_6  and  O1_7 
REMARK    6  A    between atoms: C5_9  and  C6_11 
REMARK    7  A    between atoms: C6_11  and  C8_13 
REMARK       I    between atoms: C10_15  and  N3_17 
REMARK    8  A    between atoms: N3_17  and  C11_19 
REMARK    9  A    between atoms: C11_19  and  C12_20 
REMARK   10  A    between atoms: C11_19  and  C16_24 
REMARK   11  A    between atoms: C12_20  and  C13_21 
REMARK   12  A    between atoms: C16_24  and  O3_25 
REMARK   13  A    between atoms: C16_24  and  N4_27 
REMARK   14  A    between atoms: N4_27  and  C17_29 
REMARK   15  A    between atoms: C17_29  and  C18_30 
REMARK   16  A    between atoms: C17_29  and  C24_36 
REMARK   17  A    between atoms: C18_30  and  C19_31 
REMARK   18  A    between atoms: C24_36  and  O4_39 
ROOT
HETATM    1  C11 UNL     1      -0.501   1.819  -1.118  1.00  0.00     0.159 C 
ENDROOT
BRANCH   1   2
HETATM    2  N3  UNL     1       0.713   1.022  -0.703  1.00  0.00    -0.347 N 
HETATM    3  C10 UNL     1       1.124  -0.112  -1.413  1.00  0.00     0.241 C 
HETATM    4  O2  UNL     1       0.451  -0.475  -2.405  1.00  0.00    -0.271 OA
ATOM      5  H3  UNL     1       1.246   1.317   0.115  1.00  0.00     0.163 HD
BRANCH   3   6
HETATM    6  C3  UNL     1       2.342  -0.919  -1.037  1.00  0.00     0.175 C 
BRANCH   6   7
HETATM    7  C2  UNL     1       2.492  -1.046   0.441  1.00  0.00     0.030 C 
HETATM    8  C1  UNL     1       1.447  -1.893   1.118  1.00  0.00     0.007 C 
ENDBRANCH   6   7
BRANCH   6   9
HETATM    9  N1  UNL     1       2.413  -2.022  -1.868  1.00  0.00    -0.356 N 
ATOM     10  H1  UNL     1       1.522  -2.347  -2.243  1.00  0.00     0.162 HD
BRANCH   9  11
HETATM   11  C4  UNL     1       3.529  -2.750  -2.264  1.00  0.00     0.157 C 
HETATM   12  C5  UNL     1       4.459  -3.502  -1.455  1.00  0.00     0.078 C 
HETATM   13  N2  UNL     1       3.885  -4.160  -0.326  1.00  0.00    -0.102 NA
BRANCH  11  14
HETATM   14  O1  UNL     1       4.197  -2.066  -3.346  1.00  0.00    -0.345 OA
ATOM     15  H1  UNL     1       4.960  -2.564  -3.617  1.00  0.00     0.219 HD
ENDBRANCH  11  14
BRANCH  12  16
HETATM   16  C6  UNL     1       5.868  -3.041  -1.291  1.00  0.00     0.033 C 
HETATM   17  C7  UNL     1       6.587  -3.004  -2.646  1.00  0.00     0.016 C 
BRANCH  16  18
HETATM   18  C8  UNL     1       6.141  -1.769  -0.617  1.00  0.00     0.006 C 
HETATM   19  C9  UNL     1       7.661  -1.559  -0.609  1.00  0.00     0.006 C 
ENDBRANCH  16  18
ENDBRANCH  12  16
ENDBRANCH   9  11
ENDBRANCH   6   9
ENDBRANCH   3   6
ENDBRANCH   1   2
BRANCH   1  20
HETATM   20  C12 UNL     1      -0.108   3.213  -0.916  1.00  0.00     0.037 C 
BRANCH  20  21
HETATM   21  C13 UNL     1      -1.033   4.306  -1.287  1.00  0.00    -0.020 C 
HETATM   22  C14 UNL     1      -1.381   4.255  -2.769  1.00  0.00     0.009 C 
HETATM   23  C15 UNL     1      -0.273   5.632  -1.080  1.00  0.00     0.009 C 
ENDBRANCH  20  21
ENDBRANCH   1  20
BRANCH   1  24
HETATM   24  C16 UNL     1      -1.660   1.231  -0.462  1.00  0.00     0.135 C 
BRANCH  24  25
HETATM   25  O3  UNL     1      -1.639  -0.084  -0.483  1.00  0.00    -0.348 OA
ATOM     26  H3  UNL     1      -2.395  -0.468  -0.055  1.00  0.00     0.219 HD
ENDBRANCH  24  25
BRANCH  24  27
HETATM   27  N4  UNL     1      -2.760   1.757   0.169  1.00  0.00    -0.365 N 
ATOM     28  H4  UNL     1      -2.851   2.769   0.256  1.00  0.00     0.161 HD
BRANCH  27  29
HETATM   29  C17 UNL     1      -3.821   0.879   0.727  1.00  0.00     0.117 C 
BRANCH  29  30
HETATM   30  C18 UNL     1      -3.486   0.777   2.194  1.00  0.00     0.033 C 
BRANCH  30  31
HETATM   31  C19 UNL     1      -4.428  -0.094   2.984  1.00  0.00    -0.013 C 
HETATM   32  C20 UNL     1      -4.453  -1.517   2.481  1.00  0.00     0.005 C 
HETATM   33  C21 UNL     1      -5.015  -2.240   3.718  1.00  0.00     0.000 C 
HETATM   34  C22 UNL     1      -4.034  -1.714   4.766  1.00  0.00     0.000 C 
HETATM   35  C23 UNL     1      -3.790  -0.276   4.363  1.00  0.00     0.005 C 
ENDBRANCH  30  31
ENDBRANCH  29  30
BRANCH  29  36
HETATM   36  C24 UNL     1      -5.147   1.452   0.410  1.00  0.00     0.071 C 
HETATM   37  C25 UNL     1      -5.377   2.829   0.993  1.00  0.00     0.047 C 
HETATM   38  C26 UNL     1      -5.152   1.679  -1.117  1.00  0.00     0.047 C 
BRANCH  36  39
HETATM   39  O4  UNL     1      -6.243   0.672   0.667  1.00  0.00    -0.389 OA
ATOM     40  H4  UNL     1      -7.095   1.040   0.463  1.00  0.00     0.210 HD
ENDBRANCH  36  39
ENDBRANCH  29  36
ENDBRANCH  27  29
ENDBRANCH  24  27
ENDBRANCH   1  24
TORSDOF 18
