REMARK  5 active torsions:
REMARK  status: ('A' for Active; 'I' for Inactive)
REMARK    1  A    between atoms: C2_2  and  C3_3 
REMARK    2  A    between atoms: C3_3  and  N1_4 
REMARK    3  A    between atoms: C3_3  and  C4_8 
REMARK    4  A    between atoms: C4_8  and  N2_9 
REMARK    5  A    between atoms: C6_13  and  N4_14 
ROOT
HETATM    1  N2  UNL     1       1.143   0.345   0.526  1.00  0.00    -0.231 N 
HETATM    2  N3  UNL     1       1.533   1.505   0.996  1.00  0.00    -0.292 N 
ATOM      3  H3  UNL     1       0.950   2.124   1.559  1.00  0.00     0.188 HD
HETATM    4  C5  UNL     1       2.808   1.774   0.637  1.00  0.00     0.158 A 
HETATM    5  C6  UNL     1       3.219   0.690  -0.109  1.00  0.00     0.132 A 
HETATM    6  N5  UNL     1       2.169  -0.152  -0.147  1.00  0.00    -0.268 N 
ATOM      7  H5  UNL     1       2.165  -1.051  -0.629  1.00  0.00     0.190 HD
ENDROOT
BRANCH   1   8
HETATM    8  C4  UNL     1      -0.140  -0.334   0.668  1.00  0.00     0.202 C 
BRANCH   8   9
HETATM    9  C3  UNL     1      -1.067   0.050  -0.451  1.00  0.00     0.204 C 
BRANCH   9  10
HETATM   10  C2  UNL     1      -2.380  -0.707  -0.220  1.00  0.00     0.030 C 
HETATM   11  C1  UNL     1      -3.022  -0.282   1.083  1.00  0.00     0.007 C 
ENDBRANCH   9  10
BRANCH   9  12
HETATM   12  N1  UNL     1      -0.525  -0.410  -1.703  1.00  0.00    -0.073 N 
ATOM     13  H13 UNL     1      -0.414  -1.423  -1.742  1.00  0.00     0.274 HD
ATOM     14  H12 UNL     1      -1.180  -0.319  -2.479  1.00  0.00     0.274 HD
ATOM     15  H11 UNL     1       0.349   0.094  -1.857  1.00  0.00     0.274 HD
ENDBRANCH   9  12
ENDBRANCH   8   9
ENDBRANCH   1   8
BRANCH   5  16
HETATM   16  N4  UNL     1       4.396   0.545  -0.652  1.00  0.00    -0.383 N 
ATOM     17  H42 UNL     1       5.191   1.183  -0.623  1.00  0.00     0.157 HD
ATOM     18  H41 UNL     1       4.700  -0.257  -1.204  1.00  0.00     0.157 HD
ENDBRANCH   5  16
TORSDOF 5
