REMARK  4 active torsions:
REMARK  status: ('A' for Active; 'I' for Inactive)
REMARK    1  A    between atoms: C2_2  and  C4_4 
REMARK    2  A    between atoms: C4_4  and  N1_5 
REMARK    3  A    between atoms: N1_5  and  C5_7 
REMARK    4  A    between atoms: N4_12  and  N5_13 
ROOT
HETATM    1  C5  UNL     1       1.246  -0.344   0.702  1.00  0.00     0.708 C 
HETATM    2  N2  UNL     1       1.748  -1.386   1.342  1.00  0.00    -0.209 N 
ATOM      3  H2  UNL     1       1.197  -2.108   1.807  1.00  0.00     0.179 HD
HETATM    4  C6  UNL     1       3.192  -1.353   1.287  1.00  0.00     0.277 C 
HETATM    5  N3  UNL     1       3.448  -0.368   0.247  1.00  0.00    -0.082 NA
HETATM    6  N4  UNL     1       2.310   0.430   0.201  1.00  0.00    -0.031 N 
ENDROOT
BRANCH   1   7
HETATM    7  N1  UNL     1      -0.138  -0.127   0.598  1.00  0.00    -0.223 N 
ATOM      8  H1  UNL     1      -0.729  -0.347   1.399  1.00  0.00     0.177 HD
BRANCH   7   9
HETATM    9  C4  UNL     1      -0.758   0.396  -0.599  1.00  0.00     0.142 C 
BRANCH   9  10
HETATM   10  C2  UNL     1      -2.274   0.272  -0.508  1.00  0.00    -0.004 C 
HETATM   11  C1  UNL     1      -2.833   1.052   0.630  1.00  0.00     0.011 C 
HETATM   12  C3  UNL     1      -2.507  -1.213  -0.162  1.00  0.00     0.011 C 
ENDBRANCH   9  10
ENDBRANCH   7   9
ENDBRANCH   1   7
BRANCH   6  13
HETATM   13  N5  UNL     1       2.255   1.732  -0.267  1.00  0.00    -0.312 N 
ATOM     14  H52 UNL     1       1.420   2.317  -0.301  1.00  0.00     0.179 HD
ATOM     15  H51 UNL     1       3.026   2.293  -0.630  1.00  0.00     0.179 HD
ENDBRANCH   6  13
TORSDOF 4
