REMARK  4 active torsions:
REMARK  status: ('A' for Active; 'I' for Inactive)
REMARK    1  A    between atoms: N1_1  and  C1_5 
REMARK    2  A    between atoms: C1_5  and  C2_6 
REMARK    3  A    between atoms: C2_6  and  N2_7 
REMARK    4  A    between atoms: N2_7  and  N3_9 
ROOT
HETATM    1  N3  UNL     1       0.492  -1.265   0.708  1.00  0.00    -0.290 N 
ATOM      2  H3  UNL     1       0.646  -2.057   1.333  1.00  0.00     0.188 HD
HETATM    3  C3  UNL     1       1.474  -0.488   0.379  1.00  0.00     0.121 A 
HETATM    4  C4  UNL     1       2.743  -0.744   0.886  1.00  0.00     0.067 A 
HETATM    5  C5  UNL     1       3.787   0.080   0.538  1.00  0.00     0.092 A 
HETATM    6  N4  UNL     1       3.533   1.110  -0.288  1.00  0.00    -0.362 N 
ATOM      7  H4  UNL     1       4.294   1.733  -0.559  1.00  0.00     0.165 HD
HETATM    8  C6  UNL     1       2.295   1.334  -0.764  1.00  0.00     0.181 A 
HETATM    9  N5  UNL     1       1.253   0.549  -0.444  1.00  0.00    -0.338 N 
ATOM     10  H5  UNL     1       0.321   0.735  -0.815  1.00  0.00     0.168 HD
ENDROOT
BRANCH   1  11
HETATM   11  N2  UNL     1      -0.773  -1.006   0.199  1.00  0.00    -0.333 N 
ATOM     12  H2  UNL     1      -1.037  -1.447  -0.682  1.00  0.00     0.180 HD
BRANCH  11  13
HETATM   13  C2  UNL     1      -1.737  -0.145   0.848  1.00  0.00     0.166 C 
BRANCH  13  14
HETATM   14  C1  UNL     1      -3.010  -0.100   0.032  1.00  0.00     0.250 C 
BRANCH  14  15
HETATM   15  N1  UNL     1      -2.705   0.412  -1.270  1.00  0.00    -0.078 N 
ATOM     16  H13 UNL     1      -2.234   1.316  -1.233  1.00  0.00     0.274 HD
ATOM     17  H12 UNL     1      -1.964  -0.115  -1.732  1.00  0.00     0.274 HD
ATOM     18  H11 UNL     1      -3.563   0.442  -1.820  1.00  0.00     0.274 HD
ENDBRANCH  14  15
ENDBRANCH  13  14
ENDBRANCH  11  13
ENDBRANCH   1  11
TORSDOF 4
