REMARK  10 active torsions:
REMARK  status: ('A' for Active; 'I' for Inactive)
REMARK    1  A    between atoms: C5_5  and  N1_6 
REMARK    2  A    between atoms: N1_6  and  C6_7 
REMARK    3  A    between atoms: C7_10  and  N3_11 
REMARK    4  A    between atoms: N3_11  and  C8_13 
REMARK    5  A    between atoms: C8_13  and  C9_14 
REMARK    6  A    between atoms: C9_14  and  O1_15 
REMARK    7  A    between atoms: C10_19  and  N5_20 
REMARK    8  A    between atoms: N5_20  and  C11_22 
REMARK    9  A    between atoms: C11_22  and  C12_23 
REMARK   10  A    between atoms: C15_26  and  C16_27 
ROOT
HETATM    1  C6  UNL     1      -3.229  -0.278  -0.667  1.00  0.00     0.288 A 
HETATM    2  N2  UNL     1      -3.725  -1.501  -0.992  1.00  0.00    -0.148 N 
ATOM      3  H2  UNL     1      -4.657  -1.565  -1.402  1.00  0.00     0.188 HD
HETATM    4  C7  UNL     1      -3.009  -2.652  -0.784  1.00  0.00     0.696 A 
HETATM    5  N4  UNL     1      -1.803  -2.584  -0.254  1.00  0.00    -0.022 N 
ATOM      6  H4  UNL     1      -1.272  -3.441  -0.100  1.00  0.00     0.203 HD
HETATM    7  C10 UNL     1      -1.260  -1.392   0.089  1.00  0.00     0.700 A 
HETATM    8  N7  UNL     1      -1.969  -0.280  -0.120  1.00  0.00    -0.148 N 
ATOM      9  H7  UNL     1      -1.553   0.614   0.140  1.00  0.00     0.188 HD
ENDROOT
BRANCH   7  10
HETATM   10  N5  UNL     1      -0.115  -1.336   0.592  1.00  0.00    -0.200 N 
ATOM     11  H5  UNL     1       0.170  -0.379   0.799  1.00  0.00     0.183 HD
BRANCH  10  12
HETATM   12  C11 UNL     1       0.873  -2.272   0.941  1.00  0.00     0.117 C 
BRANCH  12  13
HETATM   13  C12 UNL     1       2.162  -1.540   1.029  1.00  0.00    -0.020 A 
HETATM   14  C13 UNL     1       2.381  -0.479   0.179  1.00  0.00     0.013 A 
HETATM   15  C14 UNL     1       3.575   0.237   0.257  1.00  0.00     0.013 A 
HETATM   16  C15 UNL     1       4.526  -0.122   1.186  1.00  0.00    -0.024 A 
HETATM   17  C22 UNL     1       4.301  -1.186   2.034  1.00  0.00     0.013 A 
HETATM   18  C23 UNL     1       3.098  -1.907   1.953  1.00  0.00     0.013 A 
BRANCH  16  19
HETATM   19  C16 UNL     1       5.761   0.650   1.249  1.00  0.00    -0.002 A 
HETATM   20  C17 UNL     1       5.786   2.038   1.215  1.00  0.00     0.031 A 
HETATM   21  C18 UNL     1       7.125   2.363   1.291  1.00  0.00     0.091 A 
HETATM   22  N6  UNL     1       7.838   1.241   1.365  1.00  0.00    -0.364 N 
HETATM   23  C19 UNL     1       9.291   1.096   1.458  1.00  0.00     0.155 C 
HETATM   24  C20 UNL     1       7.034   0.143   1.343  1.00  0.00     0.018 A 
HETATM   25  C21 UNL     1       7.420  -1.283   1.405  1.00  0.00     0.069 C 
ENDBRANCH  16  19
ENDBRANCH  12  13
ENDBRANCH  10  12
ENDBRANCH   7  10
BRANCH   4  26
HETATM   26  N3  UNL     1      -3.605  -3.734  -1.147  1.00  0.00    -0.223 N 
ATOM     27  H3  UNL     1      -4.539  -3.671  -1.552  1.00  0.00     0.177 HD
BRANCH  26  28
HETATM   28  C8  UNL     1      -3.000  -5.018  -1.000  1.00  0.00     0.164 C 
BRANCH  28  29
HETATM   29  C9  UNL     1      -2.355  -5.457  -2.319  1.00  0.00     0.184 C 
BRANCH  29  30
HETATM   30  O1  UNL     1      -1.377  -4.589  -2.750  1.00  0.00    -0.399 OA
ATOM     31  H1  UNL     1      -0.977  -4.861  -3.568  1.00  0.00     0.209 HD
ENDBRANCH  29  30
ENDBRANCH  28  29
ENDBRANCH  26  28
ENDBRANCH   4  26
BRANCH   1  32
HETATM   32  N1  UNL     1      -3.864   0.708  -0.857  1.00  0.00    -0.370 NA
BRANCH  32  33
HETATM   33  C5  UNL     1      -4.537   1.807  -1.055  1.00  0.00     0.111 A 
HETATM   34  C4  UNL     1      -4.213   2.630  -2.150  1.00  0.00     0.045 A 
HETATM   35  C3  UNL     1      -4.834   3.792  -2.435  1.00  0.00     0.010 A 
HETATM   36  C2  UNL     1      -5.851   4.219  -1.618  1.00  0.00    -0.056 A 
HETATM   37  C1  UNL     1      -6.552   5.502  -1.903  1.00  0.00     0.049 C 
HETATM   38  C25 UNL     1      -6.241   3.468  -0.510  1.00  0.00    -0.053 A 
HETATM   39  C24 UNL     1      -5.586   2.298  -0.256  1.00  0.00     0.052 A 
HETATM   40  C26 UNL     1      -7.348   3.993   0.330  1.00  0.00     0.049 C 
ENDBRANCH  32  33
ENDBRANCH   1  32
TORSDOF 10
