REMARK  10 active torsions:
REMARK  status: ('A' for Active; 'I' for Inactive)
REMARK    1  A    between atoms: O1_2  and  C2_3 
REMARK    2  A    between atoms: C2_3  and  C3_4 
REMARK    3  A    between atoms: C3_4  and  C4_5 
REMARK    4  A    between atoms: C4_5  and  C5_6 
REMARK    5  A    between atoms: C5_6  and  C6_7 
REMARK    6  A    between atoms: C6_7  and  O2_8 
REMARK    7  A    between atoms: C6_7  and  C7_10 
REMARK    8  A    between atoms: C21_24  and  O3_25 
REMARK    9  A    between atoms: C27_32  and  O4_33 
REMARK   10  A    between atoms: C29_36  and  O5_37 
ROOT
HETATM    1  C7  UNL     1       2.545  -1.844   0.590  1.00  0.00     0.049 C 
HETATM    2  C8  UNL     1       2.247  -1.911   2.052  1.00  0.00     0.011 C 
HETATM    3  C9  UNL     1       0.748  -2.188   2.095  1.00  0.00     0.013 C 
HETATM    4  C10 UNL     1       0.252  -2.115   0.668  1.00  0.00    -0.008 C 
HETATM    5  C11 UNL     1       0.140  -3.564   0.189  1.00  0.00     0.019 C 
HETATM    6  C12 UNL     1      -1.100  -1.499   0.508  1.00  0.00     0.003 C 
HETATM    7  C13 UNL     1      -1.558  -1.693  -0.899  1.00  0.00     0.006 C 
HETATM    8  C14 UNL     1      -3.005  -2.036  -0.859  1.00  0.00     0.005 C 
HETATM    9  C15 UNL     1      -3.945  -0.940  -0.576  1.00  0.00    -0.013 C 
HETATM   10  C16 UNL     1      -5.240  -1.670  -0.130  1.00  0.00     0.010 C 
HETATM   11  C17 UNL     1      -3.657   0.058   0.416  1.00  0.00     0.002 C 
HETATM   12  C18 UNL     1      -2.343   0.702   0.625  1.00  0.00    -0.002 C 
HETATM   13  C19 UNL     1      -2.203   1.785  -0.455  1.00  0.00     0.013 C 
HETATM   14  C20 UNL     1      -3.546   1.917  -0.972  1.00  0.00     0.023 C 
HETATM   15  C21 UNL     1      -4.231   3.206  -1.123  1.00  0.00     0.123 C 
HETATM   16  C22 UNL     1      -5.706   2.761  -1.113  1.00  0.00     0.033 C 
HETATM   17  C23 UNL     1      -5.689   1.315  -0.570  1.00  0.00     0.012 C 
HETATM   18  C24 UNL     1      -4.431   1.308   0.136  1.00  0.00    -0.034 C 
HETATM   19  C25 UNL     1      -4.527   2.250   1.307  1.00  0.00     0.016 C 
HETATM   20  C26 UNL     1      -1.155  -0.059   0.969  1.00  0.00     0.024 C 
HETATM   21  C27 UNL     1       0.098   0.706   0.683  1.00  0.00     0.126 C 
HETATM   22  C28 UNL     1       1.078   0.056  -0.246  1.00  0.00     0.071 C 
HETATM   23  C29 UNL     1       1.336  -1.369  -0.112  1.00  0.00     0.074 C 
ENDROOT
BRANCH   1  24
HETATM   24  C6  UNL     1       3.830  -1.115   0.348  1.00  0.00     0.125 C 
BRANCH  24  25
HETATM   25  C5  UNL     1       4.211  -1.001  -1.076  1.00  0.00     0.032 C 
BRANCH  25  26
HETATM   26  C4  UNL     1       5.651  -0.648  -1.240  1.00  0.00     0.004 C 
BRANCH  26  27
HETATM   27  C3  UNL     1       6.107   0.643  -0.655  1.00  0.00     0.026 C 
BRANCH  27  28
HETATM   28  C2  UNL     1       7.607   0.836  -0.974  1.00  0.00     0.167 C 
BRANCH  28  29
HETATM   29  O1  UNL     1       8.117   1.993  -0.469  1.00  0.00    -0.396 OA
HETATM   30  C1  UNL     1       7.550   3.161  -0.906  1.00  0.00     0.201 C 
ENDBRANCH  28  29
ENDBRANCH  27  28
ENDBRANCH  26  27
ENDBRANCH  25  26
ENDBRANCH  24  25
BRANCH  24  31
HETATM   31  O2  UNL     1       3.973   0.021   1.123  1.00  0.00    -0.395 OA
ATOM     32  H2  UNL     1       3.728  -0.052   2.038  1.00  0.00     0.210 HD
ENDBRANCH  24  31
ENDBRANCH   1  24
BRANCH  23  33
HETATM   33  O5  UNL     1       1.342  -1.970  -1.397  1.00  0.00    -0.388 OA
ATOM     34  H5  UNL     1       0.564  -1.664  -1.849  1.00  0.00     0.210 HD
ENDBRANCH  23  33
BRANCH  21  35
HETATM   35  O4  UNL     1       0.781   1.120   1.858  1.00  0.00    -0.395 OA
ATOM     36  H4  UNL     1       1.577   1.606   1.676  1.00  0.00     0.210 HD
ENDBRANCH  21  35
BRANCH  15  37
HETATM   37  O3  UNL     1      -4.009   3.757  -2.404  1.00  0.00    -0.395 OA
ATOM     38  H3  UNL     1      -4.452   4.591  -2.502  1.00  0.00     0.210 HD
ENDBRANCH  15  37
TORSDOF 10
