REMARK  10 active torsions:
REMARK  status: ('A' for Active; 'I' for Inactive)
REMARK    1  A    between atoms: C2_2  and  C3_3 
REMARK    2  A    between atoms: C4_4  and  C5_5 
REMARK    3  A    between atoms: C5_5  and  C6_6 
REMARK    4  A    between atoms: C7_8  and  C9_10 
REMARK    5  A    between atoms: C9_10  and  C10_11 
REMARK    6  A    between atoms: C10_11  and  C12_13 
REMARK    7  A    between atoms: C13_14  and  O2_15 
REMARK    8  A    between atoms: C14_17  and  O3_18 
REMARK    9  A    between atoms: C19_24  and  O4_25 
REMARK   10  A    between atoms: C22_29  and  O5_30 
ROOT
HETATM    1  C12 UNL     1       0.399   0.380   1.166  1.00  0.00     0.030 C 
HETATM    2  C13 UNL     1      -0.031  -0.380   2.415  1.00  0.00     0.152 C 
HETATM    3  C14 UNL     1      -1.465   0.187   2.511  1.00  0.00     0.156 C 
HETATM    4  C15 UNL     1      -1.916  -0.067   1.123  1.00  0.00    -0.004 C 
HETATM    5  C16 UNL     1      -2.089  -1.541   0.945  1.00  0.00     0.019 C 
HETATM    6  C17 UNL     1      -3.171   0.577   0.682  1.00  0.00     0.004 C 
HETATM    7  C18 UNL     1      -4.412  -0.151   1.237  1.00  0.00     0.038 C 
HETATM    8  C19 UNL     1      -5.581   0.745   0.798  1.00  0.00     0.129 C 
HETATM    9  C20 UNL     1      -5.821   0.408  -0.632  1.00  0.00     0.012 C 
HETATM   10  C21 UNL     1      -6.955  -0.578  -0.769  1.00  0.00     0.021 C 
HETATM   11  C22 UNL     1      -5.903   1.500  -1.636  1.00  0.00     0.129 C 
HETATM   12  C23 UNL     1      -5.102   0.589  -2.581  1.00  0.00     0.038 C 
HETATM   13  C24 UNL     1      -4.571  -0.078  -1.301  1.00  0.00     0.005 C 
HETATM   14  C25 UNL     1      -3.307   0.646  -0.792  1.00  0.00    -0.004 C 
HETATM   15  C26 UNL     1      -2.198   0.240  -1.659  1.00  0.00     0.006 C 
HETATM   16  C27 UNL     1      -0.892  -0.128  -0.999  1.00  0.00     0.011 C 
HETATM   17  C28 UNL     1      -0.766   0.528   0.317  1.00  0.00    -0.027 C 
HETATM   18  C29 UNL     1      -0.979   2.013   0.050  1.00  0.00     0.016 C 
ENDROOT
BRANCH   1  19
HETATM   19  C10 UNL     1       1.748   0.069   0.646  1.00  0.00    -0.008 C 
HETATM   20  C11 UNL     1       2.830   0.622   1.558  1.00  0.00     0.010 C 
BRANCH  19  21
HETATM   21  C9  UNL     1       2.066  -1.308   0.257  1.00  0.00     0.045 C 
BRANCH  21  22
HETATM   22  C7  UNL     1       3.343  -1.463  -0.507  1.00  0.00     0.084 A 
HETATM   23  C6  UNL     1       4.635  -1.158  -0.005  1.00  0.00     0.160 A 
HETATM   24  O1  UNL     1       4.226  -2.507  -0.060  1.00  0.00    -0.369 OA
HETATM   25  C8  UNL     1       3.189  -1.559  -2.046  1.00  0.00     0.049 C 
BRANCH  23  26
HETATM   26  C5  UNL     1       5.747  -0.747  -0.968  1.00  0.00     0.061 C 
BRANCH  26  27
HETATM   27  C4  UNL     1       6.965  -1.542  -0.707  1.00  0.00    -0.028 C 
HETATM   28  C3  UNL     1       8.123  -1.066  -0.363  1.00  0.00    -0.031 C 
BRANCH  28  29
HETATM   29  C2  UNL     1       8.411   0.366  -0.176  1.00  0.00     0.022 C 
HETATM   30  C1  UNL     1       9.518   0.815  -1.145  1.00  0.00     0.009 C 
ENDBRANCH  28  29
ENDBRANCH  26  27
ENDBRANCH  23  26
ENDBRANCH  21  22
ENDBRANCH  19  21
ENDBRANCH   1  19
BRANCH   2  31
HETATM   31  O2  UNL     1       0.660   0.070   3.562  1.00  0.00    -0.393 OA
ATOM     32  H2  UNL     1       0.392  -0.404   4.341  1.00  0.00     0.210 HD
ENDBRANCH   2  31
BRANCH   3  33
HETATM   33  O3  UNL     1      -2.158  -0.582   3.441  1.00  0.00    -0.392 OA
ATOM     34  H3  UNL     1      -3.040  -0.233   3.500  1.00  0.00     0.210 HD
ENDBRANCH   3  33
BRANCH   8  35
HETATM   35  O4  UNL     1      -5.200   2.077   0.925  1.00  0.00    -0.395 OA
ATOM     36  H4  UNL     1      -5.923   2.631   0.654  1.00  0.00     0.210 HD
ENDBRANCH   8  35
BRANCH  11  37
HETATM   37  O5  UNL     1      -7.204   1.682  -2.160  1.00  0.00    -0.395 OA
ATOM     38  H5  UNL     1      -7.256   2.380  -2.802  1.00  0.00     0.210 HD
ENDBRANCH  11  37
TORSDOF 10
