REMARK  9 active torsions:
REMARK  status: ('A' for Active; 'I' for Inactive)
REMARK    1  A    between atoms: C2_2  and  O1_3 
REMARK    2  A    between atoms: O1_3  and  C3_4 
REMARK    3  A    between atoms: C3_4  and  C4_5 
REMARK    4  A    between atoms: C4_5  and  C5_6 
REMARK    5  A    between atoms: C5_6  and  C6_7 
REMARK    6  A    between atoms: C8_9  and  O2_10 
REMARK    7  A    between atoms: C12_15  and  O3_16 
REMARK    8  A    between atoms: C20_25  and  O4_26 
REMARK    9  A    between atoms: C27_34  and  O5_35 
ROOT
HETATM    1  C6  UNL     1       3.006  -0.924   0.497  1.00  0.00    -0.005 C 
HETATM    2  C7  UNL     1       2.951  -2.482   0.710  1.00  0.00     0.019 C 
HETATM    3  C8  UNL     1       3.499  -0.839  -0.935  1.00  0.00     0.150 C 
HETATM    4  C9  UNL     1       2.256  -1.095  -1.707  1.00  0.00     0.009 C 
HETATM    5  C10 UNL     1       1.205  -0.890  -0.963  1.00  0.00    -0.062 C 
HETATM    6  C11 UNL     1       1.625  -0.475   0.390  1.00  0.00     0.055 C 
HETATM    7  C12 UNL     1       0.659  -1.132   1.349  1.00  0.00     0.128 C 
HETATM    8  C13 UNL     1      -0.750  -0.713   1.123  1.00  0.00     0.043 C 
HETATM    9  C14 UNL     1      -1.163  -0.434  -0.278  1.00  0.00    -0.020 C 
HETATM   10  C15 UNL     1      -1.708   0.926  -0.439  1.00  0.00     0.017 C 
HETATM   11  C16 UNL     1      -3.228   0.831  -0.605  1.00  0.00     0.005 C 
HETATM   12  C17 UNL     1      -4.017   1.888   0.011  1.00  0.00    -0.017 C 
HETATM   13  C18 UNL     1      -3.211   2.877   0.870  1.00  0.00     0.018 C 
HETATM   14  C19 UNL     1      -4.525   2.803  -1.131  1.00  0.00     0.018 C 
HETATM   15  C20 UNL     1      -5.231   1.517   0.785  1.00  0.00     0.126 C 
HETATM   16  C21 UNL     1      -5.265   0.152   1.374  1.00  0.00     0.033 C 
HETATM   17  C22 UNL     1      -3.898  -0.553   1.267  1.00  0.00     0.012 C 
HETATM   18  C23 UNL     1      -3.585  -0.606  -0.161  1.00  0.00    -0.035 C 
HETATM   19  C24 UNL     1      -4.789  -1.092  -0.985  1.00  0.00     0.016 C 
HETATM   20  C25 UNL     1      -2.418  -1.239  -0.690  1.00  0.00     0.006 C 
HETATM   21  C26 UNL     1      -1.969  -2.582  -0.513  1.00  0.00     0.039 C 
HETATM   22  C27 UNL     1      -0.617  -2.490  -1.254  1.00  0.00     0.131 C 
HETATM   23  C28 UNL     1      -0.274  -1.011  -1.313  1.00  0.00     0.014 C 
HETATM   24  C29 UNL     1      -0.499  -0.527  -2.703  1.00  0.00     0.023 C 
ENDROOT
BRANCH   1  25
HETATM   25  C5  UNL     1       3.928  -0.376   1.454  1.00  0.00     0.015 C 
BRANCH  25  26
HETATM   26  C4  UNL     1       4.281   1.001   1.687  1.00  0.00     0.027 C 
BRANCH  26  27
HETATM   27  C3  UNL     1       4.915   1.816   0.605  1.00  0.00     0.167 C 
BRANCH  27  28
HETATM   28  O1  UNL     1       6.122   1.290   0.132  1.00  0.00    -0.391 OA
BRANCH  28  29
HETATM   29  C2  UNL     1       6.627   2.107  -0.859  1.00  0.00     0.163 C 
HETATM   30  C1  UNL     1       7.942   1.487  -1.339  1.00  0.00     0.033 C 
ENDBRANCH  28  29
ENDBRANCH  27  28
ENDBRANCH  26  27
ENDBRANCH  25  26
ENDBRANCH   1  25
BRANCH   3  31
HETATM   31  O2  UNL     1       4.356  -1.917  -1.230  1.00  0.00    -0.391 OA
ATOM     32  H2  UNL     1       4.665  -1.864  -2.127  1.00  0.00     0.210 HD
ENDBRANCH   3  31
BRANCH   7  33
HETATM   33  O3  UNL     1       0.987  -0.797   2.689  1.00  0.00    -0.395 OA
ATOM     34  H3  UNL     1       0.380  -1.210   3.292  1.00  0.00     0.210 HD
ENDBRANCH   7  33
BRANCH  22  35
HETATM   35  O5  UNL     1      -0.822  -3.032  -2.528  1.00  0.00    -0.394 OA
ATOM     36  H5  UNL     1       0.010  -2.975  -2.984  1.00  0.00     0.210 HD
ENDBRANCH  22  35
BRANCH  15  37
HETATM   37  O4  UNL     1      -5.442   2.431   1.840  1.00  0.00    -0.395 OA
ATOM     38  H4  UNL     1      -6.218   2.194   2.335  1.00  0.00     0.210 HD
ENDBRANCH  15  37
TORSDOF 9
