REMARK  15 active torsions:
REMARK  status: ('A' for Active; 'I' for Inactive)
REMARK    1  A    between atoms: C2_2  and  C3_3 
REMARK    2  A    between atoms: C3_3  and  O1_4 
REMARK    3  A    between atoms: C3_3  and  C4_6 
REMARK    4  A    between atoms: C4_6  and  C5_7 
REMARK    5  A    between atoms: C5_7  and  C6_8 
REMARK    6  A    between atoms: C10_12  and  C11_13 
REMARK    7  A    between atoms: C15_17  and  C16_18 
REMARK    8  A    between atoms: C16_18  and  C23_29 
REMARK    9  A    between atoms: C17_19  and  C18_20 
REMARK   10  A    between atoms: C18_20  and  C19_21 
REMARK   11  A    between atoms: C19_21  and  C20_22 
REMARK   12  A    between atoms: C20_22  and  O2_23 
REMARK   13  A    between atoms: C20_22  and  C21_25 
REMARK   14  A    between atoms: C21_25  and  C22_26 
REMARK   15  A    between atoms: C27_34  and  O5_35 
ROOT
HETATM    1  C23 UNL     1      -3.785  -0.332   0.920  1.00  0.00     0.070 C 
HETATM    2  C24 UNL     1      -4.681   0.287   1.932  1.00  0.00     0.036 C 
HETATM    3  C25 UNL     1      -3.691  -1.804   1.326  1.00  0.00     0.036 C 
HETATM    4  C26 UNL     1      -4.500  -0.463  -0.391  1.00  0.00     0.073 C 
HETATM    5  N1  UNL     1      -5.035  -0.592  -1.437  1.00  0.00    -0.196 NA
ENDROOT
BRANCH   1   6
HETATM    6  C16 UNL     1      -2.531   0.378   0.705  1.00  0.00    -0.024 C 
HETATM    7  C17 UNL     1      -2.590   1.573   0.106  1.00  0.00     0.065 C 
BRANCH   6   8
HETATM    8  C15 UNL     1      -1.165  -0.004   0.985  1.00  0.00    -0.039 C 
HETATM    9  C13 UNL     1      -0.548   0.000   2.305  1.00  0.00     0.014 C 
HETATM   10  C12 UNL     1       0.878  -0.446   1.954  1.00  0.00     0.016 C 
HETATM   11  C14 UNL     1      -1.009  -0.950   3.346  1.00  0.00     0.015 C 
HETATM   12  C11 UNL     1       0.822  -1.068   0.567  1.00  0.00     0.024 C 
HETATM   13  C27 UNL     1      -0.704  -1.313   0.398  1.00  0.00     0.152 C 
BRANCH  12  14
HETATM   14  C10 UNL     1       1.627  -2.338   0.524  1.00  0.00    -0.000 C 
HETATM   15  C8  UNL     1       1.799  -2.822  -0.905  1.00  0.00     0.010 C 
HETATM   16  C7  UNL     1       2.815  -1.890  -1.571  1.00  0.00    -0.006 C 
HETATM   17  C9  UNL     1       2.293  -4.245  -1.002  1.00  0.00     0.014 C 
HETATM   18  C6  UNL     1       3.936  -1.673  -0.920  1.00  0.00    -0.008 C 
HETATM   19  C29 UNL     1       4.157  -2.337   0.383  1.00  0.00     0.048 C 
HETATM   20  C28 UNL     1       2.946  -2.151   1.244  1.00  0.00     0.011 C 
BRANCH  18  21
HETATM   21  C5  UNL     1       4.950  -0.821  -1.443  1.00  0.00    -0.069 C 
BRANCH  21  22
HETATM   22  C4  UNL     1       5.802  -0.081  -1.852  1.00  0.00    -0.070 C 
BRANCH  22  23
HETATM   23  C3  UNL     1       6.856   0.857  -2.319  1.00  0.00     0.196 C 
BRANCH  23  24
HETATM   24  C2  UNL     1       7.156   1.847  -1.191  1.00  0.00     0.040 C 
HETATM   25  C1  UNL     1       8.282   2.743  -1.643  1.00  0.00     0.009 C 
ENDBRANCH  23  24
BRANCH  23  26
HETATM   26  O1  UNL     1       7.956   0.092  -2.614  1.00  0.00    -0.383 OA
ATOM     27  H1  UNL     1       7.770  -0.522  -3.314  1.00  0.00     0.211 HD
ENDBRANCH  23  26
ENDBRANCH  22  23
ENDBRANCH  21  22
ENDBRANCH  18  21
ENDBRANCH  12  14
BRANCH  13  28
HETATM   28  O5  UNL     1      -0.959  -1.432  -0.930  1.00  0.00    -0.391 OA
ATOM     29  H5  UNL     1      -1.891  -1.582  -1.033  1.00  0.00     0.210 HD
ENDBRANCH  13  28
ENDBRANCH   6   8
BRANCH   7  30
HETATM   30  C18 UNL     1      -3.630   2.366  -0.343  1.00  0.00    -0.125 C 
BRANCH  30  31
HETATM   31  C19 UNL     1      -4.571   3.090  -0.753  1.00  0.00     0.092 C 
BRANCH  31  32
HETATM   32  C20 UNL     1      -6.014   3.059  -0.761  1.00  0.00     0.079 C 
BRANCH  32  33
HETATM   33  O2  UNL     1      -6.783   2.093  -0.219  1.00  0.00    -0.360 OA
ATOM     34  H2  UNL     1      -7.733   2.073  -0.224  1.00  0.00     0.217 HD
ENDBRANCH  32  33
BRANCH  32  35
HETATM   35  C21 UNL     1      -6.688   4.079  -1.353  1.00  0.00     0.121 C 
BRANCH  35  36
HETATM   36  C22 UNL     1      -8.118   4.060  -1.368  1.00  0.00     0.201 C 
HETATM   37  O3  UNL     1      -8.808   3.138  -0.857  1.00  0.00    -0.644 OA
HETATM   38  O4  UNL     1      -8.850   5.086  -1.964  1.00  0.00    -0.644 OA
ENDBRANCH  35  36
ENDBRANCH  32  35
ENDBRANCH  31  32
ENDBRANCH  30  31
ENDBRANCH   7  30
ENDBRANCH   1   6
TORSDOF 15
