REMARK  5 active torsions:
REMARK  status: ('A' for Active; 'I' for Inactive)
REMARK    1  A    between atoms: C3_4  and  C4_5 
REMARK    2  A    between atoms: C4_5  and  N2_6 
REMARK    3  A    between atoms: C4_5  and  N3_10 
REMARK    4  A    between atoms: C7_17  and  O2_18 
REMARK    5  A    between atoms: C7_17  and  O3_20 
ROOT
HETATM    1  C4  UNL     1      -0.231  -0.049  -0.532  1.00  0.00     0.318 C 
ENDROOT
BRANCH   1   2
HETATM    2  C3  UNL     1      -1.612  -0.234   0.004  1.00  0.00    -0.000 A 
HETATM    3  C2  UNL     1      -2.676   0.511  -0.455  1.00  0.00     0.056 A 
HETATM    4  C1  UNL     1      -3.959   0.329   0.052  1.00  0.00     0.119 A 
HETATM    5  N1  UNL     1      -5.017   1.139  -0.472  1.00  0.00    -0.083 NA
HETATM    6  N6  UNL     1      -4.185  -0.588   1.010  1.00  0.00    -0.312 N 
HETATM    7  C9  UNL     1      -3.174  -1.333   1.483  1.00  0.00     0.247 A 
ATOM      8  H6  UNL     1      -5.127  -0.717   1.378  1.00  0.00     0.170 HD
HETATM    9  C8  UNL     1      -1.896  -1.161   0.987  1.00  0.00     0.085 A 
HETATM   10  O4  UNL     1      -3.384  -2.200   2.387  1.00  0.00    -0.268 OA
ENDBRANCH   1   2
BRANCH   1  11
HETATM   11  N2  UNL     1       0.293  -1.390  -0.759  1.00  0.00    -0.054 N 
ATOM     12  H23 UNL     1       0.253  -1.988   0.066  1.00  0.00     0.277 HD
ATOM     13  H22 UNL     1      -0.302  -1.964  -1.356  1.00  0.00     0.277 HD
ATOM     14  H21 UNL     1       1.237  -1.264  -1.125  1.00  0.00     0.277 HD
ENDBRANCH   1  11
BRANCH   1  15
HETATM   15  N3  UNL     1       0.618   0.623   0.412  1.00  0.00    -0.331 N 
HETATM   16  C5  UNL     1       1.900   0.693   0.299  1.00  0.00     0.184 C 
HETATM   17  N4  UNL     1       2.749   1.363   1.238  1.00  0.00    -0.292 N 
HETATM   18  N5  UNL     1       2.745   0.167  -0.707  1.00  0.00    -0.299 N 
HETATM   19  C6  UNL     1       4.102   1.238   0.796  1.00  0.00     0.310 C 
ATOM     20  H4  UNL     1       2.440   1.848   2.080  1.00  0.00     0.172 HD
HETATM   21  O1  UNL     1       5.119   1.849   1.205  1.00  0.00    -0.265 OA
HETATM   22  C7  UNL     1       4.128   0.221  -0.282  1.00  0.00     0.333 C 
ATOM     23  H5  UNL     1       2.425  -0.198  -1.604  1.00  0.00     0.168 HD
ATOM     24  H3  UNL     1       0.181   1.070   1.218  1.00  0.00     0.165 HD
BRANCH  22  25
HETATM   25  O2  UNL     1       4.898   0.598  -1.365  1.00  0.00    -0.341 OA
ATOM     26  H2  UNL     1       4.915  -0.054  -2.056  1.00  0.00     0.215 HD
ENDBRANCH  22  25
BRANCH  22  27
HETATM   27  O3  UNL     1       4.566  -0.989   0.233  1.00  0.00    -0.341 OA
ATOM     28  H3  UNL     1       4.583  -1.641  -0.458  1.00  0.00     0.215 HD
ENDBRANCH  22  27
ENDBRANCH   1  15
TORSDOF 5
