REMARK  8 active torsions:
REMARK  status: ('A' for Active; 'I' for Inactive)
REMARK    1  A    between atoms: C2_2  and  N1_3 
REMARK    2  A    between atoms: C2_2  and  C3_7 
REMARK       I    between atoms: C3_7  and  N2_9 
REMARK    3  A    between atoms: N2_9  and  C4_11 
REMARK    4  A    between atoms: C4_11  and  C6_13 
REMARK    5  A    between atoms: C6_13  and  O2_15 
REMARK    6  A    between atoms: O2_15  and  N3_16 
REMARK    7  A    between atoms: C8_17  and  N4_18 
REMARK    8  A    between atoms: N8_28  and  O3_30 
ROOT
HETATM    1  N3  UNL     1      -1.305  -0.979   0.520  1.00  0.00    -0.124 NA
HETATM    2  C8  UNL     1      -1.772  -2.311   0.390  1.00  0.00     0.389 C 
HETATM    3  N5  UNL     1      -2.560  -2.630  -0.746  1.00  0.00    -0.323 N 
ATOM      4  H5  UNL     1      -2.748  -3.616  -0.929  1.00  0.00     0.165 HD
HETATM    5  C9  UNL     1      -3.046  -1.782  -1.547  1.00  0.00     0.196 C 
HETATM    6  N6  UNL     1      -3.838  -2.121  -2.685  1.00  0.00    -0.063 NA
HETATM    7  N7  UNL     1      -2.788  -0.397  -1.308  1.00  0.00    -0.289 N 
HETATM    8  C10 UNL     1      -3.417   0.771  -1.820  1.00  0.00     0.107 C 
HETATM    9  N8  UNL     1      -4.006   0.878  -2.987  1.00  0.00    -0.257 N 
ATOM     10  H8  UNL     1      -4.053   0.091  -3.635  1.00  0.00     0.195 HD
HETATM   11  C11 UNL     1      -3.270   1.819  -0.782  1.00  0.00     0.082 C 
HETATM   12  C12 UNL     1      -2.303   1.241   0.218  1.00  0.00     0.051 C 
HETATM   13  C13 UNL     1      -1.740  -0.021  -0.431  1.00  0.00     0.199 C 
ENDROOT
BRANCH   1  14
HETATM   14  O2  UNL     1       0.007  -0.970   0.755  1.00  0.00    -0.291 OA
BRANCH  14  15
HETATM   15  C6  UNL     1       0.380  -0.149   1.811  1.00  0.00     0.164 C 
HETATM   16  C7  UNL     1       1.126  -0.906   2.885  1.00  0.00     0.044 C 
BRANCH  15  17
HETATM   17  C4  UNL     1       1.320   0.908   1.274  1.00  0.00     0.111 C 
HETATM   18  C5  UNL     1       1.757   1.764   2.448  1.00  0.00     0.035 C 
BRANCH  17  19
HETATM   19  N2  UNL     1       2.506   0.338   0.690  1.00  0.00    -0.353 N 
HETATM   20  C3  UNL     1       2.914   0.608  -0.647  1.00  0.00     0.248 C 
HETATM   21  O1  UNL     1       2.260   1.366  -1.408  1.00  0.00    -0.271 OA
ATOM     22  H2  UNL     1       3.079  -0.286   1.258  1.00  0.00     0.163 HD
BRANCH  20  23
HETATM   23  C2  UNL     1       4.145  -0.005  -1.199  1.00  0.00     0.270 C 
HETATM   24  C1  UNL     1       5.136   1.089  -1.555  1.00  0.00     0.050 C 
BRANCH  23  25
HETATM   25  N1  UNL     1       4.757  -0.838  -0.192  1.00  0.00    -0.067 N 
ATOM     26  H13 UNL     1       5.666  -1.203  -0.477  1.00  0.00     0.275 HD
ATOM     27  H12 UNL     1       5.074  -0.310   0.621  1.00  0.00     0.275 HD
ATOM     28  H11 UNL     1       4.091  -1.573   0.047  1.00  0.00     0.275 HD
ENDBRANCH  23  25
ENDBRANCH  20  23
ENDBRANCH  17  19
ENDBRANCH  15  17
ENDBRANCH  14  15
ENDBRANCH   1  14
BRANCH   2  29
HETATM   29  N4  UNL     1      -2.544  -2.743   1.569  1.00  0.00    -0.043 N 
ATOM     30  H43 UNL     1      -2.007  -2.621   2.428  1.00  0.00     0.278 HD
ATOM     31  H42 UNL     1      -3.311  -2.100   1.766  1.00  0.00     0.278 HD
ATOM     32  H41 UNL     1      -2.880  -3.701   1.475  1.00  0.00     0.278 HD
ENDBRANCH   2  29
BRANCH   9  33
HETATM   33  O3  UNL     1      -4.552   2.088  -3.295  1.00  0.00    -0.288 OA
ATOM     34  H3  UNL     1      -4.979   2.166  -4.140  1.00  0.00     0.244 HD
ENDBRANCH   9  33
TORSDOF 8
