REMARK  8 active torsions:
REMARK  status: ('A' for Active; 'I' for Inactive)
REMARK    1  A    between atoms: C2_2  and  N1_3 
REMARK    2  A    between atoms: C2_2  and  N2_7 
REMARK    3  A    between atoms: C2_2  and  S1_30 
REMARK       I    between atoms: N2_7  and  C3_9 
REMARK    4  A    between atoms: C3_9  and  C4_11 
REMARK    5  A    between atoms: C4_11  and  O2_12 
REMARK    6  A    between atoms: C4_11  and  C5_14 
REMARK    7  A    between atoms: N5_18  and  C6_19 
REMARK    8  A    between atoms: S1_30  and  N10_32 
ROOT
HETATM    1  C4  UNL     1       0.301   0.058   1.985  1.00  0.00     0.279 C 
ENDROOT
BRANCH   1   2
HETATM    2  C3  UNL     1      -1.027  -0.387   1.575  1.00  0.00     0.256 C 
HETATM    3  N2  UNL     1      -1.670   0.267   0.492  1.00  0.00    -0.315 N 
ATOM      4  H2  UNL     1      -1.206   1.037   0.010  1.00  0.00     0.166 HD
HETATM    5  O1  UNL     1      -1.561  -1.336   2.196  1.00  0.00    -0.270 OA
BRANCH   3   6
HETATM    6  C2  UNL     1      -2.993  -0.165   0.072  1.00  0.00     0.277 C 
HETATM    7  C1  UNL     1      -3.913   0.010   1.255  1.00  0.00     0.087 C 
BRANCH   6   8
HETATM    8  N1  UNL     1      -2.908  -1.572  -0.258  1.00  0.00    -0.040 N 
ATOM      9  H13 UNL     1      -2.626  -2.141   0.540  1.00  0.00     0.278 HD
ATOM     10  H12 UNL     1      -3.825  -1.990  -0.415  1.00  0.00     0.278 HD
ATOM     11  H11 UNL     1      -2.286  -1.690  -1.058  1.00  0.00     0.278 HD
ENDBRANCH   6   8
BRANCH   6  12
HETATM   12  S1  UNL     1      -3.605   0.767  -1.282  1.00  0.00     0.069 S 
HETATM   13  C8  UNL     1      -2.601   0.632  -2.718  1.00  0.00     0.141 C 
HETATM   14  O4  UNL     1      -4.979   0.276  -1.616  1.00  0.00    -0.246 OA
BRANCH  12  15
HETATM   15  N10 UNL     1      -3.686   2.269  -0.841  1.00  0.00    -0.357 N 
ATOM     16 2H10 UNL     1      -3.424   2.627   0.078  1.00  0.00     0.165 HD
ATOM     17 1H10 UNL     1      -4.042   2.811  -1.628  1.00  0.00     0.165 HD
ENDBRANCH  12  15
ENDBRANCH   6  12
ENDBRANCH   3   6
ENDBRANCH   1   2
BRANCH   1  18
HETATM   18  O2  UNL     1       0.821  -0.660   3.053  1.00  0.00    -0.378 OA
ATOM     19  H2  UNL     1       1.685  -0.370   3.320  1.00  0.00     0.211 HD
ENDBRANCH   1  18
BRANCH   1  20
HETATM   20  C5  UNL     1       1.265  -0.083   0.847  1.00  0.00     0.149 A 
HETATM   21  N3  UNL     1       0.982  -0.345  -0.442  1.00  0.00    -0.267 N 
HETATM   22  N4  UNL     1       2.121  -0.385  -1.113  1.00  0.00     0.018 NA
ATOM     23  H3  UNL     1       0.051  -0.488  -0.834  1.00  0.00     0.185 HD
HETATM   24  N5  UNL     1       3.155  -0.156  -0.296  1.00  0.00    -0.002 N 
HETATM   25  N9  UNL     1       2.604   0.026   0.895  1.00  0.00    -0.251 N 
ATOM     26  H9  UNL     1       3.132   0.225   1.745  1.00  0.00     0.191 HD
BRANCH  24  27
HETATM   27  C6  UNL     1       4.527  -0.122  -0.661  1.00  0.00     0.736 A 
HETATM   28  N6  UNL     1       5.515   0.513  -0.019  1.00  0.00    -0.136 N 
HETATM   29  C7  UNL     1       6.692   0.314  -0.670  1.00  0.00     0.353 A 
ATOM     30  H6  UNL     1       5.402   1.064   0.832  1.00  0.00     0.189 HD
HETATM   31  O3  UNL     1       7.835   0.768  -0.342  1.00  0.00    -0.245 OA
HETATM   32  N7  UNL     1       6.409  -0.454  -1.723  1.00  0.00    -0.236 N 
HETATM   33  N8  UNL     1       5.101  -0.717  -1.717  1.00  0.00    -0.125 N 
ATOM     34  H7  UNL     1       7.080  -0.785  -2.416  1.00  0.00     0.192 HD
ATOM     35  H8  UNL     1       4.612  -1.284  -2.410  1.00  0.00     0.206 HD
ENDBRANCH  24  27
ENDBRANCH   1  20
TORSDOF 8
