REMARK  9 active torsions:
REMARK  status: ('A' for Active; 'I' for Inactive)
REMARK    1  A    between atoms: N5_15  and  C7_16 
REMARK    2  A    between atoms: N6_19  and  C10_20 
REMARK    3  A    between atoms: C10_20  and  O1_21 
REMARK    4  A    between atoms: C10_20  and  N7_23 
REMARK    5  A    between atoms: N7_23  and  C11_26 
REMARK    6  A    between atoms: C11_26  and  C12_27 
REMARK    7  A    between atoms: C12_27  and  O2_28 
REMARK    8  A    between atoms: C12_27  and  N8_30 
REMARK    9  A    between atoms: N8_30  and  O3_31 
ROOT
HETATM    1  C7  UNL     1       0.813  -0.588   0.192  1.00  0.00     0.045 C 
HETATM    2  C8  UNL     1       0.784  -1.893   0.106  1.00  0.00     0.030 C 
HETATM    3  C9  UNL     1      -0.603  -2.437   0.146  1.00  0.00     0.308 C 
HETATM    4  N6  UNL     1      -1.397  -1.305   0.508  1.00  0.00     0.153 N 
HETATM    5  C13 UNL     1      -0.611  -0.141   0.301  1.00  0.00     0.335 C 
ENDROOT
BRANCH   1   6
HETATM    6  N5  UNL     1       1.936   0.294   0.190  1.00  0.00    -0.294 N 
HETATM    7  C4  UNL     1       3.243   0.002   0.098  1.00  0.00     0.145 A 
HETATM    8  N3  UNL     1       3.913  -1.151  -0.016  1.00  0.00    -0.336 N 
HETATM    9  C5  UNL     1       4.005   1.159   0.134  1.00  0.00     0.122 A 
HETATM   10  C3  UNL     1       5.257  -1.210  -0.095  1.00  0.00     0.183 A 
ATOM     11  H3  UNL     1       3.384  -2.022  -0.044  1.00  0.00     0.168 HD
HETATM   12  N2  UNL     1       5.959  -0.076  -0.057  1.00  0.00    -0.337 N 
HETATM   13  C2  UNL     1       5.380   1.144   0.057  1.00  0.00     0.132 A 
ATOM     14  H2  UNL     1       6.976  -0.130  -0.116  1.00  0.00     0.168 HD
HETATM   15  N1  UNL     1       6.098   2.202   0.089  1.00  0.00    -0.379 N 
HETATM   16  C1  UNL     1       7.532   2.103   0.003  1.00  0.00     0.147 C 
ATOM     17  H1  UNL     1       5.655   3.116   0.175  1.00  0.00     0.160 HD
HETATM   18  N4  UNL     1       3.119   2.160   0.251  1.00  0.00    -0.346 N 
HETATM   19  C6  UNL     1       1.892   1.637   0.283  1.00  0.00     0.191 A 
ATOM     20  H4  UNL     1       3.345   3.153   0.306  1.00  0.00     0.167 HD
ENDBRANCH   1   6
BRANCH   4  21
HETATM   21  C10 UNL     1      -2.667  -1.313  -0.134  1.00  0.00     0.560 C 
BRANCH  21  22
HETATM   22  O1  UNL     1      -2.523  -1.293  -1.508  1.00  0.00    -0.347 OA
ATOM     23  H1  UNL     1      -3.371  -1.298  -1.937  1.00  0.00     0.214 HD
ENDBRANCH  21  22
BRANCH  21  24
HETATM   24  N7  UNL     1      -3.537  -0.242   0.284  1.00  0.00    -0.017 N 
ATOM     25  H72 UNL     1      -3.648  -0.243   1.298  1.00  0.00     0.282 HD
ATOM     26  H71 UNL     1      -3.080   0.662   0.163  1.00  0.00     0.282 HD
BRANCH  24  27
HETATM   27  C11 UNL     1      -4.810  -0.254  -0.363  1.00  0.00     0.288 C 
BRANCH  27  28
HETATM   28  C12 UNL     1      -5.602   0.937   0.190  1.00  0.00     0.264 C 
BRANCH  28  29
HETATM   29  O2  UNL     1      -5.733   0.778   1.556  1.00  0.00    -0.376 OA
ATOM     30  H2  UNL     1      -6.224   1.516   1.899  1.00  0.00     0.211 HD
ENDBRANCH  28  29
BRANCH  28  31
HETATM   31  N8  UNL     1      -6.911   0.984  -0.430  1.00  0.00    -0.070 NA
BRANCH  31  32
HETATM   32  O3  UNL     1      -7.623  -0.136  -0.194  1.00  0.00    -0.294 OA
ATOM     33  H3  UNL     1      -8.481  -0.105  -0.600  1.00  0.00     0.238 HD
ENDBRANCH  31  32
ENDBRANCH  28  31
ENDBRANCH  27  28
ENDBRANCH  24  27
ENDBRANCH  21  24
ENDBRANCH   4  21
TORSDOF 9
