REMARK  5 active torsions:
REMARK  status: ('A' for Active; 'I' for Inactive)
REMARK       I    between atoms: C2_2  and  N1_4 
REMARK    1  A    between atoms: N1_4  and  C3_6 
REMARK    2  A    between atoms: C3_6  and  C4_7 
REMARK    3  A    between atoms: C3_6  and  C6_20 
REMARK       I    between atoms: C4_7  and  N2_9 
REMARK       I    between atoms: N2_9  and  C5_11 
REMARK       I    between atoms: C5_11  and  N3_12 
REMARK       I    between atoms: C5_11  and  N4_16 
REMARK    4  A    between atoms: C7_23  and  C8_24 
REMARK    5  A    between atoms: C9_33  and  O3_34 
ROOT
HETATM    1  C3  UNL     1       0.739   1.192  -0.504  1.00  0.00     0.193 C 
ENDROOT
BRANCH   1   2
HETATM    2  N1  UNL     1       0.098   2.239   0.224  1.00  0.00    -0.347 N 
HETATM    3  C2  UNL     1       0.256   3.607   0.124  1.00  0.00     0.214 C 
HETATM    4  C1  UNL     1      -0.507   4.530   0.976  1.00  0.00     0.117 C 
HETATM    5  O1  UNL     1       1.065   4.071  -0.707  1.00  0.00    -0.274 OA
ATOM      6  H1  UNL     1      -0.578   1.930   0.923  1.00  0.00     0.163 HD
ENDBRANCH   1   2
BRANCH   1   7
HETATM    7  C4  UNL     1       1.574   0.406   0.428  1.00  0.00     0.244 C 
HETATM    8  O2  UNL     1       1.633   0.704   1.645  1.00  0.00    -0.271 OA
HETATM    9  N2  UNL     1       2.355  -0.715   0.039  1.00  0.00    -0.310 N 
HETATM   10  C5  UNL     1       3.165  -1.485   0.921  1.00  0.00     0.482 C 
ATOM     11  H2  UNL     1       2.334  -0.988  -0.944  1.00  0.00     0.166 HD
HETATM   12  N3  UNL     1       4.565  -1.425   0.476  1.00  0.00    -0.033 N 
HETATM   13  N4  UNL     1       2.720  -2.865   0.982  1.00  0.00    -0.033 N 
ATOM     14  H33 UNL     1       4.673  -1.712  -0.497  1.00  0.00     0.278 HD
ATOM     15  H32 UNL     1       4.900  -0.466   0.383  1.00  0.00     0.278 HD
ATOM     16  H31 UNL     1       5.145  -1.977   1.108  1.00  0.00     0.278 HD
ATOM     17  H43 UNL     1       1.733  -2.928   1.231  1.00  0.00     0.278 HD
ATOM     18  H42 UNL     1       2.676  -3.285   0.053  1.00  0.00     0.278 HD
ATOM     19  H41 UNL     1       3.300  -3.417   1.614  1.00  0.00     0.278 HD
ENDBRANCH   1   7
BRANCH   1  20
HETATM   20  C6  UNL     1      -0.105   0.313  -1.323  1.00  0.00     0.120 C 
HETATM   21  S1  UNL     1      -1.028   1.203  -2.616  1.00  0.00    -0.087 SA
HETATM   22  S2  UNL     1      -2.982   0.763  -1.814  1.00  0.00    -0.082 SA
HETATM   23  C7  UNL     1      -2.352  -0.169  -0.373  1.00  0.00     0.159 C 
HETATM   24  C9  UNL     1      -1.003  -0.634  -0.659  1.00  0.00     0.157 C 
BRANCH  23  25
HETATM   25  C8  UNL     1      -3.268  -1.347  -0.255  1.00  0.00     0.130 A 
HETATM   26  N5  UNL     1      -3.461  -2.307  -1.178  1.00  0.00    -0.271 N 
HETATM   27  N6  UNL     1      -4.337  -3.199  -0.753  1.00  0.00    -0.227 N 
ATOM     28  H5  UNL     1      -2.994  -2.341  -2.084  1.00  0.00     0.190 HD
HETATM   29  N7  UNL     1      -4.701  -2.800   0.451  1.00  0.00    -0.227 N 
ATOM     30  H6  UNL     1      -4.665  -4.026  -1.252  1.00  0.00     0.210 HD
HETATM   31  N8  UNL     1      -4.067  -1.684   0.770  1.00  0.00    -0.271 N 
ATOM     32  H7  UNL     1      -5.373  -3.282   1.048  1.00  0.00     0.210 HD
ATOM     33  H8  UNL     1      -4.168  -1.168   1.644  1.00  0.00     0.190 HD
ENDBRANCH  23  25
BRANCH  24  34
HETATM   34  O3  UNL     1      -1.041  -1.891  -1.314  1.00  0.00    -0.393 OA
ATOM     35  H3  UNL     1      -1.624  -2.505  -0.883  1.00  0.00     0.210 HD
ENDBRANCH  24  34
ENDBRANCH   1  20
TORSDOF 5
