REMARK  9 active torsions:
REMARK  status: ('A' for Active; 'I' for Inactive)
REMARK    1  A    between atoms: C3_5  and  N2_6 
REMARK    2  A    between atoms: C6_13  and  C7_14 
REMARK       I    between atoms: C7_14  and  N4_16 
REMARK    3  A    between atoms: N4_16  and  C8_18 
REMARK    4  A    between atoms: C14_24  and  C15_25 
REMARK       I    between atoms: C15_25  and  N5_27 
REMARK    5  A    between atoms: C16_29  and  C17_30 
REMARK    6  A    between atoms: C17_30  and  C18_31 
REMARK    7  A    between atoms: C18_31  and  C19_32 
REMARK    8  A    between atoms: C19_32  and  N6_33 
REMARK    9  A    between atoms: C28_42  and  O3_43 
ROOT
HETATM    1  C8  UNL     1      -2.415   0.106   0.237  1.00  0.00     0.038 C 
HETATM    2  C9  UNL     1      -3.187   1.372   0.079  1.00  0.00     0.036 C 
HETATM    3  C10 UNL     1      -2.249   2.346   0.796  1.00  0.00    -0.002 C 
HETATM    4  C11 UNL     1      -2.137   1.614   2.131  1.00  0.00     0.012 C 
HETATM    5  C12 UNL     1      -1.777   0.237   1.617  1.00  0.00     0.015 C 
HETATM    6  C13 UNL     1      -0.285   0.283   1.326  1.00  0.00     0.027 C 
HETATM    7  C14 UNL     1      -0.296   1.074   0.016  1.00  0.00     0.052 C 
HETATM    8  C24 UNL     1      -1.283   0.177  -0.759  1.00  0.00     0.051 C 
HETATM    9  C25 UNL     1      -0.884   2.425   0.156  1.00  0.00    -0.020 C 
HETATM   10  C26 UNL     1      -0.989   3.126  -1.157  1.00  0.00     0.013 C 
HETATM   11  C27 UNL     1      -0.653   4.584  -1.087  1.00  0.00     0.032 C 
HETATM   12  C28 UNL     1      -1.181   5.280   0.146  1.00  0.00     0.118 C 
HETATM   13  C29 UNL     1      -0.855   4.582   1.424  1.00  0.00     0.032 C 
HETATM   14  C30 UNL     1      -0.053   3.319   1.067  1.00  0.00     0.013 C 
ENDROOT
BRANCH   1  15
HETATM   15  N4  UNL     1      -3.211  -1.104   0.133  1.00  0.00    -0.347 N 
HETATM   16  C7  UNL     1      -3.950  -1.421  -1.007  1.00  0.00     0.256 C 
HETATM   17  O1  UNL     1      -3.925  -0.637  -2.009  1.00  0.00    -0.267 OA
ATOM     18  H4  UNL     1      -3.231  -1.747   0.924  1.00  0.00     0.163 HD
BRANCH  16  19
HETATM   19  C6  UNL     1      -4.773  -2.604  -1.178  1.00  0.00     0.077 A 
HETATM   20  C2  UNL     1      -4.848  -3.223  -2.438  1.00  0.00     0.040 A 
HETATM   21  C1  UNL     1      -4.012  -2.674  -3.534  1.00  0.00     0.070 C 
HETATM   22  N1  UNL     1      -5.641  -4.274  -2.600  1.00  0.00    -0.195 N 
HETATM   23  C3  UNL     1      -6.371  -4.754  -1.576  1.00  0.00     0.676 A 
ATOM     24  H1  UNL     1      -5.698  -4.725  -3.513  1.00  0.00     0.184 HD
HETATM   25  N3  UNL     1      -6.309  -4.172  -0.371  1.00  0.00    -0.195 N 
HETATM   26  C4  UNL     1      -5.513  -3.083  -0.132  1.00  0.00     0.040 A 
ATOM     27  H3  UNL     1      -6.871  -4.551   0.391  1.00  0.00     0.184 HD
HETATM   28  C5  UNL     1      -5.571  -2.487   1.240  1.00  0.00     0.070 C 
BRANCH  23  29
HETATM   29  N2  UNL     1      -7.148  -5.776  -1.714  1.00  0.00    -0.234 N 
ATOM     30  H22 UNL     1      -7.195  -6.219  -2.631  1.00  0.00     0.174 HD
ATOM     31  H21 UNL     1      -7.701  -6.140  -0.938  1.00  0.00     0.174 HD
ENDBRANCH  23  29
ENDBRANCH  16  19
ENDBRANCH   1  15
BRANCH   7  32
HETATM   32  C15 UNL     1       1.023   0.956  -0.570  1.00  0.00     0.231 C 
HETATM   33  O2  UNL     1       1.768   1.940  -0.747  1.00  0.00    -0.272 OA
HETATM   34  N5  UNL     1       1.520  -0.301  -0.968  1.00  0.00    -0.340 N 
HETATM   35  C16 UNL     1       2.378  -1.035  -0.414  1.00  0.00     0.064 C 
ATOM     36  H5  UNL     1       1.126  -0.670  -1.833  1.00  0.00     0.167 HD
BRANCH  35  37
HETATM   37  C17 UNL     1       3.119  -0.769   0.844  1.00  0.00     0.046 C 
BRANCH  37  38
HETATM   38  C18 UNL     1       4.442  -1.498   0.883  1.00  0.00     0.035 C 
BRANCH  38  39
HETATM   39  C19 UNL     1       5.330  -1.029  -0.277  1.00  0.00     0.272 C 
BRANCH  39  40
HETATM   40  N6  UNL     1       6.571  -1.730  -0.249  1.00  0.00     0.088 N 
HETATM   41  C20 UNL     1       7.463  -1.310  -1.279  1.00  0.00     0.272 C 
HETATM   42  C21 UNL     1       8.759  -0.907  -0.629  1.00  0.00     0.032 C 
HETATM   43  C22 UNL     1       8.724  -1.645   0.692  1.00  0.00     0.032 C 
HETATM   44  C23 UNL     1       7.236  -1.557   1.011  1.00  0.00     0.272 C 
ENDBRANCH  39  40
ENDBRANCH  38  39
ENDBRANCH  37  38
ENDBRANCH  35  37
ENDBRANCH   7  32
BRANCH  12  45
HETATM   45  O3  UNL     1      -0.592   6.545   0.162  1.00  0.00    -0.396 OA
ATOM     46  H3  UNL     1      -0.924   6.983   0.937  1.00  0.00     0.210 HD
ENDBRANCH  12  45
TORSDOF 9
