REMARK  9 active torsions:
REMARK  status: ('A' for Active; 'I' for Inactive)
REMARK    1  A    between atoms: C2_2  and  O1_5 
REMARK    2  A    between atoms: O1_5  and  C5_6 
REMARK       I    between atoms: C5_6  and  N1_8 
REMARK    3  A    between atoms: N1_8  and  C6_10 
REMARK    4  A    between atoms: C6_10  and  C7_11 
REMARK    5  A    between atoms: C7_11  and  C8_12 
REMARK    6  A    between atoms: C8_12  and  C9_13 
REMARK    7  A    between atoms: C9_13  and  C10_14 
REMARK    8  A    between atoms: C13_20  and  C14_21 
REMARK    9  A    between atoms: C16_24  and  C17_25 
ROOT
HETATM    1  C10 UNL     1       0.330   1.231  -0.285  1.00  0.00     0.176 C 
HETATM    2  N2  UNL     1      -0.435   0.347  -1.044  1.00  0.00    -0.348 N 
ATOM      3  H2  UNL     1      -0.834   0.812  -1.860  1.00  0.00     0.163 HD
HETATM    4  C11 UNL     1      -0.805  -0.990  -0.998  1.00  0.00     0.218 C 
HETATM    5  O3  UNL     1      -0.599  -1.731  -2.034  1.00  0.00    -0.274 OA
HETATM    6  C12 UNL     1      -1.426  -1.700   0.123  1.00  0.00     0.108 C 
HETATM    7  C13 UNL     1      -2.742  -2.326  -0.094  1.00  0.00     0.006 C 
HETATM    8  C15 UNL     1      -3.691  -1.751   0.927  1.00  0.00     0.031 C 
HETATM    9  C16 UNL     1      -4.252  -0.398   0.535  1.00  0.00     0.089 C 
HETATM   10  N3  UNL     1      -3.936   0.622   1.514  1.00  0.00    -0.354 N 
ATOM     11  H3  UNL     1      -4.450   0.543   2.391  1.00  0.00     0.162 HD
HETATM   12  C21 UNL     1      -3.048   1.692   1.457  1.00  0.00     0.241 C 
HETATM   13  O4  UNL     1      -2.248   1.776   2.473  1.00  0.00    -0.271 OA
HETATM   14  C22 UNL     1      -2.830   2.735   0.502  1.00  0.00     0.179 C 
HETATM   15  C23 UNL     1      -3.425   2.688  -0.849  1.00  0.00     0.037 C 
HETATM   16  C24 UNL     1      -2.872   4.027  -1.390  1.00  0.00     0.022 C 
HETATM   17  C25 UNL     1      -1.873   4.483  -0.340  1.00  0.00     0.127 C 
HETATM   18  N4  UNL     1      -1.468   3.132   0.160  1.00  0.00    -0.337 N 
HETATM   19  C26 UNL     1      -0.246   2.455   0.278  1.00  0.00     0.243 C 
HETATM   20  O5  UNL     1       0.550   3.063   1.068  1.00  0.00    -0.271 OA
ENDROOT
BRANCH   1  21
HETATM   21  C9  UNL     1       1.151   0.470   0.739  1.00  0.00     0.035 C 
BRANCH  21  22
HETATM   22  C8  UNL     1       2.097  -0.513   0.227  1.00  0.00     0.004 C 
BRANCH  22  23
HETATM   23  C7  UNL     1       2.810  -1.150   1.423  1.00  0.00     0.020 C 
BRANCH  23  24
HETATM   24  C6  UNL     1       3.555  -0.193   2.254  1.00  0.00     0.125 C 
BRANCH  24  25
HETATM   25  N1  UNL     1       4.574   0.501   1.526  1.00  0.00    -0.337 N 
HETATM   26  C5  UNL     1       5.654  -0.172   0.912  1.00  0.00     0.361 C 
HETATM   27  O2  UNL     1       5.826  -1.420   0.947  1.00  0.00    -0.238 OA
ATOM     28  H1  UNL     1       4.518   1.516   1.448  1.00  0.00     0.164 HD
BRANCH  26  29
HETATM   29  O1  UNL     1       6.637   0.548   0.199  1.00  0.00    -0.294 OA
BRANCH  29  30
HETATM   30  C2  UNL     1       7.690  -0.168  -0.392  1.00  0.00     0.061 C 
HETATM   31  C1  UNL     1       8.511  -0.945   0.596  1.00  0.00     0.046 C 
HETATM   32  C3  UNL     1       7.164  -1.114  -1.457  1.00  0.00     0.046 C 
HETATM   33  C4  UNL     1       8.611   0.850  -1.052  1.00  0.00     0.046 C 
ENDBRANCH  29  30
ENDBRANCH  26  29
ENDBRANCH  24  25
ENDBRANCH  23  24
ENDBRANCH  22  23
ENDBRANCH  21  22
ENDBRANCH   1  21
BRANCH   7  34
HETATM   34  C14 UNL     1      -2.750  -3.828   0.053  1.00  0.00     0.091 C 
HETATM   35  S1  UNL     1      -1.626  -4.620  -1.133  1.00  0.00    -0.097 SA
ENDBRANCH   7  34
BRANCH   9  36
HETATM   36  C17 UNL     1      -5.765  -0.565   0.601  1.00  0.00     0.008 C 
HETATM   37  C18 UNL     1      -6.305  -1.634  -0.321  1.00  0.00     0.007 C 
HETATM   38  C19 UNL     1      -7.507  -0.711  -0.559  1.00  0.00     0.001 C 
HETATM   39  C20 UNL     1      -6.566   0.437  -0.168  1.00  0.00     0.007 C 
ENDBRANCH   9  36
TORSDOF 9
