REMARK  8 active torsions:
REMARK  status: ('A' for Active; 'I' for Inactive)
REMARK    1  A    between atoms: C5_5  and  C6_6 
REMARK    2  A    between atoms: C7_9  and  N2_10 
REMARK    3  A    between atoms: N2_10  and  C8_12 
REMARK    4  A    between atoms: C10_14  and  C11_15 
REMARK    5  A    between atoms: C21_30  and  N6_31 
REMARK    6  A    between atoms: C24_34  and  C25_35 
REMARK       I    between atoms: C25_35  and  N7_37 
REMARK    7  A    between atoms: N7_37  and  C26_39 
REMARK    8  A    between atoms: C26_39  and  C27_40 
ROOT
HETATM    1  C1  UNL     1       1.049  -3.533  -1.852  1.00  0.00     0.012 C 
HETATM    2  C2  UNL     1       1.118  -2.548  -1.160  1.00  0.00    -0.110 C 
HETATM    3  C3  UNL     1       1.194  -1.320  -0.325  1.00  0.00     0.098 C 
HETATM    4  C4  UNL     1      -0.185  -0.724  -0.330  1.00  0.00     0.030 C 
HETATM    5  C5  UNL     1      -0.524  -0.046  -1.638  1.00  0.00     0.038 C 
HETATM    6  C19 UNL     1       0.494   1.103  -1.724  1.00  0.00     0.013 C 
HETATM    7  C20 UNL     1       1.824   0.429  -1.977  1.00  0.00     0.038 C 
HETATM    8  C21 UNL     1       2.274  -0.448  -0.841  1.00  0.00     0.238 C 
ENDROOT
BRANCH   8   9
HETATM    9  N6  UNL     1       3.005   0.297   0.167  1.00  0.00     0.094 N 
HETATM   10  C22 UNL     1       3.984   1.108  -0.570  1.00  0.00     0.273 C 
HETATM   11  C23 UNL     1       5.275   1.276   0.212  1.00  0.00     0.044 C 
HETATM   12  C24 UNL     1       5.992  -0.056   0.144  1.00  0.00     0.081 C 
HETATM   13  C28 UNL     1       4.997  -1.118   0.511  1.00  0.00     0.044 C 
HETATM   14  C29 UNL     1       3.732  -0.516   1.079  1.00  0.00     0.273 C 
BRANCH  12  15
HETATM   15  C25 UNL     1       7.223  -0.093   0.956  1.00  0.00     0.222 C 
HETATM   16  O1  UNL     1       8.316  -0.329   0.373  1.00  0.00    -0.273 OA
HETATM   17  N7  UNL     1       7.250   0.120   2.350  1.00  0.00    -0.351 N 
ATOM     18  H7  UNL     1       6.371   0.309   2.832  1.00  0.00     0.163 HD
BRANCH  17  19
HETATM   19  C26 UNL     1       8.454   0.082   3.114  1.00  0.00     0.235 C 
BRANCH  19  20
HETATM   20  C27 UNL     1       9.469   1.080   2.739  1.00  0.00     0.191 C 
HETATM   21  O2  UNL     1       9.286   1.923   1.827  1.00  0.00    -0.647 OA
HETATM   22  O3  UNL     1      10.688   1.115   3.402  1.00  0.00    -0.647 OA
ENDBRANCH  19  20
ENDBRANCH  17  19
ENDBRANCH  12  15
ENDBRANCH   8   9
BRANCH   5  23
HETATM   23  C6  UNL     1      -1.913   0.444  -1.570  1.00  0.00     0.036 A 
HETATM   24  N1  UNL     1      -2.594   0.391  -0.405  1.00  0.00    -0.344 N 
HETATM   25  C7  UNL     1      -3.857   0.821  -0.254  1.00  0.00     0.107 A 
ATOM     26  H1  UNL     1      -2.120   0.001   0.410  1.00  0.00     0.167 HD
HETATM   27  C14 UNL     1      -4.459   1.344  -1.387  1.00  0.00     0.057 A 
HETATM   28  C15 UNL     1      -3.800   1.417  -2.595  1.00  0.00    -0.036 A 
HETATM   29  C16 UNL     1      -4.436   1.976  -3.819  1.00  0.00     0.050 C 
HETATM   30  C17 UNL     1      -2.498   0.961  -2.705  1.00  0.00     0.073 A 
HETATM   31  C18 UNL     1      -1.805   1.029  -3.983  1.00  0.00     0.102 C 
HETATM   32  N5  UNL     1      -1.270   1.074  -5.012  1.00  0.00    -0.191 NA
BRANCH  25  33
HETATM   33  N2  UNL     1      -4.519   0.737   0.997  1.00  0.00    -0.328 N 
ATOM     34  H2  UNL     1      -4.054   1.133   1.814  1.00  0.00     0.169 HD
BRANCH  33  35
HETATM   35  C8  UNL     1      -5.674   0.190   1.163  1.00  0.00     0.123 A 
HETATM   36  C9  UNL     1      -6.322   0.106   2.379  1.00  0.00     0.076 A 
HETATM   37  C10 UNL     1      -7.523  -0.536   2.179  1.00  0.00     0.033 A 
HETATM   38  N3  UNL     1      -7.601  -0.834   0.872  1.00  0.00    -0.303 N 
HETATM   39  N4  UNL     1      -6.489  -0.396   0.269  1.00  0.00    -0.285 N 
ATOM     40  H3  UNL     1      -8.377  -1.313   0.415  1.00  0.00     0.186 HD
ATOM     41  H4  UNL     1      -6.289  -0.493  -0.726  1.00  0.00     0.188 HD
BRANCH  37  42
HETATM   42  C11 UNL     1      -8.589  -0.881   3.148  1.00  0.00     0.037 A 
HETATM   43  C12 UNL     1     -10.020  -0.673   2.602  1.00  0.00     0.011 A 
HETATM   44  C13 UNL     1      -9.438  -2.067   2.855  1.00  0.00     0.011 A 
ENDBRANCH  37  42
ENDBRANCH  33  35
ENDBRANCH  25  33
ENDBRANCH   5  23
TORSDOF 8
