REMARK  8 active torsions:
REMARK  status: ('A' for Active; 'I' for Inactive)
REMARK    1  A    between atoms: N1_2  and  C2_4 
REMARK    2  A    between atoms: C4_8  and  C5_9 
REMARK    3  A    between atoms: C5_9  and  N3_10 
REMARK    4  A    between atoms: N3_10  and  C6_12 
REMARK    5  A    between atoms: C9_16  and  C10_17 
REMARK    6  A    between atoms: C10_17  and  N4_18 
REMARK    7  A    between atoms: N4_18  and  C11_19 
REMARK       I    between atoms: N4_18  and  C18_26 
REMARK    8  A    between atoms: C11_19  and  C12_20 
REMARK       I    between atoms: C18_26  and  N5_28 
ROOT
HETATM    1  C6  UNL     1       1.809   1.508  -0.286  1.00  0.00     0.115 C 
HETATM    2  C7  UNL     1       1.346   1.470   1.219  1.00  0.00     0.056 C 
HETATM    3  C8  UNL     1      -0.074   1.780   1.421  1.00  0.00     0.173 C 
HETATM    4  O1  UNL     1      -0.889   1.462   0.341  1.00  0.00    -0.359 OA
HETATM    5  C9  UNL     1      -1.564   0.234   0.778  1.00  0.00     0.284 C 
HETATM    6  O3  UNL     1      -0.545  -0.734   0.644  1.00  0.00    -0.318 OA
HETATM    7  C20 UNL     1       0.518  -0.824  -0.287  1.00  0.00     0.087 A 
HETATM    8  C21 UNL     1       0.604  -2.140  -0.680  1.00  0.00    -0.027 A 
HETATM    9  C22 UNL     1      -0.277  -3.140  -0.024  1.00  0.00     0.051 C 
HETATM   10  C23 UNL     1       1.544  -2.483  -1.605  1.00  0.00     0.017 A 
HETATM   11  C24 UNL     1       2.380  -1.514  -2.141  1.00  0.00    -0.055 A 
HETATM   12  C25 UNL     1       3.450  -1.864  -3.102  1.00  0.00     0.049 C 
HETATM   13  C26 UNL     1       2.299  -0.160  -1.743  1.00  0.00    -0.045 A 
HETATM   14  C27 UNL     1       3.046   0.851  -2.464  1.00  0.00     0.049 C 
HETATM   15  C28 UNL     1       1.377   0.126  -0.819  1.00  0.00     0.005 A 
ENDROOT
BRANCH   1  16
HETATM   16  N3  UNL     1       3.221   1.333  -0.128  1.00  0.00    -0.408 N 
ATOM     17  H3  UNL     1       3.695   0.664  -0.734  1.00  0.00     0.154 HD
BRANCH  16  18
HETATM   18  C5  UNL     1       3.999   2.042   0.829  1.00  0.00     0.175 C 
BRANCH  18  19
HETATM   19  C4  UNL     1       5.422   1.657   0.497  1.00  0.00     0.068 A 
HETATM   20  N2  UNL     1       5.966   1.969  -0.665  1.00  0.00    -0.362 N 
HETATM   21  C3  UNL     1       7.248   1.695  -0.974  1.00  0.00     0.136 A 
ATOM     22  H2  UNL     1       5.388   2.440  -1.361  1.00  0.00     0.165 HD
HETATM   23  C2  UNL     1       8.022   1.064  -0.022  1.00  0.00     0.117 A 
HETATM   24  N7  UNL     1       7.504   0.735   1.172  1.00  0.00    -0.328 N 
HETATM   25  C29 UNL     1       6.188   1.034   1.442  1.00  0.00     0.142 A 
ATOM     26  H7  UNL     1       8.080   0.268   1.872  1.00  0.00     0.168 HD
HETATM   27  N6  UNL     1       5.685   0.613   2.700  1.00  0.00    -0.081 NA
BRANCH  23  28
HETATM   28  N1  UNL     1       9.233   0.746  -0.338  1.00  0.00    -0.380 N 
HETATM   29  C1  UNL     1      10.189   0.065   0.525  1.00  0.00     0.147 C 
ATOM     30  H1  UNL     1       9.548   0.994  -1.276  1.00  0.00     0.160 HD
ENDBRANCH  23  28
ENDBRANCH  18  19
ENDBRANCH  16  18
ENDBRANCH   1  16
BRANCH   5  31
HETATM   31  C10 UNL     1      -2.767   0.150  -0.071  1.00  0.00     0.188 C 
BRANCH  31  32
HETATM   32  N4  UNL     1      -3.750  -0.863   0.123  1.00  0.00    -0.329 N 
HETATM   33  C18 UNL     1      -3.860  -2.009  -0.630  1.00  0.00     0.318 C 
HETATM   34  O2  UNL     1      -3.157  -2.126  -1.697  1.00  0.00    -0.247 OA
HETATM   35  N5  UNL     1      -4.700  -3.132  -0.336  1.00  0.00    -0.347 N 
HETATM   36  C19 UNL     1      -4.688  -4.277  -1.260  1.00  0.00     0.151 C 
ATOM     37  H5  UNL     1      -5.292  -3.138   0.494  1.00  0.00     0.163 HD
BRANCH  32  38
HETATM   38  C11 UNL     1      -4.797  -0.570   1.151  1.00  0.00     0.132 C 
BRANCH  38  39
HETATM   39  C12 UNL     1      -5.675   0.483   0.630  1.00  0.00     0.004 C 
HETATM   40  C13 UNL     1      -6.376   0.163  -0.634  1.00  0.00     0.006 C 
HETATM   41  C14 UNL     1      -7.751   0.832  -0.692  1.00  0.00     0.000 C 
HETATM   42  C15 UNL     1      -7.679   2.223  -0.146  1.00  0.00     0.000 C 
HETATM   43  C16 UNL     1      -7.113   2.363   1.220  1.00  0.00     0.000 C 
HETATM   44  C17 UNL     1      -6.633   0.984   1.713  1.00  0.00     0.006 C 
ENDBRANCH  38  39
ENDBRANCH  32  38
ENDBRANCH  31  32
ENDBRANCH   5  31
TORSDOF 8
