REMARK  8 active torsions:
REMARK  status: ('A' for Active; 'I' for Inactive)
REMARK    1  A    between atoms: C1_2  and  C2_4 
REMARK    2  A    between atoms: C2_4  and  C3_5 
REMARK       I    between atoms: N1_8  and  C6_9 
REMARK    3  A    between atoms: C6_9  and  C7_11 
REMARK    4  A    between atoms: N2_15  and  C11_16 
REMARK    5  A    between atoms: C11_16  and  O4_17 
REMARK    6  A    between atoms: C11_16  and  C12_19 
REMARK    7  A    between atoms: C13_22  and  C14_23 
REMARK    8  A    between atoms: C15_24  and  C16_25 
ROOT
HETATM    1  C11 UNL     1      -0.814   1.486  -0.657  1.00  0.00     0.293 C 
ENDROOT
BRANCH   1   2
HETATM    2  N2  UNL     1       0.288   0.781  -0.113  1.00  0.00    -0.341 N 
HETATM    3  C10 UNL     1       0.143   0.057   1.062  1.00  0.00     0.066 C 
HETATM    4  C9  UNL     1       1.253   0.109   2.066  1.00  0.00     0.046 C 
HETATM    5  C8  UNL     1       2.415   0.971   1.675  1.00  0.00     0.019 C 
HETATM    6  C7  UNL     1       3.213   0.357   0.535  1.00  0.00     0.083 C 
HETATM    7  C26 UNL     1       2.303  -0.504  -0.326  1.00  0.00     0.059 C 
HETATM    8  C25 UNL     1       1.304   0.401  -0.994  1.00  0.00     0.067 C 
BRANCH   6   9
HETATM    9  C6  UNL     1       4.297  -0.492   1.061  1.00  0.00     0.224 C 
HETATM   10  N1  UNL     1       5.399  -0.956   0.313  1.00  0.00    -0.352 N 
HETATM   11  C5  UNL     1       5.562  -0.565  -1.063  1.00  0.00     0.126 C 
HETATM   12  C27 UNL     1       6.385  -1.840   0.881  1.00  0.00     0.126 C 
HETATM   13  C4  UNL     1       6.939   0.068  -1.171  1.00  0.00     0.025 C 
HETATM   14  C3  UNL     1       8.055  -0.743  -0.674  1.00  0.00    -0.002 C 
HETATM   15  C28 UNL     1       7.790  -1.576   0.535  1.00  0.00     0.025 C 
HETATM   16  O3  UNL     1       4.228  -0.835   2.288  1.00  0.00    -0.273 OA
BRANCH  14  17
HETATM   17  C2  UNL     1       9.244   0.129  -0.370  1.00  0.00     0.117 C 
BRANCH  17  18
HETATM   18  C1  UNL     1       9.007   1.141   0.667  1.00  0.00     0.172 C 
HETATM   19  O1  UNL     1       7.949   1.274   1.306  1.00  0.00    -0.648 OA
HETATM   20  O2  UNL     1      10.046   2.023   0.962  1.00  0.00    -0.648 OA
ENDBRANCH  17  18
ENDBRANCH  14  17
ENDBRANCH   6   9
ENDBRANCH   1   2
BRANCH   1  21
HETATM   21  O4  UNL     1      -1.193   2.568   0.176  1.00  0.00    -0.369 OA
ATOM     22  H4  UNL     1      -1.932   3.041  -0.189  1.00  0.00     0.212 HD
ENDBRANCH   1  21
BRANCH   1  23
HETATM   23  C12 UNL     1      -2.047   0.617  -0.747  1.00  0.00     0.147 A 
HETATM   24  N3  UNL     1      -3.298   0.937  -0.397  1.00  0.00    -0.326 N 
HETATM   25  C13 UNL     1      -4.114  -0.126  -0.622  1.00  0.00     0.134 A 
ATOM     26  H3  UNL     1      -3.593   1.838  -0.020  1.00  0.00     0.169 HD
HETATM   27  N5  UNL     1      -3.297  -1.070  -1.112  1.00  0.00    -0.283 N 
HETATM   28  N6  UNL     1      -2.038  -0.637  -1.195  1.00  0.00    -0.284 N 
ATOM     29  H5  UNL     1      -3.601  -2.004  -1.387  1.00  0.00     0.188 HD
ATOM     30  H6  UNL     1      -1.231  -1.161  -1.533  1.00  0.00     0.188 HD
BRANCH  25  31
HETATM   31  C14 UNL     1      -5.538  -0.224  -0.384  1.00  0.00     0.041 A 
HETATM   32  C15 UNL     1      -6.158  -0.616   0.780  1.00  0.00     0.028 A 
HETATM   33  N4  UNL     1      -7.494  -0.571   0.604  1.00  0.00    -0.361 N 
HETATM   34  C19 UNL     1      -7.778  -0.152  -0.668  1.00  0.00     0.016 A 
ATOM     35  H4  UNL     1      -8.188  -0.813   1.311  1.00  0.00     0.165 HD
HETATM   36  C20 UNL     1      -6.550   0.057  -1.262  1.00  0.00    -0.020 A 
HETATM   37  C24 UNL     1      -9.033   0.079  -1.417  1.00  0.00     0.057 C 
HETATM   38  C21 UNL     1      -6.568   0.527  -2.670  1.00  0.00     0.042 C 
HETATM   39  C22 UNL     1      -7.563   1.697  -2.686  1.00  0.00     0.005 C 
HETATM   40  C23 UNL     1      -8.933   1.303  -2.258  1.00  0.00     0.006 C 
BRANCH  32  41
HETATM   41  C16 UNL     1      -5.465  -1.025   2.024  1.00  0.00     0.036 A 
HETATM   42  C17 UNL     1      -6.370  -1.276   3.223  1.00  0.00     0.011 A 
HETATM   43  C18 UNL     1      -5.707  -2.401   2.541  1.00  0.00     0.011 A 
ENDBRANCH  32  41
ENDBRANCH  25  31
ENDBRANCH   1  23
TORSDOF 8
