REMARK  8 active torsions:
REMARK  status: ('A' for Active; 'I' for Inactive)
REMARK    1  A    between atoms: C2_2  and  C3_3 
REMARK       I    between atoms: C3_3  and  N1_5 
REMARK    2  A    between atoms: N1_5  and  C4_7 
REMARK    3  A    between atoms: C4_7  and  C6_9 
REMARK    4  A    between atoms: C6_9  and  N2_10 
REMARK    5  A    between atoms: C10_14  and  N3_15 
REMARK       I    between atoms: N3_15  and  C11_17 
REMARK    6  A    between atoms: C11_17  and  C12_19 
REMARK    7  A    between atoms: C13_22  and  N5_23 
REMARK    8  A    between atoms: N7_30  and  C16_31 
ROOT
HETATM    1  C12 UNL     1      -0.833  -0.065  -1.082  1.00  0.00     0.177 A 
HETATM    2  N4  UNL     1      -0.426  -1.324  -0.866  1.00  0.00    -0.324 N 
ATOM      3  H4  UNL     1       0.574  -1.511  -0.797  1.00  0.00     0.169 HD
HETATM    4  C13 UNL     1      -1.303  -2.369  -0.735  1.00  0.00     0.110 A 
HETATM    5  C14 UNL     1      -2.642  -2.107  -0.831  1.00  0.00     0.029 A 
HETATM    6  C15 UNL     1      -3.028  -0.787  -1.054  1.00  0.00     0.115 A 
HETATM    7  N6  UNL     1      -2.141   0.207  -1.178  1.00  0.00    -0.324 N 
ATOM      8  H6  UNL     1      -2.458   1.162  -1.344  1.00  0.00     0.169 HD
HETATM    9  N7  UNL     1      -4.414  -0.467  -1.138  1.00  0.00    -0.362 N 
HETATM   10  C25 UNL     1      -5.319  -1.495  -1.717  1.00  0.00     0.125 C 
HETATM   11  C26 UNL     1      -4.811  -2.855  -1.674  1.00  0.00     0.025 C 
HETATM   12  C27 UNL     1      -3.693  -3.183  -0.736  1.00  0.00     0.048 C 
ENDROOT
BRANCH   1  13
HETATM   13  C11 UNL     1       0.143   1.003  -1.211  1.00  0.00     0.286 C 
HETATM   14  N3  UNL     1       1.542   0.755  -1.123  1.00  0.00    -0.350 N 
ATOM     15  H3  UNL     1       1.863  -0.200  -0.965  1.00  0.00     0.163 HD
HETATM   16  O2  UNL     1      -0.281   2.172  -1.404  1.00  0.00    -0.264 OA
BRANCH  14  17
HETATM   17  C10 UNL     1       2.531   1.814  -1.250  1.00  0.00     0.086 C 
HETATM   18  C9  UNL     1       3.338   1.674  -2.505  1.00  0.00     0.030 C 
HETATM   19  C8  UNL     1       4.781   1.427  -2.151  1.00  0.00     0.046 C 
HETATM   20  C7  UNL     1       4.919   0.078  -1.453  1.00  0.00     0.058 C 
HETATM   21  N2  UNL     1       4.973   0.173  -0.067  1.00  0.00    -0.388 N 
HETATM   22  C29 UNL     1       3.864   0.747   0.616  1.00  0.00     0.124 C 
HETATM   23  C28 UNL     1       3.313   2.011   0.002  1.00  0.00     0.045 C 
BRANCH  21  24
HETATM   24  C6  UNL     1       5.484  -0.939   0.635  1.00  0.00     0.174 C 
BRANCH  24  25
HETATM   25  C4  UNL     1       6.937  -1.250   0.552  1.00  0.00     0.004 C 
HETATM   26  C5  UNL     1       7.418  -1.973  -0.653  1.00  0.00     0.065 C 
BRANCH  25  27
HETATM   27  N1  UNL     1       7.776  -0.154   0.996  1.00  0.00    -0.330 N 
HETATM   28  C3  UNL     1       8.452  -0.096   2.234  1.00  0.00     0.244 C 
HETATM   29  O1  UNL     1       8.351  -1.041   3.048  1.00  0.00    -0.268 OA
ATOM     30  H1  UNL     1       7.887   0.638   0.363  1.00  0.00     0.168 HD
BRANCH  28  31
HETATM   31  C2  UNL     1       9.259   1.049   2.563  1.00  0.00     0.064 C 
HETATM   32  C1  UNL     1       9.887   1.103   3.718  1.00  0.00     0.017 C 
ENDBRANCH  28  31
ENDBRANCH  25  27
ENDBRANCH  24  25
ENDBRANCH  21  24
ENDBRANCH  14  17
ENDBRANCH   1  13
BRANCH   4  33
HETATM   33  N5  UNL     1      -0.874  -3.550  -0.526  1.00  0.00    -0.385 N 
ATOM     34  H52 UNL     1       0.125  -3.745  -0.454  1.00  0.00     0.157 HD
ATOM     35  H51 UNL     1      -1.527  -4.328  -0.429  1.00  0.00     0.157 HD
ENDBRANCH   4  33
BRANCH   9  36
HETATM   36  C16 UNL     1      -5.012   0.710  -0.751  1.00  0.00     0.090 C 
HETATM   37  C17 UNL     1      -4.539   1.904  -0.147  1.00  0.00     0.026 C 
HETATM   38  C18 UNL     1      -5.889   2.627   0.187  1.00  0.00     0.007 C 
HETATM   39  C19 UNL     1      -6.370   1.591   1.094  1.00  0.00    -0.008 C 
HETATM   40  C20 UNL     1      -7.763   1.551   1.534  1.00  0.00     0.005 C 
HETATM   41  C24 UNL     1      -6.120   0.317   0.249  1.00  0.00     0.012 C 
HETATM   42  C21 UNL     1      -7.978   0.143   2.115  1.00  0.00     0.000 C 
HETATM   43  C22 UNL     1      -6.626  -0.459   2.520  1.00  0.00     0.000 C 
HETATM   44  C23 UNL     1      -5.749  -0.678   1.281  1.00  0.00     0.007 C 
ENDBRANCH   9  36
TORSDOF 8
