REMARK  10 active torsions:
REMARK  status: ('A' for Active; 'I' for Inactive)
REMARK    1  A    between atoms: C2_2  and  C3_3 
REMARK    2  A    between atoms: C3_3  and  C4_4 
REMARK    3  A    between atoms: C4_4  and  C5_5 
REMARK    4  A    between atoms: C8_10  and  C9_11 
REMARK    5  A    between atoms: C9_11  and  C11_13 
REMARK    6  A    between atoms: C14_18  and  C15_19 
REMARK    7  A    between atoms: C15_19  and  C16_20 
REMARK    8  A    between atoms: C23_30  and  C24_31 
REMARK    9  A    between atoms: C24_31  and  C26_33 
REMARK   10  A    between atoms: C28_35  and  O4_36 
ROOT
HETATM    1  C5  UNL     1       3.808   0.623  -0.114  1.00  0.00     0.093 C 
HETATM    2  C6  UNL     1       2.936   1.753  -0.560  1.00  0.00     0.136 C 
HETATM    3  C7  UNL     1       1.578   1.349  -1.001  1.00  0.00     0.261 C 
HETATM    4  O1  UNL     1       1.509   0.472  -1.901  1.00  0.00    -0.265 OA
HETATM    5  O2  UNL     1       0.496   1.950  -0.411  1.00  0.00    -0.314 OA
HETATM    6  C8  UNL     1       0.209   2.113   0.939  1.00  0.00     0.153 C 
HETATM    7  C13 UNL     1      -0.673   1.039   1.536  1.00  0.00     0.147 C 
HETATM    8  N1  UNL     1      -1.175   0.186   0.512  1.00  0.00    -0.407 N 
ATOM      9  H1  UNL     1      -0.583  -0.180  -0.234  1.00  0.00     0.154 HD
HETATM   10  C14 UNL     1      -2.589  -0.125   0.606  1.00  0.00     0.169 C 
HETATM   11  C22 UNL     1      -2.852  -1.573   0.810  1.00  0.00     0.240 C 
HETATM   12  O3  UNL     1      -3.926  -1.806   1.488  1.00  0.00    -0.271 OA
HETATM   13  N2  UNL     1      -2.098  -2.652   0.366  1.00  0.00    -0.347 N 
ATOM     14  H2  UNL     1      -2.605  -3.337  -0.194  1.00  0.00     0.163 HD
HETATM   15  C23 UNL     1      -0.693  -2.945   0.584  1.00  0.00     0.163 C 
HETATM   16  C28 UNL     1       0.147  -2.772  -0.612  1.00  0.00     0.137 C 
HETATM   17  N3  UNL     1       1.509  -2.867  -0.785  1.00  0.00    -0.355 N 
HETATM   18  C29 UNL     1       2.000  -3.296  -2.121  1.00  0.00     0.152 C 
HETATM   19  C30 UNL     1       2.624  -2.620   0.096  1.00  0.00     0.173 C 
HETATM   20  C31 UNL     1       2.339  -1.976   1.393  1.00  0.00     0.042 C 
HETATM   21  C32 UNL     1       3.721  -1.900  -0.629  1.00  0.00     0.240 C 
HETATM   22  O5  UNL     1       4.710  -2.651  -0.968  1.00  0.00    -0.271 OA
HETATM   23  N4  UNL     1       3.774  -0.544  -0.962  1.00  0.00    -0.354 N 
ATOM     24  H4  UNL     1       3.791  -0.348  -1.963  1.00  0.00     0.162 HD
ENDROOT
BRANCH  10  25
HETATM   25  C15 UNL     1      -3.228   0.391  -0.658  1.00  0.00     0.039 C 
BRANCH  25  26
HETATM   26  C16 UNL     1      -4.673   0.194  -0.808  1.00  0.00    -0.012 C 
HETATM   27  C17 UNL     1      -5.059   0.797  -2.168  1.00  0.00     0.005 C 
HETATM   28  C18 UNL     1      -6.535   1.124  -2.204  1.00  0.00     0.000 C 
HETATM   29  C19 UNL     1      -6.811   2.384  -1.388  1.00  0.00     0.000 C 
HETATM   30  C20 UNL     1      -5.783   2.395  -0.276  1.00  0.00     0.000 C 
HETATM   31  C21 UNL     1      -5.430   1.011   0.220  1.00  0.00     0.005 C 
ENDBRANCH  25  26
ENDBRANCH  10  25
BRANCH   6  32
HETATM   32  C9  UNL     1      -0.450   3.496   1.064  1.00  0.00     0.012 C 
HETATM   33  C10 UNL     1       0.552   4.542   0.545  1.00  0.00     0.012 C 
BRANCH  32  34
HETATM   34  C11 UNL     1      -0.700   3.888   2.499  1.00  0.00     0.002 C 
HETATM   35  C12 UNL     1      -1.347   5.277   2.429  1.00  0.00     0.005 C 
ENDBRANCH  32  34
ENDBRANCH   6  32
BRANCH  15  36
HETATM   36  C24 UNL     1      -0.619  -4.268   1.265  1.00  0.00     0.012 C 
HETATM   37  C25 UNL     1      -1.357  -4.192   2.628  1.00  0.00     0.012 C 
BRANCH  36  38
HETATM   38  C26 UNL     1      -1.189  -5.446   0.585  1.00  0.00     0.002 C 
HETATM   39  C27 UNL     1      -0.607  -5.823  -0.742  1.00  0.00     0.005 C 
ENDBRANCH  36  38
ENDBRANCH  15  36
BRANCH  16  40
HETATM   40  O4  UNL     1      -0.532  -2.477  -1.687  1.00  0.00    -0.348 OA
ATOM     41  H4  UNL     1       0.010  -2.365  -2.459  1.00  0.00     0.219 HD
ENDBRANCH  16  40
BRANCH   1  42
HETATM   42  C4  UNL     1       5.249   1.114  -0.112  1.00  0.00     0.026 C 
BRANCH  42  43
HETATM   43  C3  UNL     1       5.739   1.556  -1.451  1.00  0.00     0.002 C 
BRANCH  43  44
HETATM   44  C2  UNL     1       7.192   2.003  -1.352  1.00  0.00    -0.004 C 
HETATM   45  C1  UNL     1       8.031   0.831  -0.867  1.00  0.00     0.005 C 
ENDBRANCH  43  44
ENDBRANCH  42  43
ENDBRANCH   1  42
TORSDOF 10
