REMARK  10 active torsions:
REMARK  status: ('A' for Active; 'I' for Inactive)
REMARK       I    between atoms: C2_2  and  N1_4 
REMARK    1  A    between atoms: N1_4  and  C3_6 
REMARK    2  A    between atoms: C9_17  and  C10_18 
REMARK    3  A    between atoms: C12_23  and  C13_24 
REMARK    4  A    between atoms: C13_24  and  C14_25 
REMARK    5  A    between atoms: C14_25  and  C15_26 
REMARK    6  A    between atoms: C15_26  and  C16_27 
REMARK    7  A    between atoms: C16_27  and  C17_28 
REMARK    8  A    between atoms: C17_28  and  C18_29 
REMARK    9  A    between atoms: C18_29  and  C19_30 
REMARK   10  A    between atoms: C19_30  and  C20_31 
ROOT
HETATM    1  C10 UNL     1      -1.928   1.090  -0.854  1.00  0.00     0.216 C 
HETATM    2  C11 UNL     1      -1.494   1.194   0.576  1.00  0.00     0.236 C 
HETATM    3  O4  UNL     1      -1.545   2.302   1.153  1.00  0.00    -0.272 OA
HETATM    4  N3  UNL     1      -1.035   0.008   1.223  1.00  0.00    -0.354 N 
ATOM      5  H3  UNL     1      -1.227  -0.121   2.216  1.00  0.00     0.162 HD
HETATM    6  C12 UNL     1      -0.302  -1.020   0.506  1.00  0.00     0.100 C 
HETATM    7  C25 UNL     1      -0.895  -1.314  -0.845  1.00  0.00     0.042 C 
HETATM    8  C26 UNL     1       0.110  -2.023  -1.738  1.00  0.00     0.019 C 
HETATM    9  C27 UNL     1      -0.730  -2.992  -2.586  1.00  0.00     0.001 C 
HETATM   10  C28 UNL     1      -1.610  -3.565  -1.470  1.00  0.00     0.001 C 
HETATM   11  C29 UNL     1      -2.012  -2.338  -0.727  1.00  0.00     0.019 C 
HETATM   12  C30 UNL     1      -1.428  -0.096  -1.528  1.00  0.00     0.158 C 
HETATM   13  O5  UNL     1      -1.452  -0.081  -2.767  1.00  0.00    -0.296 OA
ENDROOT
BRANCH   1  14
HETATM   14  C9  UNL     1      -3.433   1.191  -0.793  1.00  0.00     0.112 A 
HETATM   15  N2  UNL     1      -4.031   1.963  -1.628  1.00  0.00    -0.268 N 
HETATM   16  S1  UNL     1      -5.733   2.180  -1.678  1.00  0.00     0.266 S 
ATOM     17  H2  UNL     1      -3.461   2.477  -2.300  1.00  0.00     0.180 HD
HETATM   18  C7  UNL     1      -6.408   1.169  -0.417  1.00  0.00     0.108 A 
HETATM   19  O2  UNL     1      -6.037   3.622  -1.355  1.00  0.00    -0.200 OA
HETATM   20  O3  UNL     1      -6.292   1.796  -3.022  1.00  0.00    -0.200 OA
HETATM   21  C6  UNL     1      -5.552   0.426   0.353  1.00  0.00     0.057 A 
HETATM   22  C8  UNL     1      -7.775   1.122  -0.199  1.00  0.00     0.057 A 
HETATM   23  C5  UNL     1      -6.141  -0.361   1.345  1.00  0.00     0.033 A 
HETATM   24  N5  UNL     1      -4.167   0.453   0.158  1.00  0.00    -0.343 N 
HETATM   25  C4  UNL     1      -7.480  -0.436   1.591  1.00  0.00     0.032 A 
HETATM   26  C3  UNL     1      -8.338   0.337   0.787  1.00  0.00     0.036 A 
ATOM     27  H5  UNL     1      -3.618  -0.137   0.784  1.00  0.00     0.167 HD
BRANCH  26  28
HETATM   28  N1  UNL     1      -9.708   0.271   1.059  1.00  0.00    -0.327 N 
HETATM   29  C2  UNL     1     -10.729   0.696   0.219  1.00  0.00     0.218 C 
HETATM   30  C1  UNL     1     -12.187   0.585   0.619  1.00  0.00     0.117 C 
HETATM   31  O1  UNL     1     -10.537   1.191  -0.901  1.00  0.00    -0.274 OA
ATOM     32  H1  UNL     1      -9.983  -0.126   1.957  1.00  0.00     0.169 HD
ENDBRANCH  26  28
ENDBRANCH   1  14
BRANCH   6  33
HETATM   33  C13 UNL     1       1.177  -0.588   0.414  1.00  0.00     0.026 C 
BRANCH  33  34
HETATM   34  C14 UNL     1       1.723  -0.418   1.782  1.00  0.00     0.002 C 
BRANCH  34  35
HETATM   35  C15 UNL     1       3.102   0.039   1.943  1.00  0.00     0.000 C 
BRANCH  35  36
HETATM   36  C16 UNL     1       4.294  -0.670   1.502  1.00  0.00     0.000 C 
BRANCH  36  37
HETATM   37  C17 UNL     1       4.557  -0.911   0.073  1.00  0.00     0.000 C 
BRANCH  37  38
HETATM   38  C18 UNL     1       4.660   0.299  -0.775  1.00  0.00     0.000 C 
BRANCH  38  39
HETATM   39  C19 UNL     1       5.711   1.297  -0.532  1.00  0.00     0.005 C 
BRANCH  39  40
HETATM   40  C20 UNL     1       7.128   0.932  -0.739  1.00  0.00    -0.011 C 
HETATM   41  C21 UNL     1       7.726  -0.158   0.051  1.00  0.00     0.032 C 
HETATM   42  C22 UNL     1       9.227   0.127   0.324  1.00  0.00     0.232 C 
HETATM   43  N4  UNL     1       9.831   0.731  -0.843  1.00  0.00    -0.075 N 
HETATM   44  C23 UNL     1       9.319   2.089  -1.023  1.00  0.00     0.232 C 
ATOM     45  H42 UNL     1      10.850   0.709  -0.802  1.00  0.00     0.277 HD
ATOM     46  H41 UNL     1       9.704   0.160  -1.679  1.00  0.00     0.277 HD
HETATM   47  C24 UNL     1       7.944   2.219  -0.455  1.00  0.00     0.032 C 
ENDBRANCH  39  40
ENDBRANCH  38  39
ENDBRANCH  37  38
ENDBRANCH  36  37
ENDBRANCH  35  36
ENDBRANCH  34  35
ENDBRANCH  33  34
ENDBRANCH   6  33
TORSDOF 10
