REMARK  10 active torsions:
REMARK  status: ('A' for Active; 'I' for Inactive)
REMARK    1  A    between atoms: C2_2  and  C4_4 
REMARK    2  A    between atoms: C4_4  and  C5_5 
REMARK    3  A    between atoms: C5_5  and  C6_6 
REMARK    4  A    between atoms: C10_15  and  C11_16 
REMARK    5  A    between atoms: C11_16  and  C12_17 
REMARK    6  A    between atoms: C12_17  and  N3_18 
REMARK    7  A    between atoms: N3_18  and  C13_20 
REMARK    8  A    between atoms: N4_29  and  C21_30 
REMARK    9  A    between atoms: C21_30  and  C22_31 
REMARK   10  A    between atoms: C27_36  and  O2_37 
ROOT
HETATM    1  C6  UNL     1      -1.273   1.918   1.639  1.00  0.00     0.134 C 
HETATM    2  N1  UNL     1      -2.441   2.393   2.436  1.00  0.00    -0.339 N 
ATOM      3  H1  UNL     1      -3.395   2.032   2.443  1.00  0.00     0.164 HD
HETATM    4  C7  UNL     1      -1.894   3.480   3.188  1.00  0.00     0.170 C 
HETATM    5  S1  UNL     1      -2.829   4.631   3.923  1.00  0.00    -0.041 SA
HETATM    6  N2  UNL     1      -0.477   3.387   3.182  1.00  0.00    -0.358 N 
ATOM      7  H2  UNL     1       0.214   4.104   3.401  1.00  0.00     0.162 HD
HETATM    8  C8  UNL     1      -0.267   2.014   2.785  1.00  0.00     0.134 C 
HETATM    9  C9  UNL     1       1.105   1.623   2.506  1.00  0.00     0.044 C 
HETATM   10  C10 UNL     1       1.145   0.301   1.781  1.00  0.00     0.085 C 
HETATM   11  C20 UNL     1      -0.154  -0.239   1.375  1.00  0.00     0.230 C 
HETATM   12  O1  UNL     1      -0.187  -1.472   1.014  1.00  0.00    -0.273 OA
HETATM   13  N4  UNL     1      -1.384   0.525   1.365  1.00  0.00    -0.301 N 
ENDROOT
BRANCH  13  14
HETATM   14  C21 UNL     1      -2.560  -0.186   1.229  1.00  0.00     0.083 C 
BRANCH  14  15
HETATM   15  C22 UNL     1      -3.282  -0.677   0.075  1.00  0.00     0.029 A 
HETATM   16  C23 UNL     1      -4.559  -1.436   0.610  1.00  0.00     0.025 C 
HETATM   17  C24 UNL     1      -4.157  -2.794   1.069  1.00  0.00     0.018 C 
HETATM   18  C25 UNL     1      -5.411  -3.574   1.420  1.00  0.00     0.010 C 
HETATM   19  C28 UNL     1      -3.505  -3.525  -0.078  1.00  0.00     0.154 C 
HETATM   20  C26 UNL     1      -5.225  -4.960   0.846  1.00  0.00     0.035 C 
HETATM   21  C27 UNL     1      -4.384  -4.703  -0.382  1.00  0.00     0.147 C 
HETATM   22  O3  UNL     1      -3.442  -2.725  -1.219  1.00  0.00    -0.376 OA
HETATM   23  C29 UNL     1      -2.758  -1.547  -0.983  1.00  0.00     0.145 A 
HETATM   24  C30 UNL     1      -3.508  -0.203  -1.272  1.00  0.00    -0.005 A 
HETATM   25  C31 UNL     1      -2.746   0.800  -2.064  1.00  0.00     0.019 C 
HETATM   26  C32 UNL     1      -4.874  -0.481  -1.964  1.00  0.00     0.019 C 
BRANCH  21  27
HETATM   27  O2  UNL     1      -5.174  -4.527  -1.489  1.00  0.00    -0.393 OA
ATOM     28  H2  UNL     1      -4.645  -4.365  -2.261  1.00  0.00     0.210 HD
ENDBRANCH  21  27
ENDBRANCH  14  15
ENDBRANCH  13  14
BRANCH   1  29
HETATM   29  C5  UNL     1      -1.155   2.942   0.636  1.00  0.00     0.057 C 
BRANCH  29  30
HETATM   30  C4  UNL     1      -0.159   3.025  -0.403  1.00  0.00     0.008 C 
BRANCH  30  31
HETATM   31  C2  UNL     1      -0.432   4.266  -1.261  1.00  0.00    -0.023 C 
HETATM   32  C1  UNL     1       0.605   4.370  -2.353  1.00  0.00     0.009 C 
HETATM   33  C3  UNL     1      -0.404   5.534  -0.464  1.00  0.00     0.009 C 
ENDBRANCH  30  31
ENDBRANCH  29  30
ENDBRANCH   1  29
BRANCH  10  34
HETATM   34  C11 UNL     1       2.241   0.271   0.734  1.00  0.00     0.058 C 
BRANCH  34  35
HETATM   35  C12 UNL     1       2.322  -1.006  -0.047  1.00  0.00     0.057 C 
BRANCH  35  36
HETATM   36  N3  UNL     1       3.321  -1.097  -1.012  1.00  0.00    -0.398 N 
ATOM     37  H3  UNL     1       3.026  -1.107  -1.988  1.00  0.00     0.159 HD
BRANCH  36  38
HETATM   38  C13 UNL     1       4.679  -1.175  -0.761  1.00  0.00     0.080 C 
HETATM   39  C14 UNL     1       5.138  -2.364   0.054  1.00  0.00     0.025 C 
HETATM   40  C15 UNL     1       6.655  -2.378   0.007  1.00  0.00     0.002 C 
HETATM   41  C16 UNL     1       7.201  -2.102  -1.353  1.00  0.00     0.000 C 
HETATM   42  C17 UNL     1       7.213  -0.677  -1.777  1.00  0.00     0.000 C 
HETATM   43  C18 UNL     1       6.715   0.316  -0.791  1.00  0.00     0.002 C 
HETATM   44  C19 UNL     1       5.321   0.064  -0.263  1.00  0.00     0.025 C 
ENDBRANCH  36  38
ENDBRANCH  35  36
ENDBRANCH  34  35
ENDBRANCH  10  34
TORSDOF 10
