REMARK  10 active torsions:
REMARK  status: ('A' for Active; 'I' for Inactive)
REMARK    1  A    between atoms: C1_2  and  C2_5 
REMARK    2  A    between atoms: C4_7  and  N1_8 
REMARK    3  A    between atoms: C7_12  and  O1_13 
REMARK    4  A    between atoms: O1_13  and  C8_14 
REMARK    5  A    between atoms: C8_14  and  C9_15 
REMARK    6  A    between atoms: C12_20  and  O2_21 
REMARK    7  A    between atoms: O2_21  and  C13_22 
REMARK    8  A    between atoms: C13_22  and  C14_23 
REMARK    9  A    between atoms: C17_30  and  N5_31 
REMARK   10  A    between atoms: N5_31  and  C18_33 
ROOT
HETATM    1  N1  UNL     1       1.095   1.178   0.157  1.00  0.00    -0.328 N 
ATOM      2  H1  UNL     1       1.216   2.188   0.076  1.00  0.00     0.169 HD
HETATM    3  C5  UNL     1      -0.095   0.846  -0.023  1.00  0.00     0.113 A 
HETATM    4  C6  UNL     1      -1.057   1.847  -0.297  1.00  0.00     0.104 A 
HETATM    5  C7  UNL     1      -2.373   1.546  -0.501  1.00  0.00     0.148 A 
HETATM    6  N2  UNL     1      -2.746   0.266  -0.435  1.00  0.00    -0.302 N 
ATOM      7  H2  UNL     1      -3.724   0.015  -0.582  1.00  0.00     0.171 HD
HETATM    8  C12 UNL     1      -1.825  -0.714  -0.171  1.00  0.00     0.227 A 
HETATM    9  N3  UNL     1      -0.533  -0.420   0.029  1.00  0.00    -0.308 N 
ATOM     10  H3  UNL     1       0.128  -1.172   0.224  1.00  0.00     0.171 HD
ENDROOT
BRANCH   1  11
HETATM   11  C4  UNL     1       2.284   0.551   0.434  1.00  0.00     0.124 A 
HETATM   12  C3  UNL     1       2.489  -0.256   1.550  1.00  0.00     0.084 A 
HETATM   13  C2  UNL     1       3.706  -0.858   1.831  1.00  0.00     0.136 A 
HETATM   14  N6  UNL     1       4.724  -0.647   0.978  1.00  0.00    -0.187 N 
HETATM   15  C17 UNL     1       4.587   0.113  -0.103  1.00  0.00     0.680 A 
ATOM     16  H6  UNL     1       5.627  -1.083   1.166  1.00  0.00     0.184 HD
HETATM   17  N4  UNL     1       3.383   0.686  -0.353  1.00  0.00    -0.177 N 
ATOM     18  H4  UNL     1       3.297   1.259  -1.192  1.00  0.00     0.186 HD
BRANCH  13  19
HETATM   19  C1  UNL     1       3.887  -1.723   3.050  1.00  0.00     0.433 C 
HETATM   20  F1  UNL     1       4.935  -2.594   2.932  1.00  0.00    -0.165 F 
HETATM   21  F2  UNL     1       4.149  -0.878   4.114  1.00  0.00    -0.165 F 
HETATM   22  F3  UNL     1       2.687  -2.344   3.282  1.00  0.00    -0.165 F 
ENDBRANCH  13  19
BRANCH  15  23
HETATM   23  N5  UNL     1       5.480   0.338  -0.899  1.00  0.00    -0.217 N 
ATOM     24  H5  UNL     1       5.075   0.947  -1.610  1.00  0.00     0.178 HD
BRANCH  23  25
HETATM   25  C18 UNL     1       6.782   0.142  -1.269  1.00  0.00     0.147 C 
HETATM   26  C19 UNL     1       7.328  -1.253  -1.044  1.00  0.00     0.195 C 
HETATM   27  O3  UNL     1       8.182  -0.770  -0.065  1.00  0.00    -0.387 OA
HETATM   28  C20 UNL     1       7.886   0.558  -0.304  1.00  0.00     0.195 C 
ENDBRANCH  23  25
ENDBRANCH  15  23
ENDBRANCH   1  11
BRANCH   5  29
HETATM   29  O1  UNL     1      -3.264   2.573  -0.759  1.00  0.00    -0.335 OA
BRANCH  29  30
HETATM   30  C8  UNL     1      -4.652   2.402  -0.990  1.00  0.00     0.182 C 
BRANCH  30  31
HETATM   31  C9  UNL     1      -5.243   3.775  -1.219  1.00  0.00     0.010 A 
HETATM   32  C10 UNL     1      -5.157   4.817  -0.184  1.00  0.00     0.007 A 
HETATM   33  C11 UNL     1      -4.283   4.902  -1.445  1.00  0.00     0.007 A 
ENDBRANCH  30  31
ENDBRANCH  29  30
ENDBRANCH   5  29
BRANCH   8  34
HETATM   34  O2  UNL     1      -2.222  -2.052  -0.104  1.00  0.00    -0.321 OA
BRANCH  34  35
HETATM   35  C13 UNL     1      -3.615  -2.294  -0.321  1.00  0.00     0.183 C 
BRANCH  35  36
HETATM   36  C14 UNL     1      -3.938  -3.749  -0.208  1.00  0.00     0.010 A 
HETATM   37  C15 UNL     1      -5.360  -4.162  -0.409  1.00  0.00     0.007 A 
HETATM   38  C16 UNL     1      -4.821  -4.158   0.970  1.00  0.00     0.007 A 
ENDBRANCH  35  36
ENDBRANCH  34  35
ENDBRANCH   8  34
TORSDOF 10
