REMARK  12 active torsions:
REMARK  status: ('A' for Active; 'I' for Inactive)
REMARK    1  A    between atoms: N1_5  and  C5_6 
REMARK    2  A    between atoms: C5_6  and  O1_7 
REMARK    3  A    between atoms: C5_6  and  C6_9 
REMARK    4  A    between atoms: C6_9  and  O2_10 
REMARK    5  A    between atoms: C6_9  and  C7_12 
REMARK    6  A    between atoms: C6_9  and  C15_24 
REMARK    7  A    between atoms: C7_12  and  N2_13 
REMARK    8  A    between atoms: N2_13  and  C8_14 
REMARK    9  A    between atoms: N2_13  and  C13_19 
REMARK   10  A    between atoms: C8_14  and  C9_15 
REMARK   11  A    between atoms: C13_19  and  C14_20 
REMARK   12  A    between atoms: C15_24  and  N3_25 
ROOT
HETATM    1  C6  UNL     1       0.024   1.708  -0.309  1.00  0.00     0.161 C 
ENDROOT
BRANCH   1   2
HETATM    2  C5  UNL     1       0.904   0.816   0.424  1.00  0.00     0.399 C 
BRANCH   2   3
HETATM    3  N1  UNL     1       1.647  -0.207  -0.222  1.00  0.00     0.130 N 
HETATM    4  C4  UNL     1       2.608   0.146  -1.204  1.00  0.00     0.281 C 
HETATM    5  C3  UNL     1       3.142  -1.083  -1.925  1.00  0.00     0.063 C 
HETATM    6  C2  UNL     1       3.286  -2.275  -1.103  1.00  0.00    -0.085 C 
HETATM    7  C1  UNL     1       4.220  -3.182  -1.324  1.00  0.00     0.014 C 
HETATM    8  C21 UNL     1       2.321  -2.454   0.037  1.00  0.00     0.074 C 
HETATM    9  C18 UNL     1       2.289  -1.087   0.727  1.00  0.00     0.159 C 
HETATM   10  C19 UNL     1       3.713  -0.744   1.034  1.00  0.00     0.049 C 
HETATM   11  C20 UNL     1       1.578  -1.281   2.027  1.00  0.00     0.049 C 
ENDBRANCH   2   3
BRANCH   2  12
HETATM   12  O1  UNL     1       1.877   1.706   1.045  1.00  0.00    -0.365 OA
ATOM     13  H1  UNL     1       1.380   2.390   1.477  1.00  0.00     0.212 HD
ENDBRANCH   2  12
ENDBRANCH   1   2
BRANCH   1  14
HETATM   14  O2  UNL     1       0.839   2.492  -1.247  1.00  0.00    -0.378 OA
ATOM     15  H2  UNL     1       0.263   3.076  -1.727  1.00  0.00     0.211 HD
ENDBRANCH   1  14
BRANCH   1  16
HETATM   16  C7  UNL     1      -1.003   1.089  -1.221  1.00  0.00     0.107 C 
BRANCH  16  17
HETATM   17  N2  UNL     1      -2.074   0.327  -0.797  1.00  0.00    -0.362 N 
BRANCH  17  18
HETATM   18  C8  UNL     1      -1.939  -0.958  -0.313  1.00  0.00     0.072 C 
BRANCH  18  19
HETATM   19  C9  UNL     1      -2.990  -1.615   0.514  1.00  0.00    -0.019 C 
HETATM   20  C10 UNL     1      -2.392  -3.019   0.835  1.00  0.00     0.020 C 
HETATM   21  C11 UNL     1      -3.118  -0.961   1.888  1.00  0.00     0.020 C 
HETATM   22  C12 UNL     1      -4.319  -1.875  -0.045  1.00  0.00     0.020 C 
ENDBRANCH  18  19
ENDBRANCH  17  18
BRANCH  17  23
HETATM   23  C13 UNL     1      -3.252   0.673  -1.570  1.00  0.00     0.244 C 
BRANCH  23  24
HETATM   24  C14 UNL     1      -3.268   0.375  -3.005  1.00  0.00     0.403 C 
HETATM   25  F1  UNL     1      -3.087  -0.938  -3.356  1.00  0.00    -0.169 F 
HETATM   26  F2  UNL     1      -2.512   1.172  -3.831  1.00  0.00    -0.169 F 
HETATM   27  F3  UNL     1      -4.597   0.642  -3.446  1.00  0.00    -0.169 F 
ENDBRANCH  23  24
ENDBRANCH  17  23
ENDBRANCH  16  17
ENDBRANCH   1  16
BRANCH   1  28
HETATM   28  C15 UNL     1      -0.609   2.756   0.548  1.00  0.00     0.198 C 
BRANCH  28  29
HETATM   29  N3  UNL     1       0.195   3.698   1.255  1.00  0.00    -0.283 N 
HETATM   30  C16 UNL     1       0.652   4.856   0.723  1.00  0.00     0.201 A 
HETATM   31  N4  UNL     1       1.297   5.521   1.681  1.00  0.00    -0.346 N 
HETATM   32  C17 UNL     1       1.256   4.812   2.798  1.00  0.00     0.198 A 
ATOM     33  H4  UNL     1       1.749   6.429   1.571  1.00  0.00     0.167 HD
HETATM   34  N5  UNL     1       0.579   3.702   2.516  1.00  0.00    -0.293 N 
ATOM     35  H5  UNL     1       0.384   2.956   3.184  1.00  0.00     0.188 HD
ENDBRANCH  28  29
ENDBRANCH   1  28
TORSDOF 12
