REMARK  11 active torsions:
REMARK  status: ('A' for Active; 'I' for Inactive)
REMARK    1  A    between atoms: C2_2  and  C3_3 
REMARK    2  A    between atoms: C3_3  and  O1_4 
REMARK    3  A    between atoms: O1_4  and  C4_5 
REMARK    4  A    between atoms: C4_5  and  O2_6 
REMARK    5  A    between atoms: C4_5  and  C5_8 
REMARK    6  A    between atoms: C5_8  and  O3_9 
REMARK    7  A    between atoms: C5_8  and  C8_13 
REMARK    8  A    between atoms: O3_9  and  C6_10 
REMARK    9  A    between atoms: C6_10  and  C7_11 
REMARK   10  A    between atoms: C8_13  and  C9_15 
REMARK       I    between atoms: C9_15  and  N1_17 
REMARK   11  A    between atoms: C18_28  and  O6_29 
ROOT
HETATM    1  C9  UNL     1       0.148   0.385  -0.156  1.00  0.00     0.294 C 
HETATM    2  O5  UNL     1      -0.622   0.508  -1.172  1.00  0.00    -0.264 OA
HETATM    3  N1  UNL     1       1.464  -0.063  -0.471  1.00  0.00    -0.315 N 
HETATM    4  C10 UNL     1       1.775  -0.327  -1.888  1.00  0.00     0.134 C 
HETATM    5  C11 UNL     1       2.758  -1.478  -1.997  1.00  0.00     0.059 C 
HETATM    6  C12 UNL     1       4.010  -1.122  -1.259  1.00  0.00    -0.044 A 
HETATM    7  C13 UNL     1       5.269  -1.362  -1.758  1.00  0.00     0.033 A 
HETATM    8  C14 UNL     1       6.395  -1.006  -1.039  1.00  0.00     0.056 A 
HETATM    9 CL2  UNL     1       8.015  -1.289  -1.630  1.00  0.00    -0.083 Cl
HETATM   10  C15 UNL     1       6.249  -0.407   0.185  1.00  0.00     0.056 A 
HETATM   11 CL3  UNL     1       7.633   0.071   1.151  1.00  0.00    -0.083 Cl
HETATM   12  C16 UNL     1       4.991  -0.173   0.673  1.00  0.00     0.037 A 
HETATM   13  C17 UNL     1       3.833  -0.525  -0.037  1.00  0.00    -0.002 A 
HETATM   14  C18 UNL     1       2.494  -0.268   0.514  1.00  0.00     0.258 C 
ENDROOT
BRANCH   1  15
HETATM   15  C8  UNL     1      -0.354   0.691   1.147  1.00  0.00     0.250 C 
HETATM   16  O4  UNL     1       0.422   0.667   2.165  1.00  0.00    -0.284 OA
BRANCH  15  17
HETATM   17  C5  UNL     1      -1.797   1.053   1.368  1.00  0.00     0.255 C 
BRANCH  17  18
HETATM   18  C4  UNL     1      -2.685  -0.208   1.311  1.00  0.00     0.293 C 
BRANCH  18  19
HETATM   19  O1  UNL     1      -2.618  -0.825   0.096  1.00  0.00    -0.358 OA
BRANCH  19  20
HETATM   20  C3  UNL     1      -3.913  -0.803  -0.449  1.00  0.00     0.170 C 
BRANCH  20  21
HETATM   21  C2  UNL     1      -3.959  -1.460  -1.798  1.00  0.00     0.022 C 
HETATM   22  C1  UNL     1      -5.387  -1.384  -2.294  1.00  0.00     0.007 C 
ENDBRANCH  20  21
ENDBRANCH  19  20
ENDBRANCH  18  19
BRANCH  18  23
HETATM   23  O2  UNL     1      -2.350  -1.064   2.365  1.00  0.00    -0.368 OA
ATOM     24  H2  UNL     1      -2.397  -0.634   3.211  1.00  0.00     0.212 HD
ENDBRANCH  18  23
ENDBRANCH  17  18
BRANCH  17  25
HETATM   25  O3  UNL     1      -1.954   1.618   2.604  1.00  0.00    -0.372 OA
BRANCH  25  26
HETATM   26  C6  UNL     1      -2.395   2.855   2.794  1.00  0.00     0.184 C 
BRANCH  26  27
HETATM   27  C7  UNL     1      -1.473   3.934   2.323  1.00  0.00     0.141 C 
HETATM   28 CL1  UNL     1      -1.093   3.985   0.621  1.00  0.00    -0.128 Cl
ENDBRANCH  26  27
ENDBRANCH  25  26
ENDBRANCH  17  25
ENDBRANCH  15  17
ENDBRANCH   1  15
BRANCH  14  29
HETATM   29  O6  UNL     1       2.134  -1.421   1.236  1.00  0.00    -0.372 OA
ATOM     30  H6  UNL     1       2.814  -1.556   1.886  1.00  0.00     0.212 HD
ENDBRANCH  14  29
TORSDOF 11
