REMARK  11 active torsions:
REMARK  status: ('A' for Active; 'I' for Inactive)
REMARK    1  A    between atoms: O1_2  and  C2_3 
REMARK    2  A    between atoms: C2_3  and  C3_4 
REMARK    3  A    between atoms: C3_4  and  N1_5 
REMARK    4  A    between atoms: C4_6  and  O2_7 
REMARK    5  A    between atoms: N2_12  and  C7_13 
REMARK    6  A    between atoms: C13_19  and  C14_20 
REMARK    7  A    between atoms: C14_20  and  C15_21 
REMARK    8  A    between atoms: C15_21  and  C16_23 
REMARK    9  A    between atoms: N3_28  and  C19_29 
REMARK   10  A    between atoms: C19_29  and  C20_30 
REMARK   11  A    between atoms: C20_30  and  O4_32 
ROOT
HETATM    1  C7  UNL     1       0.930  -0.085   0.952  1.00  0.00     0.118 C 
HETATM    2  C8  UNL     1       0.404   1.327   0.749  1.00  0.00     0.064 C 
HETATM    3  C9  UNL     1      -1.075   1.298   1.007  1.00  0.00     0.230 C 
HETATM    4  C10 UNL     1      -1.209   0.084   1.928  1.00  0.00     0.027 C 
HETATM    5  C11 UNL     1      -2.550  -0.424   1.507  1.00  0.00     0.043 C 
HETATM    6  C12 UNL     1      -2.441  -0.296  -0.018  1.00  0.00     0.228 C 
HETATM    7  C13 UNL     1      -1.481  -1.268  -0.604  1.00  0.00     0.022 C 
HETATM    8  C17 UNL     1      -0.708  -1.937   0.531  1.00  0.00     0.014 C 
HETATM    9  C18 UNL     1      -0.143  -0.893   1.500  1.00  0.00     0.017 C 
HETATM   10  N3  UNL     1      -1.898   1.085  -0.086  1.00  0.00     0.101 N 
ENDROOT
BRANCH   1  11
HETATM   11  N2  UNL     1       2.178  -0.026   1.622  1.00  0.00    -0.248 N 
HETATM   12  N1  UNL     1       3.339   0.086   0.992  1.00  0.00    -0.264 N 
HETATM   13  C4  UNL     1       4.356   0.124   1.873  1.00  0.00     0.162 A 
HETATM   14  C5  UNL     1       3.831   0.032   3.140  1.00  0.00     0.133 A 
HETATM   15  C6  UNL     1       2.472  -0.060   2.956  1.00  0.00     0.266 A 
HETATM   16  O3  UNL     1       1.559  -0.163   3.810  1.00  0.00    -0.266 OA
BRANCH  12  17
HETATM   17  C3  UNL     1       3.601   0.171  -0.459  1.00  0.00     0.177 C 
BRANCH  17  18
HETATM   18  C2  UNL     1       3.806  -1.231  -0.973  1.00  0.00     0.189 C 
BRANCH  18  19
HETATM   19  O1  UNL     1       4.037  -1.272  -2.313  1.00  0.00    -0.394 OA
HETATM   20  C1  UNL     1       5.155  -0.589  -2.700  1.00  0.00     0.201 C 
ENDBRANCH  18  19
ENDBRANCH  17  18
ENDBRANCH  12  17
BRANCH  13  21
HETATM   21  O2  UNL     1       5.723   0.235   1.632  1.00  0.00    -0.345 OA
ATOM     22  H2  UNL     1       6.441   0.262   2.254  1.00  0.00     0.219 HD
ENDBRANCH  13  21
ENDBRANCH   1  11
BRANCH  10  23
HETATM   23  C19 UNL     1      -2.971   1.974  -0.325  1.00  0.00     0.304 C 
BRANCH  23  24
HETATM   24  C20 UNL     1      -2.662   3.349  -0.789  1.00  0.00     0.142 C 
HETATM   25  C21 UNL     1      -2.062   4.233   0.225  1.00  0.00     0.041 C 
BRANCH  24  26
HETATM   26  O4  UNL     1      -1.934   3.364  -1.976  1.00  0.00    -0.394 OA
ATOM     27  H4  UNL     1      -1.736   4.244  -2.273  1.00  0.00     0.210 HD
ENDBRANCH  24  26
ENDBRANCH  23  24
ENDBRANCH  10  23
BRANCH   7  28
HETATM   28  C14 UNL     1      -1.907  -2.154  -1.647  1.00  0.00     0.049 C 
BRANCH  28  29
HETATM   29  C15 UNL     1      -2.885  -3.203  -1.682  1.00  0.00     0.235 C 
HETATM   30  F1  UNL     1      -2.865  -3.744  -3.019  1.00  0.00    -0.244 F 
BRANCH  29  31
HETATM   31  C16 UNL     1      -4.337  -3.018  -1.440  1.00  0.00     0.386 C 
HETATM   32  F2  UNL     1      -4.760  -2.582  -0.243  1.00  0.00    -0.211 F 
HETATM   33  F3  UNL     1      -4.895  -2.229  -2.481  1.00  0.00    -0.211 F 
ENDBRANCH  29  31
ENDBRANCH  28  29
ENDBRANCH   7  28
TORSDOF 11
