REMARK  9 active torsions:
REMARK  status: ('A' for Active; 'I' for Inactive)
REMARK    1  A    between atoms: O1_2  and  C2_3 
REMARK    2  A    between atoms: C2_3  and  C3_4 
REMARK    3  A    between atoms: C4_10  and  C6_12 
REMARK       I    between atoms: C6_12  and  N2_14 
REMARK    4  A    between atoms: N2_14  and  C7_16 
REMARK    5  A    between atoms: C7_16  and  C8_17 
REMARK    6  A    between atoms: C7_16  and  C12_21 
REMARK    7  A    between atoms: C8_17  and  C9_18 
REMARK       I    between atoms: C12_21  and  N3_23 
REMARK    8  A    between atoms: C13_25  and  C14_26 
REMARK    9  A    between atoms: C14_26  and  N4_27 
ROOT
HETATM    1  C6  UNL     1      -0.249  -0.582  -0.209  1.00  0.00     0.248 C 
HETATM    2  O2  UNL     1       0.346  -0.784   0.864  1.00  0.00    -0.271 OA
HETATM    3  N2  UNL     1       0.489  -0.379  -1.390  1.00  0.00    -0.346 N 
ATOM      4  H2  UNL     1      -0.030  -0.235  -2.256  1.00  0.00     0.163 HD
ENDROOT
BRANCH   1   5
HETATM    5  C4  UNL     1      -1.725  -0.556  -0.197  1.00  0.00     0.128 C 
HETATM    6  N1  UNL     1      -2.297  -0.668   1.091  1.00  0.00    -0.363 N 
HETATM    7  C2  UNL     1      -3.187   0.342   1.573  1.00  0.00     0.262 C 
ATOM      8  H1  UNL     1      -2.074  -1.472   1.678  1.00  0.00     0.158 HD
HETATM    9  C18 UNL     1      -3.964   1.037   0.468  1.00  0.00     0.112 C 
HETATM   10  O4  UNL     1      -3.077   1.449  -0.478  1.00  0.00    -0.373 OA
HETATM   11  C19 UNL     1      -5.064   0.125  -0.013  1.00  0.00     0.051 C 
HETATM   12  C20 UNL     1      -4.668   2.277   0.972  1.00  0.00     0.051 C 
HETATM   13  C17 UNL     1      -2.292   0.523  -1.075  1.00  0.00     0.209 C 
HETATM   14  C5  UNL     1      -2.102  -1.874  -0.919  1.00  0.00     0.051 C 
BRANCH   7  15
HETATM   15  O1  UNL     1      -4.144  -0.225   2.393  1.00  0.00    -0.356 OA
HETATM   16  C1  UNL     1      -3.771  -0.894   3.498  1.00  0.00     0.205 C 
ENDBRANCH   7  15
BRANCH   7  17
HETATM   17  C3  UNL     1      -2.382   1.324   2.385  1.00  0.00     0.440 C 
HETATM   18  F1  UNL     1      -1.420   1.976   1.608  1.00  0.00    -0.166 F 
HETATM   19  F2  UNL     1      -3.121   2.176   3.163  1.00  0.00    -0.166 F 
HETATM   20  F3  UNL     1      -1.575   0.634   3.321  1.00  0.00    -0.166 F 
ENDBRANCH   7  17
ENDBRANCH   1   5
BRANCH   3  21
HETATM   21  C7  UNL     1       1.927  -0.361  -1.458  1.00  0.00     0.177 C 
BRANCH  21  22
HETATM   22  C8  UNL     1       2.620  -1.135  -2.487  1.00  0.00     0.038 C 
BRANCH  22  23
HETATM   23  C9  UNL     1       2.457  -2.622  -2.509  1.00  0.00    -0.020 C 
HETATM   24  C10 UNL     1       1.036  -3.061  -2.710  1.00  0.00     0.009 C 
HETATM   25  C11 UNL     1       3.248  -3.236  -3.680  1.00  0.00     0.009 C 
ENDBRANCH  22  23
ENDBRANCH  21  22
BRANCH  21  26
HETATM   26  C12 UNL     1       2.406   1.078  -1.563  1.00  0.00     0.244 C 
HETATM   27  O3  UNL     1       1.579   1.997  -1.580  1.00  0.00    -0.271 OA
HETATM   28  N3  UNL     1       3.785   1.314  -1.637  1.00  0.00    -0.337 N 
HETATM   29  C13 UNL     1       4.484   1.363  -0.561  1.00  0.00     0.094 C 
ATOM     30  H3  UNL     1       4.233   1.447  -2.544  1.00  0.00     0.167 HD
BRANCH  29  31
HETATM   31  C14 UNL     1       3.853   1.176   0.746  1.00  0.00     0.315 C 
BRANCH  31  32
HETATM   32  N4  UNL     1       4.450   1.977   1.792  1.00  0.00     0.084 N 
HETATM   33  C15 UNL     1       3.732   1.690   3.018  1.00  0.00     0.309 C 
HETATM   34  C16 UNL     1       4.366   3.383   1.512  1.00  0.00     0.309 C 
ENDBRANCH  31  32
ENDBRANCH  29  31
ENDBRANCH  21  26
ENDBRANCH   3  21
TORSDOF 9
