REMARK  10 active torsions:
REMARK  status: ('A' for Active; 'I' for Inactive)
REMARK    1  A    between atoms: O1_2  and  C2_3 
REMARK    2  A    between atoms: C4_5  and  C5_6 
REMARK    3  A    between atoms: C5_6  and  O2_7 
REMARK    4  A    between atoms: C6_9  and  O3_10 
REMARK    5  A    between atoms: C7_12  and  C8_13 
REMARK    6  A    between atoms: C8_13  and  C9_14 
REMARK    7  A    between atoms: C9_14  and  C10_15 
REMARK    8  A    between atoms: C10_15  and  C11_16 
REMARK    9  A    between atoms: C11_16  and  N1_17 
REMARK   10  A    between atoms: N2_20  and  C14_21 
ROOT
HETATM    1  C10 UNL     1       0.125  -2.379  -0.321  1.00  0.00     0.044 C 
ENDROOT
BRANCH   1   2
HETATM    2  C9  UNL     1      -0.733  -1.172  -0.166  1.00  0.00     0.006 C 
BRANCH   2   3
HETATM    3  C8  UNL     1      -2.061  -1.414  -0.900  1.00  0.00     0.010 C 
BRANCH   3   4
HETATM    4  C7  UNL     1      -2.897  -0.192  -0.730  1.00  0.00     0.045 C 
HETATM    5  C6  UNL     1      -3.197   0.112   0.713  1.00  0.00     0.138 C 
HETATM    6  C4  UNL     1      -4.645  -0.248   0.452  1.00  0.00     0.038 C 
HETATM    7  C3  UNL     1      -5.635   0.863   0.573  1.00  0.00     0.077 C 
HETATM    8  C22 UNL     1      -4.381  -0.352  -1.013  1.00  0.00     0.144 C 
HETATM    9  C2  UNL     1      -5.701   1.459  -0.811  1.00  0.00     0.260 C 
HETATM   10  O4  UNL     1      -4.861   0.768  -1.638  1.00  0.00    -0.355 OA
BRANCH   5  11
HETATM   11  O3  UNL     1      -2.980   1.468   0.976  1.00  0.00    -0.394 OA
ATOM     12  H3  UNL     1      -2.072   1.694   1.140  1.00  0.00     0.210 HD
ENDBRANCH   5  11
BRANCH   6  13
HETATM   13  C5  UNL     1      -5.105  -1.519   1.124  1.00  0.00     0.179 C 
BRANCH  13  14
HETATM   14  O2  UNL     1      -6.297  -1.962   0.553  1.00  0.00    -0.400 OA
ATOM     15  H2  UNL     1      -6.586  -2.762   0.976  1.00  0.00     0.209 HD
ENDBRANCH  13  14
ENDBRANCH   6  13
BRANCH   9  16
HETATM   16  O1  UNL     1      -5.346   2.807  -0.672  1.00  0.00    -0.366 OA
HETATM   17  C1  UNL     1      -6.388   3.644  -1.068  1.00  0.00     0.204 C 
ENDBRANCH   9  16
ENDBRANCH   3   4
ENDBRANCH   2   3
ENDBRANCH   1   2
BRANCH   1  18
HETATM   18  C11 UNL     1       1.451  -2.340   0.348  1.00  0.00     0.063 C 
BRANCH  18  19
HETATM   19  N1  UNL     1       2.381  -1.380   0.008  1.00  0.00    -0.371 N 
HETATM   20  C12 UNL     1       3.010  -1.360  -1.240  1.00  0.00     0.083 C 
HETATM   21  C13 UNL     1       4.398  -0.765  -1.176  1.00  0.00     0.167 C 
HETATM   22  N2  UNL     1       4.656   0.109  -0.073  1.00  0.00    -0.369 N 
HETATM   23  C20 UNL     1       3.615   0.493   0.846  1.00  0.00     0.143 C 
HETATM   24  C21 UNL     1       2.235  -0.063   0.463  1.00  0.00     0.146 C 
BRANCH  22  25
HETATM   25  C14 UNL     1       5.978   0.640   0.140  1.00  0.00     0.112 A 
HETATM   26  C15 UNL     1       6.265   1.458   1.218  1.00  0.00     0.149 A 
HETATM   27  F1  UNL     1       5.332   1.784   2.135  1.00  0.00    -0.203 F 
HETATM   28  C16 UNL     1       7.539   1.994   1.438  1.00  0.00     0.090 A 
HETATM   29  C17 UNL     1       8.559   1.711   0.563  1.00  0.00     0.161 A 
HETATM   30  F2  UNL     1       9.800   2.210   0.744  1.00  0.00    -0.203 F 
HETATM   31  C18 UNL     1       8.285   0.900  -0.510  1.00  0.00     0.195 A 
HETATM   32  F3  UNL     1       9.269   0.603  -1.389  1.00  0.00    -0.199 F 
HETATM   33  C19 UNL     1       7.016   0.359  -0.739  1.00  0.00     0.187 A 
HETATM   34  F4  UNL     1       6.842  -0.423  -1.823  1.00  0.00    -0.200 F 
ENDBRANCH  22  25
ENDBRANCH  18  19
ENDBRANCH   1  18
TORSDOF 10
