REMARK  10 active torsions:
REMARK  status: ('A' for Active; 'I' for Inactive)
REMARK    1  A    between atoms: C2_2  and  C4_4 
REMARK    2  A    between atoms: C4_4  and  C5_5 
REMARK    3  A    between atoms: C4_4  and  O2_8 
REMARK    4  A    between atoms: C5_5  and  O1_6 
REMARK    5  A    between atoms: O2_8  and  C6_9 
REMARK       I    between atoms: C6_9  and  N1_11 
REMARK    6  A    between atoms: N1_11  and  C7_13 
REMARK    7  A    between atoms: C7_13  and  C8_14 
REMARK    8  A    between atoms: C7_13  and  C14_24 
REMARK    9  A    between atoms: C8_14  and  C9_15 
REMARK   10  A    between atoms: C9_15  and  N2_16 
ROOT
HETATM    1  C7  UNL     1       0.797   1.562   0.771  1.00  0.00     0.120 C 
ENDROOT
BRANCH   1   2
HETATM    2  N1  UNL     1      -0.189   0.592   1.201  1.00  0.00    -0.328 N 
HETATM    3  C6  UNL     1      -1.433   0.549   0.552  1.00  0.00     0.361 C 
HETATM    4  O3  UNL     1      -1.701   1.336  -0.387  1.00  0.00    -0.238 OA
ATOM      5  H1  UNL     1       0.018  -0.051   1.965  1.00  0.00     0.165 HD
BRANCH   3   6
HETATM    6  O2  UNL     1      -2.458  -0.319   0.856  1.00  0.00    -0.296 OA
BRANCH   6   7
HETATM    7  C4  UNL     1      -3.662  -0.340   0.209  1.00  0.00     0.160 C 
BRANCH   7   8
HETATM    8  C2  UNL     1      -3.750  -1.643  -0.596  1.00  0.00     0.009 C 
HETATM    9  C1  UNL     1      -4.895  -1.636  -1.549  1.00  0.00     0.012 C 
HETATM   10  C3  UNL     1      -3.749  -2.842   0.325  1.00  0.00     0.012 C 
ENDBRANCH   7   8
BRANCH   7  11
HETATM   11  C5  UNL     1      -4.895  -0.112   1.005  1.00  0.00     0.197 C 
BRANCH  11  12
HETATM   12  O1  UNL     1      -5.124  -1.010   2.014  1.00  0.00    -0.398 OA
ATOM     13  H1  UNL     1      -5.913  -0.864   2.523  1.00  0.00     0.209 HD
ENDBRANCH  11  12
ENDBRANCH   7  11
ENDBRANCH   6   7
ENDBRANCH   3   6
ENDBRANCH   1   2
BRANCH   1  14
HETATM   14  C8  UNL     1       2.017   0.842   0.169  1.00  0.00     0.060 C 
BRANCH  14  15
HETATM   15  C9  UNL     1       1.573   0.024  -1.014  1.00  0.00     0.283 C 
BRANCH  15  16
HETATM   16  N2  UNL     1       2.613  -0.689  -1.653  1.00  0.00     0.165 N 
HETATM   17  C10 UNL     1       3.190  -1.754  -0.911  1.00  0.00     0.306 C 
HETATM   18  C11 UNL     1       4.137  -2.520  -1.811  1.00  0.00     0.198 C 
HETATM   19  O4  UNL     1       4.999  -1.719  -2.519  1.00  0.00    -0.381 OA
HETATM   20  C12 UNL     1       4.293  -0.795  -3.323  1.00  0.00     0.282 C 
HETATM   21  C13 UNL     1       3.593   0.129  -2.317  1.00  0.00     0.459 C 
HETATM   22  F1  UNL     1       4.611   0.534  -1.443  1.00  0.00    -0.170 F 
HETATM   23  F2  UNL     1       3.026   1.212  -2.918  1.00  0.00    -0.170 F 
ENDBRANCH  15  16
ENDBRANCH  14  15
ENDBRANCH   1  14
BRANCH   1  24
HETATM   24  C14 UNL     1       1.252   2.426   1.874  1.00  0.00    -0.018 C 
HETATM   25  C15 UNL     1       1.099   3.740   1.938  1.00  0.00     0.019 C 
HETATM   26 BR1  UNL     1       0.281   4.934   0.696  1.00  0.00    -0.053 Br
HETATM   27  C16 UNL     1       1.718   4.191   3.240  1.00  0.00     0.214 C 
HETATM   28  O5  UNL     1       1.506   3.034   4.015  1.00  0.00    -0.382 OA
HETATM   29  C17 UNL     1       1.956   2.038   3.119  1.00  0.00     0.205 C 
ENDBRANCH   1  24
TORSDOF 10
