REMARK  11 active torsions:
REMARK  status: ('A' for Active; 'I' for Inactive)
REMARK    1  A    between atoms: C2_2  and  N1_3 
REMARK       I    between atoms: N1_3  and  C3_5 
REMARK    2  A    between atoms: C3_5  and  C4_7 
REMARK    3  A    between atoms: C4_7  and  C5_8 
REMARK    4  A    between atoms: C4_7  and  N3_22 
REMARK    5  A    between atoms: C5_8  and  O2_9 
REMARK    6  A    between atoms: O2_9  and  C6_10 
REMARK    7  A    between atoms: C6_10  and  C7_11 
REMARK    8  A    between atoms: C6_10  and  C12_18 
REMARK    9  A    between atoms: C7_11  and  N2_12 
REMARK       I    between atoms: N3_22  and  C13_24 
REMARK   10  A    between atoms: C13_24  and  O5_26 
REMARK   11  A    between atoms: O5_26  and  C14_27 
ROOT
HETATM    1  C4  UNL     1       0.886   1.265  -0.179  1.00  0.00     0.202 C 
ENDROOT
BRANCH   1   2
HETATM    2  C3  UNL     1       1.450   2.241   0.780  1.00  0.00     0.243 C 
HETATM    3  N1  UNL     1       1.195   3.610   0.611  1.00  0.00    -0.350 N 
ATOM      4  H1  UNL     1       0.620   3.906  -0.178  1.00  0.00     0.163 HD
HETATM    5  O1  UNL     1       2.160   1.886   1.758  1.00  0.00    -0.271 OA
BRANCH   3   6
HETATM    6  C2  UNL     1       1.712   4.617   1.506  1.00  0.00     0.029 A 
HETATM    7  C1  UNL     1       1.273   4.478   2.953  1.00  0.00     0.038 C 
HETATM    8  C18 UNL     1       1.914   5.972   0.911  1.00  0.00     0.033 A 
HETATM    9  C19 UNL     1       3.095   5.133   1.323  1.00  0.00     0.033 A 
ENDBRANCH   3   6
ENDBRANCH   1   2
BRANCH   1  10
HETATM   10  C5  UNL     1      -0.572   1.483  -0.456  1.00  0.00     0.203 C 
BRANCH  10  11
HETATM   11  O2  UNL     1      -1.436   1.280   0.492  1.00  0.00    -0.373 OA
BRANCH  11  12
HETATM   12  C6  UNL     1      -1.769   0.199   1.169  1.00  0.00     0.257 C 
BRANCH  12  13
HETATM   13  C7  UNL     1      -3.200  -0.286   0.820  1.00  0.00     0.313 C 
BRANCH  13  14
HETATM   14  N2  UNL     1      -3.365  -0.613  -0.541  1.00  0.00     0.095 N 
HETATM   15  C8  UNL     1      -2.668  -1.762  -1.010  1.00  0.00     0.298 C 
HETATM   16  C9  UNL     1      -3.340  -2.284  -2.288  1.00  0.00     0.198 C 
HETATM   17  O3  UNL     1      -4.501  -2.926  -1.934  1.00  0.00    -0.388 OA
HETATM   18  C10 UNL     1      -5.127  -2.280  -0.895  1.00  0.00     0.198 C 
HETATM   19  C11 UNL     1      -4.779  -0.807  -0.800  1.00  0.00     0.298 C 
ENDBRANCH  13  14
ENDBRANCH  12  13
BRANCH  12  20
HETATM   20  C12 UNL     1      -1.797   0.302   2.679  1.00  0.00     0.414 C 
HETATM   21  F1  UNL     1      -2.704   1.252   3.110  1.00  0.00    -0.168 F 
HETATM   22  F2  UNL     1      -2.281  -0.923   3.157  1.00  0.00    -0.168 F 
HETATM   23  F3  UNL     1      -0.570   0.459   3.256  1.00  0.00    -0.168 F 
ENDBRANCH  12  20
ENDBRANCH  11  12
ENDBRANCH  10  11
ENDBRANCH   1  10
BRANCH   1  24
HETATM   24  N3  UNL     1       1.261  -0.061   0.184  1.00  0.00    -0.322 N 
HETATM   25  C13 UNL     1       1.904  -0.971  -0.699  1.00  0.00     0.362 C 
HETATM   26  O4  UNL     1       2.155  -0.588  -1.861  1.00  0.00    -0.238 OA
ATOM     27  H3  UNL     1       1.056  -0.376   1.132  1.00  0.00     0.165 HD
BRANCH  25  28
HETATM   28  O5  UNL     1       2.252  -2.243  -0.316  1.00  0.00    -0.294 OA
BRANCH  28  29
HETATM   29  C14 UNL     1       2.886  -3.184  -1.136  1.00  0.00     0.061 C 
HETATM   30  C15 UNL     1       3.074  -4.448  -0.292  1.00  0.00     0.046 C 
HETATM   31  C16 UNL     1       4.263  -2.742  -1.570  1.00  0.00     0.046 C 
HETATM   32  C17 UNL     1       2.102  -3.570  -2.348  1.00  0.00     0.046 C 
ENDBRANCH  28  29
ENDBRANCH  25  28
ENDBRANCH   1  24
TORSDOF 11
