REMARK  6 active torsions:
REMARK  status: ('A' for Active; 'I' for Inactive)
REMARK    1  A    between atoms: C2_2  and  C3_3 
REMARK    2  A    between atoms: C3_3  and  N1_5 
REMARK    3  A    between atoms: N1_5  and  C4_6 
REMARK    4  A    between atoms: C8_12  and  N4_13 
REMARK    5  A    between atoms: C12_17  and  O1_18 
REMARK    6  A    between atoms: C13_20  and  O2_21 
ROOT
HETATM    1  N1  UNL     1      -0.836  -0.160  -0.065  1.00  0.00     0.002 N 
HETATM    2  C11 UNL     1      -0.712  -1.513   0.495  1.00  0.00     0.281 C 
HETATM    3  C12 UNL     1      -2.075  -2.171   0.344  1.00  0.00     0.175 C 
HETATM    4  C13 UNL     1      -2.818  -1.362  -0.656  1.00  0.00     0.179 C 
HETATM    5  C14 UNL     1      -1.727  -0.449  -1.176  1.00  0.00     0.226 C 
HETATM    6  C15 UNL     1      -1.107  -1.147  -2.337  1.00  0.00     0.044 C 
ENDROOT
BRANCH   1   7
HETATM    7  C3  UNL     1      -1.544   0.612   0.862  1.00  0.00     0.264 C 
HETATM    8  F1  UNL     1      -1.096   0.632   2.165  1.00  0.00    -0.183 F 
BRANCH   7   9
HETATM    9  C2  UNL     1      -2.102   1.933   0.507  1.00  0.00     0.093 C 
HETATM   10  C1  UNL     1      -3.326   2.292   1.362  1.00  0.00     0.014 C 
ENDBRANCH   7   9
ENDBRANCH   1   7
BRANCH   1  11
HETATM   11  C4  UNL     1       0.419   0.216  -0.535  1.00  0.00     0.262 C 
HETATM   12  C5  UNL     1       0.539   1.558  -1.207  1.00  0.00     0.146 C 
HETATM   13  N2  UNL     1       1.969   1.557  -1.551  1.00  0.00    -0.244 NA
HETATM   14  C6  UNL     1       2.712   2.695  -1.014  1.00  0.00     0.124 A 
HETATM   15  N3  UNL     1       2.619   0.769  -0.644  1.00  0.00    -0.214 NA
HETATM   16  C7  UNL     1       3.481   1.795  -0.092  1.00  0.00     0.126 A 
HETATM   17  C8  UNL     1       1.628   0.229   0.306  1.00  0.00     0.344 C 
BRANCH  17  18
HETATM   18  N4  UNL     1       2.087  -0.976   0.875  1.00  0.00     0.101 N 
HETATM   19  C9  UNL     1       2.520  -0.879   2.269  1.00  0.00     0.311 C 
HETATM   20  C10 UNL     1       3.091  -1.712   0.175  1.00  0.00     0.311 C 
ENDBRANCH  17  18
ENDBRANCH   1  11
BRANCH   3  21
HETATM   21  O1  UNL     1      -2.722  -2.382   1.547  1.00  0.00    -0.391 OA
ATOM     22  H1  UNL     1      -3.573  -2.793   1.453  1.00  0.00     0.210 HD
ENDBRANCH   3  21
BRANCH   4  23
HETATM   23  O2  UNL     1      -3.315  -2.145  -1.717  1.00  0.00    -0.391 OA
ATOM     24  H2  UNL     1      -3.790  -1.628  -2.357  1.00  0.00     0.210 HD
ENDBRANCH   4  23
TORSDOF 6
