REMARK  8 active torsions:
REMARK  status: ('A' for Active; 'I' for Inactive)
REMARK    1  A    between atoms: O1_2  and  C2_3 
REMARK       I    between atoms: C2_3  and  N1_5 
REMARK    2  A    between atoms: N2_8  and  C5_9 
REMARK    3  A    between atoms: C5_9  and  O3_10 
REMARK    4  A    between atoms: C5_9  and  C6_12 
REMARK    5  A    between atoms: C6_12  and  N3_13 
REMARK    6  A    between atoms: C6_12  and  N4_16 
REMARK    7  A    between atoms: N4_16  and  C7_18 
REMARK    8  A    between atoms: C7_18  and  C8_19 
ROOT
HETATM    1  C6  UNL     1      -0.111   0.891  -1.627  1.00  0.00     0.146 C 
ENDROOT
BRANCH   1   2
HETATM    2  C5  UNL     1       0.797  -0.123  -2.032  1.00  0.00     0.184 C 
BRANCH   2   3
HETATM    3  N2  UNL     1       1.692  -0.832  -1.224  1.00  0.00    -0.336 N 
HETATM    4  C4  UNL     1       2.570  -1.933  -1.712  1.00  0.00     0.147 C 
HETATM    5  C3  UNL     1       3.744  -1.917  -0.808  1.00  0.00     0.150 C 
HETATM    6  N1  UNL     1       3.522  -0.782   0.040  1.00  0.00    -0.305 N 
HETATM    7  C2  UNL     1       4.378   0.119   0.687  1.00  0.00     0.364 C 
HETATM    8  C13 UNL     1       2.039  -0.702   0.142  1.00  0.00     0.189 C 
HETATM    9  O2  UNL     1       3.891   1.045   1.382  1.00  0.00    -0.238 OA
HETATM   10  C14 UNL     1       1.662  -1.905   0.993  1.00  0.00     0.056 C 
BRANCH   7  11
HETATM   11  O1  UNL     1       5.736   0.003   0.571  1.00  0.00    -0.309 OA
HETATM   12  C1  UNL     1       6.666   0.870   1.191  1.00  0.00     0.215 C 
ENDBRANCH   7  11
ENDBRANCH   2   3
BRANCH   2  13
HETATM   13  O3  UNL     1       0.778  -0.407  -3.314  1.00  0.00    -0.343 OA
ATOM     14  H3  UNL     1       0.170   0.075  -3.863  1.00  0.00     0.219 HD
ENDBRANCH   2  13
ENDBRANCH   1   2
BRANCH   1  15
HETATM   15  N3  UNL     1      -0.805   1.457  -2.592  1.00  0.00    -0.382 N 
ATOM     16  H32 UNL     1      -0.681   1.181  -3.566  1.00  0.00     0.157 HD
ATOM     17  H31 UNL     1      -1.457   2.185  -2.301  1.00  0.00     0.157 HD
ENDBRANCH   1  15
BRANCH   1  18
HETATM   18  N4  UNL     1      -0.281   1.270  -0.287  1.00  0.00    -0.370 N 
ATOM     19  H4  UNL     1       0.282   2.042   0.070  1.00  0.00     0.161 HD
BRANCH  18  20
HETATM   20  C7  UNL     1      -1.192   0.641   0.600  1.00  0.00     0.166 C 
BRANCH  20  21
HETATM   21  C8  UNL     1      -2.630   0.910   0.380  1.00  0.00     0.147 C 
HETATM   22  F1  UNL     1      -2.925   2.284   0.460  1.00  0.00    -0.239 F 
HETATM   23  C9  UNL     1      -3.382   0.344   1.623  1.00  0.00     0.077 C 
HETATM   24  C10 UNL     1      -4.749   0.145   1.119  1.00  0.00     0.275 C 
HETATM   25  N5  UNL     1      -4.712   0.102  -0.302  1.00  0.00     0.087 N 
HETATM   26  C11 UNL     1      -5.531   1.163  -0.900  1.00  0.00     0.310 C 
HETATM   27  C12 UNL     1      -3.342   0.323  -0.744  1.00  0.00     0.317 C 
ENDBRANCH  20  21
ENDBRANCH  18  20
ENDBRANCH   1  18
TORSDOF 8
