REMARK  6 active torsions:
REMARK  status: ('A' for Active; 'I' for Inactive)
REMARK    1  A    between atoms: S1_2  and  C1_4 
REMARK    2  A    between atoms: S1_2  and  N3_24 
REMARK    3  A    between atoms: C4_9  and  C5_10 
REMARK    4  A    between atoms: C5_10  and  N2_11 
REMARK    5  A    between atoms: N2_11  and  C6_13 
REMARK    6  A    between atoms: N4_27  and  C19_28 
ROOT
HETATM    1  C1  UNL     1       0.248   1.572   0.680  1.00  0.00     0.095 A 
HETATM    2  C2  UNL     1       0.318   2.681  -0.110  1.00  0.00     0.112 A 
HETATM    3  N1  UNL     1      -0.826   3.168  -0.673  1.00  0.00    -0.373 N 
ATOM      4  H1  UNL     1      -0.783   3.997  -1.266  1.00  0.00     0.164 HD
HETATM    5  C3  UNL     1      -2.010   2.567  -0.454  1.00  0.00     0.100 A 
HETATM    6  C4  UNL     1      -2.118   1.440   0.344  1.00  0.00    -0.004 A 
HETATM    7  C16 UNL     1      -0.989   0.947   0.907  1.00  0.00     0.040 A 
ENDROOT
BRANCH   1   8
HETATM    8  S1  UNL     1       1.671   0.923   1.471  1.00  0.00     0.262 S 
HETATM    9  O1  UNL     1       1.180   0.051   2.646  1.00  0.00    -0.200 OA
HETATM   10  O2  UNL     1       2.326   2.143   2.145  1.00  0.00    -0.200 OA
BRANCH   8  11
HETATM   11  N3  UNL     1       2.727   0.070   0.514  1.00  0.00    -0.304 N 
HETATM   12  C17 UNL     1       3.362   0.745  -0.527  1.00  0.00     0.154 C 
HETATM   13  C18 UNL     1       4.811   1.016  -0.051  1.00  0.00     0.137 C 
HETATM   14  N4  UNL     1       5.415  -0.219   0.281  1.00  0.00    -0.405 N 
HETATM   15  C25 UNL     1       4.638  -1.398   0.186  1.00  0.00     0.137 C 
HETATM   16  C26 UNL     1       3.330  -1.111   0.966  1.00  0.00     0.154 C 
BRANCH  14  17
HETATM   17  C19 UNL     1       6.768  -0.290  -0.147  1.00  0.00     0.079 C 
HETATM   18  C20 UNL     1       7.215  -1.687  -0.520  1.00  0.00     0.025 C 
HETATM   19  C21 UNL     1       8.651  -1.604  -0.980  1.00  0.00     0.002 C 
HETATM   20  C22 UNL     1       9.501  -1.203   0.205  1.00  0.00     0.000 C 
HETATM   21  C23 UNL     1       9.101   0.156   0.678  1.00  0.00     0.002 C 
HETATM   22  C24 UNL     1       7.636   0.311   0.924  1.00  0.00     0.025 C 
ENDBRANCH  14  17
ENDBRANCH   8  11
ENDBRANCH   1   8
BRANCH   6  23
HETATM   23  C5  UNL     1      -3.438   0.832   0.600  1.00  0.00     0.096 C 
BRANCH  23  24
HETATM   24  N2  UNL     1      -4.255   0.822  -0.527  1.00  0.00    -0.389 N 
ATOM     25  H2  UNL     1      -3.917   1.202  -1.411  1.00  0.00     0.159 HD
BRANCH  24  26
HETATM   26  C6  UNL     1      -5.558   0.280  -0.436  1.00  0.00     0.030 C 
HETATM   27  C7  UNL     1      -6.496   1.015   0.497  1.00  0.00     0.035 C 
HETATM   28  C8  UNL     1      -7.867   0.416   0.407  1.00  0.00    -0.012 C 
HETATM   29  C9  UNL     1      -8.446   0.395  -0.971  1.00  0.00     0.009 C 
HETATM   30  C13 UNL     1      -7.791  -0.992   0.996  1.00  0.00     0.009 C 
HETATM   31  C10 UNL     1      -7.519  -0.411  -1.849  1.00  0.00    -0.012 C 
HETATM   32  C11 UNL     1      -7.334  -1.820  -1.318  1.00  0.00     0.009 C 
HETATM   33  C15 UNL     1      -6.178   0.269  -1.814  1.00  0.00     0.035 C 
HETATM   34  C12 UNL     1      -6.860  -1.765   0.116  1.00  0.00    -0.012 C 
HETATM   35  C14 UNL     1      -5.491  -1.144   0.145  1.00  0.00     0.035 C 
ENDBRANCH  24  26
ENDBRANCH  23  24
ENDBRANCH   6  23
TORSDOF 6
