REMARK  6 active torsions:
REMARK  status: ('A' for Active; 'I' for Inactive)
REMARK    1  A    between atoms: N1_8  and  C7_9 
REMARK    2  A    between atoms: C7_9  and  C8_10 
REMARK       I    between atoms: C8_10  and  N2_12 
REMARK    3  A    between atoms: N2_12  and  C9_13 
REMARK    4  A    between atoms: N2_12  and  C15_22 
REMARK    5  A    between atoms: C9_13  and  C10_14 
REMARK    6  A    between atoms: C24_31  and  C25_32 
ROOT
HETATM    1  C8  UNL     1       0.054   0.113  -0.518  1.00  0.00     0.238 C 
HETATM    2  O2  UNL     1       0.620   1.064  -1.138  1.00  0.00    -0.272 OA
HETATM    3  N2  UNL     1      -1.360   0.025  -0.459  1.00  0.00    -0.345 N 
ENDROOT
BRANCH   1   4
HETATM    4  C7  UNL     1       0.865  -0.934   0.164  1.00  0.00     0.236 C 
BRANCH   4   5
HETATM    5  N1  UNL     1       2.284  -0.649   0.058  1.00  0.00    -0.294 N 
HETATM    6  C6  UNL     1       2.838   0.078   1.040  1.00  0.00     0.261 A 
HETATM    7  C5  UNL     1       4.183   0.369   0.976  1.00  0.00     0.059 A 
HETATM    8  O1  UNL     1       2.191   0.512   2.025  1.00  0.00    -0.267 OA
HETATM    9  C4  UNL     1       4.827   1.111   1.946  1.00  0.00     0.020 A 
HETATM   10  C28 UNL     1       4.917  -0.101  -0.103  1.00  0.00     0.049 A 
HETATM   11  C3  UNL     1       6.190   1.398   1.868  1.00  0.00     0.008 A 
HETATM   12  C2  UNL     1       6.918   0.931   0.796  1.00  0.00    -0.060 A 
HETATM   13  C1  UNL     1       8.366   1.253   0.743  1.00  0.00     0.048 C 
HETATM   14  C29 UNL     1       6.264   0.194  -0.162  1.00  0.00     0.037 A 
HETATM   15  N4  UNL     1       4.292  -0.822  -1.048  1.00  0.00    -0.344 N 
HETATM   16  C24 UNL     1       2.959  -1.115  -0.992  1.00  0.00     0.091 A 
ATOM     17  H4  UNL     1       4.835  -1.165  -1.840  1.00  0.00     0.167 HD
BRANCH  16  18
HETATM   18  C25 UNL     1       2.346  -1.919  -2.106  1.00  0.00     0.054 A 
HETATM   19  C26 UNL     1       3.268  -3.035  -2.582  1.00  0.00     0.013 A 
HETATM   20  C27 UNL     1       3.031  -1.874  -3.447  1.00  0.00     0.013 A 
ENDBRANCH  16  18
ENDBRANCH   4   5
ENDBRANCH   1   4
BRANCH   3  21
HETATM   21  C9  UNL     1      -2.139   1.043  -1.102  1.00  0.00     0.131 C 
BRANCH  21  22
HETATM   22  C10 UNL     1      -2.590   2.206  -0.311  1.00  0.00     0.007 C 
HETATM   23  C11 UNL     1      -3.375   3.159  -1.222  1.00  0.00     0.034 C 
HETATM   24  C12 UNL     1      -3.352   4.570  -0.727  1.00  0.00     0.232 C 
HETATM   25  N3  UNL     1      -2.034   5.141  -0.692  1.00  0.00    -0.075 N 
HETATM   26  C13 UNL     1      -1.025   4.177  -0.370  1.00  0.00     0.232 C 
ATOM     27  H32 UNL     1      -1.818   5.619  -1.567  1.00  0.00     0.277 HD
ATOM     28  H31 UNL     1      -1.996   5.937  -0.056  1.00  0.00     0.277 HD
HETATM   29  C14 UNL     1      -1.594   3.009   0.424  1.00  0.00     0.034 C 
ENDBRANCH  21  22
ENDBRANCH   3  21
BRANCH   3  30
HETATM   30  C15 UNL     1      -1.969  -1.132   0.219  1.00  0.00     0.091 C 
HETATM   31  C16 UNL     1      -2.839  -1.907  -0.705  1.00  0.00     0.030 C 
HETATM   32  C17 UNL     1      -3.547  -2.998   0.029  1.00  0.00    -0.013 C 
HETATM   33  C18 UNL     1      -4.758  -3.387  -0.833  1.00  0.00     0.010 C 
HETATM   34  C19 UNL     1      -4.036  -2.577   1.391  1.00  0.00    -0.010 C 
HETATM   35  C20 UNL     1      -2.939  -2.907   2.382  1.00  0.00     0.005 C 
HETATM   36  C23 UNL     1      -4.125  -1.061   1.506  1.00  0.00     0.011 C 
HETATM   37  C21 UNL     1      -2.210  -1.627   2.688  1.00  0.00     0.007 C 
HETATM   38  C22 UNL     1      -2.653  -0.724   1.522  1.00  0.00     0.009 C 
ENDBRANCH   3  30
TORSDOF 6
