REMARK  3 active torsions:
REMARK  status: ('A' for Active; 'I' for Inactive)
REMARK    1  A    between atoms: C6_13  and  N4_14 
REMARK    2  A    between atoms: N4_14  and  C7_16 
REMARK    3  A    between atoms: N5_22  and  C13_23 
ROOT
HETATM    1  C1  UNL     1      -3.902   0.462   0.502  1.00  0.00     0.089 C 
HETATM    2  C2  UNL     1      -2.593   1.141   0.385  1.00  0.00     0.082 A 
HETATM    3  N1  UNL     1      -2.544   2.471   0.605  1.00  0.00    -0.330 N 
ATOM      4  H1  UNL     1      -3.410   2.955   0.843  1.00  0.00     0.168 HD
HETATM    5  C3  UNL     1      -1.416   3.187   0.527  1.00  0.00     0.140 A 
HETATM    6  N2  UNL     1      -1.123   4.497   0.701  1.00  0.00    -0.317 N 
ATOM      7  H2  UNL     1      -1.791   5.228   0.946  1.00  0.00     0.170 HD
HETATM    8  C4  UNL     1       0.179   4.673   0.500  1.00  0.00     0.178 A 
HETATM    9  S1  UNL     1       1.051   6.056   0.584  1.00  0.00    -0.040 SA
HETATM   10  N3  UNL     1       0.703   3.468   0.199  1.00  0.00    -0.327 N 
ATOM     11  H3  UNL     1       1.687   3.295  -0.005  1.00  0.00     0.168 HD
HETATM   12  C5  UNL     1      -0.260   2.523   0.206  1.00  0.00     0.123 A 
HETATM   13  C6  UNL     1      -0.322   1.162  -0.017  1.00  0.00     0.136 A 
HETATM   14  N5  UNL     1      -1.499   0.437   0.069  1.00  0.00    -0.316 N 
ENDROOT
BRANCH  13  15
HETATM   15  N4  UNL     1       0.705   0.529  -0.311  1.00  0.00    -0.369 N 
ATOM     16  H4  UNL     1       0.424  -0.444  -0.428  1.00  0.00     0.161 HD
BRANCH  15  17
HETATM   17  C7  UNL     1       2.047   0.578  -0.544  1.00  0.00     0.083 C 
HETATM   18  C8  UNL     1       2.941   0.572   0.685  1.00  0.00     0.025 C 
HETATM   19  C9  UNL     1       4.271  -0.070   0.374  1.00  0.00     0.002 C 
HETATM   20  C10 UNL     1       4.129  -1.535   0.036  1.00  0.00     0.000 C 
HETATM   21  C11 UNL     1       2.786  -1.810  -0.612  1.00  0.00     0.002 C 
HETATM   22  C12 UNL     1       2.437  -0.617  -1.449  1.00  0.00     0.025 C 
ENDBRANCH  15  17
ENDBRANCH  13  15
BRANCH  14  23
HETATM   23  C13 UNL     1      -1.476  -0.972  -0.174  1.00  0.00     0.093 C 
HETATM   24  C14 UNL     1      -1.630  -1.877   1.013  1.00  0.00     0.026 C 
HETATM   25  C15 UNL     1      -2.461  -3.067   0.553  1.00  0.00     0.002 C 
HETATM   26  C16 UNL     1      -3.083  -2.688  -0.764  1.00  0.00     0.002 C 
HETATM   27  C17 UNL     1      -2.320  -1.495  -1.298  1.00  0.00     0.026 C 
ENDBRANCH  14  23
TORSDOF 3
