REMARK  3 active torsions:
REMARK  status: ('A' for Active; 'I' for Inactive)
REMARK    1  A    between atoms: O1_2  and  C2_3 
REMARK    2  A    between atoms: C2_3  and  C3_4 
REMARK    3  A    between atoms: C18_24  and  O4_26 
ROOT
HETATM    1  C3  UNL     1       2.802   0.102  -0.797  1.00  0.00     0.243 C 
HETATM    2  N1  UNL     1       1.833  -0.928  -0.400  1.00  0.00    -0.061 N 
ATOM      3  H11 UNL     1       1.797  -1.100   0.605  1.00  0.00     0.278 HD
ATOM      4  H12 UNL     1       2.100  -1.875  -0.668  1.00  0.00     0.278 HD
HETATM    5  C4  UNL     1       0.573  -0.484  -0.971  1.00  0.00     0.193 C 
HETATM    6  C5  UNL     1      -0.331  -1.651  -1.070  1.00  0.00     0.037 C 
HETATM    7  C6  UNL     1      -0.551  -2.395   0.217  1.00  0.00     0.035 C 
HETATM    8  C7  UNL     1      -1.996  -2.727   0.300  1.00  0.00    -0.087 C 
HETATM    9  C8  UNL     1      -2.523  -4.083  -0.037  1.00  0.00     0.043 C 
HETATM   10  C9  UNL     1      -2.837  -1.778   0.687  1.00  0.00    -0.024 C 
HETATM   11  C10 UNL     1      -2.441  -0.388   1.050  1.00  0.00     0.037 C 
HETATM   12  C11 UNL     1      -2.471   0.564  -0.082  1.00  0.00     0.058 C 
HETATM   13  C12 UNL     1      -1.235   1.193  -0.519  1.00  0.00     0.173 C 
HETATM   14  O2  UNL     1      -1.337   2.529  -0.078  1.00  0.00    -0.234 OA
HETATM   15  O3  UNL     1      -2.278   2.569   0.839  1.00  0.00    -0.230 OA
HETATM   16  C13 UNL     1      -3.300   1.822   0.245  1.00  0.00     0.095 C 
HETATM   17  C14 UNL     1      -3.664   2.544  -1.042  1.00  0.00     0.049 C 
HETATM   18  C15 UNL     1      -4.464   1.557   1.116  1.00  0.00     0.049 C 
HETATM   19  C16 UNL     1       0.074   0.648  -0.117  1.00  0.00     0.051 C 
HETATM   20  C17 UNL     1       1.060   1.808  -0.381  1.00  0.00     0.049 C 
HETATM   21  C18 UNL     1       2.476   1.404  -0.129  1.00  0.00     0.085 C 
HETATM   22  C19 UNL     1       2.763   1.421   1.342  1.00  0.00     0.048 C 
ENDROOT
BRANCH   1  23
HETATM   23  C2  UNL     1       4.207  -0.346  -0.588  1.00  0.00     0.203 C 
BRANCH  23  24
HETATM   24  O1  UNL     1       4.510  -0.661   0.722  1.00  0.00    -0.394 OA
HETATM   25  C1  UNL     1       5.848  -1.060   0.759  1.00  0.00     0.201 C 
ENDBRANCH  23  24
ENDBRANCH   1  23
BRANCH  21  26
HETATM   26  O4  UNL     1       3.294   2.380  -0.718  1.00  0.00    -0.388 OA
ATOM     27  H4  UNL     1       3.087   3.205  -0.295  1.00  0.00     0.210 HD
ENDBRANCH  21  26
TORSDOF 3
