REMARK  2 active torsions:
REMARK  status: ('A' for Active; 'I' for Inactive)
REMARK    1  A    between atoms: C5_14  and  C6_15 
REMARK    2  A    between atoms: N5_19  and  C10_20 
ROOT
HETATM    1  N1  UNL     1       4.432  -3.112   0.155  1.00  0.00    -0.383 N 
ATOM      2  H11 UNL     1       5.028  -2.292   0.044  1.00  0.00     0.157 HD
ATOM      3  H12 UNL     1       4.873  -4.029   0.217  1.00  0.00     0.157 HD
HETATM    4  C1  UNL     1       3.153  -3.042   0.219  1.00  0.00     0.131 A 
HETATM    5  N2  UNL     1       2.374  -4.114   0.364  1.00  0.00    -0.337 N 
ATOM      6  H2  UNL     1       2.804  -5.037   0.427  1.00  0.00     0.168 HD
HETATM    7  C2  UNL     1       1.040  -4.008   0.429  1.00  0.00     0.183 A 
HETATM    8  N3  UNL     1       0.516  -2.797   0.343  1.00  0.00    -0.336 N 
ATOM      9  H3  UNL     1      -0.501  -2.733   0.392  1.00  0.00     0.168 HD
HETATM   10  C3  UNL     1       1.188  -1.641   0.197  1.00  0.00     0.141 A 
HETATM   11  C4  UNL     1       2.552  -1.793   0.135  1.00  0.00     0.122 A 
HETATM   12  N4  UNL     1       3.032  -0.558  -0.008  1.00  0.00    -0.339 N 
ATOM     13  H4  UNL     1       4.022  -0.324  -0.086  1.00  0.00     0.167 HD
HETATM   14  C5  UNL     1       2.002   0.359  -0.036  1.00  0.00     0.090 A 
HETATM   15  N5  UNL     1       0.864  -0.311   0.090  1.00  0.00    -0.310 N 
ENDROOT
BRANCH  15  16
HETATM   16  C10 UNL     1      -0.518   0.089   0.112  1.00  0.00     0.041 C 
HETATM   17  C11 UNL     1      -1.150  -0.559  -1.112  1.00  0.00     0.036 C 
HETATM   18  C12 UNL     1      -2.608  -0.302  -1.305  1.00  0.00    -0.012 C 
HETATM   19  C13 UNL     1      -3.522  -1.165  -0.513  1.00  0.00     0.005 C 
HETATM   20  C18 UNL     1      -2.960   1.166  -1.284  1.00  0.00     0.009 C 
HETATM   21  C14 UNL     1      -3.517  -1.040   0.936  1.00  0.00     0.005 C 
HETATM   22  C15 UNL     1      -2.607  -0.026   1.546  1.00  0.00    -0.012 C 
HETATM   23  C16 UNL     1      -2.969   1.374   1.188  1.00  0.00     0.009 C 
HETATM   24  C20 UNL     1      -1.144  -0.357   1.391  1.00  0.00     0.036 C 
HETATM   25  C17 UNL     1      -2.317   1.762  -0.096  1.00  0.00    -0.012 C 
HETATM   26  C19 UNL     1      -0.797   1.540  -0.035  1.00  0.00     0.036 C 
ENDBRANCH  15  16
BRANCH  14  27
HETATM   27  C6  UNL     1       2.241   1.794  -0.195  1.00  0.00     0.054 C 
HETATM   28  C7  UNL     1       3.570   2.162   0.521  1.00  0.00     0.012 C 
HETATM   29  C8  UNL     1       3.783   3.162  -0.613  1.00  0.00     0.002 C 
HETATM   30  C9  UNL     1       3.025   2.153  -1.465  1.00  0.00     0.012 C 
ENDBRANCH  14  27
TORSDOF 2
