REMARK  3 active torsions:
REMARK  status: ('A' for Active; 'I' for Inactive)
REMARK    1  A    between atoms: N1_4  and  C4_5 
REMARK    2  A    between atoms: C4_5  and  C5_6 
REMARK    3  A    between atoms: C5_6  and  N2_7 
ROOT
HETATM    1  C5  UNL     1       0.837   0.352   0.293  1.00  0.00     0.170 C 
ENDROOT
BRANCH   1   2
HETATM    2  C4  UNL     1      -0.042  -0.352  -0.750  1.00  0.00     0.149 C 
BRANCH   2   3
HETATM    3  N1  UNL     1      -1.408  -0.170  -0.298  1.00  0.00    -0.365 N 
HETATM    4  C3  UNL     1      -2.006  -1.044   0.515  1.00  0.00     0.090 A 
HETATM    5  C2  UNL     1      -3.310  -0.827   0.917  1.00  0.00     0.017 A 
HETATM    6  C1  UNL     1      -4.001   0.297   0.481  1.00  0.00     0.003 A 
HETATM    7  C9  UNL     1      -3.373   1.190  -0.356  1.00  0.00     0.017 A 
HETATM    8  C8  UNL     1      -2.077   0.938  -0.734  1.00  0.00     0.090 A 
ENDBRANCH   2   3
ENDBRANCH   1   2
BRANCH   1   9
HETATM    9  N2  UNL     1       2.226   0.259  -0.014  1.00  0.00    -0.286 N 
HETATM   10  C6  UNL     1       3.042  -0.742   0.405  1.00  0.00     0.130 A 
HETATM   11  C7  UNL     1       4.319  -0.510  -0.078  1.00  0.00     0.127 A 
HETATM   12  N3  UNL     1       4.226   0.636  -0.780  1.00  0.00    -0.296 N 
HETATM   13  N4  UNL     1       2.983   1.068  -0.726  1.00  0.00    -0.241 N 
ATOM     14  H3  UNL     1       4.993   1.094  -1.273  1.00  0.00     0.187 HD
ATOM     15  H4  UNL     1       2.650   1.920  -1.178  1.00  0.00     0.208 HD
ENDBRANCH   1   9
TORSDOF 3
