REMARK  10 active torsions:
REMARK  status: ('A' for Active; 'I' for Inactive)
REMARK    1  A    between atoms: N1_1  and  C1_4 
REMARK    2  A    between atoms: C3_10  and  N4_11 
REMARK    3  A    between atoms: N4_11  and  C4_13 
REMARK    4  A    between atoms: C4_13  and  C5_14 
REMARK    5  A    between atoms: C5_14  and  O1_15 
REMARK    6  A    between atoms: N6_22  and  C8_23 
REMARK    7  A    between atoms: C8_23  and  O3_24 
REMARK    8  A    between atoms: O3_24  and  C9_25 
REMARK    9  A    between atoms: C9_25  and  C10_26 
REMARK   10  A    between atoms: C11_27  and  N7_28 
ROOT
HETATM    1  C1  UNL     1       1.224  -1.631  -1.723  1.00  0.00     0.686 A 
HETATM    2  N2  UNL     1      -0.006  -1.992  -1.380  1.00  0.00    -0.173 N 
ATOM      3  H2  UNL     1      -0.388  -2.934  -1.459  1.00  0.00     0.186 HD
HETATM    4  C2  UNL     1      -0.673  -0.915  -0.910  1.00  0.00     0.170 A 
HETATM    5  N3  UNL     1      -1.922  -0.744  -0.455  1.00  0.00    -0.174 N 
ATOM      6  H3  UNL     1      -2.561  -1.538  -0.411  1.00  0.00     0.186 HD
HETATM    7  C3  UNL     1      -2.332   0.463  -0.059  1.00  0.00     0.682 A 
HETATM    8  N5  UNL     1      -1.524   1.541  -0.099  1.00  0.00    -0.154 N 
ATOM      9  H5  UNL     1      -1.870   2.449   0.211  1.00  0.00     0.187 HD
HETATM   10  C6  UNL     1      -0.271   1.422  -0.544  1.00  0.00     0.291 A 
HETATM   11  O2  UNL     1       0.453   2.421  -0.578  1.00  0.00    -0.265 OA
HETATM   12  C7  UNL     1       0.193   0.196  -0.960  1.00  0.00     0.171 A 
HETATM   13  N6  UNL     1       1.337  -0.291  -1.461  1.00  0.00    -0.129 N 
ENDROOT
BRANCH  13  14
HETATM   14  C8  UNL     1       2.527   0.472  -1.732  1.00  0.00     0.253 C 
BRANCH  14  15
HETATM   15  O3  UNL     1       3.522   0.410  -0.830  1.00  0.00    -0.334 OA
BRANCH  15  16
HETATM   16  C9  UNL     1       3.306   0.775   0.464  1.00  0.00     0.271 C 
BRANCH  16  17
HETATM   17  C10 UNL     1       4.557   0.609   1.242  1.00  0.00    -0.057 C 
HETATM   18  C11 UNL     1       5.566   0.461   1.889  1.00  0.00     0.005 C 
BRANCH  18  19
HETATM   19  N7  UNL     1       6.729   0.271   2.648  1.00  0.00    -0.359 N 
ATOM     20  H72 UNL     1       5.824  -0.154   2.449  1.00  0.00     0.166 HD
ATOM     21  H71 UNL     1       7.581   0.146   3.194  1.00  0.00     0.166 HD
ENDBRANCH  18  19
ENDBRANCH  16  17
ENDBRANCH  15  16
ENDBRANCH  14  15
ENDBRANCH  13  14
BRANCH   1  22
HETATM   22  N1  UNL     1       2.178  -2.359  -2.215  1.00  0.00    -0.234 N 
ATOM     23  H12 UNL     1       2.094  -3.357  -2.410  1.00  0.00     0.174 HD
ATOM     24  H11 UNL     1       3.123  -2.082  -2.479  1.00  0.00     0.174 HD
ENDBRANCH   1  22
BRANCH   7  25
HETATM   25  N4  UNL     1      -3.516   0.628   0.374  1.00  0.00    -0.224 N 
ATOM     26  H4  UNL     1      -3.813   1.557   0.673  1.00  0.00     0.177 HD
BRANCH  25  27
HETATM   27  C4  UNL     1      -4.451  -0.474   0.452  1.00  0.00     0.164 C 
BRANCH  27  28
HETATM   28  C5  UNL     1      -5.792   0.132   0.872  1.00  0.00     0.184 C 
BRANCH  28  29
HETATM   29  O1  UNL     1      -5.619   0.749   2.111  1.00  0.00    -0.399 OA
ATOM     30  H1  UNL     1      -6.451   1.125   2.372  1.00  0.00     0.209 HD
ENDBRANCH  28  29
ENDBRANCH  27  28
ENDBRANCH  25  27
ENDBRANCH   7  25
TORSDOF 10
