REMARK  8 active torsions:
REMARK  status: ('A' for Active; 'I' for Inactive)
REMARK    1  A    between atoms: O1_2  and  C2_3 
REMARK    2  A    between atoms: C2_3  and  C3_4 
REMARK    3  A    between atoms: C3_4  and  N1_5 
REMARK    4  A    between atoms: C4_8  and  N3_9 
REMARK    5  A    between atoms: N3_9  and  C5_11 
REMARK    6  A    between atoms: C5_11  and  C6_12 
REMARK    7  A    between atoms: C6_12  and  O2_13 
REMARK    8  A    between atoms: C8_16  and  N4_17 
ROOT
HETATM    1  N1  UNL     1       1.108  -0.306   0.554  1.00  0.00    -0.252 N 
HETATM    2  N2  UNL     1      -0.135  -0.717   0.680  1.00  0.00    -0.280 N 
ATOM      3  H2  UNL     1      -0.314  -1.703   0.870  1.00  0.00     0.189 HD
HETATM    4  C4  UNL     1      -1.193   0.138   0.564  1.00  0.00     0.132 A 
HETATM    5  C7  UNL     1      -0.991   1.479   0.308  1.00  0.00     0.086 A 
HETATM    6  C8  UNL     1      -2.064   2.362   0.187  1.00  0.00     0.131 A 
HETATM    7  N5  UNL     1      -1.825   3.659  -0.063  1.00  0.00    -0.176 N 
ATOM      8  H5  UNL     1      -2.595   4.322  -0.155  1.00  0.00     0.186 HD
HETATM    9  C9  UNL     1      -0.531   4.072  -0.192  1.00  0.00     0.678 A 
HETATM   10  N6  UNL     1      -0.321   5.306  -0.429  1.00  0.00    -0.234 N 
ATOM     11  H61 UNL     1       0.646   5.615  -0.525  1.00  0.00     0.174 HD
ATOM     12  H62 UNL     1      -1.103   5.955  -0.518  1.00  0.00     0.174 HD
HETATM   13  N7  UNL     1       0.497   3.218  -0.075  1.00  0.00    -0.185 N 
ATOM     14  H7  UNL     1       1.448   3.571  -0.179  1.00  0.00     0.184 HD
HETATM   15  C10 UNL     1       0.311   1.913   0.175  1.00  0.00     0.136 A 
HETATM   16  C11 UNL     1       1.347   0.992   0.304  1.00  0.00     0.290 A 
HETATM   17  O3  UNL     1       2.535   1.401   0.181  1.00  0.00    -0.264 OA
ENDROOT
BRANCH   4  18
HETATM   18  N3  UNL     1      -2.411  -0.247   0.685  1.00  0.00    -0.372 N 
ATOM     19  H3  UNL     1      -3.135   0.464   0.582  1.00  0.00     0.161 HD
BRANCH  18  20
HETATM   20  C5  UNL     1      -2.844  -1.582   0.951  1.00  0.00     0.147 C 
BRANCH  20  21
HETATM   21  C6  UNL     1      -2.923  -2.437  -0.284  1.00  0.00     0.183 C 
BRANCH  21  22
HETATM   22  O2  UNL     1      -3.351  -3.712   0.072  1.00  0.00    -0.399 OA
ATOM     23  H2  UNL     1      -3.401  -4.252  -0.708  1.00  0.00     0.209 HD
ENDBRANCH  21  22
ENDBRANCH  20  21
ENDBRANCH  18  20
ENDBRANCH   4  18
BRANCH   1  24
HETATM   24  C3  UNL     1       2.234  -1.247   0.684  1.00  0.00     0.178 C 
BRANCH  24  25
HETATM   25  C2  UNL     1       2.599  -1.849  -0.626  1.00  0.00     0.189 C 
BRANCH  25  26
HETATM   26  O1  UNL     1       3.630  -2.744  -0.491  1.00  0.00    -0.394 OA
HETATM   27  C1  UNL     1       4.783  -2.187  -0.006  1.00  0.00     0.201 C 
ENDBRANCH  25  26
ENDBRANCH  24  25
ENDBRANCH   1  24
BRANCH   6  28
HETATM   28  N4  UNL     1      -3.276   1.953   0.311  1.00  0.00    -0.384 N 
ATOM     29  H42 UNL     1      -3.458   0.967   0.501  1.00  0.00     0.157 HD
ATOM     30  H41 UNL     1      -4.061   2.599   0.223  1.00  0.00     0.157 HD
ENDBRANCH   6  28
TORSDOF 8
