REMARK  5 active torsions:
REMARK  status: ('A' for Active; 'I' for Inactive)
REMARK    1  A    between atoms: O1_1  and  C1_3 
REMARK    2  A    between atoms: C7_9  and  N1_10 
REMARK    3  A    between atoms: N1_10  and  C8_13 
REMARK    4  A    between atoms: C8_13  and  C9_14 
REMARK    5  A    between atoms: C12_17  and  O2_18 
ROOT
HETATM    1  C1  UNL     1      -2.466   1.031   1.012  1.00  0.00     0.153 C 
HETATM    2  C2  UNL     1      -2.941   0.275  -0.161  1.00  0.00     0.017 C 
HETATM    3  C3  UNL     1      -2.388   0.700  -1.493  1.00  0.00     0.007 C 
HETATM    4  C4  UNL     1      -0.935   0.324  -1.386  1.00  0.00     0.007 C 
HETATM    5  C5  UNL     1      -0.909  -0.810  -0.407  1.00  0.00     0.019 C 
HETATM    6  C6  UNL     1      -2.373  -1.150  -0.090  1.00  0.00     0.014 C 
HETATM    7  C7  UNL     1      -0.323  -0.308   0.882  1.00  0.00     0.221 C 
HETATM    8  C12 UNL     1      -1.232   0.542   1.685  1.00  0.00     0.178 C 
ENDROOT
BRANCH   7   9
HETATM    9  N1  UNL     1       0.970   0.316   0.670  1.00  0.00    -0.068 N 
ATOM     10  H12 UNL     1       0.889   1.133   0.065  1.00  0.00     0.277 HD
ATOM     11  H11 UNL     1       1.301   0.774   1.519  1.00  0.00     0.277 HD
BRANCH   9  12
HETATM   12  C8  UNL     1       1.951  -0.612   0.163  1.00  0.00     0.237 C 
BRANCH  12  13
HETATM   13  C9  UNL     1       3.296   0.010  -0.041  1.00  0.00     0.011 A 
HETATM   14  C10 UNL     1       4.363  -0.971  -0.583  1.00  0.00     0.007 A 
HETATM   15  C11 UNL     1       3.915   0.242  -1.346  1.00  0.00     0.007 A 
ENDBRANCH  12  13
ENDBRANCH   9  12
ENDBRANCH   7   9
BRANCH   8  16
HETATM   16  O2  UNL     1      -1.539  -0.143   2.886  1.00  0.00    -0.391 OA
ATOM     17  H2  UNL     1      -0.751  -0.455   3.316  1.00  0.00     0.210 HD
ENDBRANCH   8  16
BRANCH   1  18
HETATM   18  O1  UNL     1      -2.397   2.414   0.752  1.00  0.00    -0.393 OA
ATOM     19  H1  UNL     1      -2.091   2.901   1.508  1.00  0.00     0.210 HD
ENDBRANCH   1  18
TORSDOF 5
