REMARK  3 active torsions:
REMARK  status: ('A' for Active; 'I' for Inactive)
REMARK    1  A    between atoms: N3_4  and  N4_6 
REMARK    2  A    between atoms: C2_8  and  C3_9 
REMARK    3  A    between atoms: C8_14  and  C9_15 
ROOT
HETATM    1  C3  UNL     1      -0.346  -0.430   0.369  1.00  0.00     0.040 C 
HETATM    2  C4  UNL     1      -0.036   1.050   0.297  1.00  0.00     0.011 C 
HETATM    3  C5  UNL     1      -1.255   1.894   0.604  1.00  0.00     0.001 C 
HETATM    4  C6  UNL     1      -2.372   1.670  -0.379  1.00  0.00     0.001 C 
HETATM    5  C7  UNL     1      -2.340   0.242  -0.853  1.00  0.00     0.016 C 
HETATM    6  C8  UNL     1      -1.823  -0.602   0.297  1.00  0.00     0.096 C 
ENDROOT
BRANCH   1   7
HETATM    7  C2  UNL     1       0.394  -1.141  -0.678  1.00  0.00     0.085 C 
HETATM    8  N4  UNL     1       1.662  -1.341  -0.582  1.00  0.00    -0.313 N 
ATOM      9  H4  UNL     1       2.143  -1.839  -1.331  1.00  0.00     0.185 HD
BRANCH   8  10
HETATM   10  N3  UNL     1       2.397  -0.898   0.515  1.00  0.00    -0.277 N 
HETATM   11  C1  UNL     1       3.558  -0.341   0.399  1.00  0.00     0.215 C 
HETATM   12  N1  UNL     1       4.212   0.072   1.604  1.00  0.00    -0.065 NA
HETATM   13  N2  UNL     1       4.169  -0.141  -0.857  1.00  0.00    -0.065 NA
ATOM     14  H3  UNL     1       2.003  -1.018   1.448  1.00  0.00     0.189 HD
ENDBRANCH   8  10
ENDBRANCH   1   7
BRANCH   6  15
HETATM   15  C9  UNL     1      -2.248  -2.015   0.180  1.00  0.00     0.177 C 
HETATM   16  O1  UNL     1      -1.420  -2.963   0.148  1.00  0.00    -0.648 OA
HETATM   17  O2  UNL     1      -3.617  -2.263   0.106  1.00  0.00    -0.648 OA
ENDBRANCH   6  15
TORSDOF 3
