REMARK  5 active torsions:
REMARK  status: ('A' for Active; 'I' for Inactive)
REMARK    1  A    between atoms: C1_2  and  C2_4 
REMARK    2  A    between atoms: C2_4  and  N2_5 
REMARK    3  A    between atoms: C2_4  and  C6_10 
REMARK    4  A    between atoms: N2_5  and  C3_7 
REMARK    5  A    between atoms: C6_10  and  O2_11 
ROOT
HETATM    1  C2  UNL     1      -0.695  -0.821   0.222  1.00  0.00     0.201 C 
ENDROOT
BRANCH   1   2
HETATM    2  C1  UNL     1      -0.971  -1.691  -0.940  1.00  0.00     0.256 C 
HETATM    3  N1  UNL     1      -0.571  -3.083  -0.967  1.00  0.00    -0.060 NA
HETATM    4  O1  UNL     1      -1.567  -1.341  -1.991  1.00  0.00    -0.274 OA
ENDBRANCH   1   2
BRANCH   1   5
HETATM    5  N2  UNL     1      -1.772  -0.045   0.597  1.00  0.00    -0.403 N 
ATOM      6  H2  UNL     1      -2.148  -0.281   1.515  1.00  0.00     0.154 HD
BRANCH   5   7
HETATM    7  C3  UNL     1      -2.430   0.974  -0.020  1.00  0.00     0.077 A 
HETATM    8  C4  UNL     1      -3.237   1.148  -1.198  1.00  0.00     0.027 A 
HETATM    9  C5  UNL     1      -3.963   0.955   0.131  1.00  0.00     0.027 A 
ENDBRANCH   5   7
ENDBRANCH   1   5
BRANCH   1  10
HETATM   10  C6  UNL     1       0.575  -0.040  -0.072  1.00  0.00     0.086 C 
HETATM   11  C7  UNL     1       1.021   0.756   1.147  1.00  0.00     0.040 C 
HETATM   12  C8  UNL     1       2.473   1.145   1.090  1.00  0.00     0.003 C 
HETATM   13  C9  UNL     1       3.051   1.119  -0.290  1.00  0.00     0.000 C 
HETATM   14  C10 UNL     1       2.950  -0.265  -0.835  1.00  0.00     0.003 C 
HETATM   15  C11 UNL     1       1.689  -0.984  -0.387  1.00  0.00     0.040 C 
BRANCH  10  16
HETATM   16  O2  UNL     1       0.395   0.844  -1.127  1.00  0.00    -0.387 OA
ATOM     17  H2  UNL     1       1.189   1.332  -1.311  1.00  0.00     0.210 HD
ENDBRANCH  10  16
ENDBRANCH   1  10
TORSDOF 5
