REMARK  4 active torsions:
REMARK  status: ('A' for Active; 'I' for Inactive)
REMARK    1  A    between atoms: C2_2  and  N1_3 
REMARK    2  A    between atoms: C2_2  and  C10_21 
REMARK       I    between atoms: N1_3  and  C3_5 
REMARK       I    between atoms: C3_5  and  N2_7 
REMARK    3  A    between atoms: C7_11  and  C8_12 
REMARK       I    between atoms: C8_12  and  N3_14 
REMARK    4  A    between atoms: N3_14  and  N4_16 
REMARK       I    between atoms: N4_16  and  C9_18 
ROOT
HETATM    1  N1  UNL     1      -2.555   0.108   0.390  1.00  0.00    -0.330 N 
ATOM      2  H1  UNL     1      -2.700   0.227   1.393  1.00  0.00     0.165 HD
HETATM    3  C3  UNL     1      -1.304  -0.341  -0.073  1.00  0.00     0.319 C 
HETATM    4  O1  UNL     1      -1.102  -0.497  -1.328  1.00  0.00    -0.247 OA
HETATM    5  N2  UNL     1      -0.218  -0.641   0.795  1.00  0.00    -0.321 N 
HETATM    6  C4  UNL     1      -0.270  -0.518   2.216  1.00  0.00     0.129 C 
HETATM    7  C5  UNL     1       0.919  -1.264   2.740  1.00  0.00     0.022 C 
HETATM    8  C6  UNL     1       1.505  -1.986   1.538  1.00  0.00     0.037 C 
HETATM    9  C7  UNL     1       1.067  -1.101   0.398  1.00  0.00     0.182 C 
ENDROOT
BRANCH   9  10
HETATM   10  C8  UNL     1       2.032  -0.012   0.108  1.00  0.00     0.259 C 
HETATM   11  O2  UNL     1       1.739   1.205   0.208  1.00  0.00    -0.269 OA
HETATM   12  N3  UNL     1       3.347  -0.355  -0.302  1.00  0.00    -0.265 N 
ATOM     13  H3  UNL     1       3.604  -1.338  -0.387  1.00  0.00     0.190 HD
BRANCH  12  14
HETATM   14  N4  UNL     1       4.297   0.629  -0.591  1.00  0.00    -0.251 N 
HETATM   15  C9  UNL     1       5.465   0.354  -1.337  1.00  0.00     0.347 C 
HETATM   16  N5  UNL     1       6.383   1.403  -1.594  1.00  0.00    -0.038 NA
HETATM   17  O3  UNL     1       5.730  -0.795  -1.789  1.00  0.00    -0.249 OA
ATOM     18  H4  UNL     1       4.142   1.578  -0.252  1.00  0.00     0.191 HD
ENDBRANCH  12  14
ENDBRANCH   9  10
BRANCH   1  19
HETATM   19  C2  UNL     1      -3.635   0.404  -0.515  1.00  0.00     0.171 C 
HETATM   20  C1  UNL     1      -4.796  -0.547  -0.344  1.00  0.00     0.042 C 
BRANCH  19  21
HETATM   21  C10 UNL     1      -4.118   1.789  -0.363  1.00  0.00     0.253 C 
HETATM   22  N6  UNL     1      -5.138   2.308  -1.169  1.00  0.00    -0.060 NA
HETATM   23  O4  UNL     1      -3.591   2.510   0.513  1.00  0.00    -0.275 OA
ENDBRANCH  19  21
ENDBRANCH   1  19
TORSDOF 4
