REMARK  5 active torsions:
REMARK  status: ('A' for Active; 'I' for Inactive)
REMARK    1  A    between atoms: C2_2  and  O1_3 
REMARK    2  A    between atoms: C4_6  and  N1_7 
REMARK       I    between atoms: N1_7  and  C5_9 
REMARK       I    between atoms: C5_9  and  N4_15 
REMARK    3  A    between atoms: N2_10  and  N3_12 
REMARK    4  A    between atoms: N4_15  and  S1_17 
REMARK    5  A    between atoms: S1_17  and  N5_18 
ROOT
HETATM    1  N1  UNL     1       0.654  -0.804   0.086  1.00  0.00    -0.219 N 
ATOM      2  H1  UNL     1       0.479  -1.571  -0.563  1.00  0.00     0.178 HD
HETATM    3  C5  UNL     1       1.971  -0.261   0.139  1.00  0.00     0.703 C 
HETATM    4  N2  UNL     1       3.019  -1.047   0.202  1.00  0.00    -0.138 N 
ATOM      5  H2  UNL     1       3.962  -0.659   0.240  1.00  0.00     0.205 HD
HETATM    6  N4  UNL     1       2.237   1.124   0.127  1.00  0.00    -0.099 N 
ATOM      7  H4  UNL     1       1.799   1.733   0.818  1.00  0.00     0.199 HD
ENDROOT
BRANCH   1   8
HETATM    8  C4  UNL     1      -0.442  -0.338   0.890  1.00  0.00     0.113 C 
HETATM    9  C3  UNL     1      -0.805   1.122   0.700  1.00  0.00     0.064 C 
HETATM   10  C2  UNL     1      -2.263   0.675   0.638  1.00  0.00     0.065 C 
HETATM   11  C1  UNL     1      -3.087   1.397  -0.393  1.00  0.00     0.047 C 
HETATM   12  C6  UNL     1      -1.771  -0.682   0.252  1.00  0.00     0.004 C 
HETATM   13  C7  UNL     1      -2.440  -1.850   0.918  1.00  0.00     0.020 C 
HETATM   14  C8  UNL     1      -1.685  -0.880  -1.250  1.00  0.00     0.020 C 
BRANCH  10  15
HETATM   15  O1  UNL     1      -2.902   0.739   1.886  1.00  0.00    -0.389 OA
ATOM     16  H1  UNL     1      -2.382   0.283   2.537  1.00  0.00     0.210 HD
ENDBRANCH  10  15
ENDBRANCH   1   8
BRANCH   4  17
HETATM   17  N3  UNL     1       2.812  -2.428   0.216  1.00  0.00    -0.331 N 
ATOM     18  H32 UNL     1       1.863  -2.800   0.178  1.00  0.00     0.177 HD
ATOM     19  H31 UNL     1       3.627  -3.039   0.265  1.00  0.00     0.177 HD
ENDBRANCH   4  17
BRANCH   6  20
HETATM   20  S1  UNL     1       3.294   1.785  -1.046  1.00  0.00     0.330 S 
HETATM   21  O2  UNL     1       2.965   3.184  -1.423  1.00  0.00    -0.182 OA
HETATM   22  O3  UNL     1       3.323   0.964  -2.310  1.00  0.00    -0.182 OA
BRANCH  20  23
HETATM   23  N5  UNL     1       4.921   1.770  -0.424  1.00  0.00    -0.311 N 
ATOM     24  H52 UNL     1       5.186   1.419   0.496  1.00  0.00     0.170 HD
ATOM     25  H51 UNL     1       5.551   2.164  -1.123  1.00  0.00     0.170 HD
ENDBRANCH  20  23
ENDBRANCH   6  20
TORSDOF 5
