REMARK  5 active torsions:
REMARK  status: ('A' for Active; 'I' for Inactive)
REMARK       I    between atoms: C1_4  and  N3_6 
REMARK       I    between atoms: N4_9  and  C4_10 
REMARK    1  A    between atoms: C4_10  and  C5_12 
REMARK    2  A    between atoms: C5_12  and  C6_13 
REMARK    3  A    between atoms: N5_14  and  C7_16 
REMARK    4  A    between atoms: C7_16  and  N6_18 
REMARK    5  A    between atoms: N6_18  and  N7_20 
ROOT
HETATM    1  N1  UNL     1      -4.597   2.115   0.448  1.00  0.00    -0.374 N 
ATOM      2  H11 UNL     1      -3.814   2.434   1.019  1.00  0.00     0.158 HD
ATOM      3  H12 UNL     1      -5.479   2.623   0.383  1.00  0.00     0.158 HD
HETATM    4  C1  UNL     1      -4.431   1.012  -0.211  1.00  0.00     0.184 C 
HETATM    5  N2  UNL     1      -5.522   0.567  -1.006  1.00  0.00    -0.064 NA
HETATM    6  N3  UNL     1      -3.202   0.304  -0.121  1.00  0.00    -0.353 N 
HETATM    7  C2  UNL     1      -3.124  -1.140  -0.013  1.00  0.00     0.145 C 
HETATM    8  C3  UNL     1      -1.853  -1.521   0.751  1.00  0.00     0.145 C 
HETATM    9  N4  UNL     1      -0.749  -1.009  -0.046  1.00  0.00    -0.349 N 
HETATM   10  C4  UNL     1       0.532  -1.618  -0.047  1.00  0.00     0.224 C 
HETATM   11  O1  UNL     1       0.684  -2.639   0.689  1.00  0.00    -0.273 OA
HETATM   12  C8  UNL     1      -0.939   0.165  -0.875  1.00  0.00     0.145 C 
HETATM   13  C9  UNL     1      -1.954   1.040  -0.134  1.00  0.00     0.145 C 
ENDROOT
BRANCH  10  14
HETATM   14  C5  UNL     1       1.660  -1.131  -0.841  1.00  0.00     0.147 C 
BRANCH  14  15
HETATM   15  C6  UNL     1       2.560  -0.234  -0.077  1.00  0.00     0.072 C 
HETATM   16  N5  UNL     1       3.840  -0.252  -0.234  1.00  0.00    -0.345 N 
ATOM     17  H5  UNL     1       4.245  -0.905  -0.905  1.00  0.00     0.167 HD
BRANCH  16  18
HETATM   18  C7  UNL     1       4.697   0.599   0.490  1.00  0.00     0.189 C 
HETATM   19  S1  UNL     1       4.043   1.957   1.121  1.00  0.00    -0.039 SA
BRANCH  18  20
HETATM   20  N6  UNL     1       6.056   0.294   0.663  1.00  0.00    -0.283 N 
ATOM     21  H6  UNL     1       6.448  -0.558   0.262  1.00  0.00     0.188 HD
BRANCH  20  22
HETATM   22  N7  UNL     1       6.867   1.172   1.392  1.00  0.00    -0.343 N 
ATOM     23  H72 UNL     1       6.459   2.020   1.786  1.00  0.00     0.176 HD
ATOM     24  H71 UNL     1       7.855   0.950   1.518  1.00  0.00     0.176 HD
ENDBRANCH  20  22
ENDBRANCH  18  20
ENDBRANCH  16  18
ENDBRANCH  14  15
ENDBRANCH  10  14
TORSDOF 5
