REMARK  9 active torsions:
REMARK  status: ('A' for Active; 'I' for Inactive)
REMARK    1  A    between atoms: C2_2  and  C4_4 
REMARK    2  A    between atoms: C4_4  and  C5_5 
REMARK    3  A    between atoms: C7_7  and  O1_8 
REMARK    4  A    between atoms: C11_13  and  O2_14 
REMARK    5  A    between atoms: C11_13  and  C12_16 
REMARK    6  A    between atoms: C12_16  and  O3_18 
REMARK    7  A    between atoms: O3_18  and  C14_19 
REMARK    8  A    between atoms: C14_19  and  C15_21 
REMARK    9  A    between atoms: C16_22  and  C17_23 
ROOT
HETATM    1  C5  UNL     1      -3.635   0.344   0.030  1.00  0.00     0.163 C 
HETATM    2  C6  UNL     1      -3.028   0.097   1.402  1.00  0.00     0.067 C 
HETATM    3  C7  UNL     1      -2.444  -1.244   1.571  1.00  0.00     0.134 C 
HETATM    4  C8  UNL     1      -1.140  -1.541   0.921  1.00  0.00     0.040 C 
HETATM    5  C9  UNL     1      -0.044  -1.194   1.940  1.00  0.00     0.023 C 
HETATM    6  C10 UNL     1      -1.098  -3.054   0.758  1.00  0.00     0.023 C 
HETATM    7  C11 UNL     1      -0.906  -0.778  -0.312  1.00  0.00     0.231 C 
HETATM    8  O5  UNL     1      -2.090  -0.768  -1.049  1.00  0.00    -0.197 OA
HETATM    9  O6  UNL     1      -2.719   0.359  -0.979  1.00  0.00    -0.232 OA
ENDROOT
BRANCH   7  10
HETATM   10  O2  UNL     1      -0.691   0.569   0.083  1.00  0.00    -0.361 OA
ATOM     11  H2  UNL     1      -0.540   1.063  -0.715  1.00  0.00     0.213 HD
ENDBRANCH   7  10
BRANCH   7  12
HETATM   12  C12 UNL     1       0.240  -1.110  -1.169  1.00  0.00     0.194 C 
HETATM   13  C13 UNL     1       0.265  -2.394  -1.889  1.00  0.00     0.046 C 
BRANCH  12  14
HETATM   14  O3  UNL     1       1.487  -0.995  -0.496  1.00  0.00    -0.307 OA
BRANCH  14  15
HETATM   15  C14 UNL     1       2.466  -0.075  -0.808  1.00  0.00     0.283 C 
HETATM   16  O4  UNL     1       2.233   0.715  -1.756  1.00  0.00    -0.260 OA
BRANCH  15  17
HETATM   17  C15 UNL     1       3.715  -0.021  -0.072  1.00  0.00     0.079 C 
HETATM   18  C16 UNL     1       4.616   0.876  -0.411  1.00  0.00    -0.012 C 
BRANCH  18  19
HETATM   19  C17 UNL     1       5.926   0.998   0.294  1.00  0.00    -0.034 C 
HETATM   20  C18 UNL     1       6.314   2.453   0.279  1.00  0.00     0.018 C 
HETATM   21  C19 UNL     1       5.786   0.541   1.730  1.00  0.00     0.018 C 
HETATM   22  C20 UNL     1       6.978   0.177  -0.375  1.00  0.00     0.018 C 
ENDBRANCH  18  19
ENDBRANCH  15  17
ENDBRANCH  14  15
ENDBRANCH  12  14
ENDBRANCH   7  12
BRANCH   3  23
HETATM   23  O1  UNL     1      -3.433  -2.156   1.122  1.00  0.00    -0.395 OA
ATOM     24  H1  UNL     1      -3.056  -3.021   1.231  1.00  0.00     0.210 HD
ENDBRANCH   3  23
BRANCH   1  25
HETATM   25  C4  UNL     1      -4.515   1.543   0.114  1.00  0.00     0.039 C 
BRANCH  25  26
HETATM   26  C2  UNL     1      -5.195   1.926  -1.157  1.00  0.00    -0.020 C 
HETATM   27  C1  UNL     1      -4.158   2.233  -2.212  1.00  0.00     0.009 C 
HETATM   28  C3  UNL     1      -6.101   0.865  -1.699  1.00  0.00     0.009 C 
ENDBRANCH  25  26
ENDBRANCH   1  25
TORSDOF 9
