REMARK  7 active torsions:
REMARK  status: ('A' for Active; 'I' for Inactive)
REMARK    1  A    between atoms: C2_2  and  O1_3 
REMARK    2  A    between atoms: O1_3  and  C3_4 
REMARK    3  A    between atoms: C3_4  and  C4_6 
REMARK    4  A    between atoms: C5_7  and  C6_8 
REMARK    5  A    between atoms: C6_8  and  O4_10 
REMARK    6  A    between atoms: O4_10  and  O5_11 
REMARK    7  A    between atoms: N1_15  and  C9_16 
ROOT
HETATM    1  C4  UNL     1      -2.286   0.361  -0.269  1.00  0.00     0.099 A 
HETATM    2  C5  UNL     1      -1.946   1.616  -0.677  1.00  0.00     0.084 A 
HETATM    3  C7  UNL     1      -0.614   1.750  -0.463  1.00  0.00     0.031 A 
HETATM    4  C8  UNL     1       0.120   3.013  -0.774  1.00  0.00     0.070 C 
HETATM    5  N1  UNL     1      -0.126   0.588   0.074  1.00  0.00    -0.309 N 
HETATM    6  C19 UNL     1      -1.143  -0.252   0.191  1.00  0.00     0.140 A 
HETATM    7  N2  UNL     1      -1.074  -1.578   0.726  1.00  0.00    -0.081 NA
ENDROOT
BRANCH   5   8
HETATM    8  C9  UNL     1       1.252   0.479   0.391  1.00  0.00     0.004 C 
HETATM    9  C10 UNL     1       2.192   0.607  -0.787  1.00  0.00     0.033 C 
HETATM   10  C11 UNL     1       3.508   1.231  -0.292  1.00  0.00     0.015 C 
HETATM   11  C15 UNL     1       2.534  -0.709  -1.440  1.00  0.00     0.015 C 
HETATM   12  C12 UNL     1       4.036   0.348   0.804  1.00  0.00    -0.013 C 
HETATM   13  C13 UNL     1       4.470  -0.954   0.160  1.00  0.00     0.009 C 
HETATM   14  C18 UNL     1       3.044   0.043   1.884  1.00  0.00     0.015 C 
HETATM   15  C14 UNL     1       3.255  -1.568  -0.461  1.00  0.00    -0.013 C 
HETATM   16  C16 UNL     1       2.281  -1.835   0.671  1.00  0.00     0.015 C 
HETATM   17  C17 UNL     1       1.747  -0.585   1.260  1.00  0.00     0.033 C 
ENDBRANCH   5   8
BRANCH   2  18
HETATM   18  C6  UNL     1      -2.842   2.651  -1.248  1.00  0.00     0.325 C 
HETATM   19  O3  UNL     1      -3.058   2.758  -2.461  1.00  0.00    -0.257 OA
BRANCH  18  20
HETATM   20  O4  UNL     1      -3.466   3.542  -0.369  1.00  0.00    -0.156 OA
BRANCH  20  21
HETATM   21  O5  UNL     1      -4.277   4.482  -0.864  1.00  0.00    -0.242 OA
ATOM     22  H5  UNL     1      -4.701   5.087  -0.267  1.00  0.00     0.254 HD
ENDBRANCH  20  21
ENDBRANCH  18  20
ENDBRANCH   2  18
BRANCH   1  23
HETATM   23  C3  UNL     1      -3.624  -0.212  -0.318  1.00  0.00     0.297 C 
HETATM   24  O2  UNL     1      -4.580   0.467  -0.766  1.00  0.00    -0.259 OA
BRANCH  23  25
HETATM   25  O1  UNL     1      -3.847  -1.496   0.124  1.00  0.00    -0.318 OA
BRANCH  25  26
HETATM   26  C2  UNL     1      -5.127  -2.087   0.094  1.00  0.00     0.174 C 
HETATM   27  C1  UNL     1      -5.032  -3.501   0.649  1.00  0.00     0.034 C 
ENDBRANCH  25  26
ENDBRANCH  23  25
ENDBRANCH   1  23
TORSDOF 7
