REMARK  6 active torsions:
REMARK  status: ('A' for Active; 'I' for Inactive)
REMARK    1  A    between atoms: C1_2  and  C2_3 
REMARK    2  A    between atoms: C1_2  and  N2_12 
REMARK    3  A    between atoms: C2_3  and  S2_4 
REMARK    4  A    between atoms: S2_4  and  C3_5 
REMARK    5  A    between atoms: N2_12  and  C7_14 
REMARK    6  A    between atoms: C12_19  and  N3_20 
ROOT
HETATM    1  C7  UNL     1      -1.096  -0.570  -0.739  1.00  0.00     0.059 A 
HETATM    2  C8  UNL     1      -0.096  -1.498  -1.003  1.00  0.00     0.032 A 
HETATM    3  C9  UNL     1      -0.367  -2.856  -1.201  1.00  0.00     0.002 A 
HETATM    4  C10 UNL     1      -1.656  -3.297  -1.134  1.00  0.00     0.002 A 
HETATM    5  C11 UNL     1      -2.647  -2.383  -0.874  1.00  0.00     0.031 A 
HETATM    6  C12 UNL     1      -2.419  -1.038  -0.675  1.00  0.00     0.057 A 
ENDROOT
BRANCH   1   7
HETATM    7  N2  UNL     1      -0.900   0.792  -0.506  1.00  0.00    -0.348 N 
ATOM      8  H2  UNL     1      -1.761   1.315  -0.347  1.00  0.00     0.166 HD
BRANCH   7   9
HETATM    9  C1  UNL     1       0.255   1.569  -0.450  1.00  0.00     0.087 C 
HETATM   10  S1  UNL     1       0.007   3.239  -0.149  1.00  0.00    -0.065 SA
BRANCH   9  11
HETATM   11  C2  UNL     1       1.675   1.257  -0.592  1.00  0.00     0.151 C 
BRANCH  11  12
HETATM   12  S2  UNL     1       2.261   0.529   0.972  1.00  0.00    -0.099 SA
BRANCH  12  13
HETATM   13  C3  UNL     1       3.995   0.116   0.885  1.00  0.00     0.103 C 
HETATM   14  N1  UNL     1       4.547  -0.397   1.892  1.00  0.00    -0.379 N 
HETATM   15  C4  UNL     1       5.921  -0.781   1.976  1.00  0.00     0.121 C 
ATOM     16  H1  UNL     1       3.966  -0.552   2.716  1.00  0.00     0.160 HD
HETATM   17  C5  UNL     1       6.827   0.103   1.165  1.00  0.00     0.030 C 
HETATM   18  C6  UNL     1       6.618  -0.007  -0.317  1.00  0.00     0.083 C 
HETATM   19  S3  UNL     1       4.871   0.454  -0.638  1.00  0.00    -0.105 SA
ENDBRANCH  12  13
ENDBRANCH  11  12
ENDBRANCH   9  11
ENDBRANCH   7   9
ENDBRANCH   1   7
BRANCH   6  20
HETATM   20  N3  UNL     1      -3.497  -0.140  -0.458  1.00  0.00    -0.376 N 
HETATM   21  C13 UNL     1      -4.013   0.738  -1.474  1.00  0.00     0.150 C 
HETATM   22  C14 UNL     1      -4.793   1.888  -0.955  1.00  0.00     0.252 C 
HETATM   23  N4  UNL     1      -4.642   2.142   0.462  1.00  0.00    -0.072 N 
HETATM   24  C15 UNL     1      -5.054   0.941   1.143  1.00  0.00     0.252 C 
ATOM     25  H42 UNL     1      -3.704   2.449   0.719  1.00  0.00     0.277 HD
ATOM     26  H41 UNL     1      -5.140   2.975   0.777  1.00  0.00     0.277 HD
HETATM   27  C16 UNL     1      -4.082  -0.144   0.858  1.00  0.00     0.150 C 
ENDBRANCH   6  20
TORSDOF 6
