REMARK  11 active torsions:
REMARK  status: ('A' for Active; 'I' for Inactive)
REMARK    1  A    between atoms: N1_1  and  C1_5 
REMARK    2  A    between atoms: C1_5  and  C2_6 
REMARK    3  A    between atoms: C3_8  and  C4_9 
REMARK    4  A    between atoms: C5_15  and  N5_16 
REMARK    5  A    between atoms: C6_23  and  C7_24 
REMARK       I    between atoms: C7_24  and  N7_26 
REMARK    6  A    between atoms: N7_26  and  C8_28 
REMARK    7  A    between atoms: C9_29  and  O3_30 
REMARK    8  A    between atoms: C11_36  and  C12_37 
REMARK    9  A    between atoms: C12_37  and  N9_38 
REMARK   10  A    between atoms: C12_37  and  O4_42 
REMARK   11  A    between atoms: C13_45  and  O6_46 
ROOT
HETATM    1  C7  UNL     1       0.121   0.439  -0.247  1.00  0.00     0.269 C 
HETATM    2  O2  UNL     1       0.001   1.619  -0.069  1.00  0.00    -0.266 OA
HETATM    3  N7  UNL     1      -0.839  -0.446  -0.309  1.00  0.00    -0.344 N 
ATOM      4  H7  UNL     1      -0.502  -1.386  -0.518  1.00  0.00     0.163 HD
ENDROOT
BRANCH   1   5
HETATM    5  C6  UNL     1       1.496  -0.013  -0.396  1.00  0.00     0.116 A 
HETATM    6  C2  UNL     1       2.054  -0.068  -1.593  1.00  0.00     0.042 A 
HETATM    7  S1  UNL     1       3.740  -0.492  -1.189  1.00  0.00    -0.073 SA
HETATM    8  C3  UNL     1       3.514  -0.563   0.577  1.00  0.00     0.099 A 
HETATM    9  N6  UNL     1       2.237  -0.266   0.647  1.00  0.00    -0.345 N 
ATOM     10  H6  UNL     1       1.800  -0.231   1.568  1.00  0.00     0.166 HD
BRANCH   6  11
HETATM   11  C1  UNL     1       1.392   0.047  -2.903  1.00  0.00     0.278 C 
BRANCH  11  12
HETATM   12  N1  UNL     1       2.223   1.056  -3.613  1.00  0.00    -0.075 N 
ATOM     13  H13 UNL     1       2.337   1.939  -3.115  1.00  0.00     0.274 HD
ATOM     14  H12 UNL     1       3.217   0.833  -3.657  1.00  0.00     0.274 HD
ATOM     15  H11 UNL     1       1.764   1.136  -4.521  1.00  0.00     0.274 HD
ENDBRANCH  11  12
ENDBRANCH   6  11
BRANCH   8  16
HETATM   16  C4  UNL     1       4.504  -0.896   1.598  1.00  0.00     0.297 C 
HETATM   17  N2  UNL     1       5.338  -1.997   1.261  1.00  0.00    -0.086 NA
HETATM   18  N3  UNL     1       6.241  -1.739   0.240  1.00  0.00    -0.245 N 
HETATM   19  N4  UNL     1       6.893  -0.542   0.302  1.00  0.00    -0.273 N 
ATOM     20  H3  UNL     1       6.408  -2.406  -0.514  1.00  0.00     0.203 HD
HETATM   21  C5  UNL     1       6.137   0.555   0.844  1.00  0.00     0.443 C 
ATOM     22  H4  UNL     1       7.856  -0.432  -0.016  1.00  0.00     0.186 HD
HETATM   23  O1  UNL     1       5.316   0.185   1.892  1.00  0.00    -0.313 OA
BRANCH  21  24
HETATM   24  N5  UNL     1       7.099   1.545   1.321  1.00  0.00    -0.033 N 
ATOM     25  H53 UNL     1       7.775   1.160   1.981  1.00  0.00     0.279 HD
ATOM     26  H52 UNL     1       7.765   1.833   0.604  1.00  0.00     0.279 HD
ATOM     27  H51 UNL     1       6.563   2.323   1.705  1.00  0.00     0.279 HD
ENDBRANCH  21  24
ENDBRANCH   8  16
ENDBRANCH   1   5
BRANCH   3  28
HETATM   28  C8  UNL     1      -2.261  -0.384  -0.147  1.00  0.00     0.170 C 
HETATM   29  C9  UNL     1      -2.628  -1.472   0.829  1.00  0.00     0.171 C 
HETATM   30  C10 UNL     1      -4.050  -1.861   0.653  1.00  0.00     0.269 C 
HETATM   31  N8  UNL     1      -4.765  -0.771   0.068  1.00  0.00    -0.042 N 
HETATM   32  C11 UNL     1      -4.830   0.299   1.017  1.00  0.00     0.379 C 
ATOM     33  H82 UNL     1      -4.367  -0.477  -0.824  1.00  0.00     0.280 HD
ATOM     34  H81 UNL     1      -5.686  -1.047  -0.272  1.00  0.00     0.280 HD
HETATM   35  O5  UNL     1      -3.659   0.787   1.487  1.00  0.00    -0.323 OA
HETATM   36  C13 UNL     1      -2.665   0.939   0.532  1.00  0.00     0.284 C 
BRANCH  29  37
HETATM   37  O3  UNL     1      -2.336  -1.034   2.132  1.00  0.00    -0.392 OA
ATOM     38  H3  UNL     1      -2.567  -1.720   2.747  1.00  0.00     0.210 HD
ENDBRANCH  29  37
BRANCH  32  39
HETATM   39  C12 UNL     1      -5.796   1.342   0.534  1.00  0.00     0.373 C 
BRANCH  39  40
HETATM   40  N9  UNL     1      -7.144   0.762   0.730  1.00  0.00    -0.049 N 
ATOM     41  H93 UNL     1      -7.267  -0.147   0.283  1.00  0.00     0.277 HD
ATOM     42  H92 UNL     1      -7.321   0.453   1.686  1.00  0.00     0.277 HD
ATOM     43  H91 UNL     1      -7.800   1.471   0.402  1.00  0.00     0.277 HD
ENDBRANCH  39  40
BRANCH  39  44
HETATM   44  O4  UNL     1      -5.808   2.483   1.347  1.00  0.00    -0.367 OA
ATOM     45  H4  UNL     1      -6.419   3.143   1.041  1.00  0.00     0.212 HD
ENDBRANCH  39  44
ENDBRANCH  32  39
BRANCH  36  46
HETATM   46  O6  UNL     1      -3.171   1.798  -0.455  1.00  0.00    -0.369 OA
ATOM     47  H6  UNL     1      -3.420   2.614  -0.036  1.00  0.00     0.212 HD
ENDBRANCH  36  46
ENDBRANCH   3  28
TORSDOF 11
