REMARK  15 active torsions:
REMARK  status: ('A' for Active; 'I' for Inactive)
REMARK    1  A    between atoms: C4_7  and  C5_8 
REMARK    2  A    between atoms: C5_8  and  O1_9 
REMARK    3  A    between atoms: C5_8  and  C6_11 
REMARK    4  A    between atoms: C7_13  and  N3_14 
REMARK    5  A    between atoms: N3_14  and  C8_17 
REMARK    6  A    between atoms: C8_17  and  O3_18 
REMARK    7  A    between atoms: C8_17  and  C9_20 
REMARK    8  A    between atoms: C10_23  and  O6_24 
REMARK    9  A    between atoms: C10_23  and  C11_26 
REMARK   10  A    between atoms: C12_27  and  N4_28 
REMARK   11  A    between atoms: N4_28  and  O7_29 
REMARK   12  A    between atoms: N4_28  and  N5_31 
REMARK   13  A    between atoms: N5_31  and  O8_32 
REMARK   14  A    between atoms: C13_34  and  O9_35 
REMARK   15  A    between atoms: C14_39  and  N7_40 
ROOT
HETATM    1  N1  UNL     1       7.461  -2.308  -0.485  1.00  0.00    -0.190 NA
HETATM    2  C1  UNL     1       6.461  -1.696  -0.432  1.00  0.00     0.121 C 
HETATM    3  C2  UNL     1       5.247  -0.926  -0.370  1.00  0.00     0.157 A 
HETATM    4  N2  UNL     1       4.880  -0.131  -1.392  1.00  0.00    -0.352 N 
ATOM      5  H2  UNL     1       5.458  -0.064  -2.230  1.00  0.00     0.166 HD
HETATM    6  C3  UNL     1       3.728   0.580  -1.290  1.00  0.00     0.117 A 
HETATM    7  C4  UNL     1       2.929   0.507  -0.172  1.00  0.00     0.058 A 
HETATM    8  N6  UNL     1       3.282  -0.283   0.857  1.00  0.00    -0.340 N 
ATOM      9  H6  UNL     1       2.703  -0.350   1.694  1.00  0.00     0.167 HD
HETATM   10  C14 UNL     1       4.434  -0.987   0.744  1.00  0.00     0.137 A 
ENDROOT
BRANCH  10  11
HETATM   11  N7  UNL     1       4.773  -1.736   1.714  1.00  0.00    -0.383 N 
ATOM     12  H72 UNL     1       5.640  -2.266   1.629  1.00  0.00     0.157 HD
ATOM     13  H71 UNL     1       4.172  -1.781   2.537  1.00  0.00     0.157 HD
ENDBRANCH  10  11
BRANCH   7  14
HETATM   14  C5  UNL     1       1.667   1.295  -0.068  1.00  0.00     0.201 C 
BRANCH  14  15
HETATM   15  O1  UNL     1       1.925   2.597  -0.500  1.00  0.00    -0.387 OA
ATOM     16  H1  UNL     1       1.121   3.099  -0.434  1.00  0.00     0.210 HD
ENDBRANCH  14  15
BRANCH  14  17
HETATM   17  C6  UNL     1       0.612   0.729  -0.996  1.00  0.00     0.192 C 
HETATM   18  O2  UNL     1      -0.504   1.537  -0.896  1.00  0.00    -0.345 OA
HETATM   19  C7  UNL     1      -1.483   0.881  -0.202  1.00  0.00     0.375 C 
HETATM   20  C10 UNL     1      -1.324  -0.544  -0.733  1.00  0.00     0.203 C 
HETATM   21  C13 UNL     1       0.191  -0.675  -0.563  1.00  0.00     0.201 C 
BRANCH  19  22
HETATM   22  N3  UNL     1      -2.799   1.383  -0.376  1.00  0.00    -0.008 N 
ATOM     23  H32 UNL     1      -3.136   1.230  -1.326  1.00  0.00     0.284 HD
ATOM     24  H31 UNL     1      -3.485   0.819   0.126  1.00  0.00     0.284 HD
BRANCH  22  25
HETATM   25  C8  UNL     1      -2.881   2.771  -0.003  1.00  0.00     0.424 C 
BRANCH  25  26
HETATM   26  O3  UNL     1      -2.533   2.991   1.324  1.00  0.00    -0.362 OA
ATOM     27  H3  UNL     1      -2.587   3.907   1.570  1.00  0.00     0.212 HD
ENDBRANCH  25  26
BRANCH  25  28
HETATM   28  C9  UNL     1      -2.012   3.582  -0.890  1.00  0.00     0.232 C 
HETATM   29  O4  UNL     1      -1.116   4.331  -0.378  1.00  0.00    -0.645 OA
HETATM   30  O5  UNL     1      -2.118   3.574  -2.273  1.00  0.00    -0.645 OA
ENDBRANCH  25  28
ENDBRANCH  22  25
ENDBRANCH  19  22
BRANCH  20  31
HETATM   31  O6  UNL     1      -1.633  -0.608  -2.089  1.00  0.00    -0.371 OA
ATOM     32  H6  UNL     1      -1.534  -1.493  -2.419  1.00  0.00     0.212 HD
ENDBRANCH  20  31
BRANCH  20  33
HETATM   33  C11 UNL     1      -2.064  -1.473   0.077  1.00  0.00    -0.034 C 
HETATM   34  C12 UNL     1      -2.701  -2.255   0.742  1.00  0.00     0.061 C 
BRANCH  34  35
HETATM   35  N4  UNL     1      -3.444  -3.175   1.493  1.00  0.00    -0.094 N 
BRANCH  35  36
HETATM   36  O7  UNL     1      -4.441  -3.922   0.953  1.00  0.00    -0.262 OA
ATOM     37  H7  UNL     1      -4.945  -4.546   1.462  1.00  0.00     0.247 HD
ENDBRANCH  35  36
BRANCH  35  38
HETATM   38  N5  UNL     1      -3.153  -3.334   2.850  1.00  0.00     0.056 NA
BRANCH  38  39
HETATM   39  O8  UNL     1      -4.064  -2.746   3.645  1.00  0.00    -0.275 OA
ATOM     40  H8  UNL     1      -3.866  -2.854   4.568  1.00  0.00     0.240 HD
ENDBRANCH  38  39
ENDBRANCH  35  38
ENDBRANCH  34  35
ENDBRANCH  20  33
BRANCH  21  41
HETATM   41  O9  UNL     1       0.729  -1.662  -1.346  1.00  0.00    -0.389 OA
ATOM     42  H9  UNL     1       0.467  -2.535  -1.077  1.00  0.00     0.210 HD
ENDBRANCH  21  41
ENDBRANCH  14  17
ENDBRANCH   7  14
TORSDOF 15
