REMARK  9 active torsions:
REMARK  status: ('A' for Active; 'I' for Inactive)
REMARK    1  A    between atoms: C2_2  and  C3_3 
REMARK    2  A    between atoms: C3_3  and  C4_4 
REMARK    3  A    between atoms: C4_4  and  C5_5 
REMARK    4  A    between atoms: C5_5  and  C6_6 
REMARK    5  A    between atoms: C6_6  and  C7_7 
REMARK    6  A    between atoms: C7_7  and  C8_8 
REMARK       I    between atoms: C8_8  and  N1_10 
REMARK    7  A    between atoms: C11_13  and  N2_14 
REMARK       I    between atoms: N3_21  and  C18_23 
REMARK    8  A    between atoms: N5_25  and  C19_27 
REMARK    9  A    between atoms: C19_27  and  C20_31 
ROOT
HETATM    1  C8  UNL     1       1.655   0.120   0.412  1.00  0.00     0.220 C 
HETATM    2  O1  UNL     1       1.777   1.290  -0.007  1.00  0.00    -0.273 OA
HETATM    3  N1  UNL     1       0.414  -0.549   0.241  1.00  0.00    -0.347 N 
HETATM    4  C9  UNL     1       0.245  -1.883   0.714  1.00  0.00     0.128 C 
HETATM    5  C10 UNL     1      -1.153  -2.325   0.983  1.00  0.00     0.062 C 
HETATM    6  C11 UNL     1      -2.118  -1.870  -0.122  1.00  0.00     0.271 C 
HETATM    7  C17 UNL     1      -1.979  -0.380  -0.147  1.00  0.00     0.040 C 
HETATM    8  N3  UNL     1      -2.941   0.442   0.075  1.00  0.00    -0.334 N 
ATOM      9  H3  UNL     1      -3.868   0.071   0.284  1.00  0.00     0.168 HD
HETATM   10  C18 UNL     1      -2.757   1.851   0.039  1.00  0.00     0.193 C 
HETATM   11  N4  UNL     1      -2.620   2.499  -1.210  1.00  0.00    -0.063 NA
HETATM   12  N5  UNL     1      -2.714   2.553   1.111  1.00  0.00    -0.320 N 
ATOM     13  H5  UNL     1      -2.820   2.039   1.986  1.00  0.00     0.169 HD
HETATM   14  C22 UNL     1      -0.643   0.202  -0.436  1.00  0.00     0.180 C 
ENDROOT
BRANCH   6  15
HETATM   15  N2  UNL     1      -3.460  -2.280   0.154  1.00  0.00     0.098 N 
HETATM   16  C12 UNL     1      -3.549  -3.733   0.230  1.00  0.00     0.273 C 
HETATM   17  C13 UNL     1      -5.022  -4.010   0.583  1.00  0.00     0.030 C 
HETATM   18  C14 UNL     1      -5.783  -3.847  -0.705  1.00  0.00     0.003 C 
HETATM   19  C15 UNL     1      -5.149  -2.826  -1.556  1.00  0.00     0.030 C 
HETATM   20  C16 UNL     1      -4.320  -1.778  -0.896  1.00  0.00     0.273 C 
ENDBRANCH   6  15
BRANCH  12  21
HETATM   21  C19 UNL     1      -2.540   3.930   1.230  1.00  0.00     0.076 C 
HETATM   22  N6  UNL     1      -1.541   4.380   1.914  1.00  0.00    -0.389 N 
ATOM     23  H62 UNL     1      -0.915   3.698   2.342  1.00  0.00     0.157 HD
ATOM     24  H61 UNL     1      -1.414   5.388   2.001  1.00  0.00     0.157 HD
BRANCH  21  25
HETATM   25  C20 UNL     1      -3.460   4.932   0.602  1.00  0.00     0.071 C 
HETATM   26  C21 UNL     1      -4.852   4.662   1.124  1.00  0.00     0.013 C 
ENDBRANCH  21  25
ENDBRANCH  12  21
BRANCH   1  27
HETATM   27  C7  UNL     1       2.758  -0.592   1.083  1.00  0.00     0.103 C 
BRANCH  27  28
HETATM   28  C6  UNL     1       4.085   0.094   0.991  1.00  0.00     0.009 C 
BRANCH  28  29
HETATM   29  C5  UNL     1       4.535   0.204  -0.425  1.00  0.00     0.000 C 
BRANCH  29  30
HETATM   30  C4  UNL     1       5.875   0.910  -0.498  1.00  0.00     0.000 C 
BRANCH  30  31
HETATM   31  C3  UNL     1       6.951   0.181   0.264  1.00  0.00    -0.000 C 
BRANCH  31  32
HETATM   32  C2  UNL     1       8.259   0.940   0.144  1.00  0.00    -0.005 C 
HETATM   33  C1  UNL     1       8.691   1.066  -1.300  1.00  0.00     0.005 C 
ENDBRANCH  31  32
ENDBRANCH  30  31
ENDBRANCH  29  30
ENDBRANCH  28  29
ENDBRANCH  27  28
ENDBRANCH   1  27
TORSDOF 9
