REMARK  8 active torsions:
REMARK  status: ('A' for Active; 'I' for Inactive)
REMARK    1  A    between atoms: C3_3  and  C5_5 
REMARK    2  A    between atoms: C5_5  and  C6_6 
REMARK    3  A    between atoms: C5_5  and  N2_27 
REMARK    4  A    between atoms: C7_7  and  C8_8 
REMARK    5  A    between atoms: C10_10  and  C11_11 
REMARK    6  A    between atoms: N1_18  and  C18_19 
REMARK    7  A    between atoms: C18_19  and  C20_21 
REMARK    8  A    between atoms: N2_27  and  C23_29 
ROOT
HETATM    1  C11 UNL     1       1.533  -0.111   0.212  1.00  0.00     0.026 C 
HETATM    2  C12 UNL     1       2.219  -0.936   1.293  1.00  0.00    -0.010 C 
HETATM    3  C13 UNL     1       1.238  -1.109   2.442  1.00  0.00     0.010 C 
HETATM    4  C14 UNL     1       3.497  -0.343   1.779  1.00  0.00     0.005 C 
HETATM    5  C15 UNL     1       3.640   1.126   1.569  1.00  0.00     0.007 C 
HETATM    6  C16 UNL     1       3.286   1.612   0.208  1.00  0.00     0.017 C 
HETATM    7  C17 UNL     1       4.543   1.870  -0.635  1.00  0.00     0.132 C 
HETATM    8  N1  UNL     1       4.857   0.518  -1.053  1.00  0.00    -0.337 N 
HETATM    9  C21 UNL     1       3.655  -0.279  -1.085  1.00  0.00     0.225 C 
HETATM   10  O3  UNL     1       3.658  -1.483  -1.443  1.00  0.00    -0.273 OA
HETATM   11  C22 UNL     1       2.573   0.606  -0.638  1.00  0.00     0.091 C 
ENDROOT
BRANCH   1  12
HETATM   12  C10 UNL     1       0.676  -0.918  -0.642  1.00  0.00    -0.014 C 
HETATM   13  C8  UNL     1      -0.636  -0.806  -0.775  1.00  0.00    -0.066 C 
HETATM   14  C9  UNL     1      -1.228  -1.795  -1.735  1.00  0.00     0.048 C 
BRANCH  13  15
HETATM   15  C7  UNL     1      -1.395   0.178  -0.050  1.00  0.00     0.005 C 
HETATM   16  C6  UNL     1      -2.642   0.483  -0.007  1.00  0.00     0.003 C 
BRANCH  16  17
HETATM   17  C5  UNL     1      -3.835  -0.041  -0.682  1.00  0.00     0.128 C 
BRANCH  17  18
HETATM   18  C3  UNL     1      -4.458  -1.152   0.126  1.00  0.00    -0.062 C 
HETATM   19  C2  UNL     1      -4.018  -1.500   1.319  1.00  0.00    -0.026 C 
HETATM   20  C1  UNL     1      -4.584  -2.569   2.146  1.00  0.00     0.036 C 
HETATM   21  C4  UNL     1      -5.607  -1.870  -0.462  1.00  0.00     0.045 C 
ENDBRANCH  17  18
BRANCH  17  22
HETATM   22  N2  UNL     1      -4.762   0.878  -1.183  1.00  0.00    -0.407 N 
ATOM     23  H2  UNL     1      -4.831   0.938  -2.199  1.00  0.00     0.154 HD
BRANCH  22  24
HETATM   24  C23 UNL     1      -5.590   1.708  -0.472  1.00  0.00     0.069 C 
HETATM   25  C24 UNL     1      -4.977   2.779   0.403  1.00  0.00     0.031 C 
HETATM   26  C25 UNL     1      -6.719   1.115   0.344  1.00  0.00     0.031 C 
ENDBRANCH  22  24
ENDBRANCH  17  22
ENDBRANCH  16  17
ENDBRANCH  13  15
ENDBRANCH   1  12
BRANCH   8  27
HETATM   27  C18 UNL     1       6.198   0.075  -1.378  1.00  0.00     0.184 C 
HETATM   28  C19 UNL     1       7.081   0.228  -0.140  1.00  0.00     0.044 C 
BRANCH  27  29
HETATM   29  C20 UNL     1       6.784   0.881  -2.469  1.00  0.00     0.196 C 
HETATM   30  O1  UNL     1       6.106   1.801  -2.971  1.00  0.00    -0.646 OA
HETATM   31  O2  UNL     1       8.059   0.624  -2.928  1.00  0.00    -0.646 OA
ENDBRANCH  27  29
ENDBRANCH   8  27
TORSDOF 8
