REMARK  4 active torsions:
REMARK  status: ('A' for Active; 'I' for Inactive)
REMARK       I    between atoms: C1_2  and  N1_3 
REMARK       I    between atoms: C1_2  and  N4_13 
REMARK    1  A    between atoms: N1_3  and  C2_5 
REMARK    2  A    between atoms: N4_13  and  N5_15 
REMARK    3  A    between atoms: C4_17  and  C5_18 
REMARK    4  A    between atoms: C8_21  and  N6_22 
ROOT
HETATM    1  O1  UNL     1      -0.935  -1.817  -1.768  1.00  0.00    -0.245 OA
HETATM    2  C1  UNL     1      -1.507  -1.521  -0.690  1.00  0.00     0.340 C 
HETATM    3  N1  UNL     1      -2.828  -1.938  -0.444  1.00  0.00    -0.286 N 
ATOM      4  H1  UNL     1      -3.102  -2.918  -0.507  1.00  0.00     0.172 HD
HETATM    5  N4  UNL     1      -0.821  -0.757   0.302  1.00  0.00    -0.252 N 
ATOM      6  H4  UNL     1      -1.287  -0.518   1.178  1.00  0.00     0.191 HD
ENDROOT
BRANCH   5   7
HETATM    7  N5  UNL     1       0.481  -0.341   0.070  1.00  0.00    -0.305 N 
HETATM    8  C4  UNL     1       1.373  -0.262   0.999  1.00  0.00     0.144 C 
ATOM      9  H5  UNL     1       0.747  -0.085  -0.881  1.00  0.00     0.186 HD
BRANCH   8  10
HETATM   10  C5  UNL     1       2.733   0.173   0.754  1.00  0.00     0.095 A 
HETATM   11  C6  UNL     1       3.727   0.279   1.693  1.00  0.00     0.043 A 
HETATM   12  C7  UNL     1       4.859   0.722   1.062  1.00  0.00     0.065 A 
HETATM   13  C8  UNL     1       4.502   0.873  -0.272  1.00  0.00     0.215 A 
HETATM   14  O4  UNL     1       3.231   0.534  -0.399  1.00  0.00    -0.287 OA
BRANCH  13  15
HETATM   15  N6  UNL     1       5.355   1.314  -1.308  1.00  0.00    -0.090 N 
HETATM   16  O2  UNL     1       6.539   1.603  -1.050  1.00  0.00    -0.530 OA
HETATM   17  O3  UNL     1       4.922   1.433  -2.591  1.00  0.00    -0.530 OA
ENDBRANCH  13  15
ENDBRANCH   8  10
ENDBRANCH   5   7
BRANCH   3  18
HETATM   18  C2  UNL     1      -3.692  -0.996  -0.128  1.00  0.00     0.170 A 
HETATM   19  N2  UNL     1      -4.989  -1.141   0.146  1.00  0.00    -0.278 N 
HETATM   20  N3  UNL     1      -5.679  -0.105   0.435  1.00  0.00    -0.282 N 
ATOM     21  H2  UNL     1      -5.423  -2.064   0.125  1.00  0.00     0.189 HD
HETATM   22  C3  UNL     1      -5.079   1.086   0.452  1.00  0.00     0.160 A 
ATOM     23  H3  UNL     1      -6.673  -0.188   0.649  1.00  0.00     0.188 HD
HETATM   24  S1  UNL     1      -5.768   2.555   0.795  1.00  0.00    -0.051 SA
HETATM   25  S2  UNL     1      -3.472   0.688   0.037  1.00  0.00    -0.021 SA
ENDBRANCH   3  18
TORSDOF 4
