REMARK  5 active torsions:
REMARK  status: ('A' for Active; 'I' for Inactive)
REMARK    1  A    between atoms: C2_2  and  C3_3 
REMARK    2  A    between atoms: C3_3  and  O1_4 
REMARK    3  A    between atoms: O1_4  and  C4_5 
REMARK       I    between atoms: C4_5  and  N1_7 
REMARK    4  A    between atoms: C5_10  and  C6_11 
REMARK    5  A    between atoms: C11_22  and  N5_23 
ROOT
HETATM    1  C4  UNL     1      -2.137  -0.574  -0.047  1.00  0.00     0.401 C 
HETATM    2  O2  UNL     1      -2.227  -0.706  -1.331  1.00  0.00    -0.235 OA
HETATM    3  N1  UNL     1      -0.889  -0.149   0.495  1.00  0.00    -0.025 N 
HETATM    4  N2  UNL     1       0.102   0.087  -0.388  1.00  0.00    -0.270 N 
ATOM      5  H2  UNL     1      -0.086  -0.044  -1.382  1.00  0.00     0.188 HD
HETATM    6  C5  UNL     1       1.326   0.488  -0.010  1.00  0.00     0.120 A 
HETATM    7  C10 UNL     1       1.616   0.678   1.322  1.00  0.00     0.287 A 
HETATM    8  O3  UNL     1       2.760   1.061   1.721  1.00  0.00    -0.265 OA
HETATM    9  N4  UNL     1       0.643   0.447   2.197  1.00  0.00    -0.153 N 
ATOM     10  H4  UNL     1       0.822   0.577   3.193  1.00  0.00     0.187 HD
HETATM   11  C11 UNL     1      -0.603   0.035   1.780  1.00  0.00     0.705 A 
ENDROOT
BRANCH   6  12
HETATM   12  C6  UNL     1       2.321   0.751  -1.027  1.00  0.00     0.073 C 
HETATM   13  C7  UNL     1       3.536   0.291  -1.088  1.00  0.00     0.068 C 
HETATM   14  N3  UNL     1       4.518   0.556  -2.094  1.00  0.00    -0.384 N 
HETATM   15  S1  UNL     1       4.390  -0.864   0.025  1.00  0.00    -0.111 SA
HETATM   16  C8  UNL     1       5.861   0.381  -1.618  1.00  0.00     0.131 C 
ATOM     17  H3  UNL     1       4.289   0.839  -3.047  1.00  0.00     0.160 HD
HETATM   18  C9  UNL     1       5.904  -1.034  -1.014  1.00  0.00     0.100 C 
ENDBRANCH   6  12
BRANCH   1  19
HETATM   19  O1  UNL     1      -3.288  -0.872   0.611  1.00  0.00    -0.302 OA
BRANCH  19  20
HETATM   20  C3  UNL     1      -4.510  -1.285   0.090  1.00  0.00     0.180 C 
BRANCH  20  21
HETATM   21  C2  UNL     1      -5.178  -0.351  -0.857  1.00  0.00     0.022 C 
HETATM   22  C1  UNL     1      -5.487   0.996  -0.250  1.00  0.00     0.007 C 
ENDBRANCH  20  21
ENDBRANCH  19  20
ENDBRANCH   1  19
BRANCH  11  23
HETATM   23  N5  UNL     1      -1.474  -0.164   2.677  1.00  0.00    -0.233 N 
ATOM     24  H52 UNL     1      -2.397  -0.469   2.368  1.00  0.00     0.174 HD
ATOM     25  H51 UNL     1      -1.255  -0.023   3.663  1.00  0.00     0.174 HD
ENDBRANCH  11  23
TORSDOF 5
