REMARK  5 active torsions:
REMARK  status: ('A' for Active; 'I' for Inactive)
REMARK    1  A    between atoms: N1_2  and  C1_4 
REMARK    2  A    between atoms: C3_6  and  C4_7 
REMARK    3  A    between atoms: N2_8  and  C5_10 
REMARK    4  A    between atoms: C9_18  and  O3_19 
REMARK    5  A    between atoms: C10_21  and  N5_22 
ROOT
HETATM    1  C1  UNL     1      -3.801   1.203   0.193  1.00  0.00     0.106 A 
HETATM    2  C2  UNL     1      -2.442   1.461   0.252  1.00  0.00     0.052 A 
HETATM    3  C3  UNL     1      -1.507   0.486   0.113  1.00  0.00     0.018 A 
HETATM    4  C9  UNL     1      -1.937  -0.837  -0.099  1.00  0.00     0.110 A 
HETATM    5  C10 UNL     1      -3.274  -1.145  -0.166  1.00  0.00     0.139 A 
HETATM    6  C11 UNL     1      -4.201  -0.097  -0.015  1.00  0.00     0.075 A 
ENDROOT
BRANCH   3   7
HETATM    7  C4  UNL     1      -0.074   0.780   0.178  1.00  0.00     0.120 C 
HETATM    8  N2  UNL     1       0.794  -0.142   0.045  1.00  0.00    -0.201 N 
ATOM      9  H2  UNL     1       0.478  -1.099  -0.110  1.00  0.00     0.183 HD
BRANCH   8  10
HETATM   10  C5  UNL     1       2.181   0.119   0.105  1.00  0.00     0.673 C 
HETATM   11  N3  UNL     1       2.717   1.019  -0.642  1.00  0.00    -0.226 N 
HETATM   12  C6  UNL     1       4.147   1.225  -0.518  1.00  0.00     0.139 C 
ATOM     13  H3  UNL     1       2.158   1.566  -1.296  1.00  0.00     0.177 HD
HETATM   14  C7  UNL     1       4.802  -0.139  -0.552  1.00  0.00     0.040 C 
HETATM   15  C8  UNL     1       4.334  -0.998   0.577  1.00  0.00     0.139 C 
HETATM   16  N4  UNL     1       2.999  -0.628   1.003  1.00  0.00    -0.226 N 
ATOM     17  H4  UNL     1       2.652  -0.896   1.924  1.00  0.00     0.177 HD
ENDBRANCH   8  10
ENDBRANCH   3   7
BRANCH   4  18
HETATM   18  O3  UNL     1      -0.921  -1.752  -0.224  1.00  0.00    -0.357 OA
ATOM     19  H3  UNL     1      -1.211  -2.645  -0.367  1.00  0.00     0.217 HD
ENDBRANCH   4  18
BRANCH   1  20
HETATM   20  N1  UNL     1      -4.687   2.286   0.353  1.00  0.00    -0.116 N 
HETATM   21  O1  UNL     1      -4.285   3.439   0.525  1.00  0.00    -0.532 OA
HETATM   22  O2  UNL     1      -6.034   2.051   0.313  1.00  0.00    -0.532 OA
ENDBRANCH   1  20
BRANCH   5  23
HETATM   23  N5  UNL     1      -3.784  -2.428  -0.365  1.00  0.00    -0.113 N 
HETATM   24  O4  UNL     1      -4.912  -2.721   0.134  1.00  0.00    -0.532 OA
HETATM   25  O5  UNL     1      -3.150  -3.389  -1.053  1.00  0.00    -0.532 OA
ENDBRANCH   5  23
TORSDOF 5
