REMARK  8 active torsions:
REMARK  status: ('A' for Active; 'I' for Inactive)
REMARK    1  A    between atoms: C2_2  and  C3_3 
REMARK    2  A    between atoms: C4_4  and  C5_5 
REMARK    3  A    between atoms: C6_6  and  C7_7 
REMARK    4  A    between atoms: C15_15  and  O1_16 
REMARK    5  A    between atoms: C16_21  and  C17_22 
REMARK    6  A    between atoms: C17_22  and  O2_24 
REMARK    7  A    between atoms: C17_22  and  C19_26 
REMARK    8  A    between atoms: C20_29  and  O5_30 
ROOT
HETATM    1  C3  UNL     1       1.814  -0.640  -1.404  1.00  0.00     0.050 C 
HETATM    2  C4  UNL     1       1.273  -1.112  -0.097  1.00  0.00     0.215 C 
HETATM    3  N1  UNL     1       2.367  -1.053   0.876  1.00  0.00    -0.057 N 
ATOM      4  H11 UNL     1       2.374  -1.838   1.527  1.00  0.00     0.278 HD
ATOM      5  H12 UNL     1       2.253  -0.316   1.571  1.00  0.00     0.278 HD
HETATM    6  C16 UNL     1       3.566  -0.935   0.117  1.00  0.00     0.260 C 
HETATM    7  C20 UNL     1       3.114   0.021  -0.996  1.00  0.00     0.158 C 
ENDROOT
BRANCH   2   8
HETATM    8  C5  UNL     1       0.085  -0.396   0.380  1.00  0.00     0.003 C 
HETATM    9  C6  UNL     1      -1.159  -0.720   0.046  1.00  0.00    -0.016 C 
BRANCH   9  10
HETATM   10  C7  UNL     1      -2.334   0.009   0.535  1.00  0.00     0.007 C 
HETATM   11  C8  UNL     1      -2.454  -0.171   2.052  1.00  0.00     0.017 C 
HETATM   12  C9  UNL     1      -3.183  -1.482   1.721  1.00  0.00     0.007 C 
HETATM   13  C10 UNL     1      -3.580  -0.800   0.401  1.00  0.00     0.004 C 
HETATM   14  C11 UNL     1      -4.852  -0.067   0.581  1.00  0.00    -0.013 C 
HETATM   15  C12 UNL     1      -5.918  -0.781  -0.263  1.00  0.00     0.010 C 
HETATM   16  C13 UNL     1      -4.851   1.363   0.178  1.00  0.00     0.007 C 
HETATM   17  C14 UNL     1      -3.633   2.131   0.590  1.00  0.00     0.033 C 
HETATM   18  C15 UNL     1      -2.425   1.407   0.059  1.00  0.00     0.130 C 
BRANCH  18  19
HETATM   19  O1  UNL     1      -2.480   1.405  -1.327  1.00  0.00    -0.394 OA
ATOM     20  H1  UNL     1      -2.538   2.303  -1.633  1.00  0.00     0.210 HD
ENDBRANCH  18  19
ENDBRANCH   9  10
ENDBRANCH   2   8
BRANCH   1  21
HETATM   21  C2  UNL     1       0.903   0.308  -2.140  1.00  0.00     0.005 C 
HETATM   22  C1  UNL     1       1.577   0.699  -3.437  1.00  0.00     0.005 C 
ENDBRANCH   1  21
BRANCH   7  23
HETATM   23  O5  UNL     1       4.027   0.064  -2.025  1.00  0.00    -0.393 OA
ATOM     24  H5  UNL     1       4.843   0.479  -1.769  1.00  0.00     0.210 HD
ENDBRANCH   7  23
BRANCH   6  25
HETATM   25  C17 UNL     1       4.781  -0.459   0.825  1.00  0.00     0.172 C 
HETATM   26  C18 UNL     1       5.181  -1.526   1.823  1.00  0.00     0.060 C 
BRANCH  25  27
HETATM   27  O2  UNL     1       5.816  -0.454  -0.150  1.00  0.00    -0.377 OA
ATOM     28  H2  UNL     1       6.593  -0.149   0.303  1.00  0.00     0.211 HD
ENDBRANCH  25  27
BRANCH  25  29
HETATM   29  C19 UNL     1       4.734   0.871   1.409  1.00  0.00     0.210 C 
HETATM   30  O3  UNL     1       3.965   1.147   2.347  1.00  0.00    -0.646 OA
HETATM   31  O4  UNL     1       5.547   1.890   0.941  1.00  0.00    -0.646 OA
ENDBRANCH  25  29
ENDBRANCH   6  25
TORSDOF 8
