REMARK  11 active torsions:
REMARK  status: ('A' for Active; 'I' for Inactive)
REMARK    1  A    between atoms: C2_2  and  C3_3 
REMARK    2  A    between atoms: C3_3  and  C15_23 
REMARK    3  A    between atoms: C4_4  and  C5_5 
REMARK    4  A    between atoms: C5_5  and  C6_6 
REMARK    5  A    between atoms: C6_6  and  O1_7 
REMARK    6  A    between atoms: C6_6  and  C7_9 
REMARK    7  A    between atoms: C7_9  and  O2_10 
REMARK    8  A    between atoms: C7_9  and  C8_12 
REMARK    9  A    between atoms: C10_14  and  O3_15 
REMARK   10  A    between atoms: C13_21  and  C14_22 
REMARK       I    between atoms: N2_24  and  C16_25 
REMARK   11  A    between atoms: C20_30  and  O5_31 
ROOT
HETATM    1  C3  UNL     1      -1.253  -0.091  -0.529  1.00  0.00     0.013 C 
HETATM    2  C4  UNL     1      -0.248  -0.589   0.540  1.00  0.00     0.006 C 
HETATM    3  C12 UNL     1      -1.160  -0.607   1.700  1.00  0.00     0.009 A 
HETATM    4  C13 UNL     1      -2.472  -0.037   1.716  1.00  0.00     0.027 A 
HETATM    5  C18 UNL     1      -2.211  -1.484   1.141  1.00  0.00    -0.007 A 
HETATM    6  C19 UNL     1      -2.852  -2.610   1.788  1.00  0.00     0.019 C 
HETATM    7  C20 UNL     1      -2.124  -1.322  -0.383  1.00  0.00     0.138 C 
ENDROOT
BRANCH   2   8
HETATM    8  C5  UNL     1       0.993   0.187   0.617  1.00  0.00     0.040 C 
BRANCH   8   9
HETATM    9  C6  UNL     1       1.886  -0.416   1.710  1.00  0.00     0.153 C 
BRANCH   9  10
HETATM   10  O1  UNL     1       2.125  -1.732   1.316  1.00  0.00    -0.393 OA
ATOM     11  H1  UNL     1       2.678  -2.105   1.993  1.00  0.00     0.210 HD
ENDBRANCH   9  10
BRANCH   9  12
HETATM   12  C7  UNL     1       3.219   0.291   1.754  1.00  0.00     0.196 C 
BRANCH  12  13
HETATM   13  O2  UNL     1       4.079  -0.325   2.660  1.00  0.00    -0.387 OA
ATOM     14  H2  UNL     1       4.918   0.120   2.688  1.00  0.00     0.210 HD
ENDBRANCH  12  13
BRANCH  12  15
HETATM   15  C8  UNL     1       3.897   0.277   0.437  1.00  0.00     0.043 A 
HETATM   16  C9  UNL     1       3.973   1.336  -0.441  1.00  0.00     0.065 A 
HETATM   17  C10 UNL     1       4.680   0.934  -1.549  1.00  0.00     0.083 A 
HETATM   18  C11 UNL     1       5.031  -0.372  -1.338  1.00  0.00     0.124 A 
HETATM   19  N1  UNL     1       4.552  -0.735  -0.151  1.00  0.00    -0.364 N 
ATOM     20  H1  UNL     1       4.668  -1.662   0.258  1.00  0.00     0.165 HD
BRANCH  17  21
HETATM   21  O3  UNL     1       4.979   1.725  -2.678  1.00  0.00    -0.359 OA
ATOM     22  H3  UNL     1       5.468   1.447  -3.444  1.00  0.00     0.217 HD
ENDBRANCH  17  21
ENDBRANCH  12  15
ENDBRANCH   9  12
ENDBRANCH   8   9
ENDBRANCH   2   8
BRANCH   1  23
HETATM   23  C2  UNL     1      -0.626   0.090  -1.850  1.00  0.00     0.010 C 
HETATM   24  C1  UNL     1       0.002  -1.047  -2.524  1.00  0.00     0.006 C 
ENDBRANCH   1  23
BRANCH   1  25
HETATM   25  C15 UNL     1      -1.732   1.166  -0.017  1.00  0.00     0.122 A 
HETATM   26  C14 UNL     1      -3.055   0.752   0.669  1.00  0.00     0.117 A 
HETATM   27  N2  UNL     1      -2.872   1.949  -0.006  1.00  0.00    -0.338 N 
HETATM   28  C16 UNL     1      -3.488   3.194  -0.420  1.00  0.00     0.216 C 
HETATM   29  C17 UNL     1      -4.899   3.524  -0.089  1.00  0.00     0.117 C 
HETATM   30  O4  UNL     1      -2.860   4.037  -1.069  1.00  0.00    -0.274 OA
ENDBRANCH   1  25
BRANCH   7  31
HETATM   31  O5  UNL     1      -1.401  -2.450  -0.818  1.00  0.00    -0.394 OA
ATOM     32  H5  UNL     1      -1.947  -3.222  -0.726  1.00  0.00     0.210 HD
ENDBRANCH   7  31
TORSDOF 11
