REMARK  13 active torsions:
REMARK  status: ('A' for Active; 'I' for Inactive)
REMARK    1  A    between atoms: C2_2  and  C4_4 
REMARK    2  A    between atoms: C4_4  and  C5_5 
REMARK    3  A    between atoms: C4_4  and  C28_38 
REMARK    4  A    between atoms: C6_6  and  C7_7 
REMARK    5  A    between atoms: C7_7  and  O1_8 
REMARK    6  A    between atoms: C7_7  and  C8_10 
REMARK    7  A    between atoms: C8_10  and  O2_11 
REMARK    8  A    between atoms: O2_11  and  C9_12 
REMARK    9  A    between atoms: C9_12  and  C10_13 
REMARK   10  A    between atoms: C11_14  and  C13_16 
REMARK   11  A    between atoms: C14_17  and  C15_18 
REMARK   12  A    between atoms: C15_18  and  O3_19 
REMARK   13  A    between atoms: C16_21  and  O4_22 
ROOT
HETATM    1  C15 UNL     1      -5.897   0.052   0.512  1.00  0.00     0.127 C 
HETATM    2  C16 UNL     1      -7.182   0.199  -0.249  1.00  0.00     0.189 C 
HETATM    3  C17 UNL     1      -8.165   0.633   0.786  1.00  0.00     0.185 A 
HETATM    4  O5  UNL     1      -8.197   1.999   1.149  1.00  0.00    -0.371 OA
HETATM    5  C18 UNL     1      -7.439   1.148   1.929  1.00  0.00     0.179 A 
HETATM    6  C19 UNL     1      -5.952   1.011   1.642  1.00  0.00     0.111 C 
HETATM    7  C20 UNL     1      -5.392   2.360   1.355  1.00  0.00     0.038 C 
HETATM    8  C21 UNL     1      -5.344   0.496   2.870  1.00  0.00     0.075 C 
HETATM    9  N1  UNL     1      -4.864   0.090   3.838  1.00  0.00    -0.196 NA
ENDROOT
BRANCH   1  10
HETATM   10  C14 UNL     1      -4.704   0.162  -0.357  1.00  0.00     0.016 C 
HETATM   11  C13 UNL     1      -3.494   0.395   0.073  1.00  0.00     0.005 C 
BRANCH  11  12
HETATM   12  C11 UNL     1      -2.380   0.484  -0.887  1.00  0.00    -0.064 C 
HETATM   13  C10 UNL     1      -1.191   0.721  -0.393  1.00  0.00     0.006 C 
HETATM   14  C12 UNL     1      -2.672   0.305  -2.322  1.00  0.00     0.048 C 
BRANCH  13  15
HETATM   15  C9  UNL     1       0.101   0.862  -1.100  1.00  0.00     0.197 C 
BRANCH  15  16
HETATM   16  O2  UNL     1       1.068   0.074  -0.824  1.00  0.00    -0.364 OA
BRANCH  16  17
HETATM   17  C8  UNL     1       1.476  -1.143  -0.818  1.00  0.00     0.164 C 
HETATM   18  C22 UNL     1       0.784  -2.123   0.062  1.00  0.00     0.187 C 
HETATM   19  O6  UNL     1      -0.057  -1.941   0.935  1.00  0.00    -0.290 OA
HETATM   20  C23 UNL     1       1.339  -3.395  -0.348  1.00  0.00     0.050 C 
HETATM   21  C24 UNL     1       1.799  -3.329  -1.575  1.00  0.00    -0.011 C 
HETATM   22  C25 UNL     1       1.563  -1.967  -2.064  1.00  0.00     0.012 C 
HETATM   23  C26 UNL     1       0.219  -2.105  -2.759  1.00  0.00     0.023 C 
HETATM   24  C27 UNL     1       2.563  -1.496  -3.067  1.00  0.00     0.023 C 
BRANCH  17  25
HETATM   25  C7  UNL     1       2.891  -1.067  -0.154  1.00  0.00     0.184 C 
BRANCH  25  26
HETATM   26  C6  UNL     1       3.648   0.094  -0.625  1.00  0.00     0.005 C 
HETATM   27  C5  UNL     1       4.707   0.622  -0.093  1.00  0.00    -0.019 C 
BRANCH  27  28
HETATM   28  C4  UNL     1       5.402   0.153   1.139  1.00  0.00     0.035 C 
BRANCH  28  29
HETATM   29  C2  UNL     1       5.263   1.101   2.257  1.00  0.00    -0.085 C 
HETATM   30  C1  UNL     1       4.602   0.768   3.388  1.00  0.00     0.014 C 
HETATM   31  C3  UNL     1       5.817   2.477   2.216  1.00  0.00     0.043 C 
ENDBRANCH  28  29
BRANCH  28  32
HETATM   32  C28 UNL     1       6.818  -0.215   0.783  1.00  0.00     0.008 C 
HETATM   33  C29 UNL     1       7.695   0.908   0.358  1.00  0.00     0.006 C 
ENDBRANCH  28  32
ENDBRANCH  27  28
ENDBRANCH  25  26
BRANCH  25  34
HETATM   34  O1  UNL     1       3.532  -2.253  -0.074  1.00  0.00    -0.388 OA
ATOM     35  H1  UNL     1       3.041  -3.006   0.232  1.00  0.00     0.210 HD
ENDBRANCH  25  34
ENDBRANCH  17  25
ENDBRANCH  16  17
ENDBRANCH  15  16
ENDBRANCH  13  15
ENDBRANCH  11  12
ENDBRANCH   1  10
BRANCH   1  36
HETATM   36  O3  UNL     1      -5.885  -1.254   1.050  1.00  0.00    -0.381 OA
ATOM     37  H3  UNL     1      -6.651  -1.325   1.608  1.00  0.00     0.211 HD
ENDBRANCH   1  36
BRANCH   2  38
HETATM   38  O4  UNL     1      -7.082   1.066  -1.326  1.00  0.00    -0.389 OA
ATOM     39  H4  UNL     1      -7.895   1.159  -1.808  1.00  0.00     0.210 HD
ENDBRANCH   2  38
TORSDOF 13
