REMARK  17 active torsions:
REMARK  status: ('A' for Active; 'I' for Inactive)
REMARK    1  A    between atoms: C2_2  and  C3_3 
REMARK    2  A    between atoms: C3_3  and  C4_4 
REMARK    3  A    between atoms: C4_4  and  N1_5 
REMARK    4  A    between atoms: N1_5  and  C5_7 
REMARK    5  A    between atoms: C7_9  and  O1_10 
REMARK    6  A    between atoms: C8_12  and  N2_13 
REMARK    7  A    between atoms: C10_18  and  O2_19 
REMARK    8  A    between atoms: O2_19  and  C11_20 
REMARK    9  A    between atoms: C12_22  and  O4_23 
REMARK   10  A    between atoms: O4_23  and  C13_24 
REMARK   11  A    between atoms: C14_26  and  C15_27 
REMARK   12  A    between atoms: C15_27  and  N3_28 
REMARK   13  A    between atoms: C16_32  and  O6_33 
REMARK   14  A    between atoms: C17_35  and  O7_37 
REMARK   15  A    between atoms: C19_39  and  O8_41 
REMARK   16  A    between atoms: C21_43  and  N4_44 
REMARK   17  A    between atoms: C23_49  and  N5_50 
ROOT
HETATM    1  C11 UNL     1       0.937   0.658  -0.189  1.00  0.00     0.293 C 
HETATM    2  O3  UNL     1      -0.340   0.241   0.141  1.00  0.00    -0.327 OA
HETATM    3  C12 UNL     1      -1.348   1.049  -0.304  1.00  0.00     0.296 C 
HETATM    4  C21 UNL     1      -0.935   2.503  -0.220  1.00  0.00     0.240 C 
HETATM    5  C22 UNL     1       0.075   2.718  -1.338  1.00  0.00     0.075 C 
HETATM    6  C23 UNL     1       0.990   1.518  -1.409  1.00  0.00     0.240 C 
ENDROOT
BRANCH   3   7
HETATM    7  O4  UNL     1      -2.480   0.778   0.449  1.00  0.00    -0.326 OA
BRANCH   7   8
HETATM    8  C13 UNL     1      -3.556   0.357  -0.387  1.00  0.00     0.300 C 
HETATM    9  O5  UNL     1      -4.478   1.333  -0.263  1.00  0.00    -0.348 OA
HETATM   10  C14 UNL     1      -5.654   1.042   0.353  1.00  0.00     0.181 C 
HETATM   11  C16 UNL     1      -6.209  -0.314  -0.027  1.00  0.00     0.186 C 
HETATM   12  C17 UNL     1      -5.226  -1.305   0.554  1.00  0.00     0.117 C 
HETATM   13  C18 UNL     1      -5.681  -2.732   0.341  1.00  0.00     0.052 C 
HETATM   14  C19 UNL     1      -3.884  -1.032  -0.022  1.00  0.00     0.137 C 
HETATM   15  C20 UNL     1      -3.754  -1.937  -1.263  1.00  0.00     0.054 C 
BRANCH  10  16
HETATM   16  C15 UNL     1      -6.680   2.147   0.228  1.00  0.00     0.264 C 
BRANCH  16  17
HETATM   17  N3  UNL     1      -7.887   1.704   0.933  1.00  0.00    -0.077 N 
ATOM     18  H33 UNL     1      -8.231   0.801   0.606  1.00  0.00     0.274 HD
ATOM     19  H32 UNL     1      -7.707   1.434   1.900  1.00  0.00     0.274 HD
ATOM     20  H31 UNL     1      -8.579   2.449   0.849  1.00  0.00     0.274 HD
ENDBRANCH  16  17
ENDBRANCH  10  16
BRANCH  11  21
HETATM   21  O6  UNL     1      -6.479  -0.470  -1.346  1.00  0.00    -0.390 OA
ATOM     22  H6  UNL     1      -6.827  -1.321  -1.584  1.00  0.00     0.210 HD
ENDBRANCH  11  21
BRANCH  12  23
HETATM   23  O7  UNL     1      -5.178  -1.073   1.946  1.00  0.00    -0.384 OA
ATOM     24  H7  UNL     1      -4.560  -1.696   2.311  1.00  0.00     0.210 HD
ENDBRANCH  12  23
BRANCH  14  25
HETATM   25  O8  UNL     1      -2.943  -1.557   0.907  1.00  0.00    -0.382 OA
ATOM     26  H8  UNL     1      -3.155  -2.453   1.142  1.00  0.00     0.210 HD
ENDBRANCH  14  25
ENDBRANCH   7   8
ENDBRANCH   3   7
BRANCH   4  27
HETATM   27  N4  UNL     1      -0.437   2.888   1.073  1.00  0.00    -0.070 N 
ATOM     28  H43 UNL     1      -1.115   2.664   1.801  1.00  0.00     0.274 HD
ATOM     29  H42 UNL     1       0.329   2.279   1.360  1.00  0.00     0.274 HD
ATOM     30  H41 UNL     1      -0.159   3.868   1.130  1.00  0.00     0.274 HD
ENDBRANCH   4  27
BRANCH   1  31
HETATM   31  O2  UNL     1       1.694  -0.486  -0.434  1.00  0.00    -0.352 OA
BRANCH  31  32
HETATM   32  C10 UNL     1       2.809  -0.607   0.371  1.00  0.00     0.149 C 
HETATM   33  C5  UNL     1       4.092  -0.821  -0.370  1.00  0.00     0.108 C 
HETATM   34  C6  UNL     1       3.864  -2.040  -1.258  1.00  0.00     0.061 C 
HETATM   35  C7  UNL     1       3.890  -3.228  -0.298  1.00  0.00     0.150 C 
HETATM   36  C8  UNL     1       2.817  -3.110   0.747  1.00  0.00     0.214 C 
HETATM   37  C9  UNL     1       2.672  -1.767   1.366  1.00  0.00     0.069 C 
BRANCH  33  38
HETATM   38  N1  UNL     1       4.520   0.247  -1.197  1.00  0.00    -0.414 N 
ATOM     39  H1  UNL     1       4.511   0.167  -2.214  1.00  0.00     0.153 HD
BRANCH  38  40
HETATM   40  C4  UNL     1       4.963   1.434  -0.552  1.00  0.00     0.114 C 
BRANCH  40  41
HETATM   41  C3  UNL     1       6.270   1.267   0.207  1.00  0.00     0.019 C 
BRANCH  41  42
HETATM   42  C2  UNL     1       6.639   2.599   0.846  1.00  0.00    -0.003 C 
HETATM   43  C1  UNL     1       7.921   2.500   1.605  1.00  0.00     0.005 C 
ENDBRANCH  41  42
ENDBRANCH  40  41
ENDBRANCH  38  40
ENDBRANCH  33  38
BRANCH  35  44
HETATM   44  O1  UNL     1       3.701  -4.428  -0.982  1.00  0.00    -0.393 OA
ATOM     45  H1  UNL     1       3.717  -5.167  -0.385  1.00  0.00     0.210 HD
ENDBRANCH  35  44
BRANCH  36  46
HETATM   46  N2  UNL     1       1.565  -3.652   0.229  1.00  0.00    -0.072 N 
ATOM     47  H23 UNL     1       1.293  -3.216  -0.652  1.00  0.00     0.274 HD
ATOM     48  H22 UNL     1       1.671  -4.609  -0.107  1.00  0.00     0.274 HD
ATOM     49  H21 UNL     1       0.837  -3.572   0.938  1.00  0.00     0.274 HD
ENDBRANCH  36  46
ENDBRANCH  31  32
ENDBRANCH   1  31
BRANCH   6  50
HETATM   50  N5  UNL     1       0.779   0.693  -2.568  1.00  0.00    -0.070 N 
ATOM     51  H53 UNL     1       1.433  -0.089  -2.614  1.00  0.00     0.274 HD
ATOM     52  H52 UNL     1      -0.084   0.153  -2.510  1.00  0.00     0.274 HD
ATOM     53  H51 UNL     1       0.815   1.280  -3.401  1.00  0.00     0.274 HD
ENDBRANCH   6  50
TORSDOF 17
