REMARK  15 active torsions:
REMARK  status: ('A' for Active; 'I' for Inactive)
REMARK    1  A    between atoms: N1_1  and  C1_5 
REMARK    2  A    between atoms: C3_7  and  N2_8 
REMARK    3  A    between atoms: C4_12  and  O1_13 
REMARK    4  A    between atoms: O1_13  and  C5_14 
REMARK    5  A    between atoms: C6_16  and  O3_17 
REMARK    6  A    between atoms: O3_17  and  C7_18 
REMARK    7  A    between atoms: C8_19  and  C9_20 
REMARK    8  A    between atoms: C10_22  and  C11_23 
REMARK    9  A    between atoms: C12_25  and  C13_26 
REMARK   10  A    between atoms: C13_26  and  O4_27 
REMARK   11  A    between atoms: C14_29  and  N3_30 
REMARK   12  A    between atoms: C14_29  and  C15_34 
REMARK   13  A    between atoms: C16_37  and  N4_38 
REMARK   14  A    between atoms: C18_43  and  N5_44 
REMARK   15  A    between atoms: C19_48  and  N6_49 
ROOT
HETATM    1  C5  UNL     1       1.819  -1.003   0.050  1.00  0.00     0.293 C 
HETATM    2  O2  UNL     1       0.659  -0.594   0.701  1.00  0.00    -0.327 OA
HETATM    3  C6  UNL     1      -0.464  -1.311   0.298  1.00  0.00     0.293 C 
HETATM    4  C16 UNL     1      -0.392  -2.676   0.911  1.00  0.00     0.240 C 
HETATM    5  C17 UNL     1       1.041  -2.988   1.286  1.00  0.00     0.075 C 
HETATM    6  C18 UNL     1       1.926  -2.527   0.142  1.00  0.00     0.240 C 
ENDROOT
BRANCH   3   7
HETATM    7  O3  UNL     1      -1.575  -0.607   0.810  1.00  0.00    -0.350 OA
BRANCH   7   8
HETATM    8  C7  UNL     1      -2.421  -0.194  -0.204  1.00  0.00     0.177 C 
HETATM    9  C8  UNL     1      -2.552   1.302  -0.256  1.00  0.00     0.033 C 
HETATM   10  C10 UNL     1      -4.030   1.582  -0.548  1.00  0.00     0.012 C 
HETATM   11  C12 UNL     1      -4.682   0.474   0.195  1.00  0.00     0.064 C 
HETATM   12  C14 UNL     1      -3.834  -0.759  -0.009  1.00  0.00     0.242 C 
BRANCH   9  13
HETATM   13  C9  UNL     1      -2.118   1.951   1.040  1.00  0.00     0.093 C 
HETATM   14  S1  UNL     1      -2.269   3.739   0.992  1.00  0.00    -0.097 SA
ENDBRANCH   9  13
BRANCH  10  15
HETATM   15  C11 UNL     1      -4.219   1.615  -2.020  1.00  0.00     0.091 C 
HETATM   16  S2  UNL     1      -5.902   1.949  -2.568  1.00  0.00    -0.097 SA
ENDBRANCH  10  15
BRANCH  11  17
HETATM   17  C13 UNL     1      -6.133   0.274  -0.001  1.00  0.00     0.172 C 
BRANCH  17  18
HETATM   18  O4  UNL     1      -6.780   1.466   0.400  1.00  0.00    -0.400 OA
ATOM     19  H4  UNL     1      -7.713   1.337   0.274  1.00  0.00     0.209 HD
ENDBRANCH  17  18
ENDBRANCH  11  17
BRANCH  12  20
HETATM   20  N3  UNL     1      -4.187  -1.548  -1.140  1.00  0.00    -0.057 N 
ATOM     21  H33 UNL     1      -4.095  -1.032  -2.015  1.00  0.00     0.276 HD
ATOM     22  H32 UNL     1      -3.502  -2.279  -1.330  1.00  0.00     0.276 HD
ATOM     23  H31 UNL     1      -5.126  -1.924  -1.010  1.00  0.00     0.276 HD
ENDBRANCH  12  20
BRANCH  12  24
HETATM   24  C15 UNL     1      -3.852  -1.640   1.186  1.00  0.00     0.213 C 
HETATM   25  O5  UNL     1      -3.571  -1.163   2.314  1.00  0.00    -0.646 OA
HETATM   26  O6  UNL     1      -4.167  -2.991   1.134  1.00  0.00    -0.646 OA
ENDBRANCH  12  24
ENDBRANCH   7   8
ENDBRANCH   3   7
BRANCH   4  27
HETATM   27  N4  UNL     1      -0.888  -3.681  -0.035  1.00  0.00    -0.070 N 
ATOM     28  H43 UNL     1      -1.827  -3.461  -0.368  1.00  0.00     0.274 HD
ATOM     29  H42 UNL     1      -0.399  -3.638  -0.929  1.00  0.00     0.274 HD
ATOM     30  H41 UNL     1      -0.839  -4.610   0.382  1.00  0.00     0.274 HD
ENDBRANCH   4  27
BRANCH   1  31
HETATM   31  O1  UNL     1       2.891  -0.486   0.773  1.00  0.00    -0.350 OA
BRANCH  31  32
HETATM   32  C4  UNL     1       3.719   0.319  -0.044  1.00  0.00     0.185 C 
HETATM   33  C3  UNL     1       3.660   1.703   0.504  1.00  0.00     0.216 C 
HETATM   34  C2  UNL     1       4.774   2.597   0.081  1.00  0.00     0.068 C 
HETATM   35  C1  UNL     1       5.775   1.964  -0.824  1.00  0.00     0.187 C 
HETATM   36  C20 UNL     1       6.202   0.653  -0.236  1.00  0.00     0.068 C 
HETATM   37  C19 UNL     1       5.077  -0.303  -0.031  1.00  0.00     0.216 C 
BRANCH  33  38
HETATM   38  N2  UNL     1       2.410   2.309   0.021  1.00  0.00    -0.072 N 
ATOM     39  H23 UNL     1       2.288   3.273   0.330  1.00  0.00     0.274 HD
ATOM     40  H22 UNL     1       2.416   2.492  -0.982  1.00  0.00     0.274 HD
ATOM     41  H21 UNL     1       1.647   1.697   0.311  1.00  0.00     0.274 HD
ENDBRANCH  33  38
BRANCH  35  42
HETATM   42  N1  UNL     1       6.964   2.831  -0.824  1.00  0.00    -0.075 N 
ATOM     43  H13 UNL     1       6.755   3.798  -1.072  1.00  0.00     0.274 HD
ATOM     44  H12 UNL     1       7.328   3.012   0.112  1.00  0.00     0.274 HD
ATOM     45  H11 UNL     1       7.649   2.398  -1.443  1.00  0.00     0.274 HD
ENDBRANCH  35  42
BRANCH  37  46
HETATM   46  N6  UNL     1       5.323  -1.043   1.204  1.00  0.00    -0.072 N 
ATOM     47  H63 UNL     1       5.176  -0.455   2.025  1.00  0.00     0.274 HD
ATOM     48  H62 UNL     1       4.595  -1.737   1.372  1.00  0.00     0.274 HD
ATOM     49  H61 UNL     1       6.250  -1.468   1.213  1.00  0.00     0.274 HD
ENDBRANCH  37  46
ENDBRANCH  31  32
ENDBRANCH   1  31
BRANCH   6  50
HETATM   50  N5  UNL     1       1.429  -3.160  -1.068  1.00  0.00    -0.070 N 
ATOM     51  H53 UNL     1       0.478  -2.863  -1.284  1.00  0.00     0.274 HD
ATOM     52  H52 UNL     1       1.897  -2.800  -1.900  1.00  0.00     0.274 HD
ATOM     53  H51 UNL     1       1.500  -4.176  -1.007  1.00  0.00     0.274 HD
ENDBRANCH   6  50
TORSDOF 15
