REMARK  5 active torsions:
REMARK  status: ('A' for Active; 'I' for Inactive)
REMARK    1  A    between atoms: C2_2  and  C4_4 
REMARK    2  A    between atoms: C4_4  and  C5_5 
REMARK    3  A    between atoms: C5_5  and  O1_6 
REMARK    4  A    between atoms: C5_5  and  C7_10 
REMARK    5  A    between atoms: C7_10  and  N2_11 
ROOT
HETATM    1  C5  UNL     1      -0.990  -0.251  -0.109  1.00  0.00     0.163 C 
HETATM    2  C6  UNL     1      -1.098  -1.645   0.313  1.00  0.00     0.099 C 
HETATM    3  N1  UNL     1      -1.156  -2.773   0.655  1.00  0.00    -0.194 NA
ENDROOT
BRANCH   1   4
HETATM    4  C4  UNL     1      -2.203   0.499   0.312  1.00  0.00     0.059 C 
BRANCH   4   5
HETATM    5  C2  UNL     1      -3.482   0.146  -0.346  1.00  0.00    -0.019 C 
HETATM    6  C1  UNL     1      -4.575   1.059   0.251  1.00  0.00     0.009 C 
HETATM    7  C3  UNL     1      -3.995  -1.238  -0.117  1.00  0.00     0.009 C 
ENDBRANCH   4   5
ENDBRANCH   1   4
BRANCH   1   8
HETATM    8  O1  UNL     1      -0.734  -0.104  -1.453  1.00  0.00    -0.374 OA
ATOM      9  H1  UNL     1       0.041  -0.583  -1.722  1.00  0.00     0.212 HD
ENDBRANCH   1   8
BRANCH   1  10
HETATM   10  C7  UNL     1       0.236   0.291   0.644  1.00  0.00     0.192 C 
BRANCH  10  11
HETATM   11  N2  UNL     1       1.442  -0.390   0.377  1.00  0.00    -0.326 N 
HETATM   12  C8  UNL     1       2.034  -0.275  -0.901  1.00  0.00     0.140 C 
HETATM   13  C9  UNL     1       3.432  -0.906  -0.850  1.00  0.00     0.048 C 
HETATM   14  C10 UNL     1       4.373  -0.170   0.056  1.00  0.00     0.235 C 
HETATM   15  N3  UNL     1       3.873   1.150   0.354  1.00  0.00    -0.060 N 
HETATM   16  C11 UNL     1       2.993   0.963   1.526  1.00  0.00     0.366 C 
ATOM     17  H32 UNL     1       4.603   1.849   0.491  1.00  0.00     0.278 HD
ATOM     18  H31 UNL     1       3.420   1.610  -0.436  1.00  0.00     0.278 HD
HETATM   19  N4  UNL     1       2.362  -0.345   1.429  1.00  0.00    -0.116 NA
ENDBRANCH  10  11
ENDBRANCH   1  10
TORSDOF 5
