REMARK  5 active torsions:
REMARK  status: ('A' for Active; 'I' for Inactive)
REMARK    1  A    between atoms: C2_2  and  C3_3 
REMARK    2  A    between atoms: C3_3  and  C4_4 
REMARK    3  A    between atoms: C4_4  and  N1_5 
REMARK    4  A    between atoms: N2_8  and  C7_9 
REMARK    5  A    between atoms: C8_12  and  N4_13 
ROOT
HETATM    1  C7  UNL     1      -3.242  -0.103   0.113  1.00  0.00     0.710 A 
HETATM    2  N3  UNL     1      -3.885   0.186   1.250  1.00  0.00    -0.020 N 
ATOM      3  H3  UNL     1      -3.438   0.293   2.161  1.00  0.00     0.203 HD
HETATM    4  C8  UNL     1      -5.192   0.315   1.024  1.00  0.00     0.705 A 
HETATM    5  N5  UNL     1      -5.378   0.096  -0.310  1.00  0.00    -0.118 N 
ATOM      6  H5  UNL     1      -6.270   0.121  -0.803  1.00  0.00     0.206 HD
HETATM    7  N6  UNL     1      -4.205  -0.153  -0.847  1.00  0.00    -0.117 N 
ATOM      8  H6  UNL     1      -4.041  -0.353  -1.834  1.00  0.00     0.206 HD
ENDROOT
BRANCH   1   9
HETATM    9  N2  UNL     1      -1.870  -0.310  -0.109  1.00  0.00    -0.213 N 
HETATM   10  C6  UNL     1      -1.211  -1.598   0.045  1.00  0.00     0.171 C 
HETATM   11  C5  UNL     1       0.169  -1.246   0.618  1.00  0.00     0.292 C 
HETATM   12  N1  UNL     1       0.940  -0.673  -0.468  1.00  0.00     0.091 N 
HETATM   13  C10 UNL     1       0.219   0.359  -1.193  1.00  0.00     0.292 C 
HETATM   14  C9  UNL     1      -1.047   0.816  -0.510  1.00  0.00     0.171 C 
BRANCH  12  15
HETATM   15  C4  UNL     1       2.149  -0.135   0.144  1.00  0.00     0.272 C 
BRANCH  15  16
HETATM   16  C3  UNL     1       3.157   0.379  -0.829  1.00  0.00     0.030 C 
BRANCH  16  17
HETATM   17  C2  UNL     1       4.378   0.945  -0.160  1.00  0.00    -0.003 C 
HETATM   18  C1  UNL     1       5.137  -0.010   0.694  1.00  0.00     0.005 C 
ENDBRANCH  16  17
ENDBRANCH  15  16
ENDBRANCH  12  15
ENDBRANCH   1   9
BRANCH   4  19
HETATM   19  N4  UNL     1      -6.170   0.594   1.831  1.00  0.00    -0.233 N 
ATOM     20  H42 UNL     1      -6.031   0.758   2.828  1.00  0.00     0.174 HD
ATOM     21  H41 UNL     1      -7.170   0.693   1.658  1.00  0.00     0.174 HD
ENDBRANCH   4  19
TORSDOF 5
