REMARK  7 active torsions:
REMARK  status: ('A' for Active; 'I' for Inactive)
REMARK    1  A    between atoms: C2_2  and  C3_3 
REMARK    2  A    between atoms: C3_3  and  C4_4 
REMARK    3  A    between atoms: C4_4  and  C5_5 
REMARK    4  A    between atoms: C5_5  and  N1_6 
REMARK    5  A    between atoms: N1_6  and  C6_8 
REMARK    6  A    between atoms: C6_8  and  C7_9 
REMARK    7  A    between atoms: C9_13  and  N3_14 
ROOT
HETATM    1  C7  UNL     1       0.060  -1.035  -0.569  1.00  0.00     0.140 C 
HETATM    2  C8  UNL     1      -0.038   0.371  -1.020  1.00  0.00     0.153 C 
HETATM    3  N2  UNL     1      -1.424   0.708  -0.842  1.00  0.00    -0.360 N 
ATOM      4  H2  UNL     1      -1.885   1.511  -1.269  1.00  0.00     0.162 HD
HETATM    5  C9  UNL     1      -2.001  -0.142  -0.072  1.00  0.00     0.174 C 
HETATM    6  N5  UNL     1      -1.084  -1.139   0.355  1.00  0.00    -0.352 N 
ATOM      7  H5  UNL     1      -1.194  -1.788   1.134  1.00  0.00     0.163 HD
ENDROOT
BRANCH   1   8
HETATM    8  C6  UNL     1       1.330  -1.387   0.113  1.00  0.00     0.087 C 
BRANCH   8   9
HETATM    9  N1  UNL     1       2.487  -1.237  -0.633  1.00  0.00    -0.380 N 
ATOM     10  H1  UNL     1       2.963  -2.084  -0.944  1.00  0.00     0.164 HD
BRANCH   9  11
HETATM   11  C5  UNL     1       3.048  -0.013  -0.989  1.00  0.00     0.060 C 
BRANCH  11  12
HETATM   12  C4  UNL     1       3.623   0.780   0.166  1.00  0.00     0.048 C 
BRANCH  12  13
HETATM   13  C3  UNL     1       4.718   0.032   0.869  1.00  0.00     0.031 C 
BRANCH  13  14
HETATM   14  C2  UNL     1       5.835  -0.258  -0.050  1.00  0.00    -0.037 C 
HETATM   15  C1  UNL     1       7.034   0.241   0.153  1.00  0.00     0.007 C 
ENDBRANCH  13  14
ENDBRANCH  12  13
ENDBRANCH  11  12
ENDBRANCH   9  11
ENDBRANCH   8   9
ENDBRANCH   1   8
BRANCH   5  16
HETATM   16  N3  UNL     1      -3.378  -0.011   0.249  1.00  0.00    -0.350 N 
HETATM   17  C10 UNL     1      -4.347  -0.835  -0.427  1.00  0.00     0.153 C 
HETATM   18  C11 UNL     1      -5.408   0.076  -1.048  1.00  0.00     0.252 C 
HETATM   19  N4  UNL     1      -5.948   0.993  -0.097  1.00  0.00    -0.072 N 
HETATM   20  C12 UNL     1      -4.922   1.782   0.501  1.00  0.00     0.252 C 
ATOM     21  H42 UNL     1      -6.676   1.576  -0.510  1.00  0.00     0.277 HD
ATOM     22  H41 UNL     1      -6.511   0.515   0.607  1.00  0.00     0.277 HD
HETATM   23  C13 UNL     1      -3.856   0.933   1.224  1.00  0.00     0.153 C 
ENDBRANCH   5  16
TORSDOF 7
