REMARK  5 active torsions:
REMARK  status: ('A' for Active; 'I' for Inactive)
REMARK    1  A    between atoms: C5_6  and  C6_7 
REMARK       I    between atoms: C6_7  and  N2_9 
REMARK    2  A    between atoms: N3_12  and  C9_13 
REMARK    3  A    between atoms: C12_16  and  N4_17 
REMARK       I    between atoms: N4_17  and  C13_19 
REMARK    4  A    between atoms: C13_19  and  C14_21 
REMARK    5  A    between atoms: C16_23  and  C17_24 
ROOT
HETATM    1  C9  UNL     1       1.262   0.510  -0.380  1.00  0.00     0.225 C 
HETATM    2  C10 UNL     1       1.675   0.835  -1.777  1.00  0.00     0.038 C 
HETATM    3  C11 UNL     1       3.210   0.863  -1.703  1.00  0.00     0.027 C 
HETATM    4  C12 UNL     1       3.573   0.349  -0.329  1.00  0.00     0.086 C 
HETATM    5  C18 UNL     1       2.348  -0.507  -0.002  1.00  0.00     0.061 C 
ENDROOT
BRANCH   1   6
HETATM    6  N3  UNL     1      -0.043   0.009  -0.191  1.00  0.00     0.096 N 
HETATM    7  C8  UNL     1      -0.341  -1.255  -0.815  1.00  0.00     0.292 C 
HETATM    8  C7  UNL     1      -1.693  -1.693  -0.309  1.00  0.00     0.156 C 
HETATM    9  N2  UNL     1      -2.675  -0.657  -0.200  1.00  0.00    -0.348 N 
HETATM   10  C6  UNL     1      -4.050  -0.972  -0.259  1.00  0.00     0.225 C 
HETATM   11  C20 UNL     1      -2.304   0.717  -0.026  1.00  0.00     0.156 C 
HETATM   12  O1  UNL     1      -4.360  -2.203  -0.421  1.00  0.00    -0.273 OA
HETATM   13  C19 UNL     1      -0.995   0.979  -0.709  1.00  0.00     0.292 C 
BRANCH  10  14
HETATM   14  C5  UNL     1      -5.149  -0.001  -0.147  1.00  0.00     0.105 C 
HETATM   15  C4  UNL     1      -5.236   0.707   1.171  1.00  0.00     0.043 C 
HETATM   16  C3  UNL     1      -6.691   1.126   1.219  1.00  0.00     0.237 C 
HETATM   17  N1  UNL     1      -7.417   0.209   0.401  1.00  0.00    -0.074 N 
HETATM   18  C1  UNL     1      -8.308  -0.593   1.253  1.00  0.00     0.272 C 
HETATM   19  C2  UNL     1      -8.211   0.858  -0.626  1.00  0.00     0.272 C 
HETATM   20  C21 UNL     1      -6.510  -0.699  -0.221  1.00  0.00     0.250 C 
ENDBRANCH  10  14
ENDBRANCH   1   6
BRANCH   4  21
HETATM   21  N4  UNL     1       4.788  -0.390  -0.280  1.00  0.00    -0.355 N 
HETATM   22  C13 UNL     1       5.776  -0.038   0.676  1.00  0.00     0.248 C 
HETATM   23  O2  UNL     1       5.578   0.913   1.467  1.00  0.00    -0.271 OA
ATOM     24  H4  UNL     1       4.947  -1.164  -0.925  1.00  0.00     0.162 HD
BRANCH  22  25
HETATM   25  C14 UNL     1       7.041  -0.798   0.736  1.00  0.00     0.279 C 
HETATM   26  C15 UNL     1       8.099  -0.349  -0.256  1.00  0.00     0.076 C 
HETATM   27  C16 UNL     1       9.034  -0.629   0.891  1.00  0.00     0.199 C 
HETATM   28  N5  UNL     1       7.915  -0.291   1.784  1.00  0.00    -0.057 N 
ATOM     29  H52 UNL     1       7.802   0.648   2.165  1.00  0.00     0.278 HD
ATOM     30  H51 UNL     1       7.867  -0.649   2.738  1.00  0.00     0.278 HD
BRANCH  27  31
HETATM   31  C17 UNL     1      10.214   0.308   1.018  1.00  0.00     0.118 C 
HETATM   32 BR1  UNL     1      11.317   0.252  -0.571  1.00  0.00    -0.094 Br
ENDBRANCH  27  31
ENDBRANCH  22  25
ENDBRANCH   4  21
TORSDOF 5
