REMARK  6 active torsions:
REMARK  status: ('A' for Active; 'I' for Inactive)
REMARK    1  A    between atoms: C3_4  and  N2_5 
REMARK    2  A    between atoms: C7_10  and  C8_11 
REMARK       I    between atoms: C8_11  and  N3_13 
REMARK    3  A    between atoms: N3_13  and  C9_15 
REMARK    4  A    between atoms: C9_15  and  C10_16 
REMARK    5  A    between atoms: C10_16  and  N4_18 
REMARK    6  A    between atoms: N4_18  and  C11_20 
ROOT
HETATM    1  C8  UNL     1      -0.754   1.507   1.316  1.00  0.00     0.223 C 
HETATM    2  O1  UNL     1       0.044   1.760   2.284  1.00  0.00    -0.273 OA
HETATM    3  N3  UNL     1      -0.230   0.831   0.209  1.00  0.00    -0.354 N 
ATOM      4  H3  UNL     1      -0.847   0.616  -0.574  1.00  0.00     0.162 HD
ENDROOT
BRANCH   1   5
HETATM    5  C7  UNL     1      -2.157   1.915   1.374  1.00  0.00     0.099 C 
HETATM    6  C6  UNL     1      -2.518   2.889   0.249  1.00  0.00     0.058 C 
HETATM    7  C5  UNL     1      -3.840   3.495   0.656  1.00  0.00     0.209 C 
HETATM    8  C4  UNL     1      -4.666   2.618   1.524  1.00  0.00     0.097 C 
HETATM    9  F1  UNL     1      -4.541   4.005  -0.434  1.00  0.00    -0.244 F 
HETATM   10  N2  UNL     1      -4.457   1.232   1.441  1.00  0.00    -0.367 N 
HETATM   11  C21 UNL     1      -3.138   0.765   1.242  1.00  0.00     0.138 C 
BRANCH  10  12
HETATM   12  C3  UNL     1      -5.501   0.475   0.830  1.00  0.00     0.207 C 
HETATM   13  C2  UNL     1      -5.772   0.799  -0.603  1.00  0.00     0.174 C 
HETATM   14  N1  UNL     1      -6.027  -0.495  -1.254  1.00  0.00    -0.335 N 
HETATM   15  C1  UNL     1      -6.646  -0.618  -2.545  1.00  0.00     0.154 C 
HETATM   16  C23 UNL     1      -5.547  -1.496  -0.356  1.00  0.00     0.321 C 
HETATM   17  N5  UNL     1      -5.312  -0.931   0.926  1.00  0.00    -0.315 N 
HETATM   18  O2  UNL     1      -5.382  -2.701  -0.735  1.00  0.00    -0.247 OA
HETATM   19  C22 UNL     1      -4.947  -1.709   2.090  1.00  0.00     0.157 C 
ENDBRANCH  10  12
ENDBRANCH   1   5
BRANCH   3  20
HETATM   20  C9  UNL     1       1.177   0.420   0.136  1.00  0.00     0.191 C 
BRANCH  20  21
HETATM   21  C10 UNL     1       1.443  -0.272  -1.139  1.00  0.00     0.091 C 
HETATM   22  S1  UNL     1       0.168  -0.726  -2.049  1.00  0.00    -0.064 SA
BRANCH  21  23
HETATM   23  N4  UNL     1       2.734  -0.543  -1.573  1.00  0.00    -0.378 N 
ATOM     24  H4  UNL     1       2.789  -1.026  -2.470  1.00  0.00     0.160 HD
BRANCH  23  25
HETATM   25  C11 UNL     1       3.991  -0.259  -0.975  1.00  0.00     0.090 C 
HETATM   26  C12 UNL     1       5.128  -0.605  -1.923  1.00  0.00     0.009 C 
HETATM   27  C13 UNL     1       6.356   0.123  -1.453  1.00  0.00     0.011 C 
HETATM   28  C17 UNL     1       5.374  -2.070  -2.050  1.00  0.00     0.011 C 
HETATM   29  C14 UNL     1       6.685  -0.368  -0.056  1.00  0.00    -0.013 C 
HETATM   30  C15 UNL     1       7.026  -1.831  -0.168  1.00  0.00     0.009 C 
HETATM   31  C20 UNL     1       5.537  -0.166   0.895  1.00  0.00     0.011 C 
HETATM   32  C16 UNL     1       5.825  -2.587  -0.701  1.00  0.00    -0.013 C 
HETATM   33  C18 UNL     1       4.683  -2.345   0.267  1.00  0.00     0.011 C 
HETATM   34  C19 UNL     1       4.292  -0.880   0.334  1.00  0.00     0.009 C 
ENDBRANCH  23  25
ENDBRANCH  21  23
ENDBRANCH  20  21
ENDBRANCH   3  20
TORSDOF 6
