REMARK  5 active torsions:
REMARK  status: ('A' for Active; 'I' for Inactive)
REMARK    1  A    between atoms: C2_2  and  C4_4 
REMARK    2  A    between atoms: C5_5  and  C6_6 
REMARK       I    between atoms: C6_6  and  N1_8 
REMARK    3  A    between atoms: C7_9  and  C8_10 
REMARK       I    between atoms: C8_10  and  N2_12 
REMARK    4  A    between atoms: C13_21  and  C14_22 
REMARK       I    between atoms: C14_22  and  N4_24 
REMARK    5  A    between atoms: N4_24  and  C15_26 
ROOT
HETATM    1  C6  UNL     1      -2.681  -0.030   0.202  1.00  0.00     0.246 C 
HETATM    2  O1  UNL     1      -3.638   0.728   0.456  1.00  0.00    -0.268 OA
HETATM    3  N1  UNL     1      -1.769   0.295  -0.878  1.00  0.00    -0.296 N 
HETATM    4  C7  UNL     1      -1.757   1.434  -1.751  1.00  0.00     0.284 C 
HETATM    5  N3  UNL     1      -1.014   0.972  -2.932  1.00  0.00    -0.329 N 
ATOM      6  H3  UNL     1      -0.786   1.536  -3.751  1.00  0.00     0.165 HD
HETATM    7  C12 UNL     1      -0.670  -0.379  -2.742  1.00  0.00     0.252 C 
HETATM    8  O3  UNL     1      -0.422  -1.248  -3.621  1.00  0.00    -0.271 OA
HETATM    9  C13 UNL     1      -0.659  -0.569  -1.253  1.00  0.00     0.274 C 
ENDROOT
BRANCH   9  10
HETATM   10  C14 UNL     1       0.630  -0.052  -0.758  1.00  0.00     0.250 C 
HETATM   11  O4  UNL     1       0.607   1.127  -0.248  1.00  0.00    -0.271 OA
HETATM   12  N4  UNL     1       1.841  -0.784  -0.819  1.00  0.00    -0.354 N 
ATOM     13  H4  UNL     1       1.822  -1.717  -1.230  1.00  0.00     0.163 HD
BRANCH  12  14
HETATM   14  C15 UNL     1       3.083  -0.285  -0.337  1.00  0.00     0.092 C 
HETATM   15  C16 UNL     1       3.416  -0.810   1.050  1.00  0.00     0.009 C 
HETATM   16  C17 UNL     1       3.784  -2.256   1.067  1.00  0.00     0.011 C 
HETATM   17  C21 UNL     1       4.603  -0.011   1.538  1.00  0.00     0.011 C 
HETATM   18  C18 UNL     1       4.994  -2.489   0.177  1.00  0.00    -0.013 C 
HETATM   19  C19 UNL     1       6.148  -1.680   0.697  1.00  0.00     0.009 C 
HETATM   20  C24 UNL     1       4.621  -2.057  -1.205  1.00  0.00     0.011 C 
HETATM   21  C20 UNL     1       5.799  -0.218   0.608  1.00  0.00    -0.013 C 
HETATM   22  C22 UNL     1       5.419   0.218  -0.790  1.00  0.00     0.011 C 
HETATM   23  C23 UNL     1       4.221  -0.592  -1.231  1.00  0.00     0.009 C 
ENDBRANCH  12  14
ENDBRANCH   9  10
BRANCH   1  24
HETATM   24  C5  UNL     1      -2.496  -1.230   0.997  1.00  0.00     0.070 C 
HETATM   25  C4  UNL     1      -3.200  -1.664   1.981  1.00  0.00    -0.017 C 
BRANCH  25  26
HETATM   26  C2  UNL     1      -4.388  -1.122   2.619  1.00  0.00    -0.000 C 
HETATM   27  C1  UNL     1      -4.122  -0.920   4.117  1.00  0.00     0.013 C 
HETATM   28  C3  UNL     1      -5.503  -2.165   2.463  1.00  0.00     0.013 C 
ENDBRANCH  25  26
ENDBRANCH   1  24
BRANCH   4  29
HETATM   29  C8  UNL     1      -3.079   1.845  -2.264  1.00  0.00     0.263 C 
HETATM   30  O2  UNL     1      -3.661   1.195  -3.168  1.00  0.00    -0.269 OA
HETATM   31  N2  UNL     1      -3.706   2.997  -1.730  1.00  0.00    -0.343 N 
HETATM   32  C9  UNL     1      -4.988   3.669  -1.981  1.00  0.00     0.164 C 
HETATM   33  C11 UNL     1      -3.454   4.058  -0.755  1.00  0.00     0.164 C 
HETATM   34  C10 UNL     1      -4.305   4.970  -1.609  1.00  0.00     0.206 C 
HETATM   35  F1  UNL     1      -3.648   5.546  -2.661  1.00  0.00    -0.246 F 
ENDBRANCH   4  29
TORSDOF 5
