REMARK  5 active torsions:
REMARK  status: ('A' for Active; 'I' for Inactive)
REMARK       I    between atoms: C3_3  and  N1_5 
REMARK    1  A    between atoms: N1_5  and  C4_7 
REMARK    2  A    between atoms: C4_7  and  C5_8 
REMARK    3  A    between atoms: C9_12  and  N2_13 
REMARK       I    between atoms: N2_13  and  C10_15 
REMARK    4  A    between atoms: C10_15  and  C11_17 
REMARK       I    between atoms: N3_27  and  C20_28 
REMARK    5  A    between atoms: C20_28  and  C21_30 
ROOT
HETATM    1  C1  UNL     1       4.202   4.975   3.097  1.00  0.00     0.022 C 
HETATM    2  C2  UNL     1       3.873   4.421   2.083  1.00  0.00    -0.017 C 
HETATM    3  C3  UNL     1       3.451   3.761   0.859  1.00  0.00     0.295 C 
HETATM    4  O1  UNL     1       3.110   4.437  -0.137  1.00  0.00    -0.258 OA
HETATM    5  N1  UNL     1       3.422   2.325   0.785  1.00  0.00    -0.350 N 
ATOM      6  H1  UNL     1       3.699   1.765   1.591  1.00  0.00     0.163 HD
ENDROOT
BRANCH   5   7
HETATM    7  C4  UNL     1       3.002   1.685  -0.427  1.00  0.00     0.128 C 
BRANCH   7   8
HETATM    8  C5  UNL     1       3.023   0.195  -0.348  1.00  0.00     0.011 C 
HETATM    9  C6  UNL     1       2.579  -0.448  -1.640  1.00  0.00     0.032 C 
HETATM   10  C7  UNL     1       1.806  -1.682  -1.358  1.00  0.00     0.089 C 
HETATM   11  C8  UNL     1       0.363  -1.472  -1.001  1.00  0.00     0.050 C 
HETATM   12  N3  UNL     1       2.390  -2.470  -0.317  1.00  0.00    -0.346 N 
HETATM   13  C9  UNL     1       0.060  -0.252  -0.212  1.00  0.00     0.086 C 
HETATM   14  C17 UNL     1       0.905  -0.040   1.002  1.00  0.00     0.032 C 
HETATM   15  C18 UNL     1       2.340  -0.391   0.846  1.00  0.00     0.011 C 
HETATM   16  C19 UNL     1       2.607  -1.878   0.972  1.00  0.00     0.131 C 
HETATM   17  C20 UNL     1       2.756  -3.812  -0.533  1.00  0.00     0.230 C 
HETATM   18  O4  UNL     1       3.260  -4.512   0.422  1.00  0.00    -0.273 OA
BRANCH  13  19
HETATM   19  N2  UNL     1      -1.361  -0.278   0.096  1.00  0.00    -0.354 N 
HETATM   20  C10 UNL     1      -2.266   0.752  -0.218  1.00  0.00     0.252 C 
HETATM   21  O2  UNL     1      -1.854   1.767  -0.796  1.00  0.00    -0.270 OA
ATOM     22  H2  UNL     1      -1.727  -1.101   0.574  1.00  0.00     0.162 HD
BRANCH  20  23
HETATM   23  C11 UNL     1      -3.660   0.653   0.122  1.00  0.00     0.141 C 
HETATM   24  C12 UNL     1      -4.178   1.777   1.001  1.00  0.00     0.048 C 
HETATM   25  C13 UNL     1      -5.682   1.576   0.885  1.00  0.00     0.010 C 
HETATM   26  C14 UNL     1      -5.867   0.504  -0.145  1.00  0.00     0.013 C 
HETATM   27  C15 UNL     1      -5.368  -0.791   0.455  1.00  0.00     0.174 C 
HETATM   28  C16 UNL     1      -4.636   0.767  -1.041  1.00  0.00     0.054 C 
HETATM   29  O3  UNL     1      -4.023  -0.558   0.705  1.00  0.00    -0.370 OA
ENDBRANCH  20  23
ENDBRANCH  13  19
BRANCH  17  30
HETATM   30  C21 UNL     1       2.605  -4.527  -1.832  1.00  0.00     0.188 C 
HETATM   31 BR1  UNL     1       0.805  -5.205  -1.960  1.00  0.00    -0.087 Br
ENDBRANCH  17  30
ENDBRANCH   7   8
ENDBRANCH   5   7
TORSDOF 5
