REMARK  5 active torsions:
REMARK  status: ('A' for Active; 'I' for Inactive)
REMARK       I    between atoms: C2_2  and  N1_4 
REMARK    1  A    between atoms: N1_4  and  C3_6 
REMARK    2  A    between atoms: C3_6  and  C4_7 
REMARK       I    between atoms: C4_7  and  N2_9 
REMARK    3  A    between atoms: C8_13  and  C9_14 
REMARK       I    between atoms: C9_14  and  N3_16 
REMARK    4  A    between atoms: C16_23  and  C17_24 
REMARK    5  A    between atoms: C17_24  and  N4_25 
REMARK       I    between atoms: N4_25  and  C18_27 
REMARK       I    between atoms: C18_27  and  N5_29 
ROOT
HETATM    1  C9  UNL     1       0.627   0.665  -0.931  1.00  0.00     0.226 C 
HETATM    2  O3  UNL     1       0.046   1.771  -1.227  1.00  0.00    -0.273 OA
HETATM    3  N3  UNL     1      -0.123  -0.341  -0.356  1.00  0.00    -0.345 N 
HETATM    4  C10 UNL     1       0.400  -1.666   0.054  1.00  0.00     0.127 C 
HETATM    5  C11 UNL     1      -0.321  -2.800  -0.582  1.00  0.00     0.028 C 
HETATM    6  C12 UNL     1      -1.782  -2.614  -0.784  1.00  0.00    -0.044 C 
HETATM    7  C13 UNL     1      -2.553  -3.237   0.373  1.00  0.00     0.015 C 
HETATM    8  C14 UNL     1      -2.172  -3.431  -2.025  1.00  0.00     0.015 C 
HETATM    9  C15 UNL     1      -2.194  -1.206  -1.048  1.00  0.00     0.035 C 
HETATM   10  C16 UNL     1      -1.535  -0.224  -0.074  1.00  0.00     0.105 C 
ENDROOT
BRANCH   1  11
HETATM   11  C8  UNL     1       2.084   0.652  -1.275  1.00  0.00     0.096 C 
HETATM   12  C7  UNL     1       2.422  -0.364  -2.301  1.00  0.00     0.017 C 
HETATM   13  C6  UNL     1       3.817  -0.892  -2.268  1.00  0.00     0.021 C 
HETATM   14  C5  UNL     1       4.375  -1.122  -0.897  1.00  0.00     0.126 C 
HETATM   15  N2  UNL     1       4.200   0.084  -0.123  1.00  0.00    -0.350 N 
HETATM   16  C4  UNL     1       5.302   0.741   0.518  1.00  0.00     0.237 C 
HETATM   17  C23 UNL     1       2.867   0.629  -0.007  1.00  0.00     0.139 C 
HETATM   18  O2  UNL     1       5.093   1.789   1.179  1.00  0.00    -0.272 OA
BRANCH  16  19
HETATM   19  C3  UNL     1       6.668   0.193   0.402  1.00  0.00     0.225 C 
BRANCH  19  20
HETATM   20  N1  UNL     1       7.674   0.944   1.094  1.00  0.00    -0.353 N 
HETATM   21  C2  UNL     1       7.698   1.173   2.486  1.00  0.00     0.213 C 
HETATM   22  C1  UNL     1       8.771   1.960   3.108  1.00  0.00     0.117 C 
HETATM   23  O1  UNL     1       6.790   0.698   3.200  1.00  0.00    -0.274 OA
ATOM     24  H1  UNL     1       8.430   1.343   0.538  1.00  0.00     0.162 HD
ENDBRANCH  19  20
ENDBRANCH  16  19
ENDBRANCH   1  11
BRANCH  10  25
HETATM   25  C17 UNL     1      -2.167   1.091  -0.270  1.00  0.00     0.149 C 
BRANCH  25  26
HETATM   26  N4  UNL     1      -3.585   0.982   0.114  1.00  0.00    -0.341 N 
HETATM   27  C18 UNL     1      -4.421   2.110   0.005  1.00  0.00     0.318 C 
HETATM   28  O4  UNL     1      -3.929   3.196  -0.422  1.00  0.00    -0.247 OA
HETATM   29  N5  UNL     1      -5.806   2.059   0.363  1.00  0.00    -0.331 N 
HETATM   30  C19 UNL     1      -6.456   0.870   0.857  1.00  0.00     0.130 C 
HETATM   31  C22 UNL     1      -6.732   3.169   0.282  1.00  0.00     0.164 C 
HETATM   32  C20 UNL     1      -7.928   1.146   0.619  1.00  0.00     0.058 C 
HETATM   33  C21 UNL     1      -8.009   2.626   0.835  1.00  0.00     0.189 C 
HETATM   34  F1  UNL     1      -9.061   3.203   0.151  1.00  0.00    -0.248 F 
ATOM     35  H4  UNL     1      -3.958   0.097   0.456  1.00  0.00     0.164 HD
ENDBRANCH  25  26
ENDBRANCH  10  25
TORSDOF 5
