REMARK  5 active torsions:
REMARK  status: ('A' for Active; 'I' for Inactive)
REMARK    1  A    between atoms: C2_2  and  N1_3 
REMARK       I    between atoms: N1_3  and  C3_5 
REMARK    2  A    between atoms: C3_5  and  C4_7 
REMARK       I    between atoms: N2_15  and  C8_16 
REMARK       I    between atoms: C8_16  and  N3_18 
REMARK       I    between atoms: N3_18  and  C9_20 
REMARK    3  A    between atoms: C9_20  and  C10_22 
REMARK    4  A    between atoms: C10_22  and  C11_23 
REMARK    5  A    between atoms: C11_23  and  C12_24 
ROOT
HETATM    1  C4  UNL     1       4.187  -0.188  -0.901  1.00  0.00     0.198 C 
HETATM    2  C5  UNL     1       5.651  -0.051  -1.211  1.00  0.00     0.179 C 
HETATM    3  S1  UNL     1       6.319  -1.571  -0.508  1.00  0.00     0.188 S 
HETATM    4  O2  UNL     1       7.461  -2.072  -1.321  1.00  0.00    -0.224 OA
HETATM    5  O3  UNL     1       6.651  -1.371   0.930  1.00  0.00    -0.224 OA
HETATM    6  C6  UNL     1       4.850  -2.531  -0.744  1.00  0.00     0.215 C 
HETATM    7  C7  UNL     1       4.726  -3.446   0.457  1.00  0.00     0.075 C 
HETATM    8 CL1  UNL     1       4.910  -3.456  -2.260  1.00  0.00    -0.078 Cl
HETATM    9  N2  UNL     1       3.816  -1.545  -0.750  1.00  0.00    -0.284 N 
HETATM   10  C8  UNL     1       2.430  -1.894  -0.613  1.00  0.00     0.328 C 
HETATM   11  O4  UNL     1       2.132  -3.103  -0.476  1.00  0.00    -0.247 OA
HETATM   12  N3  UNL     1       1.368  -0.975  -0.621  1.00  0.00    -0.279 N 
ATOM     13  H3  UNL     1       1.586   0.015  -0.732  1.00  0.00     0.173 HD
HETATM   14  C9  UNL     1       0.006  -1.353  -0.482  1.00  0.00     0.225 C 
HETATM   15  O5  UNL     1      -0.266  -2.569  -0.344  1.00  0.00    -0.273 OA
ENDROOT
BRANCH   1  16
HETATM   16  C3  UNL     1       3.978   0.514   0.378  1.00  0.00     0.241 C 
HETATM   17  N1  UNL     1       4.258   1.889   0.484  1.00  0.00    -0.360 N 
ATOM     18  H1  UNL     1       4.606   2.392  -0.332  1.00  0.00     0.162 HD
HETATM   19  O1  UNL     1       3.554  -0.107   1.364  1.00  0.00    -0.271 OA
BRANCH  17  20
HETATM   20  C2  UNL     1       4.062   2.607   1.731  1.00  0.00     0.118 C 
HETATM   21  C1  UNL     1       4.946   1.968   2.799  1.00  0.00     0.026 C 
ENDBRANCH  17  20
ENDBRANCH   1  16
BRANCH  14  22
HETATM   22  C10 UNL     1      -1.100  -0.372  -0.493  1.00  0.00     0.104 C 
BRANCH  22  23
HETATM   23  C11 UNL     1      -2.399  -1.085  -0.325  1.00  0.00     0.018 C 
BRANCH  23  24
HETATM   24  C12 UNL     1      -3.584  -0.162  -0.325  1.00  0.00    -0.039 C 
HETATM   25  C13 UNL     1      -3.511   0.846   0.791  1.00  0.00     0.014 C 
HETATM   26  C14 UNL     1      -4.743   1.692   0.803  1.00  0.00    -0.013 C 
HETATM   27  C15 UNL     1      -4.911   2.456  -0.496  1.00  0.00     0.009 C 
HETATM   28  C19 UNL     1      -5.970   0.835   0.979  1.00  0.00     0.009 C 
HETATM   29  C16 UNL     1      -4.926   1.448  -1.620  1.00  0.00    -0.013 C 
HETATM   30  C17 UNL     1      -6.170   0.597  -1.480  1.00  0.00     0.009 C 
HETATM   31  C21 UNL     1      -3.686   0.600  -1.625  1.00  0.00     0.014 C 
HETATM   32  C18 UNL     1      -6.083  -0.139  -0.173  1.00  0.00    -0.013 C 
HETATM   33  C20 UNL     1      -4.838  -0.990  -0.187  1.00  0.00     0.014 C 
ENDBRANCH  23  24
ENDBRANCH  22  23
ENDBRANCH  14  22
TORSDOF 5
