REMARK  6 active torsions:
REMARK  status: ('A' for Active; 'I' for Inactive)
REMARK    1  A    between atoms: C2_2  and  O1_3 
REMARK    2  A    between atoms: O1_3  and  C3_4 
REMARK    3  A    between atoms: C3_4  and  C4_6 
REMARK    4  A    between atoms: C4_6  and  C5_7 
REMARK    5  A    between atoms: N3_23  and  C15_24 
REMARK    6  A    between atoms: C15_24  and  C16_25 
ROOT
HETATM    1  C4  UNL     1      -1.998   0.597   0.594  1.00  0.00     0.051 C 
HETATM    2  C7  UNL     1      -0.533   0.589   0.819  1.00  0.00     0.051 C 
HETATM    3  C8  UNL     1       0.266  -0.340  -0.065  1.00  0.00     0.131 C 
HETATM    4  C9  UNL     1      -0.675  -1.324  -0.745  1.00  0.00     0.030 A 
HETATM    5  N1  UNL     1      -0.576  -1.586  -1.982  1.00  0.00    -0.337 N 
ATOM      6  H1  UNL     1       0.154  -1.112  -2.514  1.00  0.00     0.168 HD
HETATM    7  C10 UNL     1      -1.419  -2.499  -2.674  1.00  0.00     0.178 A 
HETATM    8  S1  UNL     1      -1.299  -2.828  -4.267  1.00  0.00    -0.040 SA
HETATM    9  N2  UNL     1      -2.422  -3.155  -1.916  1.00  0.00    -0.303 N 
ATOM     10  H2  UNL     1      -3.055  -3.818  -2.363  1.00  0.00     0.171 HD
HETATM   11  C11 UNL     1      -2.534  -2.881  -0.541  1.00  0.00     0.238 A 
HETATM   12  O3  UNL     1      -3.383  -3.516   0.120  1.00  0.00    -0.272 OA
HETATM   13  C12 UNL     1      -1.695  -1.878   0.164  1.00  0.00     0.084 A 
HETATM   14  C13 UNL     1      -0.977  -2.413   1.358  1.00  0.00     0.045 C 
HETATM   15  C14 UNL     1       0.503  -2.324   1.315  1.00  0.00     0.124 C 
HETATM   16  N3  UNL     1       1.068  -1.143   0.770  1.00  0.00    -0.383 N 
HETATM   17  C22 UNL     1      -2.642  -0.738   0.512  1.00  0.00     0.045 C 
ENDROOT
BRANCH  16  18
HETATM   18  C15 UNL     1       2.402  -1.318   0.367  1.00  0.00     0.063 C 
BRANCH  18  19
HETATM   19  C16 UNL     1       3.394  -0.216   0.499  1.00  0.00     0.024 C 
HETATM   20  C17 UNL     1       3.150   1.053  -0.230  1.00  0.00     0.013 C 
HETATM   21  C18 UNL     1       4.296   2.014   0.019  1.00  0.00     0.038 C 
HETATM   22  C19 UNL     1       5.654   1.457  -0.181  1.00  0.00     0.170 C 
HETATM   23  F1  UNL     1       5.985   1.349  -1.519  1.00  0.00    -0.249 F 
HETATM   24  C20 UNL     1       5.821   0.084   0.445  1.00  0.00     0.038 C 
HETATM   25  C21 UNL     1       4.719  -0.810  -0.060  1.00  0.00     0.013 C 
ENDBRANCH  18  19
ENDBRANCH  16  18
BRANCH   1  26
HETATM   26  C3  UNL     1      -2.245   1.415  -0.653  1.00  0.00     0.267 C 
HETATM   27  O2  UNL     1      -1.299   1.822  -1.372  1.00  0.00    -0.264 OA
BRANCH  26  28
HETATM   28  O1  UNL     1      -3.529   1.752  -1.058  1.00  0.00    -0.321 OA
BRANCH  28  29
HETATM   29  C2  UNL     1      -3.758   2.524  -2.238  1.00  0.00     0.174 C 
HETATM   30  C1  UNL     1      -5.227   2.743  -2.422  1.00  0.00     0.034 C 
ENDBRANCH  28  29
ENDBRANCH  26  28
ENDBRANCH   1  26
BRANCH   1  31
HETATM   31  C5  UNL     1      -2.612   1.464   1.703  1.00  0.00     0.015 C 
HETATM   32  C6  UNL     1      -2.504   0.873   3.062  1.00  0.00     0.006 C 
ENDBRANCH   1  31
TORSDOF 6
