REMARK  8 active torsions:
REMARK  status: ('A' for Active; 'I' for Inactive)
REMARK    1  A    between atoms: O1_2  and  C2_3 
REMARK    2  A    between atoms: C7_8  and  O2_9 
REMARK    3  A    between atoms: N1_12  and  C10_13 
REMARK    4  A    between atoms: C13_17  and  O3_18 
REMARK    5  A    between atoms: O3_18  and  C14_19 
REMARK       I    between atoms: C14_19  and  N2_21 
REMARK    6  A    between atoms: C16_23  and  N3_24 
REMARK    7  A    between atoms: C19_27  and  C20_28 
REMARK    8  A    between atoms: C20_28  and  N4_29 
ROOT
HETATM    1  C10 UNL     1       2.635  -0.575   0.954  1.00  0.00     0.174 C 
HETATM    2  F1  UNL     1       3.023  -1.625   1.768  1.00  0.00    -0.220 F 
HETATM    3  C11 UNL     1       2.095  -1.205  -0.317  1.00  0.00     0.069 C 
HETATM    4  C12 UNL     1       0.904  -2.091   0.006  1.00  0.00     0.037 C 
HETATM    5  C13 UNL     1      -0.147  -1.366   0.782  1.00  0.00     0.134 C 
HETATM    6  C24 UNL     1       0.227   0.097   0.879  1.00  0.00     0.037 C 
HETATM    7  C25 UNL     1       1.545   0.156   1.659  1.00  0.00     0.069 C 
ENDROOT
BRANCH   5   8
HETATM    8  O3  UNL     1      -1.449  -1.552   0.299  1.00  0.00    -0.298 OA
BRANCH   8   9
HETATM    9  C14 UNL     1      -2.455  -2.146   1.038  1.00  0.00     0.363 C 
HETATM   10  O4  UNL     1      -2.180  -2.534   2.187  1.00  0.00    -0.238 OA
HETATM   11  N2  UNL     1      -3.768  -2.326   0.536  1.00  0.00    -0.324 N 
HETATM   12  C15 UNL     1      -4.352  -1.966  -0.762  1.00  0.00     0.165 C 
HETATM   13  C23 UNL     1      -5.044  -2.871   0.959  1.00  0.00     0.165 C 
HETATM   14  C16 UNL     1      -5.720  -2.016  -0.130  1.00  0.00     0.259 C 
BRANCH  14  15
HETATM   15  N3  UNL     1      -6.211  -0.823   0.459  1.00  0.00     0.096 N 
HETATM   16  C17 UNL     1      -7.527  -1.003   0.957  1.00  0.00     0.273 C 
HETATM   17  C18 UNL     1      -8.589  -0.217   0.265  1.00  0.00     0.036 C 
HETATM   18  C19 UNL     1      -8.318   0.114  -1.156  1.00  0.00     0.014 C 
HETATM   19  C21 UNL     1      -6.896   0.399  -1.494  1.00  0.00     0.036 C 
HETATM   20  C22 UNL     1      -6.025   0.387  -0.259  1.00  0.00     0.273 C 
BRANCH  18  21
HETATM   21  C20 UNL     1      -9.112   1.388  -1.484  1.00  0.00     0.234 C 
BRANCH  21  22
HETATM   22  N4  UNL     1      -8.664   2.453  -0.608  1.00  0.00    -0.079 N 
ATOM     23  H43 UNL     1      -8.724   2.199   0.378  1.00  0.00     0.274 HD
ATOM     24  H42 UNL     1      -7.656   2.599  -0.655  1.00  0.00     0.274 HD
ATOM     25  H41 UNL     1      -9.191   3.299  -0.826  1.00  0.00     0.274 HD
ENDBRANCH  21  22
ENDBRANCH  18  21
ENDBRANCH  14  15
ENDBRANCH   8   9
ENDBRANCH   5   8
BRANCH   1  26
HETATM   26  N1  UNL     1       3.775   0.206   0.618  1.00  0.00    -0.374 N 
HETATM   27  C9  UNL     1       4.873  -0.520   0.077  1.00  0.00     0.159 C 
HETATM   28  C5  UNL     1       6.113   0.281  -0.027  1.00  0.00    -0.031 A 
HETATM   29  C4  UNL     1       5.977   1.600  -0.397  1.00  0.00    -0.046 A 
HETATM   30  C6  UNL     1       7.326  -0.264   0.232  1.00  0.00     0.049 A 
HETATM   31  C3  UNL     1       7.088   2.404  -0.514  1.00  0.00     0.047 A 
HETATM   32  C27 UNL     1       4.631   2.141  -0.669  1.00  0.00     0.058 C 
HETATM   33  C2  UNL     1       8.329   1.846  -0.249  1.00  0.00     0.102 A 
HETATM   34  C7  UNL     1       8.477   0.518   0.125  1.00  0.00     0.102 A 
HETATM   35  C26 UNL     1       3.517   1.477   0.045  1.00  0.00     0.125 C 
BRANCH  33  36
HETATM   36  O1  UNL     1       9.498   2.592  -0.344  1.00  0.00    -0.353 OA
HETATM   37  C1  UNL     1       9.532   3.955  -0.710  1.00  0.00     0.210 C 
ENDBRANCH  33  36
BRANCH  34  38
HETATM   38  O2  UNL     1       9.735  -0.013   0.384  1.00  0.00    -0.353 OA
HETATM   39  C8  UNL     1       9.824  -1.376   0.761  1.00  0.00     0.210 C 
ENDBRANCH  34  38
ENDBRANCH   1  26
TORSDOF 8
