REMARK  7 active torsions:
REMARK  status: ('A' for Active; 'I' for Inactive)
REMARK    1  A    between atoms: C2_2  and  C3_3 
REMARK    2  A    between atoms: C3_3  and  N1_4 
REMARK    3  A    between atoms: N1_4  and  C4_5 
REMARK    4  A    between atoms: N1_4  and  C18_25 
REMARK    5  A    between atoms: C8_9  and  N2_10 
REMARK       I    between atoms: N2_10  and  C9_12 
REMARK    6  A    between atoms: C9_12  and  C10_14 
REMARK    7  A    between atoms: C10_14  and  C11_15 
ROOT
HETATM    1  C4  UNL     1      -1.133  -0.039   0.669  1.00  0.00     0.085 C 
HETATM    2  C5  UNL     1      -0.942   1.121   1.655  1.00  0.00     0.025 C 
HETATM    3  C6  UNL     1       0.499   1.105   2.115  1.00  0.00     0.004 C 
HETATM    4  C7  UNL     1       1.363   1.357   0.872  1.00  0.00     0.025 C 
HETATM    5  C8  UNL     1       1.169   0.094  -0.013  1.00  0.00     0.086 C 
HETATM    6  C17 UNL     1      -0.259   0.181  -0.508  1.00  0.00     0.050 C 
ENDROOT
BRANCH   5   7
HETATM    7  N2  UNL     1       2.162  -0.011  -1.021  1.00  0.00    -0.356 N 
HETATM    8  C9  UNL     1       3.306  -0.805  -0.781  1.00  0.00     0.222 C 
HETATM    9  O1  UNL     1       3.432  -1.401   0.356  1.00  0.00    -0.273 OA
ATOM     10  H2  UNL     1       2.051   0.481  -1.908  1.00  0.00     0.162 HD
BRANCH   8  11
HETATM   11  C10 UNL     1       4.423  -1.042  -1.722  1.00  0.00     0.143 C 
BRANCH  11  12
HETATM   12  C11 UNL     1       5.650  -0.463  -1.104  1.00  0.00    -0.026 A 
HETATM   13  C12 UNL     1       6.470  -1.294  -0.365  1.00  0.00     0.011 A 
HETATM   14  C13 UNL     1       7.592  -0.753   0.235  1.00  0.00     0.026 A 
HETATM   15  C14 UNL     1       7.862   0.598   0.081  1.00  0.00     0.057 A 
HETATM   16 CL1  UNL     1       9.264   1.281   0.838  1.00  0.00    -0.082 Cl
HETATM   17  C15 UNL     1       7.025   1.420  -0.664  1.00  0.00     0.078 A 
HETATM   18 CL2  UNL     1       7.367   3.126  -0.848  1.00  0.00    -0.081 Cl
HETATM   19  C16 UNL     1       5.909   0.878  -1.259  1.00  0.00     0.064 A 
HETATM   20 CL3  UNL     1       4.845   1.894  -2.185  1.00  0.00    -0.082 Cl
ENDBRANCH  11  12
ENDBRANCH   8  11
ENDBRANCH   5   7
BRANCH   1  21
HETATM   21  N1  UNL     1      -2.449  -0.442   0.528  1.00  0.00    -0.384 N 
BRANCH  21  22
HETATM   22  C3  UNL     1      -2.839  -1.696   1.005  1.00  0.00     0.058 C 
BRANCH  22  23
HETATM   23  C2  UNL     1      -2.553  -2.904   0.169  1.00  0.00     0.040 C 
HETATM   24  C1  UNL     1      -1.169  -3.262  -0.164  1.00  0.00     0.010 C 
ENDBRANCH  22  23
ENDBRANCH  21  22
BRANCH  21  25
HETATM   25  C18 UNL     1      -3.285   0.209  -0.401  1.00  0.00     0.089 C 
HETATM   26  C19 UNL     1      -3.350   1.700  -0.250  1.00  0.00     0.026 C 
HETATM   27  C20 UNL     1      -4.569   2.267  -1.002  1.00  0.00     0.008 C 
HETATM   28  C21 UNL     1      -5.855   1.864  -0.381  1.00  0.00     0.079 C 
HETATM   29  C22 UNL     1      -5.634   0.595   0.384  1.00  0.00     0.245 C 
HETATM   30  F1  UNL     1      -5.262   0.765   1.678  1.00  0.00    -0.206 F 
HETATM   31  F2  UNL     1      -6.841  -0.101   0.404  1.00  0.00    -0.206 F 
HETATM   32  C23 UNL     1      -4.672  -0.300  -0.414  1.00  0.00     0.104 C 
ENDBRANCH  21  25
ENDBRANCH   1  21
TORSDOF 7
