REMARK  8 active torsions:
REMARK  status: ('A' for Active; 'I' for Inactive)
REMARK    1  A    between atoms: O1_2  and  C2_3 
REMARK    2  A    between atoms: C4_5  and  C5_6 
REMARK    3  A    between atoms: C5_6  and  N1_7 
REMARK    4  A    between atoms: C5_6  and  C12_18 
REMARK       I    between atoms: N1_7  and  C6_9 
REMARK    5  A    between atoms: C6_9  and  C7_11 
REMARK       I    between atoms: C12_18  and  N3_20 
REMARK    6  A    between atoms: N3_20  and  C13_22 
REMARK    7  A    between atoms: C20_29  and  O4_30 
REMARK    8  A    between atoms: C22_32  and  O5_33 
ROOT
HETATM    1  C5  UNL     1       0.146   0.619   0.676  1.00  0.00     0.210 C 
ENDROOT
BRANCH   1   2
HETATM    2  C4  UNL     1      -0.811  -0.511   0.443  1.00  0.00    -0.021 A 
HETATM    3  C3  UNL     1      -1.743  -0.481  -0.571  1.00  0.00     0.049 A 
HETATM    4  C2  UNL     1      -2.632  -1.526  -0.785  1.00  0.00     0.104 A 
HETATM    5  C22 UNL     1      -2.609  -2.649   0.027  1.00  0.00     0.135 A 
HETATM    6  C20 UNL     1      -1.678  -2.682   1.042  1.00  0.00     0.104 A 
HETATM    7  C19 UNL     1      -0.802  -1.636   1.242  1.00  0.00     0.049 A 
BRANCH   4   8
HETATM    8  O1  UNL     1      -3.558  -1.490  -1.797  1.00  0.00    -0.353 OA
HETATM    9  C1  UNL     1      -3.632  -0.389  -2.652  1.00  0.00     0.210 C 
ENDBRANCH   4   8
BRANCH   5  10
HETATM   10  O5  UNL     1      -3.494  -3.706  -0.174  1.00  0.00    -0.351 OA
HETATM   11  C23 UNL     1      -4.743  -3.692   0.491  1.00  0.00     0.210 C 
ENDBRANCH   5  10
BRANCH   6  12
HETATM   12  O4  UNL     1      -1.655  -3.815   1.862  1.00  0.00    -0.353 OA
HETATM   13  C21 UNL     1      -0.700  -3.845   2.902  1.00  0.00     0.210 C 
ENDBRANCH   6  12
ENDBRANCH   1   2
BRANCH   1  14
HETATM   14  N1  UNL     1      -0.501   1.898   0.608  1.00  0.00    -0.339 N 
HETATM   15  C6  UNL     1      -0.484   2.783   1.725  1.00  0.00     0.255 C 
HETATM   16  O2  UNL     1       0.119   2.417   2.790  1.00  0.00    -0.268 OA
ATOM     17  H1  UNL     1      -0.978   2.177  -0.249  1.00  0.00     0.164 HD
BRANCH  15  18
HETATM   18  C7  UNL     1      -1.114   4.085   1.731  1.00  0.00     0.070 A 
HETATM   19  C8  UNL     1      -0.607   5.316   1.380  1.00  0.00     0.108 A 
HETATM   20  N2  UNL     1      -1.538   6.270   1.538  1.00  0.00    -0.368 N 
HETATM   21  C9  UNL     1      -1.333   7.677   1.260  1.00  0.00     0.154 C 
HETATM   22  C10 UNL     1      -2.667   5.688   1.992  1.00  0.00     0.114 A 
HETATM   23  C11 UNL     1      -2.415   4.325   2.117  1.00  0.00     0.066 A 
HETATM   24 CL1  UNL     1      -3.546   3.106   2.668  1.00  0.00    -0.082 Cl
ENDBRANCH  15  18
ENDBRANCH   1  14
BRANCH   1  25
HETATM   25  C12 UNL     1       1.274   0.504  -0.284  1.00  0.00     0.245 C 
HETATM   26  O3  UNL     1       1.600   1.443  -1.056  1.00  0.00    -0.271 OA
HETATM   27  N3  UNL     1       2.028  -0.692  -0.357  1.00  0.00    -0.354 N 
ATOM     28  H3  UNL     1       1.777  -1.464   0.261  1.00  0.00     0.162 HD
BRANCH  27  29
HETATM   29  C13 UNL     1       3.140  -0.871  -1.269  1.00  0.00     0.084 C 
HETATM   30  C14 UNL     1       4.372  -1.107  -0.461  1.00  0.00     0.025 C 
HETATM   31  C15 UNL     1       5.277  -2.170  -1.024  1.00  0.00     0.002 C 
HETATM   32  C16 UNL     1       5.276  -2.119  -2.537  1.00  0.00     0.000 C 
HETATM   33  C17 UNL     1       3.910  -2.561  -2.970  1.00  0.00     0.002 C 
HETATM   34  C18 UNL     1       2.782  -1.965  -2.220  1.00  0.00     0.025 C 
ENDBRANCH  27  29
ENDBRANCH   1  25
TORSDOF 8
