REMARK  11 active torsions:
REMARK  status: ('A' for Active; 'I' for Inactive)
REMARK    1  A    between atoms: S1_2  and  C2_3 
REMARK    2  A    between atoms: N1_6  and  C5_7 
REMARK    3  A    between atoms: C5_7  and  O1_8 
REMARK    4  A    between atoms: C5_7  and  C6_10 
REMARK    5  A    between atoms: C6_10  and  C7_11 
REMARK    6  A    between atoms: C6_10  and  N3_23 
REMARK    7  A    between atoms: C7_11  and  C8_12 
REMARK    8  A    between atoms: C8_12  and  C9_13 
REMARK       I    between atoms: C9_13  and  N2_15 
REMARK    9  A    between atoms: N2_15  and  C10_17 
REMARK   10  A    between atoms: N3_23  and  N4_24 
REMARK   11  A    between atoms: N4_24  and  C15_26 
ROOT
HETATM    1  C6  UNL     1      -0.501   0.909   0.324  1.00  0.00     0.159 C 
ENDROOT
BRANCH   1   2
HETATM    2  C5  UNL     1      -1.497   0.373  -0.596  1.00  0.00     0.177 C 
BRANCH   2   3
HETATM    3  N1  UNL     1      -2.296  -0.740  -0.574  1.00  0.00    -0.359 N 
HETATM    4  C4  UNL     1      -2.470  -1.695   0.460  1.00  0.00     0.126 C 
HETATM    5  C3  UNL     1      -3.647  -2.652   0.208  1.00  0.00     0.035 C 
HETATM    6  C2  UNL     1      -4.863  -1.960  -0.326  1.00  0.00     0.050 C 
HETATM    7  C22 UNL     1      -4.558  -0.999  -1.447  1.00  0.00     0.035 C 
HETATM    8  C21 UNL     1      -3.100  -1.034  -1.805  1.00  0.00     0.126 C 
BRANCH   6   9
HETATM    9  S1  UNL     1      -6.068  -3.224  -0.852  1.00  0.00    -0.169 SA
HETATM   10  C1  UNL     1      -6.614  -4.162   0.611  1.00  0.00     0.090 C 
ENDBRANCH   6   9
ENDBRANCH   2   3
BRANCH   2  11
HETATM   11  O1  UNL     1      -1.636   1.162  -1.654  1.00  0.00    -0.344 OA
ATOM     12  H1  UNL     1      -1.082   1.934  -1.669  1.00  0.00     0.219 HD
ENDBRANCH   2  11
ENDBRANCH   1   2
BRANCH   1  13
HETATM   13  C7  UNL     1       0.024   0.121   1.470  1.00  0.00     0.089 C 
BRANCH  13  14
HETATM   14  C8  UNL     1       0.957  -0.979   1.212  1.00  0.00     0.110 C 
BRANCH  14  15
HETATM   15  C9  UNL     1       2.269  -0.560   0.681  1.00  0.00     0.218 C 
HETATM   16  O2  UNL     1       2.503   0.606   0.363  1.00  0.00    -0.274 OA
HETATM   17  N2  UNL     1       3.323  -1.567   0.536  1.00  0.00    -0.356 N 
ATOM     18  H2  UNL     1       3.161  -2.540   0.794  1.00  0.00     0.162 HD
BRANCH  17  19
HETATM   19  C10 UNL     1       4.584  -1.141   0.022  1.00  0.00     0.088 C 
HETATM   20  C11 UNL     1       5.513  -0.851   1.236  1.00  0.00     0.051 C 
HETATM   21  C12 UNL     1       6.814  -0.358   0.636  1.00  0.00     0.169 C 
HETATM   22  O3  UNL     1       7.468  -1.351  -0.065  1.00  0.00    -0.391 OA
HETATM   23  C13 UNL     1       6.682  -2.479  -0.258  1.00  0.00     0.169 C 
HETATM   24  C14 UNL     1       5.315  -2.143  -0.823  1.00  0.00     0.051 C 
ENDBRANCH  17  19
ENDBRANCH  14  15
ENDBRANCH  13  14
ENDBRANCH   1  13
BRANCH   1  25
HETATM   25  N3  UNL     1      -0.054   2.005   0.088  1.00  0.00    -0.326 NA
BRANCH  25  26
HETATM   26  N4  UNL     1       0.403   3.156  -0.177  1.00  0.00    -0.236 N 
ATOM     27  H4  UNL     1       1.402   3.255  -0.358  1.00  0.00     0.202 HD
BRANCH  26  28
HETATM   28  C15 UNL     1      -0.437   4.344  -0.234  1.00  0.00     0.062 A 
HETATM   29  C16 UNL     1      -0.589   5.069   0.906  1.00  0.00     0.032 A 
HETATM   30  C17 UNL     1      -1.384   6.185   0.867  1.00  0.00     0.004 A 
HETATM   31  C18 UNL     1      -2.008   6.544  -0.332  1.00  0.00     0.024 A 
HETATM   32  C19 UNL     1      -1.845   5.802  -1.473  1.00  0.00     0.036 A 
HETATM   33 CL1  UNL     1      -2.605   6.201  -2.984  1.00  0.00    -0.084 Cl
HETATM   34  C20 UNL     1      -1.049   4.692  -1.417  1.00  0.00     0.055 A 
ENDBRANCH  26  28
ENDBRANCH  25  26
ENDBRANCH   1  25
TORSDOF 11
