REMARK  12 active torsions:
REMARK  status: ('A' for Active; 'I' for Inactive)
REMARK    1  A    between atoms: O1_2  and  C2_3 
REMARK    2  A    between atoms: C7_8  and  C8_9 
REMARK    3  A    between atoms: C8_9  and  O3_11 
REMARK    4  A    between atoms: O3_11  and  C9_12 
REMARK    5  A    between atoms: C9_12  and  C10_13 
REMARK    6  A    between atoms: C10_13  and  N2_20 
REMARK    7  A    between atoms: N1_14  and  C11_16 
REMARK    8  A    between atoms: N2_20  and  C14_22 
REMARK    9  A    between atoms: C14_22  and  C15_23 
REMARK   10  A    between atoms: C15_23  and  O4_24 
REMARK   11  A    between atoms: C15_23  and  C16_26 
REMARK   12  A    between atoms: C16_26  and  N3_27 
ROOT
HETATM    1  C10 UNL     1       0.406  -1.205   0.106  1.00  0.00     0.099 C 
HETATM    2  N1  UNL     1      -0.116  -2.306  -0.173  1.00  0.00    -0.356 N 
ATOM      3  H1  UNL     1      -0.609  -2.271  -1.065  1.00  0.00     0.162 HD
ENDROOT
BRANCH   1   4
HETATM    4  C9  UNL     1       1.194  -0.932   1.331  1.00  0.00     0.255 C 
BRANCH   4   5
HETATM    5  O3  UNL     1       2.338  -0.176   1.085  1.00  0.00    -0.310 OA
BRANCH   5   6
HETATM    6  C8  UNL     1       3.397  -0.453   0.274  1.00  0.00     0.294 C 
HETATM    7  O2  UNL     1       3.349  -1.556  -0.355  1.00  0.00    -0.259 OA
BRANCH   6   8
HETATM    8  C7  UNL     1       4.548   0.414   0.087  1.00  0.00     0.048 A 
HETATM    9  C5  UNL     1       4.636   1.614   0.719  1.00  0.00    -0.046 A 
HETATM   10  C4  UNL     1       5.769   2.409   0.505  1.00  0.00     0.010 A 
HETATM   11  C6  UNL     1       3.572   2.113   1.620  1.00  0.00     0.049 C 
HETATM   12  C3  UNL     1       6.799   2.023  -0.321  1.00  0.00     0.037 A 
HETATM   13  C2  UNL     1       6.696   0.804  -0.954  1.00  0.00     0.069 A 
HETATM   14  C23 UNL     1       5.569   0.010  -0.743  1.00  0.00     0.054 A 
BRANCH  13  15
HETATM   15  O1  UNL     1       7.715   0.378  -1.796  1.00  0.00    -0.356 OA
HETATM   16  C1  UNL     1       8.848   1.201  -1.993  1.00  0.00     0.210 C 
ENDBRANCH  13  15
ENDBRANCH   6   8
ENDBRANCH   5   6
ENDBRANCH   4   5
ENDBRANCH   1   4
BRANCH   1  17
HETATM   17  N2  UNL     1       0.190  -0.120  -0.831  1.00  0.00    -0.376 N 
ATOM     18  H2  UNL     1       0.509  -0.246  -1.792  1.00  0.00     0.160 HD
BRANCH  17  19
HETATM   19  C14 UNL     1      -0.440   1.112  -0.492  1.00  0.00     0.154 C 
BRANCH  19  20
HETATM   20  C15 UNL     1      -1.926   0.984  -0.181  1.00  0.00     0.153 C 
BRANCH  20  21
HETATM   21  O4  UNL     1      -2.121   0.134   0.877  1.00  0.00    -0.392 OA
ATOM     22  H4  UNL     1      -3.048   0.054   1.071  1.00  0.00     0.210 HD
ENDBRANCH  20  21
BRANCH  20  23
HETATM   23  C16 UNL     1      -2.629   0.621  -1.444  1.00  0.00     0.150 C 
BRANCH  23  24
HETATM   24  N3  UNL     1      -4.048   0.553  -1.357  1.00  0.00    -0.410 N 
HETATM   25  C17 UNL     1      -4.580  -0.504  -0.572  1.00  0.00     0.117 C 
HETATM   26  C18 UNL     1      -6.051  -0.672  -0.978  1.00  0.00     0.019 C 
HETATM   27  C19 UNL     1      -6.945  -0.036   0.064  1.00  0.00     0.002 C 
HETATM   28  C20 UNL     1      -6.820   1.450   0.122  1.00  0.00     0.002 C 
HETATM   29  C21 UNL     1      -5.408   1.950   0.160  1.00  0.00     0.019 C 
HETATM   30  C22 UNL     1      -4.695   1.822  -1.163  1.00  0.00     0.117 C 
ENDBRANCH  23  24
ENDBRANCH  20  23
ENDBRANCH  19  20
ENDBRANCH  17  19
ENDBRANCH   1  17
BRANCH   2  31
HETATM   31  C11 UNL     1      -0.204  -3.577   0.415  1.00  0.00     0.101 C 
HETATM   32  C12 UNL     1      -0.557  -3.600   1.882  1.00  0.00     0.056 C 
HETATM   33  C13 UNL     1       1.098  -4.333   0.230  1.00  0.00     0.056 C 
HETATM   34 CL1  UNL     1      -1.439  -4.590  -0.445  1.00  0.00    -0.096 Cl
ENDBRANCH   2  31
TORSDOF 12
