REMARK  3 active torsions:
REMARK  status: ('A' for Active; 'I' for Inactive)
REMARK       I    between atoms: C1_2  and  N1_3 
REMARK    1  A    between atoms: C1_2  and  C19_27 
REMARK    2  A    between atoms: N1_3  and  C2_5 
REMARK    3  A    between atoms: C9_17  and  C10_18 
ROOT
HETATM    1  C2  UNL     1       1.403   0.473   0.634  1.00  0.00     0.145 A 
HETATM    2  N2  UNL     1       1.820   1.702   0.249  1.00  0.00    -0.336 N 
ATOM      3  H2  UNL     1       2.808   1.934   0.355  1.00  0.00     0.168 HD
HETATM    4  C3  UNL     1       0.997   2.633  -0.267  1.00  0.00     0.182 A 
HETATM    5  N3  UNL     1      -0.318   2.301  -0.402  1.00  0.00    -0.349 N 
ATOM      6  H3  UNL     1      -0.965   2.986  -0.792  1.00  0.00     0.166 HD
HETATM    7  C4  UNL     1      -0.784   1.099  -0.037  1.00  0.00     0.081 A 
HETATM    8  C5  UNL     1       0.072   0.146   0.495  1.00  0.00     0.141 A 
HETATM    9  O2  UNL     1      -0.403  -1.089   0.871  1.00  0.00    -0.341 OA
HETATM   10  C6  UNL     1      -1.725  -1.530   0.771  1.00  0.00     0.215 A 
HETATM   11  C7  UNL     1      -2.669  -0.540   0.210  1.00  0.00    -0.021 A 
HETATM   12  C8  UNL     1      -4.024  -0.848   0.059  1.00  0.00     0.022 A 
HETATM   13  C9  UNL     1      -4.913   0.062  -0.462  1.00  0.00    -0.025 A 
HETATM   14  C16 UNL     1      -4.425   1.297  -0.833  1.00  0.00     0.013 A 
HETATM   15  C17 UNL     1      -3.090   1.612  -0.689  1.00  0.00     0.015 A 
HETATM   16  C18 UNL     1      -2.183   0.693  -0.161  1.00  0.00     0.002 A 
ENDROOT
BRANCH   1  17
HETATM   17  N1  UNL     1       2.194  -0.419   1.129  1.00  0.00    -0.306 N 
HETATM   18  C1  UNL     1       3.599  -0.021   1.256  1.00  0.00     0.258 C 
HETATM   19  O1  UNL     1       3.814   0.712   2.230  1.00  0.00    -0.267 OA
ATOM     20  H1  UNL     1       1.863  -1.341   1.413  1.00  0.00     0.170 HD
BRANCH  18  21
HETATM   21  C19 UNL     1       4.547  -0.497   0.282  1.00  0.00     0.043 A 
HETATM   22  C20 UNL     1       4.155  -1.519  -0.594  1.00  0.00     0.018 A 
HETATM   23  C21 UNL     1       5.018  -2.038  -1.525  1.00  0.00     0.002 A 
HETATM   24  C22 UNL     1       6.292  -1.581  -1.636  1.00  0.00     0.012 A 
HETATM   25  C23 UNL     1       6.714  -0.577  -0.791  1.00  0.00    -0.025 A 
HETATM   26  C24 UNL     1       8.014  -0.114  -0.920  1.00  0.00     0.012 A 
HETATM   27  C28 UNL     1       5.828  -0.049   0.159  1.00  0.00    -0.010 A 
HETATM   28  C25 UNL     1       8.491   0.882  -0.124  1.00  0.00     0.001 A 
HETATM   29  C26 UNL     1       7.627   1.408   0.812  1.00  0.00     0.001 A 
HETATM   30  C27 UNL     1       6.315   0.952   0.954  1.00  0.00     0.013 A 
ENDBRANCH  18  21
ENDBRANCH   1  17
BRANCH  13  31
HETATM   31  C10 UNL     1      -6.344  -0.270  -0.620  1.00  0.00    -0.026 A 
HETATM   32  C11 UNL     1      -6.991  -1.125   0.247  1.00  0.00     0.012 A 
HETATM   33  C12 UNL     1      -8.330  -1.414   0.071  1.00  0.00     0.001 A 
HETATM   34  C13 UNL     1      -9.070  -0.873  -0.961  1.00  0.00     0.000 A 
HETATM   35  C14 UNL     1      -8.426  -0.017  -1.831  1.00  0.00     0.001 A 
HETATM   36  C15 UNL     1      -7.090   0.269  -1.651  1.00  0.00     0.012 A 
ENDBRANCH  13  31
TORSDOF 3
