REMARK  2 active torsions:
REMARK  status: ('A' for Active; 'I' for Inactive)
REMARK       I    between atoms: C1_2  and  N1_3 
REMARK    1  A    between atoms: C1_2  and  C12_15 
REMARK    2  A    between atoms: N1_3  and  C2_5 
ROOT
HETATM    1  C12 UNL     1       0.520  -2.037   0.490  1.00  0.00     0.034 A 
HETATM    2  C13 UNL     1      -0.090  -3.060   1.196  1.00  0.00     0.018 A 
HETATM    3  C14 UNL     1      -1.449  -2.995   1.405  1.00  0.00     0.015 A 
HETATM    4  C15 UNL     1      -2.190  -1.931   0.921  1.00  0.00    -0.007 A 
HETATM    5  C16 UNL     1      -3.527  -1.624   0.986  1.00  0.00     0.044 A 
HETATM    6  C17 UNL     1      -3.744  -0.410   0.319  1.00  0.00     0.048 A 
HETATM    7  N2  UNL     1      -2.571  -0.014  -0.125  1.00  0.00    -0.331 N 
HETATM    8  C18 UNL     1      -1.602  -0.917   0.224  1.00  0.00     0.047 A 
HETATM    9  C19 UNL     1      -0.229  -0.988   0.015  1.00  0.00     0.047 A 
HETATM   10  C20 UNL     1      -2.280   1.195  -0.882  1.00  0.00     0.275 A 
HETATM   11  S1  UNL     1      -3.683   2.168  -1.195  1.00  0.00     0.193 S 
HETATM   12  O2  UNL     1      -3.509   3.526  -0.547  1.00  0.00    -0.221 OA
HETATM   13  O3  UNL     1      -3.903   2.431  -2.667  1.00  0.00    -0.221 OA
HETATM   14  C21 UNL     1      -5.088   1.433  -0.510  1.00  0.00     0.073 A 
HETATM   15  C22 UNL     1      -6.283   2.075  -0.666  1.00  0.00     0.024 A 
HETATM   16  C23 UNL     1      -7.465   1.580  -0.163  1.00  0.00     0.002 A 
HETATM   17  C24 UNL     1      -7.385   0.386   0.519  1.00  0.00     0.001 A 
HETATM   18  C25 UNL     1      -6.200  -0.283   0.692  1.00  0.00     0.015 A 
HETATM   19  C26 UNL     1      -5.029   0.254   0.166  1.00  0.00     0.012 A 
ENDROOT
BRANCH   1  20
HETATM   20  C1  UNL     1       1.975  -2.158   0.286  1.00  0.00     0.256 C 
HETATM   21  O1  UNL     1       2.455  -3.300   0.309  1.00  0.00    -0.267 OA
HETATM   22  N1  UNL     1       2.735  -0.995   0.078  1.00  0.00    -0.322 N 
ATOM     23  H1  UNL     1       2.214  -0.118   0.084  1.00  0.00     0.169 HD
BRANCH  22  24
HETATM   24  C2  UNL     1       4.124  -0.882  -0.138  1.00  0.00     0.046 A 
HETATM   25  C3  UNL     1       4.980  -1.944  -0.168  1.00  0.00     0.030 A 
HETATM   26  C4  UNL     1       6.364  -1.831  -0.381  1.00  0.00     0.003 A 
HETATM   27  C5  UNL     1       6.872  -0.580  -0.567  1.00  0.00     0.012 A 
HETATM   28  C6  UNL     1       6.060   0.533  -0.548  1.00  0.00    -0.024 A 
HETATM   29  C7  UNL     1       6.656   1.751  -0.744  1.00  0.00     0.012 A 
HETATM   30  C11 UNL     1       4.686   0.384  -0.333  1.00  0.00     0.001 A 
HETATM   31  C8  UNL     1       5.888   2.870  -0.732  1.00  0.00     0.001 A 
HETATM   32  C9  UNL     1       4.533   2.763  -0.525  1.00  0.00     0.001 A 
HETATM   33  C10 UNL     1       3.915   1.511  -0.322  1.00  0.00     0.014 A 
ENDBRANCH  22  24
ENDBRANCH   1  20
TORSDOF 2
