REMARK  2 active torsions:
REMARK  status: ('A' for Active; 'I' for Inactive)
REMARK    1  A    between atoms: C2_3  and  C3_4 
REMARK    2  A    between atoms: C17_19  and  N3_20 
ROOT
HETATM    1  C1  UNL     1      -2.279   2.351   0.146  1.00  0.00     0.156 C 
HETATM    2  N1  UNL     1      -1.706   1.028   0.002  1.00  0.00    -0.349 N 
HETATM    3  C2  UNL     1      -2.520  -0.011  -0.123  1.00  0.00     0.056 A 
HETATM    4  C9  UNL     1      -1.954  -1.275  -0.262  1.00  0.00     0.003 A 
HETATM    5  C10 UNL     1      -2.795  -2.342  -0.391  1.00  0.00     0.014 A 
HETATM    6  C11 UNL     1      -2.248  -3.601  -0.530  1.00  0.00     0.001 A 
HETATM    7  C12 UNL     1      -0.884  -3.762  -0.537  1.00  0.00     0.001 A 
HETATM    8  C13 UNL     1      -0.021  -2.686  -0.408  1.00  0.00     0.013 A 
HETATM    9  C14 UNL     1      -0.566  -1.431  -0.269  1.00  0.00    -0.011 A 
HETATM   10  C15 UNL     1       0.248  -0.315  -0.135  1.00  0.00     0.004 A 
HETATM   11  C16 UNL     1       1.616  -0.449  -0.138  1.00  0.00     0.044 A 
HETATM   12  C17 UNL     1       2.368   0.726   0.003  1.00  0.00     0.046 A 
HETATM   13  C26 UNL     1       1.796   1.965   0.139  1.00  0.00     0.032 A 
HETATM   14  C27 UNL     1       0.429   2.066   0.138  1.00  0.00     0.033 A 
HETATM   15  C28 UNL     1      -0.366   0.919   0.000  1.00  0.00     0.045 A 
ENDROOT
BRANCH  12  16
HETATM   16  N3  UNL     1       3.784   0.602   0.004  1.00  0.00    -0.244 N 
HETATM   17  C18 UNL     1       4.543  -0.172  -0.919  1.00  0.00     0.266 A 
HETATM   18  O1  UNL     1       4.131  -0.875  -1.884  1.00  0.00    -0.267 OA
HETATM   19  C19 UNL     1       5.964  -0.033  -0.573  1.00  0.00     0.048 A 
HETATM   20  C20 UNL     1       7.107  -0.572  -1.145  1.00  0.00     0.018 A 
HETATM   21  C24 UNL     1       6.042   0.800   0.523  1.00  0.00     0.048 A 
HETATM   22  C21 UNL     1       8.327  -0.243  -0.576  1.00  0.00     0.001 A 
HETATM   23  C22 UNL     1       8.422   0.588   0.520  1.00  0.00     0.001 A 
HETATM   24  C23 UNL     1       7.278   1.127   1.092  1.00  0.00     0.018 A 
HETATM   25  C25 UNL     1       4.706   1.201   0.893  1.00  0.00     0.266 A 
HETATM   26  O2  UNL     1       4.368   1.958   1.841  1.00  0.00    -0.267 OA
ENDBRANCH  12  16
BRANCH   3  27
HETATM   27  C3  UNL     1      -3.981   0.100  -0.115  1.00  0.00    -0.008 A 
HETATM   28  C4  UNL     1      -4.741   0.287  -1.251  1.00  0.00     0.015 A 
HETATM   29  C5  UNL     1      -6.116   0.378  -1.211  1.00  0.00     0.027 A 
HETATM   30  C6  UNL     1      -6.774   0.282  -0.005  1.00  0.00     0.046 A 
HETATM   31  N2  UNL     1      -8.217   0.376   0.016  1.00  0.00    -0.102 NA
HETATM   32  C7  UNL     1      -6.061   0.096   1.156  1.00  0.00     0.027 A 
HETATM   33  C8  UNL     1      -4.691   0.009   1.086  1.00  0.00     0.015 A 
ENDBRANCH   3  27
TORSDOF 2
