REMARK  7 active torsions:
REMARK  status: ('A' for Active; 'I' for Inactive)
REMARK    1  A    between atoms: C4_10  and  C5_11 
REMARK    2  A    between atoms: C5_11  and  N6_14 
REMARK    3  A    between atoms: N6_14  and  O1_15 
REMARK    4  A    between atoms: O1_15  and  C7_16 
REMARK    5  A    between atoms: C7_16  and  C8_18 
REMARK    6  A    between atoms: C10_20  and  N7_21 
REMARK    7  A    between atoms: C11_26  and  N9_27 
ROOT
HETATM    1  C1  UNL     1       4.303   0.573  -1.771  1.00  0.00     0.160 C 
HETATM    2  N1  UNL     1       4.288   0.139  -0.394  1.00  0.00    -0.314 N 
HETATM    3  C2  UNL     1       5.381  -0.004   0.408  1.00  0.00     0.206 A 
HETATM    4  C3  UNL     1       6.759   0.250   0.034  1.00  0.00     0.138 C 
HETATM    5  N2  UNL     1       7.855   0.465  -0.272  1.00  0.00    -0.188 NA
HETATM    6  N3  UNL     1       4.921  -0.425   1.600  1.00  0.00    -0.275 N 
ATOM      7  H3  UNL     1       5.489  -0.628   2.423  1.00  0.00     0.189 HD
HETATM    8  N4  UNL     1       3.585  -0.532   1.519  1.00  0.00    -0.284 N 
ATOM      9  H4  UNL     1       2.972  -0.831   2.277  1.00  0.00     0.188 HD
HETATM   10  C4  UNL     1       3.184  -0.189   0.299  1.00  0.00     0.136 A 
ENDROOT
BRANCH  10  11
HETATM   11  C5  UNL     1       1.799  -0.159  -0.236  1.00  0.00     0.282 C 
HETATM   12  C6  UNL     1       1.268  -1.528  -0.400  1.00  0.00     0.091 C 
HETATM   13  N5  UNL     1       0.860  -2.607  -0.528  1.00  0.00    -0.195 NA
BRANCH  11  14
HETATM   14  N6  UNL     1       0.952   0.477   0.766  1.00  0.00    -0.063 NA
BRANCH  14  15
HETATM   15  O1  UNL     1      -0.355   0.543   0.342  1.00  0.00    -0.200 OA
BRANCH  15  16
HETATM   16  C7  UNL     1      -1.335  -0.085   1.080  1.00  0.00     0.329 C 
HETATM   17  O2  UNL     1      -0.989  -0.699   2.122  1.00  0.00    -0.256 OA
BRANCH  16  18
HETATM   18  C8  UNL     1      -2.743  -0.070   0.713  1.00  0.00     0.129 A 
HETATM   19  C9  UNL     1      -3.201   0.582  -0.416  1.00  0.00     0.085 A 
HETATM   20  C10 UNL     1      -4.528   0.591  -0.755  1.00  0.00     0.117 A 
HETATM   21  N8  UNL     1      -5.400  -0.056   0.039  1.00  0.00    -0.177 N 
HETATM   22  C11 UNL     1      -4.969  -0.691   1.134  1.00  0.00     0.678 A 
ATOM     23  H8  UNL     1      -6.393  -0.062  -0.195  1.00  0.00     0.185 HD
HETATM   24  N10 UNL     1      -3.663  -0.694   1.460  1.00  0.00    -0.186 N 
ATOM     25  H10 UNL     1      -3.365  -1.187   2.302  1.00  0.00     0.184 HD
BRANCH  20  26
HETATM   26  N7  UNL     1      -4.926   1.207  -1.811  1.00  0.00    -0.385 N 
ATOM     27  H72 UNL     1      -4.265   1.698  -2.413  1.00  0.00     0.157 HD
ATOM     28  H71 UNL     1      -5.914   1.214  -2.063  1.00  0.00     0.157 HD
ENDBRANCH  20  26
BRANCH  22  29
HETATM   29  N9  UNL     1      -5.801  -1.305   1.887  1.00  0.00    -0.234 N 
ATOM     30  H92 UNL     1      -6.791  -1.303   1.640  1.00  0.00     0.174 HD
ATOM     31  H91 UNL     1      -5.472  -1.789   2.722  1.00  0.00     0.174 HD
ENDBRANCH  22  29
ENDBRANCH  16  18
ENDBRANCH  15  16
ENDBRANCH  14  15
ENDBRANCH  11  14
ENDBRANCH  10  11
TORSDOF 7
