REMARK  7 active torsions:
REMARK  status: ('A' for Active; 'I' for Inactive)
REMARK    1  A    between atoms: N1_1  and  C1_4 
REMARK    2  A    between atoms: C2_13  and  C3_14 
REMARK    3  A    between atoms: C3_14  and  C4_16 
REMARK    4  A    between atoms: C4_16  and  S1_17 
REMARK    5  A    between atoms: S1_17  and  C5_18 
REMARK    6  A    between atoms: C8_27  and  N9_28 
REMARK    7  A    between atoms: N9_28  and  N10_30 
ROOT
HETATM    1  C5  UNL     1       0.849  -0.901   0.349  1.00  0.00     0.102 A 
HETATM    2  N6  UNL     1       0.759  -1.831  -0.601  1.00  0.00    -0.345 N 
ATOM      3  H6  UNL     1      -0.056  -2.444  -0.603  1.00  0.00     0.167 HD
HETATM    4  C6  UNL     1       1.701  -2.004  -1.569  1.00  0.00     0.183 A 
HETATM    5  N7  UNL     1       2.796  -1.225  -1.616  1.00  0.00    -0.336 N 
ATOM      6  H7  UNL     1       3.503  -1.353  -2.340  1.00  0.00     0.168 HD
HETATM    7  C7  UNL     1       2.930  -0.268  -0.674  1.00  0.00     0.152 A 
HETATM    8  N8  UNL     1       3.920   0.631  -0.505  1.00  0.00    -0.173 N 
ATOM      9  H8  UNL     1       4.754   0.732  -1.084  1.00  0.00     0.186 HD
HETATM   10  C8  UNL     1       3.603   1.359   0.557  1.00  0.00     0.698 A 
HETATM   11  N11 UNL     1       2.420   0.924   1.059  1.00  0.00    -0.184 N 
ATOM     12  H11 UNL     1       1.944   1.307   1.876  1.00  0.00     0.184 HD
HETATM   13  C9  UNL     1       1.985  -0.084   0.310  1.00  0.00     0.127 A 
ENDROOT
BRANCH   1  14
HETATM   14  S1  UNL     1      -0.327  -0.605   1.644  1.00  0.00    -0.102 SA
BRANCH  14  15
HETATM   15  C4  UNL     1      -1.702  -1.727   1.508  1.00  0.00     0.166 C 
BRANCH  15  16
HETATM   16  C3  UNL     1      -2.551  -1.492   0.301  1.00  0.00     0.190 C 
HETATM   17  O1  UNL     1      -2.398  -2.261  -0.668  1.00  0.00    -0.290 OA
BRANCH  16  18
HETATM   18  C2  UNL     1      -3.516  -0.423   0.238  1.00  0.00     0.141 A 
HETATM   19  C1  UNL     1      -4.283  -0.239  -0.874  1.00  0.00     0.147 A 
HETATM   20  N2  UNL     1      -5.198   0.767  -0.958  1.00  0.00    -0.268 N 
HETATM   21  N3  UNL     1      -5.280   1.537   0.111  1.00  0.00    -0.227 N 
ATOM     22  H2  UNL     1      -5.776   0.914  -1.785  1.00  0.00     0.190 HD
HETATM   23  N4  UNL     1      -4.547   1.369   1.190  1.00  0.00    -0.228 N 
ATOM     24  H3  UNL     1      -5.950   2.306   0.100  1.00  0.00     0.210 HD
HETATM   25  N5  UNL     1      -3.652   0.392   1.283  1.00  0.00    -0.278 N 
ATOM     26  H4  UNL     1      -4.669   2.006   1.977  1.00  0.00     0.210 HD
ATOM     27  H5  UNL     1      -3.089   0.270   2.125  1.00  0.00     0.189 HD
BRANCH  19  28
HETATM   28  N1  UNL     1      -4.163  -1.013  -1.885  1.00  0.00    -0.382 N 
ATOM     29  H12 UNL     1      -4.737  -0.875  -2.717  1.00  0.00     0.157 HD
ATOM     30  H11 UNL     1      -3.478  -1.766  -1.822  1.00  0.00     0.157 HD
ENDBRANCH  19  28
ENDBRANCH  16  18
ENDBRANCH  15  16
ENDBRANCH  14  15
ENDBRANCH   1  14
BRANCH  10  31
HETATM   31  N9  UNL     1       4.281   2.347   1.076  1.00  0.00    -0.138 N 
ATOM     32  H9  UNL     1       3.921   2.825   1.902  1.00  0.00     0.205 HD
BRANCH  31  33
HETATM   33  N10 UNL     1       5.479   2.753   0.521  1.00  0.00    -0.331 N 
ATOM     34 2H10 UNL     1       5.824   2.264  -0.305  1.00  0.00     0.177 HD
ATOM     35 1H10 UNL     1       6.009   3.525   0.926  1.00  0.00     0.177 HD
ENDBRANCH  31  33
ENDBRANCH  10  31
TORSDOF 7
