REMARK  7 active torsions:
REMARK  status: ('A' for Active; 'I' for Inactive)
REMARK    1  A    between atoms: N1_2  and  N2_3 
REMARK       I    between atoms: N2_3  and  C2_5 
REMARK    2  A    between atoms: C2_5  and  C3_7 
REMARK    3  A    between atoms: C3_7  and  C4_8 
REMARK    4  A    between atoms: N3_10  and  N4_12 
REMARK    5  A    between atoms: N4_12  and  C6_14 
REMARK    6  A    between atoms: C8_21  and  N7_22 
REMARK    7  A    between atoms: N9_27  and  O2_28 
ROOT
HETATM    1  C6  UNL     1      -2.134   0.696  -0.058  1.00  0.00     0.140 A 
HETATM    2  S1  UNL     1      -1.490   1.929   0.919  1.00  0.00     0.024 SA
HETATM    3  N5  UNL     1      -2.660   2.666   1.908  1.00  0.00    -0.267 N 
ATOM      4  H5  UNL     1      -2.438   3.424   2.554  1.00  0.00     0.195 HD
HETATM    5  N6  UNL     1      -3.860   2.185   1.774  1.00  0.00    -0.289 N 
ATOM      6  H6  UNL     1      -4.581   2.611   2.357  1.00  0.00     0.188 HD
HETATM    7  C7  UNL     1      -4.264   1.200   0.965  1.00  0.00     0.127 A 
HETATM    8  C8  UNL     1      -5.576   0.723   0.862  1.00  0.00     0.146 A 
HETATM    9  N8  UNL     1      -5.554  -0.254  -0.050  1.00  0.00    -0.257 N 
ATOM     10  H8  UNL     1      -6.362  -0.801  -0.347  1.00  0.00     0.191 HD
HETATM   11  N9  UNL     1      -4.311  -0.403  -0.511  1.00  0.00    -0.157 N 
HETATM   12  C9  UNL     1      -3.482   0.487   0.099  1.00  0.00     0.149 A 
ENDROOT
BRANCH   1  13
HETATM   13  N4  UNL     1      -1.461  -0.017  -0.897  1.00  0.00    -0.291 N 
ATOM     14  H4  UNL     1      -1.908  -0.744  -1.455  1.00  0.00     0.187 HD
BRANCH  13  15
HETATM   15  N3  UNL     1      -0.120   0.245  -1.006  1.00  0.00    -0.308 N 
HETATM   16  C4  UNL     1       0.857  -0.545  -1.170  1.00  0.00     0.008 C 
HETATM   17  C5  UNL     1       0.620  -2.004  -1.265  1.00  0.00     0.065 C 
ATOM     18  H3  UNL     1       0.131   1.232  -0.946  1.00  0.00     0.186 HD
BRANCH  16  19
HETATM   19  C3  UNL     1       2.225   0.026  -1.255  1.00  0.00     0.157 C 
BRANCH  19  20
HETATM   20  C2  UNL     1       3.078  -0.461  -0.126  1.00  0.00     0.238 C 
HETATM   21  N2  UNL     1       4.407  -0.007   0.042  1.00  0.00    -0.274 N 
ATOM     22  H2  UNL     1       4.771   0.665  -0.633  1.00  0.00     0.185 HD
HETATM   23  O1  UNL     1       2.595  -1.294   0.690  1.00  0.00    -0.272 OA
BRANCH  21  24
HETATM   24  N1  UNL     1       5.246  -0.417   1.065  1.00  0.00    -0.143 NA
HETATM   25  C1  UNL     1       6.523   0.279   1.027  1.00  0.00     0.159 C 
ENDBRANCH  21  24
ENDBRANCH  19  20
ENDBRANCH  16  19
ENDBRANCH  13  15
ENDBRANCH   1  13
BRANCH  11  26
HETATM   26  O2  UNL     1      -3.980  -1.333  -1.460  1.00  0.00    -0.267 OA
ATOM     27  H2  UNL     1      -3.095  -1.439  -1.788  1.00  0.00     0.247 HD
ENDBRANCH  11  26
BRANCH   8  28
HETATM   28  N7  UNL     1      -6.615   1.103   1.488  1.00  0.00    -0.382 N 
ATOM     29  H72 UNL     1      -6.632   1.849   2.184  1.00  0.00     0.157 HD
ATOM     30  H71 UNL     1      -7.571   0.755   1.413  1.00  0.00     0.157 HD
ENDBRANCH   8  28
TORSDOF 7
