REMARK  8 active torsions:
REMARK  status: ('A' for Active; 'I' for Inactive)
REMARK    1  A    between atoms: C2_2  and  C3_3 
REMARK    2  A    between atoms: C3_3  and  N1_4 
REMARK    3  A    between atoms: N2_7  and  N3_9 
REMARK    4  A    between atoms: N3_9  and  C4_11 
REMARK    5  A    between atoms: C5_16  and  C6_17 
REMARK    6  A    between atoms: C6_17  and  O1_18 
REMARK    7  A    between atoms: C6_17  and  C7_20 
REMARK    8  A    between atoms: C8_21  and  O2_22 
ROOT
HETATM    1  C4  UNL     1       1.298  -0.970  -1.122  1.00  0.00     0.726 A 
HETATM    2  N4  UNL     1       0.082  -0.881  -1.641  1.00  0.00    -0.128 N 
ATOM      3  H4  UNL     1      -0.008  -0.743  -2.648  1.00  0.00     0.205 HD
HETATM    4  N5  UNL     1      -1.018  -0.962  -0.918  1.00  0.00    -0.268 N 
ATOM      5  H5  UNL     1      -1.924  -0.886  -1.380  1.00  0.00     0.189 HD
HETATM    6  C5  UNL     1      -0.972  -1.143   0.414  1.00  0.00     0.172 A 
HETATM    7  N8  UNL     1       0.284  -1.233   0.942  1.00  0.00    -0.268 N 
ATOM      8  H8  UNL     1       0.378  -1.369   1.948  1.00  0.00     0.189 HD
HETATM    9  N9  UNL     1       1.374  -1.153   0.220  1.00  0.00    -0.128 N 
ATOM     10  H9  UNL     1       2.286  -1.229   0.670  1.00  0.00     0.205 HD
ENDROOT
BRANCH   6  11
HETATM   11  C6  UNL     1      -2.142  -1.247   1.268  1.00  0.00     0.144 C 
BRANCH  11  12
HETATM   12  O1  UNL     1      -2.064  -2.280   2.056  1.00  0.00    -0.355 OA
ATOM     13  H1  UNL     1      -2.829  -2.348   2.615  1.00  0.00     0.218 HD
ENDBRANCH  11  12
BRANCH  11  14
HETATM   14  C7  UNL     1      -3.277  -0.387   1.314  1.00  0.00     0.127 A 
HETATM   15  C8  UNL     1      -4.438  -0.695   2.034  1.00  0.00     0.174 A 
HETATM   16  N6  UNL     1      -5.326   0.299   1.925  1.00  0.00    -0.287 N 
HETATM   17  C9  UNL     1      -4.751   1.238   1.147  1.00  0.00     0.328 A 
ATOM     18  H6  UNL     1      -6.254   0.339   2.347  1.00  0.00     0.172 HD
HETATM   19  O3  UNL     1      -5.296   2.324   0.824  1.00  0.00    -0.246 OA
HETATM   20  N7  UNL     1      -3.504   0.797   0.790  1.00  0.00    -0.298 N 
HETATM   21  C10 UNL     1      -2.655   1.626  -0.021  1.00  0.00     0.161 C 
BRANCH  15  22
HETATM   22  O2  UNL     1      -4.651  -1.842   2.752  1.00  0.00    -0.344 OA
ATOM     23  H2  UNL     1      -5.439  -2.051   3.240  1.00  0.00     0.219 HD
ENDBRANCH  15  22
ENDBRANCH  11  14
ENDBRANCH   6  11
BRANCH   1  24
HETATM   24  N3  UNL     1       2.324  -0.884  -1.879  1.00  0.00    -0.129 N 
ATOM     25  H3  UNL     1       2.225  -0.747  -2.885  1.00  0.00     0.205 HD
BRANCH  24  26
HETATM   26  N2  UNL     1       3.590  -0.984  -1.285  1.00  0.00    -0.290 N 
HETATM   27  C2  UNL     1       4.446  -0.069  -1.513  1.00  0.00     0.037 C 
HETATM   28  C1  UNL     1       4.157   1.083  -2.371  1.00  0.00     0.071 C 
ATOM     29  H2  UNL     1       3.821  -1.774  -0.682  1.00  0.00     0.187 HD
BRANCH  27  30
HETATM   30  C3  UNL     1       5.773  -0.200  -0.874  1.00  0.00     0.106 C 
BRANCH  30  31
HETATM   31  N1  UNL     1       6.668   0.693  -1.071  1.00  0.00    -0.406 N 
ATOM     32  H12 UNL     1       6.450   1.488  -1.671  1.00  0.00     0.155 HD
ATOM     33  H11 UNL     1       7.583   0.603  -0.630  1.00  0.00     0.155 HD
ENDBRANCH  30  31
ENDBRANCH  27  30
ENDBRANCH  24  26
ENDBRANCH   1  24
TORSDOF 8
