REMARK  5 active torsions:
REMARK  status: ('A' for Active; 'I' for Inactive)
REMARK    1  A    between atoms: N3_7  and  C3_8 
REMARK    2  A    between atoms: C3_8  and  C4_9 
REMARK       I    between atoms: C4_9  and  N4_11 
REMARK    3  A    between atoms: N4_11  and  N5_13 
REMARK       I    between atoms: N5_13  and  C5_15 
REMARK       I    between atoms: C5_15  and  N6_17 
REMARK    4  A    between atoms: N6_17  and  C6_19 
REMARK    5  A    between atoms: C9_28  and  N10_29 
ROOT
HETATM    1  N5  UNL     1      -0.444   0.070   1.300  1.00  0.00    -0.249 N 
ATOM      2  H5  UNL     1      -0.490   0.811   2.000  1.00  0.00     0.192 HD
HETATM    3  C5  UNL     1       0.820  -0.257   0.753  1.00  0.00     0.340 C 
HETATM    4  O2  UNL     1       0.869  -1.159  -0.103  1.00  0.00    -0.245 OA
HETATM    5  N6  UNL     1       2.025   0.395   1.145  1.00  0.00    -0.289 N 
ATOM      6  H6  UNL     1       2.002   1.143   1.838  1.00  0.00     0.172 HD
ENDROOT
BRANCH   1   7
HETATM    7  N4  UNL     1      -1.620  -0.560   0.937  1.00  0.00    -0.265 N 
HETATM    8  C4  UNL     1      -2.236  -0.518  -0.335  1.00  0.00     0.257 C 
HETATM    9  O1  UNL     1      -1.728   0.130  -1.264  1.00  0.00    -0.270 OA
ATOM     10  H4  UNL     1      -2.089  -1.109   1.657  1.00  0.00     0.190 HD
BRANCH   8  11
HETATM   11  C3  UNL     1      -3.495  -1.258  -0.552  1.00  0.00     0.275 C 
BRANCH  11  12
HETATM   12  N3  UNL     1      -4.602  -0.319  -0.522  1.00  0.00    -0.209 N 
HETATM   13  N2  UNL     1      -5.289   0.088   0.508  1.00  0.00    -0.224 N 
HETATM   14  N1  UNL     1      -6.243   0.929   0.156  1.00  0.00    -0.272 N 
ATOM     15  H2  UNL     1      -5.111  -0.207   1.468  1.00  0.00     0.210 HD
HETATM   16  C2  UNL     1      -6.163   1.070  -1.178  1.00  0.00     0.109 A 
ATOM     17  H1  UNL     1      -6.912   1.384   0.777  1.00  0.00     0.190 HD
HETATM   18  C1  UNL     1      -7.053   1.930  -2.046  1.00  0.00     0.092 C 
HETATM   19  N11 UNL     1      -5.148   0.297  -1.587  1.00  0.00    -0.270 N 
ATOM     20  H11 UNL     1      -4.838   0.192  -2.553  1.00  0.00     0.190 HD
ENDBRANCH  11  12
ENDBRANCH   8  11
ENDBRANCH   1   7
BRANCH   5  21
HETATM   21  C6  UNL     1       3.254  -0.003   0.565  1.00  0.00     0.168 A 
HETATM   22  N7  UNL     1       3.271  -1.006  -0.374  1.00  0.00    -0.281 N 
HETATM   23  N8  UNL     1       4.390  -1.380  -0.904  1.00  0.00    -0.288 N 
ATOM     24  H7  UNL     1       2.400  -1.456  -0.654  1.00  0.00     0.188 HD
HETATM   25  C7  UNL     1       5.595  -0.849  -0.602  1.00  0.00     0.093 A 
ATOM     26  H8  UNL     1       4.361  -2.127  -1.598  1.00  0.00     0.188 HD
HETATM   27  C8  UNL     1       6.865  -1.295  -1.206  1.00  0.00     0.090 C 
HETATM   28  N9  UNL     1       5.609   0.128   0.308  1.00  0.00    -0.329 N 
HETATM   29  C9  UNL     1       4.451   0.565   0.902  1.00  0.00     0.146 A 
ATOM     30  H9  UNL     1       6.497   0.558   0.567  1.00  0.00     0.168 HD
BRANCH  29  31
HETATM   31  N10 UNL     1       4.533   1.512   1.778  1.00  0.00    -0.382 N 
ATOM     32 2H10 UNL     1       3.673   1.837   2.219  1.00  0.00     0.157 HD
ATOM     33 1H10 UNL     1       5.426   1.936   2.029  1.00  0.00     0.157 HD
ENDBRANCH  29  31
ENDBRANCH   5  21
TORSDOF 5
