REMARK  4 active torsions:
REMARK  status: ('A' for Active; 'I' for Inactive)
REMARK    1  A    between atoms: C2_3  and  N2_4 
REMARK       I    between atoms: N2_4  and  C3_6 
REMARK    2  A    between atoms: C6_21  and  S1_22 
REMARK    3  A    between atoms: S1_22  and  C7_23 
REMARK    4  A    between atoms: C7_23  and  C8_24 
ROOT
HETATM    1  C1  UNL     1      -1.711  -1.599  -1.385  1.00  0.00     0.176 C 
HETATM    2  N1  UNL     1      -1.874  -0.426  -0.550  1.00  0.00    -0.180 N 
HETATM    3  C2  UNL     1      -3.048   0.153  -0.251  1.00  0.00     0.689 A 
HETATM    4  N5  UNL     1      -2.858   1.218   0.542  1.00  0.00    -0.172 N 
ATOM      5  H5  UNL     1      -3.584   1.831   0.913  1.00  0.00     0.186 HD
HETATM    6  C4  UNL     1      -1.546   1.330   0.758  1.00  0.00     0.167 A 
HETATM    7  N6  UNL     1      -0.571   2.049   1.379  1.00  0.00    -0.271 N 
ATOM      8  H6  UNL     1      -0.727   2.873   1.960  1.00  0.00     0.189 HD
HETATM    9  N7  UNL     1       0.603   1.518   1.115  1.00  0.00    -0.184 N 
HETATM   10  C5  UNL     1       1.884   1.822   1.467  1.00  0.00     0.349 A 
HETATM   11  O1  UNL     1       2.029   2.827   2.211  1.00  0.00    -0.244 OA
HETATM   12  N8  UNL     1       2.907   1.069   1.026  1.00  0.00    -0.287 N 
ATOM     13  H8  UNL     1       3.857   1.317   1.304  1.00  0.00     0.172 HD
HETATM   14  C6  UNL     1       2.721  -0.000   0.231  1.00  0.00     0.150 A 
HETATM   15  N10 UNL     1       1.457  -0.300  -0.116  1.00  0.00    -0.319 N 
ATOM     16  H10 UNL     1       1.284  -1.105  -0.717  1.00  0.00     0.169 HD
HETATM   17  C9  UNL     1       0.411   0.440   0.313  1.00  0.00     0.165 A 
HETATM   18  C10 UNL     1      -0.936   0.302   0.074  1.00  0.00     0.143 A 
ENDROOT
BRANCH   3  19
HETATM   19  N2  UNL     1      -4.218  -0.261  -0.671  1.00  0.00    -0.163 N 
HETATM   20  C3  UNL     1      -5.401   0.422  -0.297  1.00  0.00     0.200 C 
HETATM   21  N3  UNL     1      -5.604   1.603  -0.746  1.00  0.00    -0.373 N 
HETATM   22  N4  UNL     1      -6.346  -0.194   0.563  1.00  0.00    -0.063 NA
ATOM     23  H32 UNL     1      -4.924   2.046  -1.364  1.00  0.00     0.158 HD
ATOM     24  H31 UNL     1      -6.456   2.095  -0.477  1.00  0.00     0.158 HD
ATOM     25  H2  UNL     1      -4.277  -1.083  -1.273  1.00  0.00     0.187 HD
ENDBRANCH   3  19
BRANCH  14  26
HETATM   26  S1  UNL     1       4.081  -1.002  -0.357  1.00  0.00    -0.089 SA
BRANCH  26  27
HETATM   27  C7  UNL     1       5.662  -0.415   0.231  1.00  0.00     0.126 C 
BRANCH  27  28
HETATM   28  C8  UNL     1       6.724  -1.307  -0.307  1.00  0.00     0.063 C 
HETATM   29  N9  UNL     1       6.501  -2.091  -1.278  1.00  0.00    -0.410 N 
ATOM     30  H92 UNL     1       5.567  -2.098  -1.688  1.00  0.00     0.155 HD
ATOM     31  H91 UNL     1       7.229  -2.703  -1.647  1.00  0.00     0.155 HD
ENDBRANCH  27  28
ENDBRANCH  26  27
ENDBRANCH  14  26
TORSDOF 4
