REMARK  7 active torsions:
REMARK  status: ('A' for Active; 'I' for Inactive)
REMARK    1  A    between atoms: N1_1  and  C1_4 
REMARK    2  A    between atoms: C1_4  and  C2_6 
REMARK    3  A    between atoms: C3_11  and  S1_12 
REMARK    4  A    between atoms: S1_12  and  N5_15 
REMARK    5  A    between atoms: N5_15  and  N6_17 
REMARK    6  A    between atoms: N6_17  and  C4_19 
REMARK    7  A    between atoms: N8_25  and  N9_26 
ROOT
HETATM    1  S1  UNL     1       0.805   2.204  -0.785  1.00  0.00     0.300 S 
HETATM    2  O1  UNL     1       0.575   2.708   0.616  1.00  0.00    -0.197 OA
HETATM    3  O2  UNL     1       0.752   3.378  -1.722  1.00  0.00    -0.197 OA
ENDROOT
BRANCH   1   4
HETATM    4  C3  UNL     1       2.396   1.456  -0.812  1.00  0.00     0.209 A 
HETATM    5  N4  UNL     1       3.248   1.319  -1.820  1.00  0.00    -0.282 N 
HETATM    6  N3  UNL     1       4.358   0.745  -1.642  1.00  0.00    -0.289 N 
ATOM      7  H4  UNL     1       3.005   1.679  -2.743  1.00  0.00     0.188 HD
HETATM    8  C2  UNL     1       4.676   0.276  -0.440  1.00  0.00     0.132 A 
ATOM      9  H3  UNL     1       5.010   0.641  -2.420  1.00  0.00     0.188 HD
HETATM   10  S2  UNL     1       3.287   0.696   0.458  1.00  0.00    -0.035 SA
BRANCH   8  11
HETATM   11  C1  UNL     1       5.907  -0.407  -0.069  1.00  0.00     0.145 C 
HETATM   12  N2  UNL     1       6.059  -0.835   1.271  1.00  0.00    -0.080 NA
BRANCH  11  13
HETATM   13  N1  UNL     1       6.844  -0.627  -0.916  1.00  0.00    -0.385 N 
ATOM     14  H12 UNL     1       7.706  -1.106  -0.656  1.00  0.00     0.157 HD
ATOM     15  H11 UNL     1       6.734  -0.318  -1.882  1.00  0.00     0.157 HD
ENDBRANCH  11  13
ENDBRANCH   8  11
ENDBRANCH   1   4
BRANCH   1  16
HETATM   16  N5  UNL     1      -0.428   1.068  -1.148  1.00  0.00    -0.207 N 
ATOM     17  H5  UNL     1      -0.758   0.881  -2.095  1.00  0.00     0.201 HD
BRANCH  16  18
HETATM   18  N6  UNL     1      -0.930   0.430  -0.023  1.00  0.00    -0.121 N 
ATOM     19  H6  UNL     1      -0.336   0.260   0.789  1.00  0.00     0.206 HD
BRANCH  18  20
HETATM   20  C4  UNL     1      -2.294   0.018  -0.027  1.00  0.00     0.709 C 
HETATM   21  N7  UNL     1      -3.204   0.642  -0.696  1.00  0.00    -0.223 N 
HETATM   22  C5  UNL     1      -4.553   0.151  -0.638  1.00  0.00     0.140 C 
ATOM     23  H7  UNL     1      -2.971   1.464  -1.253  1.00  0.00     0.177 HD
HETATM   24  C6  UNL     1      -4.965  -0.325   0.727  1.00  0.00     0.042 C 
HETATM   25  C7  UNL     1      -3.984  -1.280   1.337  1.00  0.00     0.169 C 
HETATM   26  N8  UNL     1      -2.651  -1.122   0.737  1.00  0.00    -0.129 N 
BRANCH  26  27
HETATM   27  N9  UNL     1      -1.669  -2.116   0.905  1.00  0.00    -0.329 N 
ATOM     28  H92 UNL     1      -0.744  -2.006   0.489  1.00  0.00     0.177 HD
ATOM     29  H91 UNL     1      -1.926  -2.936   1.455  1.00  0.00     0.177 HD
ENDBRANCH  26  27
ENDBRANCH  18  20
ENDBRANCH  16  18
ENDBRANCH   1  16
TORSDOF 7
