REMARK  7 active torsions:
REMARK  status: ('A' for Active; 'I' for Inactive)
REMARK    1  A    between atoms: C2_2  and  O1_3 
REMARK    2  A    between atoms: C2_2  and  C3_5 
REMARK    3  A    between atoms: C3_5  and  N1_6 
REMARK    4  A    between atoms: N1_6  and  C4_8 
REMARK    5  A    between atoms: C5_11  and  C6_12 
REMARK    6  A    between atoms: C6_12  and  C7_13 
REMARK    7  A    between atoms: C10_17  and  N4_18 
ROOT
HETATM    1  C7  UNL     1      -2.668   0.985  -0.293  1.00  0.00     0.082 A 
HETATM    2  C8  UNL     1      -3.161  -0.061  -1.030  1.00  0.00     0.114 A 
HETATM    3  C9  UNL     1      -2.549  -0.557  -2.236  1.00  0.00     0.105 C 
HETATM    4  N3  UNL     1      -2.080  -0.948  -3.218  1.00  0.00    -0.191 NA
HETATM    5  C10 UNL     1      -4.341  -0.640  -0.563  1.00  0.00     0.137 A 
HETATM    6  N5  UNL     1      -4.981  -0.220   0.541  1.00  0.00    -0.173 N 
ATOM      7  H5  UNL     1      -5.842  -0.675   0.845  1.00  0.00     0.186 HD
HETATM    8  C11 UNL     1      -4.470   0.808   1.238  1.00  0.00     0.719 A 
HETATM    9  N6  UNL     1      -4.908   1.418   2.367  1.00  0.00    -0.117 N 
ATOM     10  H6  UNL     1      -5.743   1.186   2.904  1.00  0.00     0.207 HD
HETATM   11  N7  UNL     1      -4.043   2.364   2.628  1.00  0.00    -0.211 N 
ATOM     12  H7  UNL     1      -4.091   3.007   3.418  1.00  0.00     0.206 HD
HETATM   13  N8  UNL     1      -3.095   2.354   1.703  1.00  0.00     0.016 NA
HETATM   14  N9  UNL     1      -3.334   1.388   0.815  1.00  0.00    -0.070 N 
ENDROOT
BRANCH   1  15
HETATM   15  C6  UNL     1      -1.409   1.644  -0.698  1.00  0.00     0.139 C 
BRANCH  15  16
HETATM   16  C5  UNL     1      -0.188   0.907  -0.298  1.00  0.00     0.118 A 
HETATM   17  N2  UNL     1       0.566   0.004  -0.922  1.00  0.00    -0.178 N 
HETATM   18  C4  UNL     1       1.601  -0.390  -0.131  1.00  0.00     0.694 A 
ATOM     19  H2  UNL     1       0.392  -0.345  -1.864  1.00  0.00     0.185 HD
HETATM   20  N11 UNL     1       1.447   0.311   1.006  1.00  0.00    -0.131 N 
HETATM   21  N10 UNL     1       0.384   1.093   0.928  1.00  0.00    -0.274 N 
ATOM     22  H11 UNL     1       2.064   0.248   1.816  1.00  0.00     0.205 HD
ATOM     23  H10 UNL     1       0.050   1.725   1.656  1.00  0.00     0.189 HD
BRANCH  18  24
HETATM   24  N1  UNL     1       2.521  -1.250  -0.421  1.00  0.00    -0.222 N 
ATOM     25  H1  UNL     1       2.509  -1.708  -1.332  1.00  0.00     0.177 HD
BRANCH  24  26
HETATM   26  C3  UNL     1       3.566  -1.575   0.521  1.00  0.00     0.169 C 
BRANCH  26  27
HETATM   27  C2  UNL     1       4.837  -0.800   0.249  1.00  0.00     0.132 C 
HETATM   28  C1  UNL     1       5.343  -1.167  -1.120  1.00  0.00     0.041 C 
BRANCH  27  29
HETATM   29  O1  UNL     1       4.623   0.570   0.333  1.00  0.00    -0.394 OA
ATOM     30  H1  UNL     1       4.304   0.802   1.197  1.00  0.00     0.210 HD
ENDBRANCH  27  29
ENDBRANCH  26  27
ENDBRANCH  24  26
ENDBRANCH  18  24
ENDBRANCH  15  16
ENDBRANCH   1  15
BRANCH   5  31
HETATM   31  N4  UNL     1      -4.806  -1.622  -1.250  1.00  0.00    -0.384 N 
ATOM     32  H42 UNL     1      -4.320  -1.941  -2.088  1.00  0.00     0.157 HD
ATOM     33  H41 UNL     1      -5.669  -2.045  -0.909  1.00  0.00     0.157 HD
ENDBRANCH   5  31
TORSDOF 7
