REMARK  5 active torsions:
REMARK  status: ('A' for Active; 'I' for Inactive)
REMARK       I    between atoms: N1_2  and  C2_4 
REMARK    1  A    between atoms: C2_4  and  C3_6 
REMARK    2  A    between atoms: C4_7  and  N2_8 
REMARK    3  A    between atoms: N2_8  and  N3_10 
REMARK    4  A    between atoms: N4_12  and  C5_14 
REMARK    5  A    between atoms: C6_15  and  O2_16 
ROOT
HETATM    1  N3  UNL     1       1.180   0.985  -0.573  1.00  0.00    -0.240 N 
ATOM      2  H3  UNL     1       1.461   1.430  -1.447  1.00  0.00     0.208 HD
HETATM    3  N4  UNL     1       2.024   0.432   0.196  1.00  0.00    -0.277 N 
ATOM      4  H4  UNL     1       1.669   0.008   1.053  1.00  0.00     0.189 HD
ENDROOT
BRANCH   1   5
HETATM    5  N2  UNL     1      -0.157   0.953  -0.159  1.00  0.00    -0.268 N 
ATOM      6  H2  UNL     1      -0.573   1.745   0.331  1.00  0.00     0.190 HD
BRANCH   5   7
HETATM    7  C4  UNL     1      -0.913  -0.207  -0.439  1.00  0.00     0.171 A 
HETATM    8  C3  UNL     1      -2.236  -0.485  -0.140  1.00  0.00     0.166 A 
HETATM    9  N9  UNL     1      -2.484  -1.728  -0.620  1.00  0.00    -0.274 N 
HETATM   10  N8  UNL     1      -1.365  -2.189  -1.186  1.00  0.00    -0.239 N 
HETATM   11  C9  UNL     1      -3.699  -2.496  -0.576  1.00  0.00     0.179 C 
HETATM   12  N7  UNL     1      -0.440  -1.316  -1.089  1.00  0.00    -0.268 N 
ATOM     13  H8  UNL     1      -1.265  -3.102  -1.629  1.00  0.00     0.208 HD
ATOM     14  H7  UNL     1       0.510  -1.427  -1.443  1.00  0.00     0.190 HD
BRANCH   8  15
HETATM   15  C2  UNL     1      -3.150   0.388   0.545  1.00  0.00     0.273 C 
HETATM   16  N1  UNL     1      -4.480   0.164   0.871  1.00  0.00    -0.360 N 
HETATM   17  C1  UNL     1      -5.263   1.202   1.588  1.00  0.00     0.149 C 
ATOM     18  H1  UNL     1      -4.922  -0.719   0.617  1.00  0.00     0.162 HD
HETATM   19  O1  UNL     1      -2.689   1.538   0.914  1.00  0.00    -0.266 OA
ENDBRANCH   8  15
ENDBRANCH   5   7
ENDBRANCH   1   5
BRANCH   3  20
HETATM   20  C5  UNL     1       3.402   0.355  -0.034  1.00  0.00     0.169 A 
HETATM   21  C6  UNL     1       4.203   1.478  -0.091  1.00  0.00     0.178 A 
HETATM   22  N5  UNL     1       5.520   1.321  -0.316  1.00  0.00    -0.287 N 
HETATM   23  C7  UNL     1       6.115   0.129  -0.491  1.00  0.00     0.329 A 
ATOM     24  H5  UNL     1       6.102   2.158  -0.356  1.00  0.00     0.172 HD
HETATM   25  O3  UNL     1       7.372   0.039  -0.702  1.00  0.00    -0.247 OA
HETATM   26  N6  UNL     1       5.338  -0.962  -0.435  1.00  0.00    -0.273 N 
HETATM   27  C8  UNL     1       4.021  -0.864  -0.214  1.00  0.00     0.281 A 
ATOM     28  H6  UNL     1       5.757  -1.883  -0.563  1.00  0.00     0.173 HD
HETATM   29  O4  UNL     1       3.374  -1.957  -0.180  1.00  0.00    -0.265 OA
BRANCH  21  30
HETATM   30  O2  UNL     1       3.645   2.751   0.083  1.00  0.00    -0.344 OA
ATOM     31  H2  UNL     1       4.196   3.524   0.044  1.00  0.00     0.219 HD
ENDBRANCH  21  30
ENDBRANCH   3  20
TORSDOF 5
