REMARK  7 active torsions:
REMARK  status: ('A' for Active; 'I' for Inactive)
REMARK    1  A    between atoms: S1_2  and  C2_3 
REMARK    2  A    between atoms: C3_5  and  N1_6 
REMARK    3  A    between atoms: N1_6  and  C4_8 
REMARK    4  A    between atoms: C4_8  and  O1_9 
REMARK    5  A    between atoms: C4_8  and  N2_11 
REMARK       I    between atoms: N2_11  and  C5_13 
REMARK    6  A    between atoms: N4_19  and  N5_20 
REMARK    7  A    between atoms: N5_20  and  N6_21 
ROOT
HETATM    1  N2  UNL     1       3.778   0.593   0.674  1.00  0.00    -0.305 N 
ATOM      2  H2  UNL     1       3.053   1.301   0.790  1.00  0.00     0.167 HD
HETATM    3  C5  UNL     1       5.073   0.969   0.238  1.00  0.00     0.325 C 
HETATM    4  O2  UNL     1       5.952   0.092   0.099  1.00  0.00    -0.256 OA
HETATM    5  C6  UNL     1       5.371   2.340  -0.041  1.00  0.00     0.162 C 
HETATM    6  N3  UNL     1       5.600   3.463  -0.259  1.00  0.00    -0.186 NA
ENDROOT
BRANCH   1   7
HETATM    7  C4  UNL     1       3.486  -0.786   0.952  1.00  0.00     0.330 C 
BRANCH   7   8
HETATM    8  N1  UNL     1       2.431  -1.266   0.087  1.00  0.00    -0.340 N 
ATOM      9  H1  UNL     1       2.641  -1.954  -0.636  1.00  0.00     0.164 HD
BRANCH   8  10
HETATM   10  C3  UNL     1       1.102  -0.784   0.240  1.00  0.00     0.104 A 
HETATM   11  S2  UNL     1       0.560   0.349   1.390  1.00  0.00    -0.061 SA
HETATM   12  C2  UNL     1      -1.105   0.406   0.950  1.00  0.00     0.075 A 
HETATM   13  C8  UNL     1      -1.163  -0.479  -0.094  1.00  0.00     0.126 A 
HETATM   14  C7  UNL     1      -0.037  -1.088  -0.459  1.00  0.00     0.099 A 
HETATM   15  N4  UNL     1      -2.368  -0.802  -0.835  1.00  0.00    -0.176 N 
HETATM   16  N8  UNL     1      -0.072  -2.028  -1.560  1.00  0.00    -0.347 N 
HETATM   17  C9  UNL     1      -1.118  -2.320  -2.216  1.00  0.00     0.199 A 
ATOM     18  H8  UNL     1       0.801  -2.485  -1.825  1.00  0.00     0.167 HD
HETATM   19  N7  UNL     1      -2.356  -1.718  -1.895  1.00  0.00    -0.276 N 
ATOM     20  H7  UNL     1      -3.205  -1.941  -2.414  1.00  0.00     0.189 HD
BRANCH  12  21
HETATM   21  S1  UNL     1      -2.410   1.396   1.703  1.00  0.00    -0.125 SA
HETATM   22  C1  UNL     1      -2.442   2.979   0.815  1.00  0.00     0.096 C 
ENDBRANCH  12  21
BRANCH  15  23
HETATM   23  N5  UNL     1      -3.585  -0.223  -0.533  1.00  0.00    -0.006 NA
BRANCH  23  24
HETATM   24  N6  UNL     1      -4.315  -0.938   0.418  1.00  0.00    -0.327 N 
ATOM     25  H62 UNL     1      -3.970  -1.801   0.839  1.00  0.00     0.174 HD
ATOM     26  H61 UNL     1      -5.214  -0.510   0.641  1.00  0.00     0.174 HD
ENDBRANCH  23  24
ENDBRANCH  15  23
ENDBRANCH   8  10
ENDBRANCH   7   8
BRANCH   7  27
HETATM   27  O1  UNL     1       3.188  -1.014   2.312  1.00  0.00    -0.359 OA
ATOM     28  H1  UNL     1       3.881  -0.699   2.880  1.00  0.00     0.214 HD
ENDBRANCH   7  27
ENDBRANCH   1   7
TORSDOF 7
