REMARK  4 active torsions:
REMARK  status: ('A' for Active; 'I' for Inactive)
REMARK    1  A    between atoms: N6_17  and  C6_18 
REMARK    2  A    between atoms: C6_18  and  C7_19 
REMARK    3  A    between atoms: C7_19  and  C8_20 
REMARK    4  A    between atoms: C9_30  and  C10_31 
ROOT
HETATM    1  N1  UNL     1      -4.194   3.315  -0.288  1.00  0.00    -0.190 NA
HETATM    2  C1  UNL     1      -3.719   2.232  -0.230  1.00  0.00     0.120 C 
HETATM    3  C2  UNL     1      -3.115   0.934  -0.150  1.00  0.00     0.145 A 
HETATM    4  N2  UNL     1      -3.979  -0.086  -0.154  1.00  0.00    -0.329 N 
ATOM      5  H2  UNL     1      -4.983   0.084  -0.216  1.00  0.00     0.168 HD
HETATM    6  C3  UNL     1      -3.511  -1.313  -0.076  1.00  0.00     0.147 A 
HETATM    7  N3  UNL     1      -4.276  -2.358  -0.093  1.00  0.00    -0.382 N 
ATOM      8  H31 UNL     1      -3.913  -3.309  -0.033  1.00  0.00     0.157 HD
ATOM      9  H32 UNL     1      -5.287  -2.235  -0.155  1.00  0.00     0.157 HD
HETATM   10  C4  UNL     1      -2.142  -1.479   0.008  1.00  0.00     0.187 A 
HETATM   11  N4  UNL     1      -1.472  -2.613   0.240  1.00  0.00    -0.170 N 
ATOM     12  H4  UNL     1      -1.883  -3.545   0.294  1.00  0.00     0.186 HD
HETATM   13  C5  UNL     1      -0.187  -2.327   0.388  1.00  0.00     0.695 A 
HETATM   14  N5  UNL     1       0.779  -3.132   0.611  1.00  0.00    -0.233 N 
ATOM     15  H51 UNL     1       1.768  -2.912   0.725  1.00  0.00     0.174 HD
ATOM     16  H52 UNL     1       0.714  -4.144   0.721  1.00  0.00     0.174 HD
HETATM   17  N6  UNL     1      -0.098  -0.947   0.238  1.00  0.00    -0.115 N 
HETATM   18  N11 UNL     1      -1.251  -0.432   0.010  1.00  0.00    -0.216 N 
HETATM   19  C9  UNL     1      -1.719   0.832  -0.073  1.00  0.00     0.110 A 
ENDROOT
BRANCH  19  20
HETATM   20  C10 UNL     1      -0.998   2.051   0.079  1.00  0.00     0.134 C 
HETATM   21  N12 UNL     1      -0.101   2.449  -1.001  1.00  0.00    -0.113 NA
ENDBRANCH  19  20
BRANCH  17  22
HETATM   22  C6  UNL     1       1.158  -0.297   0.536  1.00  0.00     0.176 C 
BRANCH  22  23
HETATM   23  C7  UNL     1       2.312  -0.879  -0.356  1.00  0.00     0.101 C 
BRANCH  23  24
HETATM   24  C8  UNL     1       3.507  -0.058  -0.106  1.00  0.00     0.114 A 
HETATM   25  N7  UNL     1       3.723   1.013   0.632  1.00  0.00    -0.272 N 
HETATM   26  N8  UNL     1       4.983   1.348   0.484  1.00  0.00    -0.227 N 
ATOM     27  H7  UNL     1       3.036   1.494   1.212  1.00  0.00     0.190 HD
HETATM   28  N9  UNL     1       5.609   0.537  -0.323  1.00  0.00    -0.227 N 
ATOM     29  H8  UNL     1       5.420   2.146   0.945  1.00  0.00     0.210 HD
HETATM   30  N10 UNL     1       4.685  -0.371  -0.723  1.00  0.00    -0.272 N 
ATOM     31  H9  UNL     1       6.591   0.577  -0.597  1.00  0.00     0.210 HD
ATOM     32  H10 UNL     1       4.841  -1.146  -1.367  1.00  0.00     0.190 HD
ENDBRANCH  23  24
ENDBRANCH  22  23
ENDBRANCH  17  22
TORSDOF 4
