REMARK  11 active torsions:
REMARK  status: ('A' for Active; 'I' for Inactive)
REMARK    1  A    between atoms: C2_3  and  O1_4 
REMARK    2  A    between atoms: C2_3  and  C3_6 
REMARK    3  A    between atoms: C3_6  and  N2_7 
REMARK    4  A    between atoms: C3_6  and  C4_11 
REMARK    5  A    between atoms: C4_11  and  S1_12 
REMARK    6  A    between atoms: S1_12  and  C5_13 
REMARK    7  A    between atoms: C5_13  and  C6_14 
REMARK    8  A    between atoms: C6_14  and  N3_15 
REMARK    9  A    between atoms: N3_15  and  C7_17 
REMARK   10  A    between atoms: C8_20  and  N5_21 
REMARK   11  A    between atoms: C12_31  and  N8_32 
ROOT
HETATM    1  N1  UNL     1      -4.855  -1.980  -1.541  1.00  0.00    -0.194 NA
HETATM    2  C1  UNL     1      -5.212  -1.096  -0.898  1.00  0.00     0.093 C 
HETATM    3  C2  UNL     1      -5.688  -0.002  -0.090  1.00  0.00     0.255 C 
ENDROOT
BRANCH   3   4
HETATM    4  O1  UNL     1      -6.166  -0.552   1.115  1.00  0.00    -0.379 OA
ATOM      5  H1  UNL     1      -6.480   0.169   1.648  1.00  0.00     0.211 HD
ENDBRANCH   3   4
BRANCH   3   6
HETATM    6  C3  UNL     1      -4.648   1.014   0.278  1.00  0.00     0.235 C 
BRANCH   6   7
HETATM    7  N2  UNL     1      -5.334   2.009   1.119  1.00  0.00    -0.071 N 
ATOM      8  H23 UNL     1      -6.161   2.413   0.679  1.00  0.00     0.274 HD
ATOM      9  H22 UNL     1      -5.809   1.603   1.925  1.00  0.00     0.274 HD
ATOM     10  H21 UNL     1      -4.627   2.700   1.369  1.00  0.00     0.274 HD
ENDBRANCH   6   7
BRANCH   6  11
HETATM   11  C4  UNL     1      -4.050   1.761  -0.860  1.00  0.00     0.110 C 
BRANCH  11  12
HETATM   12  S1  UNL     1      -3.190   0.778  -2.077  1.00  0.00    -0.165 SA
BRANCH  12  13
HETATM   13  C5  UNL     1      -1.674   0.028  -1.425  1.00  0.00     0.094 C 
BRANCH  13  14
HETATM   14  C6  UNL     1      -0.638   1.074  -1.086  1.00  0.00     0.148 C 
BRANCH  14  15
HETATM   15  N3  UNL     1       0.571   0.529  -0.569  1.00  0.00    -0.224 N 
ATOM     16  H3  UNL     1       1.303   0.327  -1.249  1.00  0.00     0.177 HD
BRANCH  15  17
HETATM   17  C7  UNL     1       0.844   0.263   0.658  1.00  0.00     0.714 A 
HETATM   18  N4  UNL     1      -0.053   0.491   1.640  1.00  0.00    -0.021 N 
HETATM   19  C8  UNL     1       0.245   0.210   2.917  1.00  0.00     0.705 A 
ATOM     20  H4  UNL     1      -0.967   0.881   1.409  1.00  0.00     0.203 HD
HETATM   21  N6  UNL     1       1.459  -0.302   3.178  1.00  0.00    -0.021 N 
HETATM   22  C9  UNL     1       2.364  -0.533   2.191  1.00  0.00     0.719 A 
ATOM     23  H6  UNL     1       1.708  -0.523   4.142  1.00  0.00     0.203 HD
HETATM   24  N7  UNL     1       3.623  -1.032   2.203  1.00  0.00    -0.188 N 
HETATM   25  N10 UNL     1       2.079  -0.256   0.907  1.00  0.00     0.026 N 
HETATM   26  C10 UNL     1       4.129  -1.072   0.961  1.00  0.00     0.080 A 
ATOM     27  H7  UNL     1       4.119  -1.336   3.041  1.00  0.00     0.184 HD
HETATM   28  C11 UNL     1       5.342  -1.482   0.422  1.00  0.00     0.070 A 
HETATM   29  C15 UNL     1       3.130  -0.570   0.118  1.00  0.00     0.104 A 
HETATM   30  C12 UNL     1       5.558  -1.394  -0.933  1.00  0.00     0.129 A 
HETATM   31  C13 UNL     1       4.558  -0.896  -1.741  1.00  0.00     0.081 A 
HETATM   32  N9  UNL     1       4.819  -0.820  -3.144  1.00  0.00    -0.100 NA
HETATM   33  C14 UNL     1       3.341  -0.480  -1.241  1.00  0.00     0.062 A 
BRANCH  19  34
HETATM   34  N5  UNL     1      -0.608   0.424   3.880  1.00  0.00    -0.234 N 
ATOM     35  H52 UNL     1      -1.530   0.813   3.682  1.00  0.00     0.174 HD
ATOM     36  H51 UNL     1      -0.381   0.210   4.851  1.00  0.00     0.174 HD
ENDBRANCH  19  34
BRANCH  30  37
HETATM   37  N8  UNL     1       6.818  -1.821  -1.482  1.00  0.00    -0.114 N 
HETATM   38  O2  UNL     1       7.527  -2.682  -0.954  1.00  0.00    -0.532 OA
HETATM   39  O3  UNL     1       7.221  -1.224  -2.649  1.00  0.00    -0.532 OA
ENDBRANCH  30  37
ENDBRANCH  15  17
ENDBRANCH  14  15
ENDBRANCH  13  14
ENDBRANCH  12  13
ENDBRANCH  11  12
ENDBRANCH   6  11
ENDBRANCH   3   6
TORSDOF 11
