REMARK  10 active torsions:
REMARK  status: ('A' for Active; 'I' for Inactive)
REMARK    1  A    between atoms: C3_3  and  O1_4 
REMARK    2  A    between atoms: C4_7  and  C5_8 
REMARK    3  A    between atoms: C7_15  and  C8_16 
REMARK    4  A    between atoms: C8_16  and  C9_18 
REMARK    5  A    between atoms: C9_18  and  N4_19 
REMARK    6  A    between atoms: C9_18  and  C12_33 
REMARK       I    between atoms: N4_19  and  C10_21 
REMARK       I    between atoms: C10_21  and  N5_23 
REMARK    7  A    between atoms: N5_23  and  N6_25 
REMARK    8  A    between atoms: N6_25  and  N7_27 
REMARK    9  A    between atoms: N7_27  and  O6_31 
REMARK   10  A    between atoms: C15_38  and  O7_39 
ROOT
HETATM    1  C5  UNL     1      -3.383  -0.723  -0.649  1.00  0.00     0.274 C 
HETATM    2  C6  UNL     1      -3.777  -0.495  -2.037  1.00  0.00     0.119 C 
HETATM    3  N1  UNL     1      -4.091  -0.307  -3.133  1.00  0.00    -0.193 NA
HETATM    4  N2  UNL     1      -3.431  -2.120  -0.270  1.00  0.00    -0.017 NA
HETATM    5  O3  UNL     1      -2.318  -2.808  -0.577  1.00  0.00    -0.159 OA
HETATM    6  N3  UNL     1      -1.066  -2.278  -0.597  1.00  0.00    -0.226 N 
ATOM      7  H3  UNL     1      -0.261  -2.902  -0.655  1.00  0.00     0.198 HD
HETATM    8  C7  UNL     1      -0.876  -1.014  -0.545  1.00  0.00     0.174 C 
HETATM    9  N9  UNL     1      -2.044  -0.201  -0.441  1.00  0.00    -0.330 N 
ATOM     10  H9  UNL     1      -1.934   0.787  -0.211  1.00  0.00     0.164 HD
ENDROOT
BRANCH   1  11
HETATM   11  C4  UNL     1      -4.357   0.000   0.248  1.00  0.00     0.151 A 
HETATM   12  O2  UNL     1      -5.106  -0.562   1.196  1.00  0.00    -0.284 OA
HETATM   13  C3  UNL     1      -5.840   0.341   1.792  1.00  0.00     0.192 A 
HETATM   14  C2  UNL     1      -5.583   1.566   1.228  1.00  0.00     0.032 A 
HETATM   15  C1  UNL     1      -6.156   2.903   1.552  1.00  0.00     0.056 C 
HETATM   16  C15 UNL     1      -4.629   1.349   0.234  1.00  0.00     0.111 A 
BRANCH  13  17
HETATM   17  O1  UNL     1      -6.756   0.135   2.841  1.00  0.00    -0.340 OA
ATOM     18  H1  UNL     1      -6.934  -0.713   3.231  1.00  0.00     0.220 HD
ENDBRANCH  13  17
BRANCH  16  19
HETATM   19  O7  UNL     1      -4.100   2.319  -0.570  1.00  0.00    -0.357 OA
ATOM     20  H7  UNL     1      -3.450   2.171  -1.247  1.00  0.00     0.217 HD
ENDBRANCH  16  19
ENDBRANCH   1  11
BRANCH   8  21
HETATM   21  C8  UNL     1       0.427  -0.385  -0.564  1.00  0.00     0.217 C 
HETATM   22  O4  UNL     1       0.448   0.897  -0.504  1.00  0.00    -0.287 OA
BRANCH  21  23
HETATM   23  C9  UNL     1       1.737  -1.057  -0.639  1.00  0.00     0.167 C 
BRANCH  23  24
HETATM   24  N4  UNL     1       2.677  -0.150   0.015  1.00  0.00    -0.329 N 
HETATM   25  C10 UNL     1       3.573  -0.462   1.031  1.00  0.00     0.338 C 
HETATM   26  O5  UNL     1       3.726  -1.591   1.548  1.00  0.00    -0.245 OA
HETATM   27  N5  UNL     1       4.421   0.578   1.566  1.00  0.00    -0.230 N 
HETATM   28  C11 UNL     1       5.366   0.220   2.605  1.00  0.00     0.184 C 
ATOM     29  H4  UNL     1       2.676   0.817  -0.309  1.00  0.00     0.165 HD
BRANCH  27  30
HETATM   30  N6  UNL     1       4.312   1.871   1.132  1.00  0.00    -0.195 N 
ATOM     31  H6  UNL     1       3.537   2.430   1.489  1.00  0.00     0.213 HD
BRANCH  30  32
HETATM   32  N7  UNL     1       5.171   2.461   0.253  1.00  0.00    -0.086 N 
HETATM   33  N8  UNL     1       6.165   3.125   0.546  1.00  0.00    -0.302 N 
ATOM     34  H82 UNL     1       6.352   3.240   1.542  1.00  0.00     0.181 HD
ATOM     35  H81 UNL     1       6.808   3.566  -0.112  1.00  0.00     0.181 HD
BRANCH  32  36
HETATM   36  O6  UNL     1       4.914   2.303  -1.115  1.00  0.00    -0.253 OA
ATOM     37  H6  UNL     1       5.513   2.714  -1.728  1.00  0.00     0.248 HD
ENDBRANCH  32  36
ENDBRANCH  30  32
ENDBRANCH  27  30
ENDBRANCH  23  24
BRANCH  23  38
HETATM   38  C12 UNL     1       2.195  -1.346  -2.046  1.00  0.00     0.008 C 
HETATM   39  C13 UNL     1       1.291  -2.237  -2.849  1.00  0.00     0.012 C 
HETATM   40  C14 UNL     1       3.510  -2.149  -1.952  1.00  0.00     0.012 C 
ENDBRANCH  23  38
ENDBRANCH  21  23
ENDBRANCH   8  21
TORSDOF 10
