REMARK  8 active torsions:
REMARK  status: ('A' for Active; 'I' for Inactive)
REMARK       I    between atoms: C1_4  and  N3_6 
REMARK    1  A    between atoms: N3_6  and  S1_8 
REMARK    2  A    between atoms: S1_8  and  N4_10 
REMARK    3  A    between atoms: S1_8  and  C8_30 
REMARK       I    between atoms: N4_10  and  C2_12 
REMARK       I    between atoms: C2_12  and  N5_14 
REMARK    4  A    between atoms: N5_14  and  C3_16 
REMARK    5  A    between atoms: C3_16  and  C4_17 
REMARK    6  A    between atoms: C4_17  and  O3_18 
REMARK    7  A    between atoms: C6_24  and  C7_25 
REMARK    8  A    between atoms: C7_25  and  O5_26 
REMARK       I    between atoms: N10_37  and  C11_39 
REMARK       I    between atoms: C11_39  and  N11_40 
REMARK       I    between atoms: C11_39  and  N12_44 
ROOT
HETATM    1  S1  UNL     1      -0.561  -2.091   1.331  1.00  0.00     0.182 S 
HETATM    2  O1  UNL     1      -1.059  -2.911   2.492  1.00  0.00    -0.220 OA
ENDROOT
BRANCH   1   3
HETATM    3  N3  UNL     1       0.019  -3.122   0.295  1.00  0.00    -0.268 N 
HETATM    4  C1  UNL     1      -0.542  -4.427   0.285  1.00  0.00     0.194 C 
HETATM    5  N1  UNL     1      -1.799  -4.649   0.431  1.00  0.00    -0.373 N 
HETATM    6  N2  UNL     1       0.317  -5.542   0.106  1.00  0.00    -0.063 NA
ATOM      7  H12 UNL     1      -2.202  -5.586   0.424  1.00  0.00     0.158 HD
ATOM      8  H11 UNL     1      -2.417  -3.847   0.560  1.00  0.00     0.158 HD
ATOM      9  H3  UNL     1       0.770  -2.864  -0.346  1.00  0.00     0.180 HD
ENDBRANCH   1   3
BRANCH   1  10
HETATM   10  N4  UNL     1       0.686  -1.026   1.765  1.00  0.00    -0.246 N 
HETATM   11  C2  UNL     1       1.630  -0.549   0.783  1.00  0.00     0.328 C 
HETATM   12  O2  UNL     1       1.503  -0.940  -0.403  1.00  0.00    -0.246 OA
HETATM   13  N5  UNL     1       2.668   0.328   1.133  1.00  0.00    -0.338 N 
ATOM     14  H5  UNL     1       2.701   0.612   2.112  1.00  0.00     0.164 HD
ATOM     15  H4  UNL     1       0.770  -0.718   2.734  1.00  0.00     0.182 HD
BRANCH  13  16
HETATM   16  C3  UNL     1       3.679   0.870   0.294  1.00  0.00     0.187 C 
BRANCH  16  17
HETATM   17  C4  UNL     1       4.661  -0.083  -0.322  1.00  0.00     0.173 C 
HETATM   18  C5  UNL     1       5.415  -0.858   0.762  1.00  0.00     0.264 C 
HETATM   19  O4  UNL     1       6.807  -0.888   0.425  1.00  0.00    -0.274 OA
HETATM   20  N6  UNL     1       7.478   0.307   0.207  1.00  0.00    -0.252 N 
HETATM   21  C6  UNL     1       6.831   1.132  -0.574  1.00  0.00     0.123 C 
ATOM     22  H6  UNL     1       8.387   0.521   0.616  1.00  0.00     0.196 HD
HETATM   23  N7  UNL     1       5.595   0.743  -1.087  1.00  0.00    -0.342 N 
ATOM     24  H7  UNL     1       5.333   1.044  -2.026  1.00  0.00     0.164 HD
BRANCH  17  25
HETATM   25  O3  UNL     1       4.066  -1.015  -1.137  1.00  0.00    -0.367 OA
ATOM     26  H3  UNL     1       4.688  -1.618  -1.527  1.00  0.00     0.212 HD
ENDBRANCH  17  25
BRANCH  21  27
HETATM   27  C7  UNL     1       7.460   2.452  -0.879  1.00  0.00     0.242 C 
BRANCH  27  28
HETATM   28  O5  UNL     1       6.681   3.503  -0.458  1.00  0.00    -0.393 OA
ATOM     29  H5  UNL     1       7.081   4.343  -0.652  1.00  0.00     0.209 HD
ENDBRANCH  27  28
ENDBRANCH  21  27
ENDBRANCH  16  17
ENDBRANCH  13  16
ENDBRANCH   1  10
BRANCH   1  30
HETATM   30  C8  UNL     1      -1.896  -1.232   0.601  1.00  0.00     0.205 A 
HETATM   31  N8  UNL     1      -2.671  -0.262   1.112  1.00  0.00    -0.316 N 
HETATM   32  C9  UNL     1      -3.588   0.123   0.216  1.00  0.00     0.155 A 
ATOM     33  H8  UNL     1      -2.575   0.127   2.050  1.00  0.00     0.169 HD
HETATM   34  N9  UNL     1      -4.594   1.022   0.167  1.00  0.00    -0.174 N 
HETATM   35  C13 UNL     1      -3.381  -0.642  -0.917  1.00  0.00     0.148 A 
HETATM   36  C10 UNL     1      -5.380   1.195  -0.910  1.00  0.00     0.685 A 
ATOM     37  H9  UNL     1      -4.767   1.600   0.990  1.00  0.00     0.186 HD
HETATM   38  N10 UNL     1      -6.334   2.009  -1.027  1.00  0.00    -0.173 N 
HETATM   39  N13 UNL     1      -5.132   0.412  -2.004  1.00  0.00    -0.154 N 
HETATM   40  C11 UNL     1      -6.869   2.958  -0.123  1.00  0.00     0.494 C 
ATOM     41  H10 UNL     1      -6.804   1.979  -1.932  1.00  0.00     0.181 HD
HETATM   42  N11 UNL     1      -7.394   2.386   1.099  1.00  0.00    -0.032 N 
HETATM   43  N12 UNL     1      -5.975   4.067   0.156  1.00  0.00    -0.032 N 
ATOM     44 3H11 UNL     1      -8.085   1.666   0.887  1.00  0.00     0.278 HD
ATOM     45 2H11 UNL     1      -6.684   1.816   1.559  1.00  0.00     0.278 HD
ATOM     46 1H11 UNL     1      -7.779   3.070   1.750  1.00  0.00     0.278 HD
ATOM     47 3H12 UNL     1      -5.071   3.727   0.485  1.00  0.00     0.278 HD
ATOM     48 2H12 UNL     1      -5.682   4.520  -0.710  1.00  0.00     0.278 HD
ATOM     49 1H12 UNL     1      -6.360   4.751   0.807  1.00  0.00     0.278 HD
HETATM   50  C12 UNL     1      -4.155  -0.496  -2.028  1.00  0.00     0.290 A 
ATOM     51  H13 UNL     1      -5.716   0.527  -2.832  1.00  0.00     0.187 HD
HETATM   52  O6  UNL     1      -3.943  -1.212  -3.055  1.00  0.00    -0.265 OA
HETATM   53  N14 UNL     1      -2.358  -1.440  -0.640  1.00  0.00    -0.325 N 
ATOM     54  H14 UNL     1      -1.972  -2.125  -1.289  1.00  0.00     0.168 HD
ENDBRANCH   1  30
TORSDOF 8
