REMARK  19 active torsions:
REMARK  status: ('A' for Active; 'I' for Inactive)
REMARK    1  A    between atoms: C3_6  and  O1_7 
REMARK    2  A    between atoms: O1_7  and  C4_8 
REMARK    3  A    between atoms: C4_8  and  C5_9 
REMARK    4  A    between atoms: C8_12  and  O2_13 
REMARK    5  A    between atoms: O2_13  and  C9_14 
REMARK    6  A    between atoms: C9_14  and  C10_15 
REMARK    7  A    between atoms: C10_15  and  C11_16 
REMARK    8  A    between atoms: C11_16  and  C12_17 
REMARK    9  A    between atoms: C12_17  and  C13_18 
REMARK   10  A    between atoms: C13_18  and  C14_19 
REMARK   11  A    between atoms: C14_19  and  N2_20 
REMARK   12  A    between atoms: N2_20  and  C15_23 
REMARK   13  A    between atoms: C15_23  and  C17_25 
REMARK   14  A    between atoms: C19_29  and  O3_30 
REMARK   15  A    between atoms: C20_32  and  O4_33 
REMARK   16  A    between atoms: C21_35  and  O5_36 
REMARK   17  A    between atoms: C22_38  and  O6_39 
REMARK   18  A    between atoms: C23_41  and  O7_42 
REMARK   19  A    between atoms: C24_44  and  O8_45 
ROOT
HETATM    1  C5  UNL     1      -2.707  -0.648  -1.414  1.00  0.00     0.047 C 
HETATM    2  C6  UNL     1      -1.439  -0.185  -2.009  1.00  0.00     0.022 C 
HETATM    3  C7  UNL     1      -1.327  -0.703  -3.443  1.00  0.00     0.013 C 
HETATM    4  C8  UNL     1      -0.174  -0.417  -1.253  1.00  0.00     0.157 C 
HETATM    5  C19 UNL     1      -0.223  -1.441  -0.190  1.00  0.00     0.178 C 
HETATM    6  C20 UNL     1      -1.566  -1.439   0.553  1.00  0.00     0.178 C 
HETATM    7  C21 UNL     1      -2.577  -1.837  -0.497  1.00  0.00     0.156 C 
ENDROOT
BRANCH   1   8
HETATM    8  C4  UNL     1      -3.472   0.485  -0.715  1.00  0.00     0.178 C 
BRANCH   8   9
HETATM    9  O1  UNL     1      -4.630  -0.049  -0.215  1.00  0.00    -0.357 OA
BRANCH   9  10
HETATM   10  C3  UNL     1      -5.448   0.830   0.452  1.00  0.00     0.353 C 
HETATM   11  N1  UNL     1      -6.680   0.918  -0.330  1.00  0.00    -0.040 N 
HETATM   12  C2  UNL     1      -7.638   1.784   0.339  1.00  0.00     0.216 C 
ATOM     13  H12 UNL     1      -7.072  -0.002  -0.529  1.00  0.00     0.280 HD
ATOM     14  H11 UNL     1      -6.502   1.216  -1.289  1.00  0.00     0.280 HD
HETATM   15  C1  UNL     1      -8.872   1.860  -0.521  1.00  0.00     0.043 C 
HETATM   16  C24 UNL     1      -8.005   1.274   1.692  1.00  0.00     0.179 C 
HETATM   17  C23 UNL     1      -6.828   0.981   2.566  1.00  0.00     0.181 C 
HETATM   18  C22 UNL     1      -5.780   0.247   1.803  1.00  0.00     0.205 C 
BRANCH  16  19
HETATM   19  O8  UNL     1      -8.806   0.120   1.603  1.00  0.00    -0.391 OA
ATOM     20  H8  UNL     1      -9.040  -0.205   2.465  1.00  0.00     0.210 HD
ENDBRANCH  16  19
BRANCH  17  21
HETATM   21  O7  UNL     1      -6.331   2.108   3.221  1.00  0.00    -0.390 OA
ATOM     22  H7  UNL     1      -6.999   2.576   3.708  1.00  0.00     0.210 HD
ENDBRANCH  17  21
BRANCH  18  23
HETATM   23  O6  UNL     1      -4.623   0.082   2.570  1.00  0.00    -0.388 OA
ATOM     24  H6  UNL     1      -4.832  -0.285   3.421  1.00  0.00     0.210 HD
ENDBRANCH  18  23
ENDBRANCH   9  10
ENDBRANCH   8   9
ENDBRANCH   1   8
BRANCH   7  25
HETATM   25  O5  UNL     1      -3.782  -2.247  -0.012  1.00  0.00    -0.392 OA
ATOM     26  H5  UNL     1      -3.700  -2.996   0.566  1.00  0.00     0.210 HD
ENDBRANCH   7  25
BRANCH   4  27
HETATM   27  O2  UNL     1       0.380   0.769  -0.767  1.00  0.00    -0.383 OA
BRANCH  27  28
HETATM   28  C9  UNL     1       1.559   1.132  -1.359  1.00  0.00     0.168 C 
BRANCH  28  29
HETATM   29  C10 UNL     1       2.705   0.190  -1.215  1.00  0.00     0.026 C 
BRANCH  29  30
HETATM   30  C11 UNL     1       3.898   0.791  -1.963  1.00  0.00     0.002 C 
BRANCH  30  31
HETATM   31  C12 UNL     1       5.124  -0.083  -1.885  1.00  0.00     0.002 C 
BRANCH  31  32
HETATM   32  C13 UNL     1       5.590  -0.315  -0.485  1.00  0.00     0.027 C 
BRANCH  32  33
HETATM   33  C14 UNL     1       6.831  -1.188  -0.503  1.00  0.00     0.233 C 
BRANCH  33  34
HETATM   34  N2  UNL     1       7.327  -1.449   0.819  1.00  0.00    -0.066 N 
ATOM     35  H22 UNL     1       6.609  -1.886   1.397  1.00  0.00     0.277 HD
ATOM     36  H21 UNL     1       8.014  -2.203   0.808  1.00  0.00     0.277 HD
BRANCH  34  37
HETATM   37  C15 UNL     1       7.863  -0.273   1.463  1.00  0.00     0.253 C 
HETATM   38  C16 UNL     1       9.045   0.292   0.739  1.00  0.00     0.046 C 
BRANCH  37  39
HETATM   39  C17 UNL     1       8.262  -0.618   2.880  1.00  0.00     0.267 C 
HETATM   40  C18 UNL     1       8.831   0.615   3.582  1.00  0.00     0.092 C 
HETATM   41  F1  UNL     1       7.147  -1.011   3.626  1.00  0.00    -0.204 F 
HETATM   42  F2  UNL     1       9.169  -1.654   2.920  1.00  0.00    -0.204 F 
ENDBRANCH  37  39
ENDBRANCH  34  37
ENDBRANCH  33  34
ENDBRANCH  32  33
ENDBRANCH  31  32
ENDBRANCH  30  31
ENDBRANCH  29  30
ENDBRANCH  28  29
ENDBRANCH  27  28
ENDBRANCH   4  27
BRANCH   6  43
HETATM   43  O4  UNL     1      -1.556  -2.262   1.649  1.00  0.00    -0.390 OA
ATOM     44  H4  UNL     1      -2.387  -2.261   2.109  1.00  0.00     0.210 HD
ENDBRANCH   6  43
BRANCH   5  45
HETATM   45  O3  UNL     1       0.756  -1.287   0.758  1.00  0.00    -0.390 OA
ATOM     46  H3  UNL     1       0.724  -1.946   1.442  1.00  0.00     0.210 HD
ENDBRANCH   5  45
TORSDOF 19
