REMARK  15 active torsions:
REMARK  status: ('A' for Active; 'I' for Inactive)
REMARK    1  A    between atoms: N5_17  and  C6_19 
REMARK    2  A    between atoms: C6_19  and  C7_20 
REMARK    3  A    between atoms: C7_20  and  C8_21 
REMARK    4  A    between atoms: C8_21  and  C9_22 
REMARK    5  A    between atoms: C9_22  and  C10_23 
REMARK    6  A    between atoms: C10_23  and  C11_24 
REMARK    7  A    between atoms: C11_24  and  N6_25 
REMARK       I    between atoms: N6_25  and  C12_27 
REMARK    8  A    between atoms: C12_27  and  C13_29 
REMARK    9  A    between atoms: C13_29  and  C14_30 
REMARK   10  A    between atoms: C14_30  and  C15_31 
REMARK   11  A    between atoms: C15_31  and  C16_32 
REMARK   12  A    between atoms: C16_32  and  N7_33 
REMARK   13  A    between atoms: C17_39  and  C18_40 
REMARK   14  A    between atoms: C18_40  and  O2_41 
REMARK   15  A    between atoms: C21_47  and  O4_48 
ROOT
HETATM    1  N1  UNL     1      -5.380   2.432   2.843  1.00  0.00    -0.386 N 
ATOM      2  H11 UNL     1      -4.442   2.146   3.125  1.00  0.00     0.157 HD
ATOM      3  H12 UNL     1      -5.946   2.979   3.492  1.00  0.00     0.157 HD
HETATM    4  C1  UNL     1      -5.819   2.085   1.661  1.00  0.00     0.118 C 
HETATM    5  N2  UNL     1      -7.123   2.483   1.269  1.00  0.00    -0.320 N 
ATOM      6  H2  UNL     1      -7.792   2.776   1.980  1.00  0.00     0.169 HD
HETATM    7  C2  UNL     1      -7.512   2.480  -0.094  1.00  0.00     0.180 C 
HETATM    8 CL1  UNL     1      -9.143   2.982  -0.487  1.00  0.00    -0.045 Cl
HETATM    9  N3  UNL     1      -6.663   2.114  -0.976  1.00  0.00    -0.331 N 
ATOM     10  H3  UNL     1      -6.949   2.111  -1.955  1.00  0.00     0.168 HD
HETATM   11  C3  UNL     1      -5.306   1.701  -0.647  1.00  0.00     0.093 C 
HETATM   12  C4  UNL     1      -4.402   1.610  -1.596  1.00  0.00     0.145 C 
HETATM   13 CL2  UNL     1      -4.929   1.985  -3.255  1.00  0.00    -0.062 Cl
HETATM   14  N4  UNL     1      -3.007   1.417  -1.425  1.00  0.00    -0.179 N 
ATOM     15  H4  UNL     1      -2.361   1.341  -2.211  1.00  0.00     0.185 HD
HETATM   16  C5  UNL     1      -2.576   1.337  -0.056  1.00  0.00     0.676 C 
HETATM   17  N5  UNL     1      -1.334   1.151   0.216  1.00  0.00    -0.226 N 
ATOM     18  H5  UNL     1      -1.043   1.097   1.192  1.00  0.00     0.177 HD
HETATM   19  N8  UNL     1      -3.561   1.468   0.958  1.00  0.00    -0.198 N 
ATOM     20  H8  UNL     1      -3.251   1.695   1.903  1.00  0.00     0.179 HD
HETATM   21  C17 UNL     1      -5.001   1.295   0.724  1.00  0.00     0.209 C 
ENDROOT
BRANCH  17  22
HETATM   22  C6  UNL     1      -0.339   1.017  -0.821  1.00  0.00     0.138 C 
BRANCH  22  23
HETATM   23  C7  UNL     1      -0.327  -0.413  -1.326  1.00  0.00     0.020 C 
BRANCH  23  24
HETATM   24  C8  UNL     1       0.688  -0.616  -2.412  1.00  0.00     0.002 C 
BRANCH  24  25
HETATM   25  C9  UNL     1       2.093  -0.301  -1.921  1.00  0.00     0.002 C 
BRANCH  25  26
HETATM   26  C10 UNL     1       3.073  -0.520  -3.043  1.00  0.00     0.020 C 
BRANCH  26  27
HETATM   27  C11 UNL     1       4.457  -0.216  -2.576  1.00  0.00     0.122 C 
BRANCH  27  28
HETATM   28  N6  UNL     1       4.816  -1.070  -1.485  1.00  0.00    -0.361 N 
HETATM   29  C12 UNL     1       6.098  -1.001  -0.828  1.00  0.00     0.217 C 
HETATM   30  O1  UNL     1       6.886  -0.135  -1.281  1.00  0.00    -0.274 OA
ATOM     31  H6  UNL     1       4.136  -1.757  -1.158  1.00  0.00     0.162 HD
BRANCH  29  32
HETATM   32  C13 UNL     1       6.447  -1.882   0.285  1.00  0.00     0.103 C 
BRANCH  32  33
HETATM   33  C14 UNL     1       7.774  -1.640   0.907  1.00  0.00     0.011 C 
BRANCH  33  34
HETATM   34  C15 UNL     1       7.959  -0.281   1.525  1.00  0.00     0.028 C 
BRANCH  34  35
HETATM   35  C16 UNL     1       9.385  -0.278   2.096  1.00  0.00     0.229 C 
BRANCH  35  36
HETATM   36  N7  UNL     1       9.634   0.998   2.706  1.00  0.00    -0.079 N 
ATOM     37  H73 UNL     1       9.468   1.775   2.067  1.00  0.00     0.274 HD
ATOM     38  H72 UNL     1       8.933   1.239   3.406  1.00  0.00     0.274 HD
ATOM     39  H71 UNL     1      10.581   1.000   3.085  1.00  0.00     0.274 HD
ENDBRANCH  35  36
ENDBRANCH  34  35
ENDBRANCH  33  34
ENDBRANCH  32  33
ENDBRANCH  29  32
ENDBRANCH  27  28
ENDBRANCH  26  27
ENDBRANCH  25  26
ENDBRANCH  24  25
ENDBRANCH  23  24
ENDBRANCH  22  23
ENDBRANCH  17  22
BRANCH  21  40
HETATM   40  C18 UNL     1      -5.212  -0.196   0.987  1.00  0.00     0.231 C 
HETATM   41  O3  UNL     1      -4.685  -0.473   2.251  1.00  0.00    -0.347 OA
HETATM   42  C19 UNL     1      -5.244  -1.651   2.683  1.00  0.00     0.211 C 
HETATM   43  C20 UNL     1      -6.394  -2.009   1.807  1.00  0.00     0.228 C 
HETATM   44  F1  UNL     1      -6.010  -3.001   0.930  1.00  0.00    -0.244 F 
HETATM   45  C21 UNL     1      -6.589  -0.698   0.998  1.00  0.00     0.220 C 
BRANCH  40  46
HETATM   46  O2  UNL     1      -4.445  -0.960   0.102  1.00  0.00    -0.361 OA
ATOM     47  H2  UNL     1      -4.576  -1.887   0.265  1.00  0.00     0.213 HD
ENDBRANCH  40  46
BRANCH  45  48
HETATM   48  O4  UNL     1      -7.083  -1.064  -0.271  1.00  0.00    -0.387 OA
ATOM     49  H4  UNL     1      -7.976  -1.389  -0.264  1.00  0.00     0.210 HD
ENDBRANCH  45  48
ENDBRANCH  21  40
TORSDOF 15
