REMARK  18 active torsions:
REMARK  status: ('A' for Active; 'I' for Inactive)
REMARK    1  A    between atoms: C8_8  and  O1_9 
REMARK    2  A    between atoms: O1_9  and  C9_10 
REMARK    3  A    between atoms: C9_10  and  C10_11 
REMARK    4  A    between atoms: C10_11  and  O2_12 
REMARK    5  A    between atoms: C10_11  and  C11_14 
REMARK    6  A    between atoms: C11_14  and  O3_15 
REMARK    7  A    between atoms: C15_21  and  C16_22 
REMARK    8  A    between atoms: C16_22  and  O4_23 
REMARK    9  A    between atoms: C16_22  and  N1_25 
REMARK   10  A    between atoms: N1_25  and  C17_28 
REMARK   11  A    between atoms: C17_28  and  O5_29 
REMARK   12  A    between atoms: C17_28  and  C18_31 
REMARK   13  A    between atoms: C18_31  and  O6_32 
REMARK   14  A    between atoms: C18_31  and  C19_34 
REMARK   15  A    between atoms: C19_34  and  O7_35 
REMARK   16  A    between atoms: C19_34  and  C20_37 
REMARK   17  A    between atoms: C20_37  and  O8_38 
REMARK   18  A    between atoms: C20_37  and  C21_40 
ROOT
HETATM    1  C1  UNL     1       2.245   3.522   3.003  1.00  0.00     0.048 C 
HETATM    2  C2  UNL     1       2.178   3.199   1.557  1.00  0.00    -0.061 A 
HETATM    3  C3  UNL     1       2.420   4.233   0.686  1.00  0.00     0.007 A 
HETATM    4  C4  UNL     1       2.367   3.995  -0.666  1.00  0.00     0.001 A 
HETATM    5  C5  UNL     1       2.075   2.744  -1.106  1.00  0.00     0.012 A 
HETATM    6  C6  UNL     1       1.820   1.656  -0.261  1.00  0.00    -0.022 A 
HETATM    7  C7  UNL     1       1.561   0.383  -0.878  1.00  0.00     0.018 A 
HETATM    8  C8  UNL     1       2.635  -0.545  -0.981  1.00  0.00     0.082 A 
HETATM    9  C12 UNL     1       2.413  -1.729  -1.642  1.00  0.00     0.056 A 
HETATM   10  C13 UNL     1       1.199  -2.051  -2.205  1.00  0.00     0.014 A 
HETATM   11 BR1  UNL     1       0.923  -3.710  -3.128  1.00  0.00    -0.051 Br
HETATM   12  C14 UNL     1       0.167  -1.152  -2.099  1.00  0.00     0.031 A 
HETATM   13  C15 UNL     1       0.363   0.054  -1.432  1.00  0.00     0.013 A 
HETATM   14  C22 UNL     1       1.884   1.936   1.080  1.00  0.00     0.019 A 
ENDROOT
BRANCH  13  15
HETATM   15  C16 UNL     1      -0.804   0.985  -1.236  1.00  0.00     0.357 C 
BRANCH  15  16
HETATM   16  O4  UNL     1      -0.902   1.452   0.069  1.00  0.00    -0.366 OA
ATOM     17  H4  UNL     1      -1.638   2.039   0.193  1.00  0.00     0.212 HD
ENDBRANCH  15  16
BRANCH  15  18
HETATM   18  N1  UNL     1      -1.975   0.153  -1.538  1.00  0.00    -0.016 N 
ATOM     19  H12 UNL     1      -2.104   0.046  -2.544  1.00  0.00     0.283 HD
ATOM     20  H11 UNL     1      -1.809  -0.823  -1.293  1.00  0.00     0.283 HD
BRANCH  18  21
HETATM   21  C17 UNL     1      -3.203   0.669  -0.890  1.00  0.00     0.353 C 
BRANCH  21  22
HETATM   22  O5  UNL     1      -3.973   1.315  -1.844  1.00  0.00    -0.368 OA
ATOM     23  H5  UNL     1      -4.761   1.646  -1.428  1.00  0.00     0.212 HD
ENDBRANCH  21  22
BRANCH  21  24
HETATM   24  C18 UNL     1      -3.931  -0.616  -0.506  1.00  0.00     0.205 C 
BRANCH  24  25
HETATM   25  O6  UNL     1      -3.024  -1.310   0.346  1.00  0.00    -0.389 OA
ATOM     26  H6  UNL     1      -3.477  -2.110   0.585  1.00  0.00     0.210 HD
ENDBRANCH  24  25
BRANCH  24  27
HETATM   27  C19 UNL     1      -5.178  -0.384   0.311  1.00  0.00     0.185 C 
BRANCH  27  28
HETATM   28  O7  UNL     1      -6.156   0.253  -0.422  1.00  0.00    -0.390 OA
ATOM     29  H7  UNL     1      -6.941   0.399   0.092  1.00  0.00     0.210 HD
ENDBRANCH  27  28
BRANCH  27  30
HETATM   30  C20 UNL     1      -5.632  -1.745   0.807  1.00  0.00     0.214 C 
BRANCH  30  31
HETATM   31  O8  UNL     1      -5.948  -2.573  -0.279  1.00  0.00    -0.387 OA
ATOM     32  H8  UNL     1      -6.232  -3.425   0.031  1.00  0.00     0.210 HD
ENDBRANCH  30  31
BRANCH  30  33
HETATM   33  C21 UNL     1      -6.806  -1.713   1.734  1.00  0.00     0.384 C 
HETATM   34  F1  UNL     1      -7.934  -1.172   1.204  1.00  0.00    -0.212 F 
HETATM   35  F2  UNL     1      -7.003  -3.037   2.157  1.00  0.00    -0.212 F 
ENDBRANCH  30  33
ENDBRANCH  27  30
ENDBRANCH  24  27
ENDBRANCH  21  24
ENDBRANCH  18  21
ENDBRANCH  15  18
ENDBRANCH  13  15
BRANCH   8  36
HETATM   36  O1  UNL     1       3.774  -0.196  -0.428  1.00  0.00    -0.348 OA
BRANCH  36  37
HETATM   37  C9  UNL     1       5.041  -0.487  -0.122  1.00  0.00     0.209 C 
BRANCH  37  38
HETATM   38  C10 UNL     1       5.359  -1.595   0.833  1.00  0.00     0.166 C 
BRANCH  38  39
HETATM   39  O2  UNL     1       4.753  -1.410   2.094  1.00  0.00    -0.391 OA
ATOM     40  H2  UNL     1       4.955  -2.113   2.700  1.00  0.00     0.210 HD
ENDBRANCH  38  39
BRANCH  38  41
HETATM   41  C11 UNL     1       5.201  -2.993   0.364  1.00  0.00     0.198 C 
BRANCH  41  42
HETATM   42  O3  UNL     1       5.808  -3.130  -0.887  1.00  0.00    -0.398 OA
ATOM     43  H3  UNL     1       5.707  -4.026  -1.187  1.00  0.00     0.209 HD
ENDBRANCH  41  42
ENDBRANCH  38  41
ENDBRANCH  37  38
ENDBRANCH  36  37
ENDBRANCH   8  36
TORSDOF 18
