REMARK  14 active torsions:
REMARK  status: ('A' for Active; 'I' for Inactive)
REMARK       I    between atoms: C1_4  and  N2_5 
REMARK       I    between atoms: C1_4  and  N5_18 
REMARK    1  A    between atoms: N2_5  and  C2_7 
REMARK    2  A    between atoms: N5_18  and  C6_20 
REMARK    3  A    between atoms: C6_20  and  C7_21 
REMARK    4  A    between atoms: C7_21  and  O1_22 
REMARK    5  A    between atoms: O1_22  and  C8_23 
REMARK    6  A    between atoms: C8_23  and  C9_24 
REMARK    7  A    between atoms: C9_24  and  O2_25 
REMARK    8  A    between atoms: O2_25  and  C10_26 
REMARK    9  A    between atoms: C10_26  and  C11_27 
REMARK   10  A    between atoms: C11_27  and  O3_28 
REMARK   11  A    between atoms: O3_28  and  C12_29 
REMARK   12  A    between atoms: C12_29  and  C13_30 
REMARK   13  A    between atoms: C13_30  and  C14_31 
REMARK   14  A    between atoms: C16_36  and  N7_37 
ROOT
HETATM    1  O1  UNL     1      -2.304  -1.846   0.841  1.00  0.00    -0.387 OA
ENDROOT
BRANCH   1   2
HETATM    2  C7  UNL     1      -3.401  -1.111   1.298  1.00  0.00     0.188 C 
BRANCH   2   3
HETATM    3  C6  UNL     1      -4.647  -1.885   1.021  1.00  0.00     0.164 C 
BRANCH   3   4
HETATM    4  N5  UNL     1      -4.791  -2.130  -0.391  1.00  0.00    -0.224 N 
HETATM    5  C1  UNL     1      -5.061  -1.137  -1.360  1.00  0.00     0.686 C 
HETATM    6  N1  UNL     1      -5.305  -1.534  -2.582  1.00  0.00    -0.234 N 
HETATM    7  N2  UNL     1      -5.061   0.232  -1.030  1.00  0.00    -0.023 N 
ATOM      8  H12 UNL     1      -5.500  -0.817  -3.281  1.00  0.00     0.174 HD
ATOM      9  H11 UNL     1      -5.305  -2.526  -2.821  1.00  0.00     0.174 HD
ATOM     10  H2  UNL     1      -4.185   0.738  -0.902  1.00  0.00     0.203 HD
ATOM     11  H5  UNL     1      -4.691  -3.092  -0.716  1.00  0.00     0.177 HD
BRANCH   7  12
HETATM   12  C2  UNL     1      -6.215   0.841  -0.891  1.00  0.00     0.699 A 
HETATM   13  N3  UNL     1      -6.203   2.165  -0.573  1.00  0.00    -0.179 N 
HETATM   14  C3  UNL     1      -7.354   2.821  -0.425  1.00  0.00     0.144 A 
ATOM     15  H3  UNL     1      -5.316   2.653  -0.448  1.00  0.00     0.185 HD
HETATM   16 CL1  UNL     1      -7.398   4.538  -0.010  1.00  0.00    -0.062 Cl
HETATM   17  C4  UNL     1      -8.580   2.211  -0.583  1.00  0.00     0.112 A 
HETATM   18 CL2  UNL     1     -10.102   3.042  -0.397  1.00  0.00    -0.077 Cl
HETATM   19  C5  UNL     1      -8.568   0.871  -0.905  1.00  0.00     0.144 A 
HETATM   20 CL3  UNL     1     -10.083  -0.018  -1.134  1.00  0.00    -0.062 Cl
HETATM   21  N4  UNL     1      -7.394   0.232  -1.048  1.00  0.00    -0.179 N 
ATOM     22  H4  UNL     1      -7.404  -0.760  -1.286  1.00  0.00     0.185 HD
ENDBRANCH   7  12
ENDBRANCH   3   4
ENDBRANCH   2   3
ENDBRANCH   1   2
BRANCH   1  23
HETATM   23  C8  UNL     1      -1.187  -1.013   1.129  1.00  0.00     0.193 C 
BRANCH  23  24
HETATM   24  C9  UNL     1       0.024  -1.729   0.647  1.00  0.00     0.193 C 
BRANCH  24  25
HETATM   25  O2  UNL     1       1.211  -1.056   0.848  1.00  0.00    -0.387 OA
BRANCH  25  26
HETATM   26  C10 UNL     1       1.195   0.150   0.212  1.00  0.00     0.193 C 
BRANCH  26  27
HETATM   27  C11 UNL     1       2.451   0.960   0.297  1.00  0.00     0.193 C 
BRANCH  27  28
HETATM   28  O3  UNL     1       3.579   0.433  -0.213  1.00  0.00    -0.389 OA
BRANCH  28  29
HETATM   29  C12 UNL     1       4.110  -0.707   0.244  1.00  0.00     0.172 C 
BRANCH  29  30
HETATM   30  C13 UNL     1       5.370  -1.084  -0.486  1.00  0.00     0.073 C 
BRANCH  30  31
HETATM   31  C14 UNL     1       6.407  -0.042  -0.357  1.00  0.00     0.047 A 
HETATM   32  C15 UNL     1       6.468   1.067  -1.145  1.00  0.00     0.109 A 
HETATM   33  S1  UNL     1       5.327   1.292  -2.482  1.00  0.00    -0.032 SA
HETATM   34  N6  UNL     1       7.439   1.984  -0.928  1.00  0.00    -0.184 N 
HETATM   35  C16 UNL     1       8.328   1.793   0.057  1.00  0.00     0.679 A 
ATOM     36  H6  UNL     1       7.494   2.818  -1.512  1.00  0.00     0.185 HD
HETATM   37  N8  UNL     1       8.287   0.708   0.844  1.00  0.00    -0.156 N 
HETATM   38  C17 UNL     1       7.352  -0.203   0.658  1.00  0.00     0.268 A 
ATOM     39  H8  UNL     1       8.978   0.588   1.585  1.00  0.00     0.187 HD
HETATM   40  O4  UNL     1       7.303  -1.217   1.384  1.00  0.00    -0.267 OA
BRANCH  35  41
HETATM   41  N7  UNL     1       9.254   2.662   0.264  1.00  0.00    -0.234 N 
ATOM     42  H72 UNL     1       9.285   3.487  -0.335  1.00  0.00     0.174 HD
ATOM     43  H71 UNL     1       9.930   2.517   1.013  1.00  0.00     0.174 HD
ENDBRANCH  35  41
ENDBRANCH  30  31
ENDBRANCH  29  30
ENDBRANCH  28  29
ENDBRANCH  27  28
ENDBRANCH  26  27
ENDBRANCH  25  26
ENDBRANCH  24  25
ENDBRANCH  23  24
ENDBRANCH   1  23
TORSDOF 14
