REMARK  2 active torsions:
REMARK  status: ('A' for Active; 'I' for Inactive)
REMARK    1  A    between atoms: N1_1  and  C1_5 
REMARK    2  A    between atoms: C1_5  and  C2_6 
ROOT
HETATM    1  C2  UNL     1       0.761   0.046  -0.667  1.00  0.00     0.122 C 
HETATM    2  C3  UNL     1      -0.082   0.964   0.121  1.00  0.00     0.029 C 
HETATM    3  C4  UNL     1      -1.206   0.382   0.874  1.00  0.00     0.020 C 
HETATM    4  C5  UNL     1      -2.449   0.172  -0.001  1.00  0.00     0.132 C 
HETATM    5  N2  UNL     1      -2.076  -0.725  -1.095  1.00  0.00    -0.127 NA
HETATM    6  N3  UNL     1      -1.029  -1.507  -0.637  1.00  0.00    -0.036 NA
HETATM    7  N4  UNL     1       0.186  -1.155  -1.130  1.00  0.00    -0.317 N 
ATOM      8  H4  UNL     1       0.667  -1.740  -1.813  1.00  0.00     0.177 HD
ENDROOT
BRANCH   1   9
HETATM    9  C1  UNL     1       2.047  -0.318   0.091  1.00  0.00     0.255 C 
BRANCH   9  10
HETATM   10  N1  UNL     1       2.820   0.895   0.372  1.00  0.00    -0.077 N 
ATOM     11  H13 UNL     1       3.013   1.431  -0.474  1.00  0.00     0.274 HD
ATOM     12  H12 UNL     1       2.268   1.595   0.868  1.00  0.00     0.274 HD
ATOM     13  H11 UNL     1       3.674   0.653   0.875  1.00  0.00     0.274 HD
ENDBRANCH   9  10
ENDBRANCH   1   9
TORSDOF 2
