REMARK  4 active torsions:
REMARK  status: ('A' for Active; 'I' for Inactive)
REMARK    1  A    between atoms: N1_1  and  C1_4 
REMARK    2  A    between atoms: C3_9  and  O2_10 
REMARK    3  A    between atoms: O2_10  and  N3_11 
REMARK    4  A    between atoms: N3_11  and  N4_12 
ROOT
HETATM    1  C1  UNL     1      -1.308  -0.662  -0.008  1.00  0.00     0.157 A 
HETATM    2  N2  UNL     1      -2.519  -0.125   0.212  1.00  0.00    -0.243 N 
ATOM      3  H2  UNL     1      -3.333  -0.648   0.535  1.00  0.00     0.196 HD
HETATM    4  O1  UNL     1      -2.515   1.149  -0.041  1.00  0.00    -0.245 OA
HETATM    5  C2  UNL     1      -1.314   1.524  -0.438  1.00  0.00     0.210 A 
HETATM    6  C3  UNL     1      -0.512   0.400  -0.432  1.00  0.00     0.165 A 
ENDROOT
BRANCH   6   7
HETATM    7  O2  UNL     1       0.811   0.285  -0.766  1.00  0.00    -0.218 OA
BRANCH   7   8
HETATM    8  N3  UNL     1       1.852   0.521   0.066  1.00  0.00     0.020 NA
BRANCH   8   9
HETATM    9  N4  UNL     1       2.778  -0.520   0.005  1.00  0.00    -0.322 N 
ATOM     10  H42 UNL     1       2.671  -1.341  -0.591  1.00  0.00     0.174 HD
ATOM     11  H41 UNL     1       3.563  -0.342   0.632  1.00  0.00     0.174 HD
ENDBRANCH   8   9
ENDBRANCH   7   8
ENDBRANCH   6   7
BRANCH   1  12
HETATM   12  N1  UNL     1      -1.000  -1.887   0.152  1.00  0.00    -0.382 N 
ATOM     13  H12 UNL     1      -1.583  -2.664   0.462  1.00  0.00     0.157 HD
ATOM     14  H11 UNL     1      -0.080  -2.295  -0.015  1.00  0.00     0.157 HD
ENDBRANCH   1  12
TORSDOF 4
