REMARK  0 active torsions:
REMARK  status: ('A' for Active; 'I' for Inactive)
ROOT
HETATM    1  N1  UNL     1       2.109   0.038  -0.020  1.00  0.00    -0.062 NA
HETATM    2  C1  UNL     1       0.682  -0.153  -0.011  1.00  0.00     0.209 A 
HETATM    3  N2  UNL     1       0.009  -1.316  -0.030  1.00  0.00    -0.271 N 
ATOM      4  H2  UNL     1       0.431  -2.244  -0.054  1.00  0.00     0.189 HD
HETATM    5  N3  UNL     1      -1.271  -1.067  -0.013  1.00  0.00    -0.274 N 
ATOM      6  H3  UNL     1      -2.003  -1.777  -0.022  1.00  0.00     0.189 HD
HETATM    7  C2  UNL     1      -1.492   0.278   0.018  1.00  0.00     0.193 A 
HETATM    8  S1  UNL     1      -2.931   1.054   0.048  1.00  0.00    -0.039 SA
HETATM    9  N4  UNL     1      -0.253   0.808   0.018  1.00  0.00    -0.305 N 
ATOM     10  H4  UNL     1      -0.053   1.808   0.037  1.00  0.00     0.171 HD
ENDROOT
TORSDOF 0
