REMARK  3 active torsions:
REMARK  status: ('A' for Active; 'I' for Inactive)
REMARK    1  A    between atoms: C4_5  and  C5_6 
REMARK    2  A    between atoms: C5_6  and  N2_7 
REMARK    3  A    between atoms: C5_6  and  N3_11 
ROOT
HETATM    1  C5  UNL     1      -1.944   0.052   0.287  1.00  0.00     0.412 C 
ENDROOT
BRANCH   1   2
HETATM    2  C4  UNL     1      -0.448  -0.013   0.341  1.00  0.00     0.014 A 
HETATM    3  C3  UNL     1       0.316   0.331  -0.755  1.00  0.00     0.015 A 
HETATM    4  C2  UNL     1       1.687   0.243  -0.617  1.00  0.00     0.046 A 
HETATM    5  C1  UNL     1       2.301  -0.167   0.547  1.00  0.00     0.116 A 
HETATM    6  N1  UNL     1       3.734  -0.236   0.620  1.00  0.00    -0.083 NA
HETATM    7  N4  UNL     1       1.520  -0.494   1.595  1.00  0.00    -0.354 N 
HETATM    8  C6  UNL     1       0.182  -0.421   1.499  1.00  0.00     0.100 A 
ATOM      9  H4  UNL     1       1.948  -0.800   2.469  1.00  0.00     0.166 HD
ENDBRANCH   1   2
BRANCH   1  10
HETATM   10  N2  UNL     1      -2.378   1.288  -0.337  1.00  0.00    -0.046 N 
ATOM     11  H23 UNL     1      -1.980   2.106   0.125  1.00  0.00     0.277 HD
ATOM     12  H22 UNL     1      -1.960   1.414  -1.259  1.00  0.00     0.277 HD
ATOM     13  H21 UNL     1      -3.396   1.332  -0.374  1.00  0.00     0.277 HD
ENDBRANCH   1  10
BRANCH   1  14
HETATM   14  N3  UNL     1      -2.475  -1.043  -0.497  1.00  0.00    -0.046 N 
ATOM     15  H33 UNL     1      -2.064  -1.074  -1.430  1.00  0.00     0.277 HD
ATOM     16  H32 UNL     1      -2.148  -1.947  -0.155  1.00  0.00     0.277 HD
ATOM     17  H31 UNL     1      -3.493  -0.999  -0.534  1.00  0.00     0.277 HD
ENDBRANCH   1  14
TORSDOF 3
