REMARK  13 active torsions:
REMARK  status: ('A' for Active; 'I' for Inactive)
REMARK    1  A    between atoms: N1_2  and  C2_4 
REMARK    2  A    between atoms: C2_4  and  C3_5 
REMARK    3  A    between atoms: C2_4  and  C27_38 
REMARK       I    between atoms: C3_5  and  N2_7 
REMARK    4  A    between atoms: C7_11  and  C8_12 
REMARK       I    between atoms: C8_12  and  N3_14 
REMARK    5  A    between atoms: N3_14  and  C9_16 
REMARK    6  A    between atoms: C9_16  and  C10_17 
REMARK    7  A    between atoms: C9_16  and  C14_21 
REMARK    8  A    between atoms: C10_17  and  C11_18 
REMARK    9  A    between atoms: C14_21  and  N4_22 
REMARK   10  A    between atoms: C14_21  and  C21_32 
REMARK   11  A    between atoms: N4_22  and  C15_24 
REMARK   12  A    between atoms: C15_24  and  C16_25 
REMARK   13  A    between atoms: C15_24  and  C17_28 
ROOT
HETATM    1  C9  UNL     1      -1.288  -1.241  -0.922  1.00  0.00     0.130 C 
ENDROOT
BRANCH   1   2
HETATM    2  N3  UNL     1       0.040  -0.805  -1.409  1.00  0.00    -0.350 N 
HETATM    3  C8  UNL     1       1.012  -1.737  -1.853  1.00  0.00     0.241 C 
HETATM    4  O2  UNL     1       0.701  -2.964  -1.803  1.00  0.00    -0.271 OA
ATOM      5  H3  UNL     1       0.261   0.191  -1.426  1.00  0.00     0.163 HD
BRANCH   3   6
HETATM    6  C7  UNL     1       2.293  -1.331  -2.348  1.00  0.00     0.179 C 
HETATM    7  N2  UNL     1       3.240  -0.699  -1.472  1.00  0.00    -0.337 N 
HETATM    8  C3  UNL     1       3.267  -0.446  -0.085  1.00  0.00     0.243 C 
HETATM    9  C4  UNL     1       4.320  -0.347  -2.427  1.00  0.00     0.127 C 
HETATM   10  O1  UNL     1       2.238  -0.884   0.546  1.00  0.00    -0.271 OA
HETATM   11  C5  UNL     1       4.410  -1.615  -3.297  1.00  0.00     0.022 C 
HETATM   12  C6  UNL     1       3.171  -2.442  -2.920  1.00  0.00     0.037 C 
BRANCH   8  13
HETATM   13  C2  UNL     1       4.350   0.245   0.622  1.00  0.00     0.176 C 
BRANCH  13  14
HETATM   14  N1  UNL     1       4.644  -0.355   1.876  1.00  0.00    -0.413 N 
HETATM   15  C1  UNL     1       3.689  -0.411   2.897  1.00  0.00     0.140 C 
ATOM     16  H1  UNL     1       5.570  -0.753   2.035  1.00  0.00     0.153 HD
ENDBRANCH  13  14
BRANCH  13  17
HETATM   17  C27 UNL     1       4.237   1.734   0.705  1.00  0.00    -0.022 C 
HETATM   18  C28 UNL     1       3.177   2.262   1.615  1.00  0.00     0.017 C 
HETATM   19  C29 UNL     1       5.577   2.214   1.320  1.00  0.00     0.017 C 
HETATM   20  C30 UNL     1       4.122   2.458  -0.592  1.00  0.00     0.017 C 
ENDBRANCH  13  17
ENDBRANCH   8  13
ENDBRANCH   3   6
ENDBRANCH   1   2
BRANCH   1  21
HETATM   21  C10 UNL     1      -2.242  -0.520  -1.890  1.00  0.00     0.035 C 
BRANCH  21  22
HETATM   22  C11 UNL     1      -2.035  -0.918  -3.315  1.00  0.00    -0.020 C 
HETATM   23  C12 UNL     1      -3.048  -0.093  -4.131  1.00  0.00     0.009 C 
HETATM   24  C13 UNL     1      -2.416  -2.377  -3.490  1.00  0.00     0.009 C 
ENDBRANCH  21  22
ENDBRANCH   1  21
BRANCH   1  25
HETATM   25  C14 UNL     1      -1.553  -0.682   0.462  1.00  0.00     0.010 C 
BRANCH  25  26
HETATM   26  N4  UNL     1      -1.574   0.718   0.404  1.00  0.00    -0.380 N 
ATOM     27  H4  UNL     1      -1.265   1.206  -0.437  1.00  0.00     0.160 HD
BRANCH  26  28
HETATM   28  C15 UNL     1      -2.031   1.445   1.531  1.00  0.00     0.190 C 
BRANCH  28  29
HETATM   29  C16 UNL     1      -1.196   1.284   2.735  1.00  0.00     0.197 C 
HETATM   30  O3  UNL     1      -0.137   0.599   2.804  1.00  0.00    -0.646 OA
HETATM   31  O4  UNL     1      -1.534   1.912   3.954  1.00  0.00    -0.646 OA
ENDBRANCH  28  29
BRANCH  28  32
HETATM   32  C17 UNL     1      -2.276   2.911   1.208  1.00  0.00    -0.021 C 
HETATM   33  C18 UNL     1      -1.032   3.611   0.733  1.00  0.00     0.017 C 
HETATM   34  C19 UNL     1      -3.299   3.052   0.096  1.00  0.00     0.017 C 
HETATM   35  C20 UNL     1      -2.809   3.655   2.404  1.00  0.00     0.017 C 
ENDBRANCH  28  32
ENDBRANCH  26  28
ENDBRANCH  25  26
BRANCH  25  36
HETATM   36  C21 UNL     1      -2.580  -1.385   1.253  1.00  0.00     0.033 C 
HETATM   37  C22 UNL     1      -3.960  -1.466   0.724  1.00  0.00     0.010 C 
HETATM   38  C23 UNL     1      -4.806  -2.117   1.835  1.00  0.00     0.001 C 
HETATM   39  C24 UNL     1      -4.511  -3.604   1.840  1.00  0.00     0.000 C 
HETATM   40  C25 UNL     1      -3.162  -3.843   1.246  1.00  0.00     0.001 C 
HETATM   41  C26 UNL     1      -2.133  -2.798   1.572  1.00  0.00     0.010 C 
ENDBRANCH  25  36
ENDBRANCH   1  25
TORSDOF 13
