REMARK  13 active torsions:
REMARK  status: ('A' for Active; 'I' for Inactive)
REMARK    1  A    between atoms: C2_2  and  N1_3 
REMARK       I    between atoms: N1_3  and  C3_5 
REMARK    2  A    between atoms: C3_5  and  C4_7 
REMARK    3  A    between atoms: C5_8  and  O2_9 
REMARK    4  A    between atoms: O2_9  and  C6_10 
REMARK       I    between atoms: C6_10  and  N2_12 
REMARK    5  A    between atoms: N2_12  and  C7_14 
REMARK    6  A    between atoms: C7_14  and  C8_15 
REMARK    7  A    between atoms: C8_15  and  C9_16 
REMARK    8  A    between atoms: C9_16  and  N3_17 
REMARK    9  A    between atoms: C11_19  and  N4_21 
REMARK   10  A    between atoms: C14_26  and  C15_27 
REMARK   11  A    between atoms: C15_27  and  C16_28 
REMARK   12  A    between atoms: C16_28  and  N5_29 
REMARK       I    between atoms: N5_29  and  C17_31 
REMARK   13  A    between atoms: C17_31  and  C18_33 
ROOT
HETATM    1  N3  UNL     1      -1.516  -0.923  -0.425  1.00  0.00     0.099 N 
HETATM    2  C10 UNL     1      -0.965  -2.083   0.070  1.00  0.00     0.311 C 
HETATM    3  C11 UNL     1      -1.701  -2.439   1.369  1.00  0.00     0.148 C 
HETATM    4  C12 UNL     1      -0.750  -2.413   2.558  1.00  0.00     0.048 C 
HETATM    5  C13 UNL     1      -2.713  -1.350   1.572  1.00  0.00     0.075 C 
HETATM    6  C14 UNL     1      -2.317  -0.269   0.598  1.00  0.00     0.227 C 
ENDROOT
BRANCH   1   7
HETATM    7  C9  UNL     1      -0.677   0.039  -1.044  1.00  0.00     0.301 C 
BRANCH   7   8
HETATM    8  C8  UNL     1      -0.045  -0.338  -2.315  1.00  0.00     0.020 C 
BRANCH   8   9
HETATM    9  C7  UNL     1       1.010  -1.365  -2.426  1.00  0.00     0.091 C 
BRANCH   9  10
HETATM   10  N2  UNL     1       2.304  -1.124  -1.943  1.00  0.00    -0.313 N 
HETATM   11  C6  UNL     1       2.912  -0.836  -0.736  1.00  0.00     0.364 C 
HETATM   12  O3  UNL     1       2.361  -0.706   0.373  1.00  0.00    -0.238 OA
ATOM     13  H2  UNL     1       2.991  -1.176  -2.695  1.00  0.00     0.170 HD
BRANCH  11  14
HETATM   14  O2  UNL     1       4.343  -0.650  -0.666  1.00  0.00    -0.297 OA
BRANCH  14  15
HETATM   15  C5  UNL     1       4.970  -0.359   0.553  1.00  0.00     0.147 C 
HETATM   16  C4  UNL     1       5.724   0.946   0.532  1.00  0.00     0.112 C 
HETATM   17  C26 UNL     1       6.752   0.862   1.578  1.00  0.00     0.014 A 
HETATM   18  C25 UNL     1       6.808  -0.636   1.992  1.00  0.00     0.002 A 
HETATM   19  C27 UNL     1       8.012   0.149   1.591  1.00  0.00    -0.039 A 
HETATM   20  C24 UNL     1       5.989  -1.373   0.975  1.00  0.00     0.039 C 
HETATM   21  C28 UNL     1       8.910   0.456   2.817  1.00  0.00     0.015 C 
HETATM   22  C29 UNL     1       8.837  -0.226   0.407  1.00  0.00     0.015 C 
BRANCH  16  23
HETATM   23  C3  UNL     1       6.108   1.411  -0.797  1.00  0.00     0.224 C 
HETATM   24  N1  UNL     1       6.554   0.602  -1.869  1.00  0.00    -0.361 N 
ATOM     25  H1  UNL     1       6.617  -0.406  -1.729  1.00  0.00     0.162 HD
HETATM   26  O1  UNL     1       6.034   2.679  -1.004  1.00  0.00    -0.273 OA
BRANCH  24  27
HETATM   27  C2  UNL     1       6.923   1.147  -3.152  1.00  0.00     0.118 C 
HETATM   28  C1  UNL     1       8.084   2.135  -3.000  1.00  0.00     0.026 C 
ENDBRANCH  24  27
ENDBRANCH  16  23
ENDBRANCH  14  15
ENDBRANCH  11  14
ENDBRANCH   9  10
ENDBRANCH   8   9
ENDBRANCH   7   8
ENDBRANCH   1   7
BRANCH   6  29
HETATM   29  C15 UNL     1      -3.598   0.228  -0.075  1.00  0.00     0.055 C 
BRANCH  29  30
HETATM   30  C16 UNL     1      -4.488   0.923   0.903  1.00  0.00     0.125 C 
BRANCH  30  31
HETATM   31  N5  UNL     1      -5.717   1.430   0.355  1.00  0.00    -0.361 N 
HETATM   32  C17 UNL     1      -6.689   0.590  -0.235  1.00  0.00     0.221 C 
HETATM   33  O4  UNL     1      -6.490  -0.641  -0.285  1.00  0.00    -0.273 OA
ATOM     34  H5  UNL     1      -5.894   2.434   0.393  1.00  0.00     0.162 HD
BRANCH  32  35
HETATM   35  C18 UNL     1      -7.956   1.122  -0.806  1.00  0.00     0.078 C 
HETATM   36  C19 UNL     1      -8.665   1.893   0.308  1.00  0.00     0.014 C 
HETATM   37  C20 UNL     1      -9.924   2.546  -0.178  1.00  0.00     0.001 C 
HETATM   38  C21 UNL     1     -10.555   1.771  -1.325  1.00  0.00     0.000 C 
HETATM   39  C22 UNL     1     -10.306   0.307  -1.108  1.00  0.00     0.001 C 
HETATM   40  C23 UNL     1      -8.839  -0.032  -1.187  1.00  0.00     0.014 C 
ENDBRANCH  32  35
ENDBRANCH  30  31
ENDBRANCH  29  30
ENDBRANCH   6  29
BRANCH   3  41
HETATM   41  N4  UNL     1      -2.258  -3.752   1.296  1.00  0.00    -0.069 N 
ATOM     42  H43 UNL     1      -2.860  -3.861   0.480  1.00  0.00     0.275 HD
ATOM     43  H42 UNL     1      -1.551  -4.449   1.061  1.00  0.00     0.275 HD
ATOM     44  H41 UNL     1      -2.747  -3.989   2.159  1.00  0.00     0.275 HD
ENDBRANCH   3  41
TORSDOF 13
