REMARK  14 active torsions:
REMARK  status: ('A' for Active; 'I' for Inactive)
REMARK    1  A    between atoms: C2_2  and  C4_4 
REMARK    2  A    between atoms: C2_2  and  N3_33 
REMARK    3  A    between atoms: C4_4  and  C5_5 
REMARK    4  A    between atoms: C5_5  and  N1_6 
REMARK    5  A    between atoms: C5_5  and  C22_27 
REMARK    6  A    between atoms: N1_6  and  C6_8 
REMARK    7  A    between atoms: C6_8  and  C7_9 
REMARK    8  A    between atoms: C6_8  and  C14_16 
REMARK    9  A    between atoms: C7_9  and  C8_10 
REMARK   10  A    between atoms: C14_16  and  O1_17 
REMARK   11  A    between atoms: C14_16  and  N2_19 
REMARK   12  A    between atoms: N3_33  and  C28_35 
REMARK   13  A    between atoms: C28_35  and  C29_36 
REMARK   14  A    between atoms: C28_35  and  C30_39 
ROOT
HETATM    1  N1  UNL     1       0.104   0.826   1.011  1.00  0.00    -0.406 N 
ATOM      2  H1  UNL     1      -0.002   1.662   1.586  1.00  0.00     0.154 HD
ENDROOT
BRANCH   1   3
HETATM    3  C5  UNL     1       1.359   0.081   0.968  1.00  0.00     0.083 C 
BRANCH   3   4
HETATM    4  C4  UNL     1       2.034   0.278  -0.274  1.00  0.00     0.054 C 
BRANCH   4   5
HETATM    5  C2  UNL     1       3.326  -0.334  -0.702  1.00  0.00     0.021 C 
HETATM    6  C1  UNL     1       3.281  -1.840  -0.766  1.00  0.00     0.037 C 
HETATM    7  C3  UNL     1       4.565   0.096  -0.025  1.00  0.00     0.037 C 
BRANCH   5   8
HETATM    8  N3  UNL     1       3.465   0.130  -2.108  1.00  0.00    -0.392 N 
ATOM      9  H3  UNL     1       2.753   0.726  -2.530  1.00  0.00     0.155 HD
BRANCH   8  10
HETATM   10  C28 UNL     1       4.573  -0.259  -2.833  1.00  0.00     0.281 C 
BRANCH  10  11
HETATM   11  C29 UNL     1       4.134  -0.454  -4.285  1.00  0.00     0.207 C 
HETATM   12  O2  UNL     1       2.928  -0.271  -4.537  1.00  0.00    -0.646 OA
HETATM   13  O3  UNL     1       4.991  -0.810  -5.279  1.00  0.00    -0.646 OA
ENDBRANCH  10  11
BRANCH  10  14
HETATM   14  C30 UNL     1       5.717   0.666  -2.975  1.00  0.00     0.207 C 
HETATM   15  O4  UNL     1       5.745   1.810  -2.504  1.00  0.00    -0.646 OA
HETATM   16  O5  UNL     1       6.840   0.241  -3.680  1.00  0.00    -0.646 OA
ENDBRANCH  10  14
ENDBRANCH   8  10
ENDBRANCH   5   8
ENDBRANCH   4   5
ENDBRANCH   3   4
BRANCH   3  17
HETATM   17  C22 UNL     1       1.945   0.188   2.318  1.00  0.00     0.008 C 
HETATM   18  C23 UNL     1       2.569   1.446   2.764  1.00  0.00     0.007 C 
HETATM   19  C24 UNL     1       3.152   1.212   4.168  1.00  0.00     0.000 C 
HETATM   20  C25 UNL     1       2.289   0.272   4.954  1.00  0.00     0.000 C 
HETATM   21  C26 UNL     1       2.244  -1.123   4.417  1.00  0.00     0.000 C 
HETATM   22  C27 UNL     1       2.546  -1.070   2.909  1.00  0.00     0.007 C 
ENDBRANCH   3  17
ENDBRANCH   1   3
BRANCH   1  23
HETATM   23  C6  UNL     1      -0.987   0.320   0.196  1.00  0.00     0.152 C 
BRANCH  23  24
HETATM   24  C7  UNL     1      -1.515  -0.970   0.615  1.00  0.00     0.037 C 
BRANCH  24  25
HETATM   25  C8  UNL     1      -2.528  -1.650  -0.270  1.00  0.00    -0.012 C 
HETATM   26  C9  UNL     1      -2.883  -2.956   0.452  1.00  0.00     0.005 C 
HETATM   27  C10 UNL     1      -4.037  -3.547  -0.290  1.00  0.00     0.000 C 
HETATM   28  C11 UNL     1      -3.591  -3.902  -1.671  1.00  0.00     0.000 C 
HETATM   29  C12 UNL     1      -2.148  -3.542  -1.907  1.00  0.00     0.000 C 
HETATM   30  C13 UNL     1      -1.875  -2.101  -1.574  1.00  0.00     0.005 C 
ENDBRANCH  24  25
ENDBRANCH  23  24
BRANCH  23  31
HETATM   31  C14 UNL     1      -1.829   1.476  -0.057  1.00  0.00     0.137 C 
BRANCH  31  32
HETATM   32  O1  UNL     1      -1.076   2.435  -0.634  1.00  0.00    -0.348 OA
ATOM     33  H1  UNL     1      -1.627   3.191  -0.799  1.00  0.00     0.219 HD
ENDBRANCH  31  32
BRANCH  31  34
HETATM   34  N2  UNL     1      -3.136   1.890   0.116  1.00  0.00    -0.354 N 
HETATM   35  C15 UNL     1      -4.243   1.336   0.855  1.00  0.00     0.130 C 
HETATM   36  C16 UNL     1      -5.372   1.692  -0.043  1.00  0.00     0.010 A 
HETATM   37  C17 UNL     1      -6.320   2.732  -0.098  1.00  0.00     0.014 A 
HETATM   38  C18 UNL     1      -5.014   3.230   0.110  1.00  0.00     0.019 A 
HETATM   39  C19 UNL     1      -3.732   3.101  -0.559  1.00  0.00     0.031 C 
HETATM   40  C20 UNL     1      -3.758   2.905  -2.035  1.00  0.00     0.038 C 
HETATM   41  C21 UNL     1      -2.814   4.250  -0.237  1.00  0.00     0.038 C 
ENDBRANCH  31  34
ENDBRANCH  23  31
ENDBRANCH   1  23
TORSDOF 14
