REMARK  14 active torsions:
REMARK  status: ('A' for Active; 'I' for Inactive)
REMARK       I    between atoms: C2_2  and  N1_4 
REMARK    1  A    between atoms: N1_4  and  C4_6 
REMARK    2  A    between atoms: C4_6  and  C5_7 
REMARK    3  A    between atoms: C4_6  and  C26_38 
REMARK       I    between atoms: C5_7  and  N2_9 
REMARK    4  A    between atoms: N2_9  and  C6_11 
REMARK    5  A    between atoms: C6_11  and  C7_12 
REMARK    6  A    between atoms: C6_11  and  C14_19 
REMARK    7  A    between atoms: C7_12  and  C8_13 
REMARK    8  A    between atoms: C14_19  and  O3_20 
REMARK    9  A    between atoms: C14_19  and  C15_22 
REMARK   10  A    between atoms: C15_22  and  O4_23 
REMARK   11  A    between atoms: C15_22  and  C16_25 
REMARK       I    between atoms: C16_25  and  N3_27 
REMARK   12  A    between atoms: N3_27  and  C17_29 
REMARK   13  A    between atoms: C17_29  and  C19_31 
REMARK   14  A    between atoms: C19_31  and  C20_32 
ROOT
HETATM    1  C6  UNL     1      -0.918  -2.157   0.003  1.00  0.00     0.116 C 
ENDROOT
BRANCH   1   2
HETATM    2  N2  UNL     1      -1.321  -0.878  -0.458  1.00  0.00    -0.352 N 
HETATM    3  C5  UNL     1      -2.032   0.104   0.207  1.00  0.00     0.241 C 
HETATM    4  O2  UNL     1      -2.376  -0.122   1.437  1.00  0.00    -0.271 OA
ATOM      5  H2  UNL     1      -1.048  -0.650  -1.414  1.00  0.00     0.163 HD
BRANCH   3   6
HETATM    6  C4  UNL     1      -2.498   1.430  -0.229  1.00  0.00     0.182 C 
BRANCH   6   7
HETATM    7  N1  UNL     1      -2.130   2.333   0.868  1.00  0.00    -0.343 N 
HETATM    8  C2  UNL     1      -3.173   2.913   1.612  1.00  0.00     0.216 C 
HETATM    9  C1  UNL     1      -4.612   2.637   1.323  1.00  0.00     0.117 C 
HETATM   10  O1  UNL     1      -2.862   3.702   2.567  1.00  0.00    -0.274 OA
HETATM   11  C3  UNL     1      -0.788   2.665   1.229  1.00  0.00     0.153 C 
ENDBRANCH   6   7
BRANCH   6  12
HETATM   12  C26 UNL     1      -2.001   1.830  -1.539  1.00  0.00     0.018 C 
HETATM   13  C27 UNL     1      -2.508   0.901  -2.608  1.00  0.00     0.007 C 
HETATM   14  C28 UNL     1      -3.548   1.705  -3.404  1.00  0.00     0.000 C 
HETATM   15  C29 UNL     1      -2.860   3.054  -3.438  1.00  0.00     0.000 C 
HETATM   16  C30 UNL     1      -2.381   3.200  -2.006  1.00  0.00     0.007 C 
ENDBRANCH   6  12
ENDBRANCH   3   6
ENDBRANCH   1   2
BRANCH   1  17
HETATM   17  C7  UNL     1      -1.828  -2.845   0.992  1.00  0.00     0.032 C 
BRANCH  17  18
HETATM   18  C8  UNL     1      -3.203  -3.110   0.432  1.00  0.00    -0.013 C 
HETATM   19  C9  UNL     1      -3.070  -4.008  -0.779  1.00  0.00     0.005 C 
HETATM   20  C10 UNL     1      -4.369  -4.655  -1.173  1.00  0.00     0.000 C 
HETATM   21  C11 UNL     1      -5.564  -4.043  -0.468  1.00  0.00     0.000 C 
HETATM   22  C12 UNL     1      -5.365  -4.288   1.002  1.00  0.00     0.000 C 
HETATM   23  C13 UNL     1      -4.104  -3.685   1.501  1.00  0.00     0.005 C 
ENDBRANCH  17  18
ENDBRANCH   1  17
BRANCH   1  24
HETATM   24  C14 UNL     1       0.502  -2.193   0.472  1.00  0.00     0.178 C 
BRANCH  24  25
HETATM   25  O3  UNL     1       0.845  -3.479   0.940  1.00  0.00    -0.390 OA
ATOM     26  H3  UNL     1       1.747  -3.502   1.238  1.00  0.00     0.210 HD
ENDBRANCH  24  25
BRANCH  24  27
HETATM   27  C15 UNL     1       1.515  -1.799  -0.549  1.00  0.00     0.240 C 
BRANCH  27  28
HETATM   28  O4  UNL     1       1.339  -0.541  -1.098  1.00  0.00    -0.383 OA
ATOM     29  H4  UNL     1       1.984  -0.290  -1.748  1.00  0.00     0.210 HD
ENDBRANCH  27  28
BRANCH  27  30
HETATM   30  C16 UNL     1       2.903  -1.876  -0.008  1.00  0.00     0.249 C 
HETATM   31  O5  UNL     1       3.255  -2.918   0.587  1.00  0.00    -0.271 OA
HETATM   32  N3  UNL     1       3.816  -0.817  -0.150  1.00  0.00    -0.355 N 
ATOM     33  H3  UNL     1       3.527   0.031  -0.637  1.00  0.00     0.162 HD
BRANCH  32  34
HETATM   34  C17 UNL     1       5.150  -0.908   0.379  1.00  0.00     0.080 C 
HETATM   35  C18 UNL     1       6.193  -0.949  -0.714  1.00  0.00     0.032 C 
BRANCH  34  36
HETATM   36  C19 UNL     1       5.457  -0.016   1.517  1.00  0.00     0.029 C 
BRANCH  36  37
HETATM   37  C20 UNL     1       5.350   1.437   1.391  1.00  0.00    -0.013 C 
HETATM   38  C21 UNL     1       6.210   2.104   0.357  1.00  0.00     0.005 C 
HETATM   39  C22 UNL     1       5.822   3.585   0.205  1.00  0.00     0.000 C 
HETATM   40  C23 UNL     1       5.359   4.105   1.527  1.00  0.00     0.000 C 
HETATM   41  C24 UNL     1       4.071   3.428   1.950  1.00  0.00     0.000 C 
HETATM   42  C25 UNL     1       3.964   2.024   1.325  1.00  0.00     0.005 C 
ENDBRANCH  36  37
ENDBRANCH  34  36
ENDBRANCH  32  34
ENDBRANCH  27  30
ENDBRANCH  24  27
ENDBRANCH   1  24
TORSDOF 14
