REMARK  4 active torsions:
REMARK  status: ('A' for Active; 'I' for Inactive)
REMARK    1  A    between atoms: N1_1  and  N2_4 
REMARK    2  A    between atoms: N3_6  and  C1_8 
REMARK    3  A    between atoms: C1_8  and  O1_9 
REMARK    4  A    between atoms: C3_12  and  O2_13 
ROOT
HETATM    1  C1  UNL     1       0.290  -0.767   0.051  1.00  0.00     0.267 C 
HETATM    2  C2  UNL     1      -0.393   0.170   1.012  1.00  0.00     0.156 C 
HETATM    3  C3  UNL     1      -1.216   0.407  -0.244  1.00  0.00     0.269 C 
HETATM    4  O3  UNL     1      -0.040   0.147  -0.971  1.00  0.00    -0.306 OA
ENDROOT
BRANCH   1   5
HETATM    5  N3  UNL     1       1.721  -0.877   0.197  1.00  0.00    -0.264 N 
HETATM    6  N2  UNL     1       2.454   0.057  -0.180  1.00  0.00    -0.249 N 
ATOM      7  H2  UNL     1       2.538  -0.090  -1.186  1.00  0.00     0.207 HD
ATOM      8  H3  UNL     1       2.131  -1.716   0.607  1.00  0.00     0.187 HD
BRANCH   6   9
HETATM    9  N1  UNL     1       3.138   1.077   0.030  1.00  0.00    -0.331 N 
ATOM     10  H12 UNL     1       3.030   1.191   1.038  1.00  0.00     0.178 HD
ATOM     11  H11 UNL     1       3.738   1.842  -0.279  1.00  0.00     0.178 HD
ENDBRANCH   6   9
ENDBRANCH   1   5
BRANCH   1  12
HETATM   12  O1  UNL     1      -0.349  -1.969  -0.179  1.00  0.00    -0.347 OA
ATOM     13  H1  UNL     1      -1.291  -1.897  -0.275  1.00  0.00     0.215 HD
ENDBRANCH   1  12
BRANCH   3  14
HETATM   14  O2  UNL     1      -1.693   1.689  -0.332  1.00  0.00    -0.371 OA
ATOM     15  H2  UNL     1      -2.207   1.837  -1.117  1.00  0.00     0.212 HD
ENDBRANCH   3  14
TORSDOF 4
