REMARK  0 active torsions:
REMARK  status: ('A' for Active; 'I' for Inactive)
ROOT
HETATM    1  C1  UNL     1      -1.720   1.130  -0.452  1.00  0.00     0.093 C 
HETATM    2  C2  UNL     1      -0.657   0.117  -0.142  1.00  0.00     0.229 C 
HETATM    3  S1  UNL     1      -1.471  -1.420   0.380  1.00  0.00    -0.024 SA
HETATM    4  O1  UNL     1       0.084  -0.222  -1.294  1.00  0.00    -0.338 OA
HETATM    5  C3  UNL     1       1.143  -0.912  -0.701  1.00  0.00     0.256 C 
HETATM    6  C4  UNL     1       1.499   0.013   0.407  1.00  0.00     0.140 C 
HETATM    7  N1  UNL     1       2.680   0.220   0.866  1.00  0.00    -0.382 N 
ATOM      8  H11 UNL     1       2.924   0.855   1.626  1.00  0.00     0.158 HD
ATOM      9  H12 UNL     1       3.571  -0.186   0.580  1.00  0.00     0.158 HD
HETATM   10  O2  UNL     1       0.280   0.569   0.799  1.00  0.00    -0.290 OA
ENDROOT
TORSDOF 0
