REMARK  2 active torsions:
REMARK  status: ('A' for Active; 'I' for Inactive)
REMARK    1  A    between atoms: C4_6  and  O3_7 
REMARK    2  A    between atoms: N1_9  and  O4_10 
ROOT
HETATM    1  C1  UNL     1      -0.889  -0.386  -1.158  1.00  0.00     0.069 C 
HETATM    2  C2  UNL     1      -0.538  -0.156   0.294  1.00  0.00     0.171 C 
HETATM    3  C3  UNL     1      -1.737   0.434   0.976  1.00  0.00     0.069 C 
HETATM    4  O1  UNL     1      -0.077  -1.313   0.848  1.00  0.00    -0.208 OA
HETATM    5  O2  UNL     1       1.141  -1.135   1.274  1.00  0.00    -0.187 OA
HETATM    6  C4  UNL     1       1.697  -0.127   0.451  1.00  0.00     0.403 C 
HETATM    7  N1  UNL     1       0.578   0.798   0.408  1.00  0.00    -0.107 NA
ENDROOT
BRANCH   7   8
HETATM    8  O4  UNL     1       0.625   1.654  -0.602  1.00  0.00    -0.306 OA
ATOM      9  H4  UNL     1       1.345   2.269  -0.528  1.00  0.00     0.237 HD
ENDBRANCH   7   8
BRANCH   6  10
HETATM   10  O3  UNL     1       1.899  -0.752  -0.792  1.00  0.00    -0.355 OA
ATOM     11  H3  UNL     1       2.272  -0.075  -1.345  1.00  0.00     0.214 HD
ENDBRANCH   6  10
TORSDOF 2
