REMARK  16 active torsions:
REMARK  status: ('A' for Active; 'I' for Inactive)
REMARK    1  A    between atoms: O1_2  and  C2_3 
REMARK    2  A    between atoms: C2_3  and  O2_4 
REMARK    3  A    between atoms: C2_3  and  C3_6 
REMARK    4  A    between atoms: C3_6  and  O3_7 
REMARK    5  A    between atoms: C3_6  and  C4_9 
REMARK    6  A    between atoms: C5_11  and  O5_12 
REMARK       I    between atoms: N1_19  and  C10_21 
REMARK    7  A    between atoms: C10_21  and  C11_23 
REMARK    8  A    between atoms: C15_29  and  C16_30 
REMARK    9  A    between atoms: C15_29  and  C19_39 
REMARK   10  A    between atoms: C16_30  and  O8_31 
REMARK   11  A    between atoms: O8_31  and  S2_32 
REMARK   12  A    between atoms: S2_32  and  C17_35 
REMARK   13  A    between atoms: C17_35  and  C18_36 
REMARK   14  A    between atoms: C20_42  and  C21_43 
REMARK   15  A    between atoms: C21_43  and  O15_44 
REMARK   16  A    between atoms: C21_43  and  O16_46 
ROOT
HETATM    1  C4  UNL     1      -5.561   0.565   0.382  1.00  0.00     0.105 A 
HETATM    2  O4  UNL     1      -6.552  -0.065   1.003  1.00  0.00    -0.288 OA
HETATM    3  C5  UNL     1      -6.118  -0.885   1.910  1.00  0.00     0.201 A 
HETATM    4  C6  UNL     1      -4.743  -0.835   1.936  1.00  0.00     0.114 A 
HETATM    5  C7  UNL     1      -4.413   0.100   0.949  1.00  0.00     0.070 A 
HETATM    6  C8  UNL     1      -3.067   0.518   0.579  1.00  0.00     0.211 C 
HETATM    7  O6  UNL     1      -3.029   1.481  -0.193  1.00  0.00    -0.285 OA
HETATM    8  C9  UNL     1      -1.778  -0.058   1.005  1.00  0.00     0.098 C 
HETATM    9  N1  UNL     1      -0.802   0.709   0.873  1.00  0.00    -0.324 N 
ATOM     10  H1  UNL     1      -1.053   1.619   0.487  1.00  0.00     0.169 HD
HETATM   11  C10 UNL     1       0.551   0.582   1.141  1.00  0.00     0.231 C 
HETATM   12  O7  UNL     1       0.935   0.235   2.293  1.00  0.00    -0.273 OA
HETATM   13  C20 UNL     1      -1.613  -1.419   1.552  1.00  0.00     0.240 C 
HETATM   14  O17 UNL     1      -2.446  -1.641   2.679  1.00  0.00    -0.300 OA
HETATM   15  C22 UNL     1      -3.825  -1.576   2.785  1.00  0.00     0.300 C 
HETATM   16  O18 UNL     1      -4.407  -2.214   3.709  1.00  0.00    -0.259 OA
ENDROOT
BRANCH  13  17
HETATM   17  C21 UNL     1      -2.075  -2.409   0.498  1.00  0.00     0.289 C 
BRANCH  17  18
HETATM   18  O15 UNL     1      -1.947  -3.729   0.926  1.00  0.00    -0.368 OA
ATOM     19  H15 UNL     1      -2.236  -4.349   0.266  1.00  0.00     0.212 HD
ENDBRANCH  17  18
BRANCH  17  20
HETATM   20  O16 UNL     1      -1.511  -2.176  -0.750  1.00  0.00    -0.368 OA
ATOM     21  H16 UNL     1      -1.800  -2.796  -1.410  1.00  0.00     0.212 HD
ENDBRANCH  17  20
ENDBRANCH  13  17
BRANCH  11  22
HETATM   22  C11 UNL     1       1.547   0.855   0.076  1.00  0.00     0.150 C 
HETATM   23  C12 UNL     1       2.993   0.811   0.556  1.00  0.00     0.293 C 
HETATM   24  N2  UNL     1       3.119  -0.467  -0.051  1.00  0.00     0.128 N 
HETATM   25  C13 UNL     1       1.872  -0.387  -0.739  1.00  0.00     0.300 C 
HETATM   26  C15 UNL     1       4.174  -0.768  -0.916  1.00  0.00     0.278 C 
HETATM   27  S1  UNL     1       2.335   0.148  -2.433  1.00  0.00    -0.129 SA
HETATM   28  C14 UNL     1       4.148   0.159  -2.111  1.00  0.00     0.132 C 
BRANCH  26  29
HETATM   29  C16 UNL     1       5.497  -0.481  -0.189  1.00  0.00     0.244 C 
BRANCH  29  30
HETATM   30  O8  UNL     1       6.492  -0.799  -1.098  1.00  0.00    -0.272 OA
BRANCH  30  31
HETATM   31  S2  UNL     1       7.973  -0.530  -0.407  1.00  0.00     0.275 S 
HETATM   32  O9  UNL     1       8.993  -0.475  -1.520  1.00  0.00    -0.198 OA
HETATM   33  O10 UNL     1       8.325  -1.651   0.524  1.00  0.00    -0.198 OA
BRANCH  31  34
HETATM   34  C17 UNL     1       7.991   1.030   0.402  1.00  0.00     0.283 C 
BRANCH  34  35
HETATM   35  C18 UNL     1       9.304   1.318   1.039  1.00  0.00     0.189 C 
HETATM   36  O11 UNL     1       9.498   0.962   2.233  1.00  0.00    -0.647 OA
HETATM   37  O12 UNL     1      10.291   1.963   0.332  1.00  0.00    -0.647 OA
ENDBRANCH  34  35
ENDBRANCH  31  34
ENDBRANCH  30  31
ENDBRANCH  29  30
ENDBRANCH  26  29
BRANCH  26  38
HETATM   38  C19 UNL     1       4.168  -2.176  -1.318  1.00  0.00     0.216 C 
HETATM   39  O13 UNL     1       3.269  -2.935  -0.890  1.00  0.00    -0.646 OA
HETATM   40  O14 UNL     1       5.123  -2.732  -2.165  1.00  0.00    -0.646 OA
ENDBRANCH  26  38
ENDBRANCH  11  22
BRANCH   1  41
HETATM   41  C3  UNL     1      -5.744   1.558  -0.698  1.00  0.00     0.231 C 
BRANCH  41  42
HETATM   42  C2  UNL     1      -7.221   1.794  -0.982  1.00  0.00     0.291 C 
BRANCH  42  43
HETATM   43  O1  UNL     1      -7.299   2.633  -2.083  1.00  0.00    -0.363 OA
HETATM   44  C1  UNL     1      -8.120   3.723  -1.729  1.00  0.00     0.204 C 
ENDBRANCH  42  43
BRANCH  42  45
HETATM   45  O2  UNL     1      -7.743   0.558  -1.370  1.00  0.00    -0.368 OA
ATOM     46  H2  UNL     1      -7.690  -0.017  -0.616  1.00  0.00     0.212 HD
ENDBRANCH  42  45
ENDBRANCH  41  42
BRANCH  41  47
HETATM   47  O3  UNL     1      -5.272   0.963  -1.878  1.00  0.00    -0.384 OA
ATOM     48  H3  UNL     1      -4.350   0.816  -1.701  1.00  0.00     0.210 HD
ENDBRANCH  41  47
ENDBRANCH   1  41
BRANCH   3  49
HETATM   49  O5  UNL     1      -6.851  -1.717   2.764  1.00  0.00    -0.340 OA
ATOM     50  H5  UNL     1      -6.533  -2.317   3.428  1.00  0.00     0.220 HD
ENDBRANCH   3  49
TORSDOF 16
