REMARK  5 active torsions:
REMARK  status: ('A' for Active; 'I' for Inactive)
REMARK    1  A    between atoms: C2_2  and  N1_3 
REMARK    2  A    between atoms: C2_2  and  C4_9 
REMARK    3  A    between atoms: N1_3  and  C3_5 
REMARK    4  A    between atoms: C3_5  and  O1_6 
REMARK       I    between atoms: C4_9  and  N2_11 
REMARK    5  A    between atoms: C17_30  and  S2_31 
ROOT
HETATM    1  C4  UNL     1       2.015  -0.307  -1.028  1.00  0.00     0.243 C 
HETATM    2  O2  UNL     1       2.219  -0.921  -2.125  1.00  0.00    -0.271 OA
HETATM    3  N2  UNL     1       0.757  -0.513  -0.412  1.00  0.00    -0.322 N 
HETATM    4  C5  UNL     1       0.541   0.235   0.830  1.00  0.00     0.156 C 
HETATM    5  C6  UNL     1      -0.641  -0.119   1.651  1.00  0.00     0.086 C 
HETATM    6 BR1  UNL     1      -0.105  -1.032   3.313  1.00  0.00    -0.076 Br
HETATM    7  C7  UNL     1      -1.244   1.143   2.178  1.00  0.00     0.062 A 
HETATM    8  N3  UNL     1      -0.603   2.265   2.629  1.00  0.00    -0.308 N 
ATOM      9  H3  UNL     1       0.403   2.426   2.581  1.00  0.00     0.170 HD
HETATM   10  C8  UNL     1      -1.504   3.125   3.147  1.00  0.00     0.325 A 
HETATM   11  O3  UNL     1      -1.343   4.250   3.660  1.00  0.00    -0.247 OA
HETATM   12  N4  UNL     1      -2.742   2.558   3.029  1.00  0.00    -0.307 N 
ATOM     13  H4  UNL     1      -3.631   2.958   3.329  1.00  0.00     0.170 HD
HETATM   14  C9  UNL     1      -2.550   1.362   2.436  1.00  0.00     0.060 A 
HETATM   15  C10 UNL     1      -3.548   0.410   1.959  1.00  0.00     0.028 C 
HETATM   16  C11 UNL     1      -3.094  -0.601   1.277  1.00  0.00    -0.017 C 
HETATM   17  C12 UNL     1      -1.701  -0.891   0.916  1.00  0.00     0.043 C 
HETATM   18  C13 UNL     1      -1.503  -0.478  -0.493  1.00  0.00     0.054 A 
HETATM   19  C14 UNL     1      -1.379  -1.019  -1.778  1.00  0.00     0.003 A 
HETATM   20  C15 UNL     1      -0.919  -0.149  -2.965  1.00  0.00     0.019 C 
HETATM   21  C16 UNL     1      -2.465  -1.940  -2.208  1.00  0.00     0.019 C 
HETATM   22  C17 UNL     1      -0.297  -1.347  -0.868  1.00  0.00     0.170 A 
ENDROOT
BRANCH   1  23
HETATM   23  C2  UNL     1       3.116   0.519  -0.571  1.00  0.00     0.172 C 
HETATM   24  C1  UNL     1       2.834   1.973  -0.330  1.00  0.00     0.042 C 
BRANCH  23  25
HETATM   25  N1  UNL     1       4.285   0.453  -1.430  1.00  0.00    -0.349 N 
ATOM     26  H1  UNL     1       4.172   0.020  -2.347  1.00  0.00     0.163 HD
BRANCH  25  27
HETATM   27  C3  UNL     1       5.562   0.941  -1.094  1.00  0.00     0.208 C 
HETATM   28  S1  UNL     1       6.803   0.830  -2.104  1.00  0.00    -0.033 SA
BRANCH  27  29
HETATM   29  O1  UNL     1       5.728   1.529   0.150  1.00  0.00    -0.338 OA
ATOM     30  H1  UNL     1       6.590   1.858   0.377  1.00  0.00     0.220 HD
ENDBRANCH  27  29
ENDBRANCH  25  27
ENDBRANCH  23  25
ENDBRANCH   1  23
BRANCH  22  31
HETATM   31  S2  UNL     1      -0.090  -3.024  -0.687  1.00  0.00     0.132 S 
HETATM   32  O4  UNL     1       1.184  -3.419  -1.455  1.00  0.00    -0.593 OA
HETATM   33  O5  UNL     1      -1.118  -3.917  -1.338  1.00  0.00    -0.593 OA
HETATM   34  O6  UNL     1       0.146  -3.668   0.824  1.00  0.00    -0.593 OA
ENDBRANCH  22  31
TORSDOF 5
