REMARK  2 active torsions:
REMARK  status: ('A' for Active; 'I' for Inactive)
REMARK    1  A    between atoms: C7_13  and  C8_14 
REMARK    2  A    between atoms: C19_32  and  C20_33 
ROOT
HETATM    1  C1  UNL     1      -1.324  -3.584  -2.709  1.00  0.00     0.042 C 
HETATM    2  C2  UNL     1      -1.085  -2.837  -1.371  1.00  0.00     0.172 C 
HETATM    3  N1  UNL     1      -0.086  -3.517  -0.602  1.00  0.00    -0.346 N 
ATOM      4  H1  UNL     1       0.278  -4.367  -1.033  1.00  0.00     0.163 HD
HETATM    5  C3  UNL     1       0.468  -3.211   0.632  1.00  0.00     0.240 C 
HETATM    6  O1  UNL     1       0.335  -4.075   1.581  1.00  0.00    -0.271 OA
HETATM    7  C4  UNL     1       1.221  -2.012   1.068  1.00  0.00     0.172 C 
HETATM    8  C5  UNL     1       0.674  -1.482   2.395  1.00  0.00     0.042 C 
HETATM    9  N2  UNL     1       1.279  -0.950   0.094  1.00  0.00    -0.347 N 
ATOM     10  H2  UNL     1       0.392  -0.526  -0.178  1.00  0.00     0.163 HD
HETATM   11  C6  UNL     1       2.450  -0.437  -0.524  1.00  0.00     0.231 C 
HETATM   12  O2  UNL     1       2.506  -0.448  -1.782  1.00  0.00    -0.273 OA
HETATM   13  C7  UNL     1       3.629   0.119   0.181  1.00  0.00     0.172 C 
HETATM   14  C11 UNL     1       3.341   1.561   0.372  1.00  0.00     0.164 C 
HETATM   15  O3  UNL     1       4.255   2.350   0.271  1.00  0.00    -0.295 OA
HETATM   16  C12 UNL     1       1.978   2.046   0.680  1.00  0.00     0.151 C 
HETATM   17  C13 UNL     1       2.153   3.267   1.598  1.00  0.00     0.040 C 
HETATM   18  N3  UNL     1       1.256   2.429  -0.512  1.00  0.00    -0.348 N 
ATOM     19  H3  UNL     1       1.764   2.328  -1.391  1.00  0.00     0.163 HD
HETATM   20  C14 UNL     1      -0.039   2.916  -0.614  1.00  0.00     0.240 C 
HETATM   21  O4  UNL     1      -0.193   3.957  -1.357  1.00  0.00    -0.271 OA
HETATM   22  C15 UNL     1      -1.264   2.358   0.046  1.00  0.00     0.174 C 
HETATM   23  C16 UNL     1      -1.992   3.587   0.634  1.00  0.00     0.042 C 
HETATM   24  N4  UNL     1      -2.130   1.704  -0.923  1.00  0.00    -0.342 N 
HETATM   25  C17 UNL     1      -1.969   2.167  -2.312  1.00  0.00     0.153 C 
HETATM   26  C18 UNL     1      -3.076   0.707  -0.641  1.00  0.00     0.243 C 
HETATM   27  O5  UNL     1      -4.226   0.849  -1.195  1.00  0.00    -0.271 OA
HETATM   28  C19 UNL     1      -2.930  -0.497   0.212  1.00  0.00     0.180 C 
HETATM   29  N5  UNL     1      -3.256  -1.712  -0.528  1.00  0.00    -0.346 N 
ATOM     30  H5  UNL     1      -4.192  -1.757  -0.930  1.00  0.00     0.163 HD
HETATM   31  C23 UNL     1      -2.436  -2.819  -0.750  1.00  0.00     0.240 C 
HETATM   32  O6  UNL     1      -2.875  -3.965  -0.387  1.00  0.00    -0.271 OA
ENDROOT
BRANCH  13  33
HETATM   33  C8  UNL     1       4.919  -0.150  -0.517  1.00  0.00     0.049 C 
HETATM   34  C9  UNL     1       5.074  -1.665  -0.610  1.00  0.00     0.033 C 
HETATM   35  C10 UNL     1       5.050   0.415  -1.879  1.00  0.00     0.033 C 
HETATM   36 CL1  UNL     1       6.268   0.437   0.484  1.00  0.00    -0.119 Cl
ENDBRANCH  13  33
BRANCH  28  37
HETATM   37  C20 UNL     1      -3.807  -0.483   1.447  1.00  0.00     0.009 C 
HETATM   38  C21 UNL     1      -5.276  -0.392   1.167  1.00  0.00     0.012 C 
HETATM   39  C22 UNL     1      -3.353   0.489   2.505  1.00  0.00     0.012 C 
ENDBRANCH  28  37
TORSDOF 2
