REMARK  1 active torsions:
REMARK  status: ('A' for Active; 'I' for Inactive)
REMARK    1  A    between atoms: C11_13  and  C12_14 
ROOT
HETATM    1  C1  UNL     1      -4.031   3.948   1.446  1.00  0.00     0.070 C 
HETATM    2  C2  UNL     1      -3.963   2.470   1.226  1.00  0.00     0.029 A 
HETATM    3  C3  UNL     1      -2.922   1.967   0.521  1.00  0.00     0.062 A 
HETATM    4 BR1  UNL     1      -1.680   3.280  -0.093  1.00  0.00    -0.046 Br
HETATM    5  C4  UNL     1      -2.768   0.556   0.234  1.00  0.00     0.078 A 
HETATM    6  C5  UNL     1      -1.733  -0.010  -0.342  1.00  0.00     0.038 C 
HETATM    7  C6  UNL     1      -0.594   0.856  -0.720  1.00  0.00     0.076 C 
HETATM    8  C7  UNL     1       0.633   0.007  -1.176  1.00  0.00     0.079 C 
HETATM    9  S1  UNL     1       1.890   1.117  -1.734  1.00  0.00    -0.150 SA
HETATM   10  C8  UNL     1       3.315   1.328  -0.703  1.00  0.00     0.031 C 
HETATM   11  C9  UNL     1       3.196   2.707  -0.037  1.00  0.00     0.029 C 
HETATM   12  C10 UNL     1       4.581   1.394  -1.571  1.00  0.00     0.029 C 
HETATM   13  C11 UNL     1       3.542   0.333   0.375  1.00  0.00     0.197 C 
HETATM   14  N1  UNL     1       3.477  -1.038   0.034  1.00  0.00    -0.393 N 
ATOM     15  H1  UNL     1       4.293  -1.633   0.174  1.00  0.00     0.155 HD
HETATM   16  C13 UNL     1       2.308  -1.582  -0.491  1.00  0.00     0.195 C 
HETATM   17  C14 UNL     1       1.692  -2.680   0.314  1.00  0.00     0.246 C 
HETATM   18  O3  UNL     1       2.155  -3.639   0.958  1.00  0.00    -0.271 OA
HETATM   19  N2  UNL     1       0.433  -2.118  -0.005  1.00  0.00    -0.316 N 
HETATM   20  C15 UNL     1       1.095  -0.824  -0.015  1.00  0.00     0.135 C 
HETATM   21  C16 UNL     1      -0.928  -2.498  -0.243  1.00  0.00     0.103 C 
HETATM   22  C17 UNL     1      -0.951  -3.501  -1.386  1.00  0.00     0.063 C 
HETATM   23  C18 UNL     1      -1.422  -3.251   0.980  1.00  0.00     0.063 C 
HETATM   24  N3  UNL     1      -1.805  -1.416  -0.636  1.00  0.00    -0.360 N 
HETATM   25  C19 UNL     1      -2.940  -1.789  -1.498  1.00  0.00     0.152 C 
HETATM   26  N4  UNL     1      -3.847  -0.250   0.784  1.00  0.00    -0.306 N 
ATOM     27  H4  UNL     1      -3.814  -1.257   0.628  1.00  0.00     0.171 HD
HETATM   28  C20 UNL     1      -4.934   0.265   1.517  1.00  0.00     0.325 A 
HETATM   29  O4  UNL     1      -5.859  -0.442   1.984  1.00  0.00    -0.247 OA
HETATM   30  N5  UNL     1      -4.988   1.650   1.739  1.00  0.00    -0.311 N 
ATOM     31  H5  UNL     1      -5.760   2.058   2.266  1.00  0.00     0.170 HD
ENDROOT
BRANCH  13  32
HETATM   32  C12 UNL     1       4.901   0.569   0.930  1.00  0.00     0.198 C 
HETATM   33  O1  UNL     1       5.764  -0.326   1.033  1.00  0.00    -0.646 OA
HETATM   34  O2  UNL     1       5.220   1.842   1.350  1.00  0.00    -0.646 OA
ENDBRANCH  13  32
TORSDOF 1
