REMARK  16 active torsions:
REMARK  status: ('A' for Active; 'I' for Inactive)
REMARK    1  A    between atoms: O1_2  and  C2_3 
REMARK    2  A    between atoms: C2_3  and  C4_6 
REMARK    3  A    between atoms: C4_6  and  C5_8 
REMARK    4  A    between atoms: C6_9  and  C7_10 
REMARK    5  A    between atoms: C7_10  and  S1_11 
REMARK    6  A    between atoms: S1_11  and  C8_12 
REMARK    7  A    between atoms: C12_22  and  C13_23 
REMARK    8  A    between atoms: C15_29  and  C16_30 
REMARK    9  A    between atoms: C16_30  and  N5_31 
REMARK   10  A    between atoms: C17_36  and  C18_37 
REMARK   11  A    between atoms: C18_37  and  C19_39 
REMARK   12  A    between atoms: C19_39  and  N8_40 
REMARK   13  A    between atoms: C19_39  and  C20_44 
REMARK   14  A    between atoms: C20_44  and  S4_45 
REMARK   15  A    between atoms: S4_45  and  N9_46 
REMARK   16  A    between atoms: C21_51  and  O8_52 
ROOT
HETATM    1  C2  UNL     1       2.371   2.480   2.065  1.00  0.00     0.195 C 
HETATM    2  C3  UNL     1       3.338   2.970   3.092  1.00  0.00     0.129 C 
HETATM    3  N1  UNL     1       4.103   3.335   3.882  1.00  0.00    -0.189 NA
ENDROOT
BRANCH   1   4
HETATM    4  O1  UNL     1       2.439   3.297   0.995  1.00  0.00    -0.343 OA
HETATM    5  C1  UNL     1       1.412   4.230   0.872  1.00  0.00     0.211 C 
ENDBRANCH   1   4
BRANCH   1   6
HETATM    6  C4  UNL     1       2.328   1.044   1.919  1.00  0.00     0.198 C 
HETATM    7  O2  UNL     1       2.471   0.451   3.036  1.00  0.00    -0.289 OA
BRANCH   6   8
HETATM    8  C5  UNL     1       2.146   0.181   0.739  1.00  0.00     0.078 C 
HETATM    9  C6  UNL     1       3.160   0.392  -0.301  1.00  0.00     0.041 C 
HETATM   10  C11 UNL     1       3.214  -0.603  -1.392  1.00  0.00     0.156 C 
HETATM   11  N4  UNL     1       2.281  -0.315  -2.445  1.00  0.00    -0.393 N 
HETATM   12  S3  UNL     1       2.771  -2.294  -0.818  1.00  0.00    -0.071 SA
HETATM   13  C12 UNL     1       1.007   0.166  -2.125  1.00  0.00     0.195 C 
ATOM     14  H4  UNL     1       2.545  -0.460  -3.419  1.00  0.00     0.155 HD
HETATM   15  C14 UNL     1       0.330  -0.410  -0.900  1.00  0.00     0.098 C 
HETATM   16  S2  UNL     1       0.651  -2.184  -0.732  1.00  0.00    -0.088 SA
HETATM   17  C15 UNL     1       0.712   0.344   0.309  1.00  0.00     0.035 C 
BRANCH   9  18
HETATM   18  C7  UNL     1       4.521   0.533   0.310  1.00  0.00     0.090 C 
BRANCH  18  19
HETATM   19  S1  UNL     1       5.128  -0.830   1.274  1.00  0.00    -0.094 SA
BRANCH  19  20
HETATM   20  C8  UNL     1       5.890  -2.168   0.411  1.00  0.00     0.136 C 
HETATM   21  N2  UNL     1       6.418  -2.261  -0.765  1.00  0.00    -0.369 N 
HETATM   22  C9  UNL     1       6.927  -3.563  -1.058  1.00  0.00     0.141 C 
ATOM     23  H2  UNL     1       6.466  -1.481  -1.420  1.00  0.00     0.161 HD
HETATM   24  C10 UNL     1       6.311  -4.465   0.026  1.00  0.00     0.141 C 
HETATM   25  N3  UNL     1       6.097  -3.442   1.057  1.00  0.00    -0.369 N 
ATOM     26  H3  UNL     1       6.095  -3.605   2.064  1.00  0.00     0.161 HD
ENDBRANCH  19  20
ENDBRANCH  18  19
ENDBRANCH   9  18
BRANCH  13  27
HETATM   27  C13 UNL     1       0.128   0.008  -3.327  1.00  0.00     0.197 C 
HETATM   28  O3  UNL     1       0.521  -0.481  -4.415  1.00  0.00    -0.646 OA
HETATM   29  O4  UNL     1      -1.194   0.420  -3.251  1.00  0.00    -0.646 OA
ENDBRANCH  13  27
BRANCH  17  30
HETATM   30  C16 UNL     1      -0.166   0.122   1.499  1.00  0.00     0.159 C 
BRANCH  30  31
HETATM   31  N5  UNL     1      -1.563   0.272   1.323  1.00  0.00    -0.254 N 
HETATM   32  N6  UNL     1      -2.163   1.451   1.330  1.00  0.00    -0.238 N 
HETATM   33  N7  UNL     1      -3.446   1.292   1.110  1.00  0.00    -0.279 N 
ATOM     34  H6  UNL     1      -1.699   2.346   1.483  1.00  0.00     0.208 HD
HETATM   35  C17 UNL     1      -3.718  -0.006   0.953  1.00  0.00     0.150 A 
ATOM     36  H7  UNL     1      -4.132   2.045   1.066  1.00  0.00     0.189 HD
HETATM   37  C21 UNL     1      -2.488  -0.641   1.096  1.00  0.00     0.191 A 
BRANCH  35  38
HETATM   38  C18 UNL     1      -4.999  -0.645   0.691  1.00  0.00     0.212 C 
HETATM   39  O5  UNL     1      -5.071  -1.888   0.574  1.00  0.00    -0.288 OA
BRANCH  38  40
HETATM   40  C19 UNL     1      -6.262   0.115   0.552  1.00  0.00     0.274 C 
BRANCH  40  41
HETATM   41  N8  UNL     1      -5.984   1.510   0.710  1.00  0.00    -0.067 N 
ATOM     42  H83 UNL     1      -5.502   1.714   1.585  1.00  0.00     0.275 HD
ATOM     43  H82 UNL     1      -5.261   1.837   0.070  1.00  0.00     0.275 HD
ATOM     44  H81 UNL     1      -6.854   2.034   0.614  1.00  0.00     0.275 HD
ENDBRANCH  40  41
BRANCH  40  45
HETATM   45  C20 UNL     1      -6.850  -0.201  -0.818  1.00  0.00     0.204 C 
BRANCH  45  46
HETATM   46  S4  UNL     1      -8.372   0.658  -1.097  1.00  0.00     0.226 S 
HETATM   47  O6  UNL     1      -8.867   0.231  -2.461  1.00  0.00    -0.206 OA
HETATM   48  O7  UNL     1      -8.114   2.125  -1.097  1.00  0.00    -0.206 OA
BRANCH  46  49
HETATM   49  N9  UNL     1      -9.548   0.214   0.094  1.00  0.00    -0.328 N 
ATOM     50  H92 UNL     1      -9.372  -0.452   0.846  1.00  0.00     0.168 HD
ATOM     51  H91 UNL     1     -10.425   0.709  -0.067  1.00  0.00     0.168 HD
ENDBRANCH  46  49
ENDBRANCH  45  46
ENDBRANCH  40  45
ENDBRANCH  38  40
ENDBRANCH  35  38
BRANCH  37  52
HETATM   52  O8  UNL     1      -2.404  -2.029   0.993  1.00  0.00    -0.343 OA
ATOM     53  H8  UNL     1      -3.070  -2.686   0.830  1.00  0.00     0.219 HD
ENDBRANCH  37  52
ENDBRANCH  30  31
ENDBRANCH  17  30
ENDBRANCH   6   8
ENDBRANCH   1   6
TORSDOF 16
