REMARK  16 active torsions:
REMARK  status: ('A' for Active; 'I' for Inactive)
REMARK    1  A    between atoms: O1_2  and  C2_3 
REMARK    2  A    between atoms: C2_3  and  C3_5 
REMARK    3  A    between atoms: C3_5  and  C15_46 
REMARK       I    between atoms: N1_6  and  C4_8 
REMARK       I    between atoms: C4_8  and  N2_10 
REMARK    4  A    between atoms: N2_10  and  C5_12 
REMARK    5  A    between atoms: C5_12  and  C6_13 
REMARK    6  A    between atoms: C6_13  and  N5_27 
REMARK    7  A    between atoms: N3_14  and  O4_16 
REMARK    8  A    between atoms: O4_16  and  S1_17 
REMARK    9  A    between atoms: S1_17  and  C7_20 
REMARK   10  A    between atoms: N5_27  and  N6_29 
REMARK       I    between atoms: N7_32  and  C13_33 
REMARK   11  A    between atoms: C14_40  and  N11_41 
REMARK   12  A    between atoms: N11_41  and  N12_43 
REMARK   13  A    between atoms: C15_46  and  O11_48 
REMARK   14  A    between atoms: O11_48  and  C16_49 
REMARK   15  A    between atoms: C16_49  and  C17_50 
REMARK   16  A    between atoms: C19_52  and  N13_53 
ROOT
HETATM    1  C6  UNL     1      -1.809  -0.316   0.073  1.00  0.00     0.135 C 
HETATM    2  N3  UNL     1      -2.419  -1.438  -0.081  1.00  0.00    -0.234 N 
ATOM      3  H3  UNL     1      -2.138  -2.200   0.536  1.00  0.00     0.197 HD
ENDROOT
BRANCH   1   4
HETATM    4  C5  UNL     1      -0.764  -0.189   1.103  1.00  0.00     0.204 C 
BRANCH   4   5
HETATM    5  N2  UNL     1       0.495   0.198   0.478  1.00  0.00    -0.336 N 
HETATM    6  C4  UNL     1       1.663   0.384   1.257  1.00  0.00     0.321 C 
HETATM    7  N1  UNL     1       2.910   0.753   0.751  1.00  0.00    -0.299 N 
HETATM    8  O3  UNL     1       1.586   0.205   2.520  1.00  0.00    -0.247 OA
HETATM    9  C3  UNL     1       3.838   0.004   0.327  1.00  0.00     0.188 C 
ATOM     10  H1  UNL     1       3.098   1.755   0.719  1.00  0.00     0.171 HD
ATOM     11  H2  UNL     1       0.535   0.336  -0.532  1.00  0.00     0.164 HD
BRANCH   9  12
HETATM   12  C2  UNL     1       3.680  -1.434   0.327  1.00  0.00     0.316 C 
HETATM   13  O2  UNL     1       2.612  -1.927   0.753  1.00  0.00    -0.257 OA
BRANCH  12  14
HETATM   14  O1  UNL     1       4.664  -2.291  -0.125  1.00  0.00    -0.321 OA
HETATM   15  C1  UNL     1       4.541  -3.701  -0.139  1.00  0.00     0.213 C 
ENDBRANCH  12  14
ENDBRANCH   9  12
BRANCH   9  16
HETATM   16  C15 UNL     1       5.116   0.535  -0.182  1.00  0.00     0.316 C 
HETATM   17  O10 UNL     1       5.292   1.780  -0.196  1.00  0.00    -0.257 OA
BRANCH  16  18
HETATM   18  O11 UNL     1       6.123  -0.270  -0.642  1.00  0.00    -0.310 OA
BRANCH  18  19
HETATM   19  C16 UNL     1       7.354   0.158  -1.134  1.00  0.00     0.238 C 
BRANCH  19  20
HETATM   20  C17 UNL     1       8.149   0.921  -0.144  1.00  0.00     0.061 A 
HETATM   21  C18 UNL     1       9.296   1.638  -0.403  1.00  0.00     0.087 A 
HETATM   22  C19 UNL     1       9.730   2.201   0.804  1.00  0.00     0.166 A 
HETATM   23  O12 UNL     1       8.867   1.816   1.691  1.00  0.00    -0.220 OA
HETATM   24  N14 UNL     1       7.929   1.067   1.171  1.00  0.00    -0.261 N 
ATOM     25  H14 UNL     1       7.150   0.657   1.686  1.00  0.00     0.194 HD
BRANCH  22  26
HETATM   26  N13 UNL     1      10.778   2.944   0.962  1.00  0.00    -0.378 N 
ATOM     27 2H13 UNL     1      11.457   3.247   0.264  1.00  0.00     0.158 HD
ATOM     28 1H13 UNL     1      11.094   3.354   1.841  1.00  0.00     0.158 HD
ENDBRANCH  22  26
ENDBRANCH  19  20
ENDBRANCH  18  19
ENDBRANCH  16  18
ENDBRANCH   9  16
ENDBRANCH   4   5
ENDBRANCH   1   4
BRANCH   1  29
HETATM   29  N5  UNL     1      -2.144   0.788  -0.748  1.00  0.00    -0.270 N 
ATOM     30  H5  UNL     1      -1.829   0.772  -1.718  1.00  0.00     0.189 HD
BRANCH  29  31
HETATM   31  N6  UNL     1      -2.880   1.903  -0.317  1.00  0.00    -0.118 N 
HETATM   32  C11 UNL     1      -2.426   2.626   0.838  1.00  0.00     0.190 C 
HETATM   33  C12 UNL     1      -2.848   4.081   0.844  1.00  0.00     0.175 C 
HETATM   34  N7  UNL     1      -4.141   4.276   0.251  1.00  0.00    -0.249 N 
HETATM   35  C13 UNL     1      -4.930   5.373   0.692  1.00  0.00     0.203 C 
HETATM   36  N10 UNL     1      -4.663   3.445  -0.739  1.00  0.00    -0.124 N 
HETATM   37  N8  UNL     1      -5.669   5.305   1.739  1.00  0.00    -0.372 N 
HETATM   38  N9  UNL     1      -4.896   6.578  -0.053  1.00  0.00    -0.062 NA
ATOM     39  H82 UNL     1      -5.693   4.438   2.275  1.00  0.00     0.158 HD
ATOM     40  H81 UNL     1      -6.235   6.092   2.055  1.00  0.00     0.158 HD
HETATM   41  C14 UNL     1      -4.054   2.339  -0.986  1.00  0.00     0.733 C 
ATOM     42  H10 UNL     1      -5.504   3.706  -1.253  1.00  0.00     0.206 HD
BRANCH  41  43
HETATM   43  N11 UNL     1      -4.574   1.462  -2.006  1.00  0.00    -0.069 N 
ATOM     44  H11 UNL     1      -4.077   1.332  -2.887  1.00  0.00     0.212 HD
BRANCH  43  45
HETATM   45  N12 UNL     1      -5.788   0.789  -1.753  1.00  0.00    -0.024 N 
HETATM   46  O8  UNL     1      -6.582   0.481  -2.659  1.00  0.00    -0.516 OA
HETATM   47  O9  UNL     1      -6.070   0.477  -0.431  1.00  0.00    -0.516 OA
ENDBRANCH  43  45
ENDBRANCH  41  43
ENDBRANCH  29  31
ENDBRANCH   1  29
BRANCH   2  48
HETATM   48  O4  UNL     1      -3.395  -1.713  -0.977  1.00  0.00    -0.144 OA
BRANCH  48  49
HETATM   49  S1  UNL     1      -3.598  -3.182  -1.774  1.00  0.00     0.342 S 
HETATM   50  O5  UNL     1      -4.596  -2.964  -2.886  1.00  0.00    -0.189 OA
HETATM   51  O6  UNL     1      -2.300  -3.707  -2.339  1.00  0.00    -0.189 OA
BRANCH  49  52
HETATM   52  C7  UNL     1      -4.218  -4.374  -0.651  1.00  0.00     0.216 A 
HETATM   53  C8  UNL     1      -4.504  -4.177   0.676  1.00  0.00     0.142 A 
HETATM   54  N4  UNL     1      -4.961  -5.335   1.206  1.00  0.00    -0.347 N 
HETATM   55  C9  UNL     1      -4.949  -6.227   0.194  1.00  0.00     0.121 A 
ATOM     56  H4  UNL     1      -5.253  -5.499   2.169  1.00  0.00     0.167 HD
HETATM   57  C10 UNL     1      -5.382  -7.650   0.346  1.00  0.00     0.098 C 
HETATM   58  O7  UNL     1      -4.506  -5.636  -0.893  1.00  0.00    -0.283 OA
ENDBRANCH  49  52
ENDBRANCH  48  49
ENDBRANCH   2  48
TORSDOF 16
