REMARK  5 active torsions:
REMARK  status: ('A' for Active; 'I' for Inactive)
REMARK    1  A    between atoms: C2_2  and  C4_4 
REMARK    2  A    between atoms: C4_4  and  N1_5 
REMARK    3  A    between atoms: C7_8  and  C9_10 
REMARK    4  A    between atoms: C14_15  and  O1_16 
REMARK    5  A    between atoms: C14_15  and  O2_18 
ROOT
HETATM    1  C9  UNL     1      -0.329  -0.235  -0.482  1.00  0.00     0.018 C 
HETATM    2  C10 UNL     1      -0.602   1.224  -0.582  1.00  0.00    -0.025 C 
HETATM    3  C11 UNL     1      -1.700   1.896  -0.927  1.00  0.00    -0.025 C 
HETATM    4  C12 UNL     1      -3.043   1.365  -1.337  1.00  0.00     0.018 C 
HETATM    5  C13 UNL     1      -4.080   2.158  -0.568  1.00  0.00     0.077 C 
HETATM    6  C14 UNL     1      -5.131   1.147  -0.166  1.00  0.00     0.167 C 
HETATM    7  C15 UNL     1      -4.505  -0.203  -0.190  1.00  0.00     0.017 C 
HETATM    8  C16 UNL     1      -5.334  -1.306  -0.806  1.00  0.00     0.021 C 
HETATM    9  C17 UNL     1      -3.796  -0.667   1.048  1.00  0.00     0.020 C 
HETATM   10  C18 UNL     1      -2.530  -0.078   0.533  1.00  0.00    -0.007 C 
HETATM   11  C19 UNL     1      -1.338  -0.963   0.387  1.00  0.00     0.014 C 
HETATM   12  C20 UNL     1      -3.186  -0.037  -0.855  1.00  0.00     0.011 C 
ENDROOT
BRANCH   1  13
HETATM   13  C7  UNL     1       1.031  -0.393   0.160  1.00  0.00    -0.009 C 
HETATM   14  C6  UNL     1       1.442  -1.843   0.316  1.00  0.00     0.041 C 
HETATM   15  C5  UNL     1       2.963  -1.663   0.424  1.00  0.00     0.273 C 
HETATM   16  N1  UNL     1       3.273  -0.660  -0.555  1.00  0.00     0.089 N 
HETATM   17  C21 UNL     1       2.068   0.128  -0.779  1.00  0.00     0.282 C 
HETATM   18  C8  UNL     1       1.027   0.269   1.510  1.00  0.00     0.018 C 
BRANCH  16  19
HETATM   19  C4  UNL     1       4.310   0.244  -0.164  1.00  0.00     0.276 C 
BRANCH  19  20
HETATM   20  C2  UNL     1       5.671  -0.367  -0.063  1.00  0.00     0.006 C 
HETATM   21  C1  UNL     1       6.158  -0.958  -1.356  1.00  0.00     0.011 C 
HETATM   22  C3  UNL     1       6.634   0.767   0.314  1.00  0.00     0.011 C 
ENDBRANCH  19  20
ENDBRANCH  16  19
ENDBRANCH   1  13
BRANCH   6  23
HETATM   23  O1  UNL     1      -5.727   1.470   1.055  1.00  0.00    -0.365 OA
ATOM     24  H1  UNL     1      -6.387   0.835   1.307  1.00  0.00     0.213 HD
ENDBRANCH   6  23
BRANCH   6  25
HETATM   25  O2  UNL     1      -6.104   1.171  -1.193  1.00  0.00    -0.365 OA
ATOM     26  H2  UNL     1      -6.764   0.536  -0.941  1.00  0.00     0.213 HD
ENDBRANCH   6  25
TORSDOF 5
