REMARK  4 active torsions:
REMARK  status: ('A' for Active; 'I' for Inactive)
REMARK    1  A    between atoms: C7_7  and  N1_8 
REMARK    2  A    between atoms: N1_8  and  C8_10 
REMARK    3  A    between atoms: C8_10  and  C17_21 
REMARK    4  A    between atoms: N2_11  and  C9_13 
ROOT
HETATM    1  C8  UNL     1      -0.580   0.200   0.099  1.00  0.00     0.108 C 
HETATM    2  N2  UNL     1       0.121  -0.729  -0.284  1.00  0.00    -0.351 N 
ATOM      3  H2  UNL     1      -0.444  -1.540  -0.536  1.00  0.00     0.166 HD
ENDROOT
BRANCH   1   4
HETATM    4  N1  UNL     1      -2.012   0.038   0.142  1.00  0.00    -0.372 N 
ATOM      5  H1  UNL     1      -2.478   0.002   1.048  1.00  0.00     0.161 HD
BRANCH   4   6
HETATM    6  C7  UNL     1      -2.795  -0.073  -1.041  1.00  0.00     0.086 C 
HETATM    7  C2  UNL     1      -4.262  -0.257  -0.757  1.00  0.00     0.004 C 
HETATM    8  C1  UNL     1      -4.869   0.856   0.035  1.00  0.00     0.012 C 
HETATM    9  C3  UNL     1      -4.546  -1.565  -0.059  1.00  0.00     0.006 C 
HETATM   10  C4  UNL     1      -3.366  -2.506  -0.054  1.00  0.00     0.001 C 
HETATM   11  C5  UNL     1      -2.632  -2.542  -1.362  1.00  0.00     0.002 C 
HETATM   12  C6  UNL     1      -2.389  -1.199  -1.965  1.00  0.00     0.025 C 
ENDBRANCH   4   6
ENDBRANCH   1   4
BRANCH   1  13
HETATM   13  C17 UNL     1      -0.078   1.513   0.534  1.00  0.00     0.214 C 
HETATM   14  C18 UNL     1      -0.459   1.835   1.966  1.00  0.00     0.272 C 
HETATM   15  N3  UNL     1       0.441   2.868   2.432  1.00  0.00    -0.070 N 
HETATM   16  C19 UNL     1       0.535   3.866   1.376  1.00  0.00     0.258 C 
ATOM     17  H32 UNL     1       0.165   3.263   3.331  1.00  0.00     0.277 HD
ATOM     18  H31 UNL     1       1.350   2.506   2.721  1.00  0.00     0.277 HD
HETATM   19  C20 UNL     1      -0.649   3.746   0.431  1.00  0.00     0.196 C 
HETATM   20  O1  UNL     1      -0.647   2.549  -0.248  1.00  0.00    -0.375 OA
ENDBRANCH   1  13
BRANCH   2  21
HETATM   21  C9  UNL     1       1.506  -0.986  -0.473  1.00  0.00    -0.012 C 
HETATM   22  C10 UNL     1       2.291   0.048  -1.187  1.00  0.00     0.052 C 
HETATM   23  C11 UNL     1       3.219  -0.610  -2.181  1.00  0.00     0.006 C 
HETATM   24  C12 UNL     1       4.606  -0.596  -1.631  1.00  0.00     0.000 C 
HETATM   25  C13 UNL     1       4.794  -1.445  -0.398  1.00  0.00     0.000 C 
HETATM   26  C14 UNL     1       4.572  -0.742   0.885  1.00  0.00     0.000 C 
HETATM   27  C15 UNL     1       3.192  -0.683   1.394  1.00  0.00     0.006 C 
HETATM   28  C16 UNL     1       2.184  -1.554   0.753  1.00  0.00     0.052 C 
ENDBRANCH   2  21
TORSDOF 4
