REMARK  5 active torsions:
REMARK  status: ('A' for Active; 'I' for Inactive)
REMARK    1  A    between atoms: C2_2  and  C3_3 
REMARK    2  A    between atoms: C3_3  and  C4_4 
REMARK    3  A    between atoms: C4_4  and  O1_6 
REMARK    4  A    between atoms: C4_4  and  C6_8 
REMARK    5  A    between atoms: C11_13  and  O2_14 
ROOT
HETATM    1  C6  UNL     1       1.409  -0.285  -0.179  1.00  0.00     0.028 C 
HETATM    2  C7  UNL     1       1.780  -1.734   0.033  1.00  0.00     0.009 C 
HETATM    3  C8  UNL     1       0.468  -2.440  -0.017  1.00  0.00     0.006 C 
HETATM    4  C9  UNL     1      -0.584  -1.422  -0.453  1.00  0.00     0.001 C 
HETATM    5  C10 UNL     1      -1.303  -0.962   0.723  1.00  0.00     0.028 C 
HETATM    6  C11 UNL     1      -2.425  -1.951   1.075  1.00  0.00     0.124 C 
HETATM    7  C12 UNL     1      -3.299  -0.778   1.352  1.00  0.00     0.042 C 
HETATM    8  C13 UNL     1      -2.261   0.114   0.662  1.00  0.00    -0.021 C 
HETATM    9  C14 UNL     1      -2.024   1.319   1.569  1.00  0.00     0.088 C 
HETATM   10  C15 UNL     1      -3.001   2.289   1.072  1.00  0.00     0.128 C 
HETATM   11  O3  UNL     1      -3.607   3.132   1.731  1.00  0.00    -0.298 OA
HETATM   12  C16 UNL     1      -3.128   2.069  -0.387  1.00  0.00     0.083 C 
HETATM   13  C17 UNL     1      -2.770   0.598  -0.620  1.00  0.00     0.002 C 
HETATM   14  C18 UNL     1      -1.868   0.536  -1.790  1.00  0.00     0.006 C 
HETATM   15  C19 UNL     1      -0.431   0.872  -1.453  1.00  0.00     0.010 C 
HETATM   16  C20 UNL     1       0.286  -0.389  -1.153  1.00  0.00    -0.034 C 
HETATM   17  C21 UNL     1       0.673  -1.037  -2.474  1.00  0.00     0.016 C 
ENDROOT
BRANCH   1  18
HETATM   18  C4  UNL     1       2.520   0.602  -0.495  1.00  0.00     0.061 C 
HETATM   19  C5  UNL     1       3.308   0.285  -1.733  1.00  0.00     0.046 C 
BRANCH  18  20
HETATM   20  C3  UNL     1       3.527   0.563   0.659  1.00  0.00     0.064 C 
BRANCH  20  21
HETATM   21  C2  UNL     1       2.936   0.853   1.966  1.00  0.00    -0.034 C 
HETATM   22  C1  UNL     1       3.361   1.889   2.669  1.00  0.00     0.007 C 
ENDBRANCH  20  21
ENDBRANCH  18  20
BRANCH  18  23
HETATM   23  O1  UNL     1       2.091   1.915  -0.587  1.00  0.00    -0.390 OA
ATOM     24  H1  UNL     1       1.467   1.939  -1.303  1.00  0.00     0.210 HD
ENDBRANCH  18  23
ENDBRANCH   1  18
BRANCH   6  25
HETATM   25  O2  UNL     1      -2.139  -2.798   2.117  1.00  0.00    -0.395 OA
ATOM     26  H2  UNL     1      -2.833  -3.409   2.335  1.00  0.00     0.210 HD
ENDBRANCH   6  25
TORSDOF 5
