REMARK  4 active torsions:
REMARK  status: ('A' for Active; 'I' for Inactive)
REMARK    1  A    between atoms: C15_15  and  C16_16 
REMARK    2  A    between atoms: C16_16  and  C17_18 
REMARK    3  A    between atoms: C17_18  and  O2_19 
REMARK    4  A    between atoms: C20_23  and  O3_25 
ROOT
HETATM    1  C1  UNL     1      -3.555   1.098   1.470  1.00  0.00     0.010 C 
HETATM    2  C2  UNL     1      -3.575  -0.094   0.595  1.00  0.00    -0.014 C 
HETATM    3  C3  UNL     1      -4.450   0.143  -0.621  1.00  0.00     0.005 C 
HETATM    4  C4  UNL     1      -3.672  -0.012  -1.916  1.00  0.00     0.001 C 
HETATM    5  C5  UNL     1      -2.391   0.810  -1.700  1.00  0.00     0.008 C 
HETATM    6  C6  UNL     1      -1.474  -0.019  -0.808  1.00  0.00     0.024 C 
HETATM    7  C7  UNL     1      -2.236  -0.685   0.227  1.00  0.00    -0.004 C 
HETATM    8  C8  UNL     1      -1.526  -1.077   1.497  1.00  0.00     0.006 C 
HETATM    9  C9  UNL     1      -0.369  -2.005   1.264  1.00  0.00     0.006 C 
HETATM   10  C10 UNL     1       0.630  -1.499   0.270  1.00  0.00    -0.003 C 
HETATM   11  C11 UNL     1       2.035  -2.045   0.573  1.00  0.00    -0.009 C 
HETATM   12  C12 UNL     1       2.671  -1.362   1.733  1.00  0.00     0.005 C 
HETATM   13  C13 UNL     1       2.807   0.138   1.573  1.00  0.00     0.006 C 
HETATM   14  C14 UNL     1       2.188   0.436   0.180  1.00  0.00     0.004 C 
HETATM   15  C15 UNL     1       3.060  -0.323  -0.754  1.00  0.00     0.062 C 
HETATM   16  C18 UNL     1       2.787  -1.836  -0.728  1.00  0.00     0.017 C 
HETATM   17  C19 UNL     1       0.759  -0.004   0.316  1.00  0.00     0.029 C 
HETATM   18  C20 UNL     1      -0.243   0.760  -0.472  1.00  0.00     0.062 C 
HETATM   19  C21 UNL     1      -0.494   2.070   0.242  1.00  0.00     0.046 C 
ENDROOT
BRANCH  15  20
HETATM   20  C16 UNL     1       3.220   0.185  -2.111  1.00  0.00     0.154 C 
HETATM   21  O1  UNL     1       2.849  -0.487  -3.054  1.00  0.00    -0.295 OA
BRANCH  20  22
HETATM   22  C17 UNL     1       3.829   1.507  -2.350  1.00  0.00     0.242 C 
BRANCH  22  23
HETATM   23  O2  UNL     1       4.272   2.122  -1.185  1.00  0.00    -0.394 OA
ATOM     24  H2  UNL     1       4.664   2.973  -1.339  1.00  0.00     0.209 HD
ENDBRANCH  22  23
ENDBRANCH  20  22
ENDBRANCH  15  20
BRANCH  18  25
HETATM   25  O3  UNL     1       0.247   1.190  -1.736  1.00  0.00    -0.389 OA
ATOM     26  H3  UNL     1       1.029   1.685  -1.522  1.00  0.00     0.210 HD
ENDBRANCH  18  25
TORSDOF 4
