REMARK  13 active torsions:
REMARK  status: ('A' for Active; 'I' for Inactive)
REMARK    1  A    between atoms: C2_2  and  N1_3 
REMARK       I    between atoms: N1_3  and  C3_5 
REMARK    2  A    between atoms: C3_5  and  C4_7 
REMARK    3  A    between atoms: C5_9  and  O3_10 
REMARK    4  A    between atoms: O3_10  and  C6_11 
REMARK    5  A    between atoms: C7_12  and  O4_13 
REMARK    6  A    between atoms: C8_15  and  S1_16 
REMARK    7  A    between atoms: S1_16  and  C9_17 
REMARK    8  A    between atoms: C14_22  and  O5_23 
REMARK    9  A    between atoms: C15_25  and  N2_26 
REMARK   10  A    between atoms: N2_26  and  N3_28 
REMARK   11  A    between atoms: C16_33  and  O6_34 
REMARK   12  A    between atoms: C17_36  and  O7_37 
REMARK   13  A    between atoms: C18_39  and  O8_40 
ROOT
HETATM    1  C6  UNL     1       0.498   0.359  -0.429  1.00  0.00     0.181 C 
HETATM    2  C7  UNL     1       1.828   0.097   0.229  1.00  0.00     0.165 C 
HETATM    3  C8  UNL     1       2.781   0.047  -0.973  1.00  0.00     0.110 C 
HETATM    4  C14 UNL     1       1.966  -0.829  -1.915  1.00  0.00     0.161 C 
HETATM    5  C15 UNL     1       0.616  -0.146  -1.859  1.00  0.00     0.162 C 
ENDROOT
BRANCH   1   6
HETATM    6  O3  UNL     1      -0.559  -0.288   0.158  1.00  0.00    -0.348 OA
BRANCH   6   7
HETATM    7  C5  UNL     1      -1.588   0.558   0.546  1.00  0.00     0.292 C 
HETATM    8  O2  UNL     1      -2.728   0.198  -0.201  1.00  0.00    -0.341 OA
HETATM    9  C4  UNL     1      -3.840   0.758   0.419  1.00  0.00     0.247 C 
HETATM   10  C18 UNL     1      -4.212  -0.145   1.578  1.00  0.00     0.188 C 
HETATM   11  C17 UNL     1      -2.933  -0.763   2.086  1.00  0.00     0.183 C 
HETATM   12  C16 UNL     1      -1.851   0.284   2.012  1.00  0.00     0.204 C 
BRANCH   9  13
HETATM   13  C3  UNL     1      -5.008   0.825  -0.489  1.00  0.00     0.249 C 
HETATM   14  N1  UNL     1      -4.982   0.367  -1.829  1.00  0.00    -0.359 N 
ATOM     15  H1  UNL     1      -4.129  -0.035  -2.217  1.00  0.00     0.162 HD
HETATM   16  O1  UNL     1      -6.070   1.313  -0.043  1.00  0.00    -0.271 OA
BRANCH  14  17
HETATM   17  C2  UNL     1      -6.176   0.473  -2.646  1.00  0.00     0.118 C 
HETATM   18  C1  UNL     1      -7.337  -0.298  -2.058  1.00  0.00     0.026 C 
ENDBRANCH  14  17
ENDBRANCH   9  13
BRANCH  10  19
HETATM   19  O8  UNL     1      -4.994  -1.175   1.064  1.00  0.00    -0.390 OA
ATOM     20  H8  UNL     1      -5.227  -1.741   1.790  1.00  0.00     0.210 HD
ENDBRANCH  10  19
BRANCH  11  21
HETATM   21  O7  UNL     1      -3.052  -1.357   3.317  1.00  0.00    -0.390 OA
ATOM     22  H7  UNL     1      -3.734  -2.017   3.364  1.00  0.00     0.210 HD
ENDBRANCH  11  21
BRANCH  12  23
HETATM   23  O6  UNL     1      -2.179   1.439   2.709  1.00  0.00    -0.388 OA
ATOM     24  H6  UNL     1      -2.344   1.267   3.629  1.00  0.00     0.210 HD
ENDBRANCH  12  23
ENDBRANCH   6   7
ENDBRANCH   1   6
BRANCH   2  25
HETATM   25  O4  UNL     1       1.905  -1.135   0.847  1.00  0.00    -0.392 OA
ATOM     26  H4  UNL     1       2.744  -1.300   1.262  1.00  0.00     0.210 HD
ENDBRANCH   2  25
BRANCH   5  27
HETATM   27  N2  UNL     1      -0.393  -1.126  -2.162  1.00  0.00    -0.313 N 
ATOM     28  H2  UNL     1      -1.349  -0.816  -2.336  1.00  0.00     0.182 HD
BRANCH  27  29
HETATM   29  N3  UNL     1      -0.136  -2.317  -2.217  1.00  0.00    -0.253 N 
HETATM   30  N4  UNL     1      -0.035  -3.454  -2.718  1.00  0.00    -0.331 N 
ATOM     31  H42 UNL     1      -0.386  -3.234  -3.650  1.00  0.00     0.178 HD
ATOM     32  H41 UNL     1       0.180  -4.450  -2.764  1.00  0.00     0.178 HD
ATOM     33  H3  UNL     1       0.208  -2.488  -1.272  1.00  0.00     0.207 HD
ENDBRANCH  27  29
ENDBRANCH   5  27
BRANCH   3  34
HETATM   34  S1  UNL     1       4.334  -0.782  -0.542  1.00  0.00    -0.154 SA
BRANCH  34  35
HETATM   35  C9  UNL     1       5.281   0.149   0.663  1.00  0.00     0.048 C 
HETATM   36  C10 UNL     1       6.562  -0.646   0.939  1.00  0.00     0.015 C 
HETATM   37  C11 UNL     1       7.450   0.368   1.582  1.00  0.00     0.001 C 
HETATM   38  C12 UNL     1       7.154   1.661   0.848  1.00  0.00     0.001 C 
HETATM   39  C13 UNL     1       5.817   1.448   0.148  1.00  0.00     0.015 C 
ENDBRANCH  34  35
ENDBRANCH   3  34
BRANCH   4  40
HETATM   40  O5  UNL     1       2.498  -0.889  -3.179  1.00  0.00    -0.392 OA
ATOM     41  H5  UNL     1       1.990  -1.435  -3.767  1.00  0.00     0.210 HD
ENDBRANCH   4  40
TORSDOF 13
