REMARK  13 active torsions:
REMARK  status: ('A' for Active; 'I' for Inactive)
REMARK    1  A    between atoms: C2_2  and  C3_3 
REMARK    2  A    between atoms: C3_3  and  O1_4 
REMARK    3  A    between atoms: C3_3  and  C4_6 
REMARK    4  A    between atoms: C3_3  and  C6_8 
REMARK    5  A    between atoms: C6_8  and  O2_9 
REMARK    6  A    between atoms: C8_12  and  C9_13 
REMARK    7  A    between atoms: C9_13  and  O4_14 
REMARK    8  A    between atoms: C11_17  and  O5_18 
REMARK    9  A    between atoms: O5_18  and  C12_19 
REMARK   10  A    between atoms: C13_21  and  C14_22 
REMARK   11  A    between atoms: C14_22  and  O7_23 
REMARK   12  A    between atoms: C15_25  and  O8_26 
REMARK   13  A    between atoms: C21_34  and  O9_35 
ROOT
HETATM    1  C12 UNL     1       2.940   0.432  -0.027  1.00  0.00     0.266 C 
HETATM    2  O6  UNL     1       3.738   1.532  -0.185  1.00  0.00    -0.351 OA
HETATM    3  C13 UNL     1       5.034   1.428   0.185  1.00  0.00     0.178 C 
HETATM    4  C15 UNL     1       5.726   0.279  -0.477  1.00  0.00     0.167 C 
HETATM    5  C16 UNL     1       4.951  -0.988  -0.544  1.00  0.00     0.132 C 
HETATM    6  C17 UNL     1       5.357  -1.890   0.557  1.00  0.00     0.067 C 
HETATM    7  N1  UNL     1       5.677  -2.615   1.408  1.00  0.00    -0.197 NA
HETATM    8  C18 UNL     1       3.463  -0.831  -0.635  1.00  0.00     0.057 C 
HETATM    9  C19 UNL     1       3.024  -0.986  -2.095  1.00  0.00     0.016 C 
ENDROOT
BRANCH   4  10
HETATM   10  O8  UNL     1       6.983   0.023   0.077  1.00  0.00    -0.392 OA
ATOM     11  H8  UNL     1       7.423  -0.707  -0.343  1.00  0.00     0.210 HD
ENDBRANCH   4  10
BRANCH   3  12
HETATM   12  C14 UNL     1       5.292   1.544   1.666  1.00  0.00     0.198 C 
BRANCH  12  13
HETATM   13  O7  UNL     1       4.678   0.615   2.451  1.00  0.00    -0.398 OA
ATOM     14  H7  UNL     1       4.841   0.688   3.384  1.00  0.00     0.209 HD
ENDBRANCH  12  13
ENDBRANCH   3  12
BRANCH   1  15
HETATM   15  O5  UNL     1       1.736   0.729  -0.672  1.00  0.00    -0.355 OA
BRANCH  15  16
HETATM   16  C11 UNL     1       0.660   0.792   0.199  1.00  0.00     0.134 C 
HETATM   17  C10 UNL     1      -0.369  -0.204  -0.270  1.00  0.00     0.058 C 
HETATM   18  C8  UNL     1      -0.838  -1.015   0.911  1.00  0.00     0.156 C 
HETATM   19  C22 UNL     1      -1.567   0.526  -0.710  1.00  0.00     0.089 C 
HETATM   20  O3  UNL     1      -2.214  -1.112   0.775  1.00  0.00    -0.344 OA
HETATM   21  C6  UNL     1      -2.680   0.111   0.348  1.00  0.00     0.202 C 
HETATM   22  C21 UNL     1      -1.280   1.977  -0.675  1.00  0.00     0.130 C 
HETATM   23  C20 UNL     1      -0.028   2.122   0.180  1.00  0.00     0.065 C 
BRANCH  18  24
HETATM   24  C9  UNL     1      -0.217  -2.390   0.795  1.00  0.00     0.196 C 
BRANCH  24  25
HETATM   25  O4  UNL     1      -0.692  -3.256   1.777  1.00  0.00    -0.398 OA
ATOM     26  H4  UNL     1      -0.302  -4.119   1.704  1.00  0.00     0.209 HD
ENDBRANCH  24  25
ENDBRANCH  18  24
BRANCH  21  27
HETATM   27  C3  UNL     1      -3.952  -0.019  -0.399  1.00  0.00     0.114 C 
BRANCH  27  28
HETATM   28  C2  UNL     1      -5.181   0.184   0.576  1.00  0.00     0.039 C 
HETATM   29  C1  UNL     1      -6.448   0.004  -0.252  1.00  0.00     0.008 C 
ENDBRANCH  27  28
BRANCH  27  30
HETATM   30  O1  UNL     1      -4.205   1.037  -1.303  1.00  0.00    -0.384 OA
ATOM     31  H1  UNL     1      -3.467   0.915  -1.889  1.00  0.00     0.210 HD
ENDBRANCH  27  30
BRANCH  27  32
HETATM   32  C4  UNL     1      -4.249  -1.308  -1.060  1.00  0.00     0.039 C 
HETATM   33  C5  UNL     1      -3.298  -1.844  -2.072  1.00  0.00     0.008 C 
ENDBRANCH  27  32
ENDBRANCH  21  27
BRANCH  21  34
HETATM   34  O2  UNL     1      -2.594   1.035   1.300  1.00  0.00    -0.357 OA
HETATM   35  C7  UNL     1      -3.094   1.043   2.516  1.00  0.00     0.205 C 
ENDBRANCH  21  34
BRANCH  22  36
HETATM   36  O9  UNL     1      -2.208   2.824  -0.172  1.00  0.00    -0.395 OA
ATOM     37  H9  UNL     1      -2.989   2.734  -0.705  1.00  0.00     0.210 HD
ENDBRANCH  22  36
ENDBRANCH  15  16
ENDBRANCH   1  15
TORSDOF 13
