REMARK  13 active torsions:
REMARK  status: ('A' for Active; 'I' for Inactive)
REMARK    1  A    between atoms: N1_1  and  C1_5 
REMARK    2  A    between atoms: C1_5  and  C2_6 
REMARK    3  A    between atoms: C3_8  and  N2_9 
REMARK       I    between atoms: N2_9  and  C4_11 
REMARK    4  A    between atoms: C4_11  and  C5_13 
REMARK    5  A    between atoms: C8_16  and  O3_17 
REMARK    6  A    between atoms: O3_17  and  C9_18 
REMARK    7  A    between atoms: C10_19  and  C11_20 
REMARK    8  A    between atoms: C11_20  and  O4_21 
REMARK    9  A    between atoms: C12_24  and  S1_25 
REMARK   10  A    between atoms: S1_25  and  C13_26 
REMARK   11  A    between atoms: C18_31  and  O6_32 
REMARK   12  A    between atoms: C19_34  and  O7_35 
REMARK   13  A    between atoms: C20_37  and  O8_38 
ROOT
HETATM    1  C2  UNL     1      -4.173  -2.589   0.470  1.00  0.00     0.180 C 
HETATM    2  O1  UNL     1      -3.877  -1.264   0.706  1.00  0.00    -0.354 OA
HETATM    3  C3  UNL     1      -2.774  -0.781   0.012  1.00  0.00     0.255 C 
HETATM    4  C8  UNL     1      -1.517  -1.590   0.263  1.00  0.00     0.202 C 
HETATM    5  C19 UNL     1      -1.877  -2.510   1.437  1.00  0.00     0.182 C 
HETATM    6  C20 UNL     1      -3.032  -3.422   1.000  1.00  0.00     0.180 C 
ENDROOT
BRANCH   4   7
HETATM    7  O3  UNL     1      -0.525  -0.708   0.587  1.00  0.00    -0.368 OA
BRANCH   7   8
HETATM    8  C9  UNL     1       0.560  -0.642  -0.213  1.00  0.00     0.185 C 
HETATM    9  C10 UNL     1       1.011   0.652  -0.728  1.00  0.00     0.178 C 
HETATM   10  O5  UNL     1       2.403   0.692  -0.686  1.00  0.00    -0.363 OA
HETATM   11  C12 UNL     1       2.830  -0.157   0.296  1.00  0.00     0.215 C 
HETATM   12  C18 UNL     1       1.751  -1.174   0.574  1.00  0.00     0.188 C 
BRANCH   9  13
HETATM   13  C11 UNL     1       0.651   0.845  -2.193  1.00  0.00     0.198 C 
BRANCH  13  14
HETATM   14  O4  UNL     1       1.103   2.040  -2.704  1.00  0.00    -0.398 OA
ATOM     15  H4  UNL     1       0.878   2.161  -3.619  1.00  0.00     0.209 HD
ENDBRANCH  13  14
ENDBRANCH   9  13
BRANCH  11  16
HETATM   16  S1  UNL     1       4.348  -1.015   0.002  1.00  0.00    -0.130 SA
BRANCH  16  17
HETATM   17  C13 UNL     1       5.835  -0.031  -0.074  1.00  0.00     0.050 C 
HETATM   18  C14 UNL     1       6.219   0.625   1.219  1.00  0.00     0.015 C 
HETATM   19  C15 UNL     1       5.657   2.019   1.102  1.00  0.00     0.001 C 
HETATM   20  C16 UNL     1       5.550   2.318  -0.365  1.00  0.00     0.001 C 
HETATM   21  C17 UNL     1       5.867   1.051  -1.075  1.00  0.00     0.015 C 
ENDBRANCH  16  17
ENDBRANCH  11  16
BRANCH  12  22
HETATM   22  O6  UNL     1       1.491  -1.284   1.916  1.00  0.00    -0.389 OA
ATOM     23  H6  UNL     1       2.234  -1.616   2.407  1.00  0.00     0.210 HD
ENDBRANCH  12  22
ENDBRANCH   7   8
ENDBRANCH   4   7
BRANCH   3  24
HETATM   24  N2  UNL     1      -2.622   0.591   0.431  1.00  0.00    -0.332 N 
HETATM   25  C4  UNL     1      -2.858   1.644  -0.476  1.00  0.00     0.223 C 
HETATM   26  O2  UNL     1      -3.198   1.378  -1.646  1.00  0.00    -0.273 OA
ATOM     27  H2  UNL     1      -2.342   0.800   1.389  1.00  0.00     0.165 HD
BRANCH  25  28
HETATM   28  C5  UNL     1      -2.708   3.067  -0.059  1.00  0.00     0.078 A 
HETATM   29  C6  UNL     1      -3.840   4.019  -0.563  1.00  0.00     0.015 A 
HETATM   30  C7  UNL     1      -2.423   4.052  -1.121  1.00  0.00     0.015 A 
ENDBRANCH  25  28
ENDBRANCH   3  24
BRANCH   5  31
HETATM   31  O7  UNL     1      -2.346  -1.770   2.496  1.00  0.00    -0.390 OA
ATOM     32  H7  UNL     1      -2.569  -2.340   3.223  1.00  0.00     0.210 HD
ENDBRANCH   5  31
BRANCH   6  33
HETATM   33  O8  UNL     1      -3.439  -4.103   2.141  1.00  0.00    -0.390 OA
ATOM     34  H8  UNL     1      -2.721  -4.627   2.475  1.00  0.00     0.210 HD
ENDBRANCH   6  33
BRANCH   1  35
HETATM   35  C1  UNL     1      -4.376  -2.931  -0.985  1.00  0.00     0.264 C 
BRANCH  35  36
HETATM   36  N1  UNL     1      -5.454  -2.187  -1.582  1.00  0.00    -0.077 N 
ATOM     37  H13 UNL     1      -6.318  -2.305  -1.053  1.00  0.00     0.274 HD
ATOM     38  H12 UNL     1      -5.321  -1.184  -1.456  1.00  0.00     0.274 HD
ATOM     39  H11 UNL     1      -5.591  -2.418  -2.566  1.00  0.00     0.274 HD
ENDBRANCH  35  36
ENDBRANCH   1  35
TORSDOF 13
