REMARK  15 active torsions:
REMARK  status: ('A' for Active; 'I' for Inactive)
REMARK    1  A    between atoms: O1_1  and  C1_3 
REMARK    2  A    between atoms: C1_3  and  N1_4 
REMARK    3  A    between atoms: C1_3  and  N2_13 
REMARK    4  A    between atoms: C3_6  and  O2_7 
REMARK    5  A    between atoms: C4_9  and  O3_10 
REMARK    6  A    between atoms: C7_15  and  O4_16 
REMARK    7  A    between atoms: C8_18  and  O5_19 
REMARK    8  A    between atoms: C9_21  and  O6_22 
REMARK    9  A    between atoms: C10_24  and  C11_25 
REMARK   10  A    between atoms: C11_25  and  S1_26 
REMARK   11  A    between atoms: S1_26  and  S2_27 
REMARK   12  A    between atoms: S2_27  and  C12_28 
REMARK   13  A    between atoms: C12_28  and  C13_29 
REMARK   14  A    between atoms: C13_29  and  N3_30 
REMARK   15  A    between atoms: N3_30  and  C14_33 
ROOT
HETATM    1  N2  UNL     1      -2.230  -0.136   0.237  1.00  0.00    -0.337 N 
HETATM    2  C6  UNL     1      -3.076  -0.738   1.199  1.00  0.00     0.161 C 
HETATM    3  C7  UNL     1      -2.686  -2.151   1.605  1.00  0.00     0.167 C 
HETATM    4  C8  UNL     1      -1.670  -2.689   0.616  1.00  0.00     0.179 C 
HETATM    5  C9  UNL     1      -0.470  -1.746   0.578  1.00  0.00     0.173 C 
HETATM    6  C10 UNL     1      -0.790  -0.408   0.024  1.00  0.00     0.129 C 
ENDROOT
BRANCH   6   7
HETATM    7  C11 UNL     1      -0.017   0.658   0.733  1.00  0.00     0.114 C 
BRANCH   7   8
HETATM    8  S1  UNL     1       1.702   0.794   0.682  1.00  0.00    -0.096 SA
BRANCH   8   9
HETATM    9  S2  UNL     1       2.821  -0.660   1.614  1.00  0.00    -0.096 SA
BRANCH   9  10
HETATM   10  C12 UNL     1       3.314  -1.956   0.505  1.00  0.00     0.113 C 
BRANCH  10  11
HETATM   11  C13 UNL     1       4.294  -1.321  -0.507  1.00  0.00     0.243 C 
BRANCH  11  12
HETATM   12  N3  UNL     1       5.420  -0.796   0.257  1.00  0.00    -0.068 N 
ATOM     13  H32 UNL     1       5.120  -0.148   0.985  1.00  0.00     0.277 HD
ATOM     14  H31 UNL     1       5.841  -1.506   0.856  1.00  0.00     0.277 HD
BRANCH  12  15
HETATM   15  C14 UNL     1       6.374  -0.205  -0.628  1.00  0.00     0.211 C 
HETATM   16  C15 UNL     1       7.504   0.396   0.190  1.00  0.00     0.061 C 
HETATM   17  C16 UNL     1       7.752   1.689  -0.519  1.00  0.00     0.169 C 
HETATM   18  O7  UNL     1       6.672   2.007  -1.295  1.00  0.00    -0.389 OA
HETATM   19  C17 UNL     1       5.770   0.974  -1.327  1.00  0.00     0.200 C 
ENDBRANCH  12  15
ENDBRANCH  11  12
ENDBRANCH  10  11
ENDBRANCH   9  10
ENDBRANCH   8   9
ENDBRANCH   7   8
ENDBRANCH   6   7
BRANCH   1  20
HETATM   20  C1  UNL     1      -2.770   0.882  -0.608  1.00  0.00     0.217 C 
BRANCH  20  21
HETATM   21  O1  UNL     1      -1.942   1.263  -1.545  1.00  0.00    -0.332 OA
ATOM     22  H1  UNL     1      -1.084   0.859  -1.599  1.00  0.00     0.220 HD
ENDBRANCH  20  21
BRANCH  20  23
HETATM   23  N1  UNL     1      -4.024   1.473  -0.529  1.00  0.00    -0.343 N 
HETATM   24  C2  UNL     1      -4.416   2.476  -1.594  1.00  0.00     0.160 C 
HETATM   25  C3  UNL     1      -5.904   2.401  -1.678  1.00  0.00     0.166 C 
HETATM   26  C4  UNL     1      -6.267   1.269  -0.744  1.00  0.00     0.166 C 
HETATM   27  C5  UNL     1      -5.173   1.481   0.329  1.00  0.00     0.160 C 
BRANCH  25  28
HETATM   28  O2  UNL     1      -6.501   3.560  -1.138  1.00  0.00    -0.391 OA
ATOM     29  H2  UNL     1      -7.448   3.512  -1.191  1.00  0.00     0.210 HD
ENDBRANCH  25  28
BRANCH  26  30
HETATM   30  O3  UNL     1      -6.054   0.081  -1.431  1.00  0.00    -0.391 OA
ATOM     31  H3  UNL     1      -6.282  -0.630  -0.844  1.00  0.00     0.210 HD
ENDBRANCH  26  30
ENDBRANCH  20  23
ENDBRANCH   1  20
BRANCH   5  32
HETATM   32  O6  UNL     1      -0.035  -1.573   1.893  1.00  0.00    -0.391 OA
ATOM     33  H6  UNL     1       0.712  -0.986   1.869  1.00  0.00     0.210 HD
ENDBRANCH   5  32
BRANCH   4  34
HETATM   34  O5  UNL     1      -2.205  -2.800  -0.652  1.00  0.00    -0.390 OA
ATOM     35  H5  UNL     1      -1.569  -3.137  -1.272  1.00  0.00     0.210 HD
ENDBRANCH   4  34
BRANCH   3  36
HETATM   36  O4  UNL     1      -2.126  -2.116   2.874  1.00  0.00    -0.391 OA
ATOM     37  H4  UNL     1      -1.882  -2.999   3.128  1.00  0.00     0.210 HD
ENDBRANCH   3  36
TORSDOF 15
