REMARK  2 active torsions:
REMARK  status: ('A' for Active; 'I' for Inactive)
REMARK    1  A    between atoms: N1_1  and  C1_4 
REMARK    2  A    between atoms: C2_7  and  N3_8 
ROOT
HETATM    1  C1  UNL     1       1.901  -1.462  -0.299  1.00  0.00     0.727 A 
HETATM    2  N2  UNL     1       0.562  -1.390  -0.114  1.00  0.00    -0.020 N 
ATOM      3  H2  UNL     1      -0.019  -2.214  -0.272  1.00  0.00     0.203 HD
HETATM    4  C2  UNL     1      -0.003  -0.238   0.276  1.00  0.00     0.709 A 
HETATM    5  N4  UNL     1       0.794   0.823   0.473  1.00  0.00    -0.019 N 
ATOM      6  H4  UNL     1       0.372   1.703   0.769  1.00  0.00     0.203 HD
HETATM    7  C7  UNL     1       2.128   0.774   0.296  1.00  0.00     0.737 A 
HETATM    8  N5  UNL     1       3.080   1.722   0.442  1.00  0.00    -0.137 N 
ATOM      9  H5  UNL     1       2.941   2.691   0.728  1.00  0.00     0.189 HD
HETATM   10  C8  UNL     1       4.253   1.127   0.132  1.00  0.00     0.354 A 
HETATM   11  O1  UNL     1       5.358   1.732   0.164  1.00  0.00    -0.245 OA
HETATM   12  N6  UNL     1       3.989  -0.152  -0.191  1.00  0.00    -0.215 N 
ATOM     13  H6  UNL     1       4.688  -0.841  -0.468  1.00  0.00     0.193 HD
HETATM   14  N7  UNL     1       2.675  -0.389  -0.096  1.00  0.00     0.095 N 
ENDROOT
BRANCH   4  15
HETATM   15  N3  UNL     1      -1.398  -0.102   0.486  1.00  0.00    -0.217 N 
HETATM   16  C3  UNL     1      -2.152   1.063   0.904  1.00  0.00     0.141 C 
HETATM   17  C4  UNL     1      -3.434   0.950   0.149  1.00  0.00     0.022 C 
HETATM   18  C5  UNL     1      -3.437  -0.425  -0.519  1.00  0.00     0.022 C 
HETATM   19  C6  UNL     1      -2.397  -1.149   0.317  1.00  0.00     0.141 C 
ENDBRANCH   4  15
BRANCH   1  20
HETATM   20  N1  UNL     1       2.484  -2.549  -0.674  1.00  0.00    -0.232 N 
ATOM     21  H12 UNL     1       1.894  -3.367  -0.829  1.00  0.00     0.174 HD
ATOM     22  H11 UNL     1       3.493  -2.603  -0.813  1.00  0.00     0.174 HD
ENDBRANCH   1  20
TORSDOF 2
