REMARK  2 active torsions:
REMARK  status: ('A' for Active; 'I' for Inactive)
REMARK    1  A    between atoms: N1_1  and  C1_4 
REMARK    2  A    between atoms: C6_15  and  N4_16 
ROOT
HETATM    1  C1  UNL     1      -1.456   1.197   0.026  1.00  0.00     0.686 A 
HETATM    2  N2  UNL     1      -2.698   0.707   0.242  1.00  0.00    -0.156 N 
ATOM      3  H2  UNL     1      -3.509   1.326   0.262  1.00  0.00     0.187 HD
HETATM    4  C2  UNL     1      -2.835  -0.613   0.429  1.00  0.00     0.263 A 
HETATM    5  O1  UNL     1      -3.997  -1.053   0.630  1.00  0.00    -0.268 OA
HETATM    6  C3  UNL     1      -1.730  -1.440   0.398  1.00  0.00     0.124 A 
HETATM    7  C4  UNL     1      -0.466  -0.929   0.175  1.00  0.00     0.136 A 
HETATM    8  N3  UNL     1       0.619  -1.749   0.145  1.00  0.00    -0.306 N 
ATOM      9  H3  UNL     1       0.478  -2.749   0.290  1.00  0.00     0.170 HD
HETATM   10  C5  UNL     1       1.859  -1.304  -0.066  1.00  0.00     0.281 A 
HETATM   11  O2  UNL     1       2.894  -2.009  -0.104  1.00  0.00    -0.265 OA
HETATM   12  C6  UNL     1       2.003   0.051  -0.258  1.00  0.00     0.187 A 
HETATM   13  C7  UNL     1       0.886   0.870  -0.224  1.00  0.00     0.158 A 
HETATM   14  N5  UNL     1      -0.356   0.409  -0.010  1.00  0.00    -0.141 N 
ENDROOT
BRANCH   1  15
HETATM   15  N1  UNL     1      -1.346   2.452  -0.149  1.00  0.00    -0.234 N 
ATOM     16  H12 UNL     1      -2.175   3.046  -0.122  1.00  0.00     0.174 HD
ATOM     17  H11 UNL     1      -0.409   2.822  -0.312  1.00  0.00     0.174 HD
ENDBRANCH   1  15
BRANCH  12  18
HETATM   18  N4  UNL     1       3.288   0.592  -0.488  1.00  0.00    -0.108 N 
HETATM   19  O3  UNL     1       4.128  -0.100  -1.086  1.00  0.00    -0.532 OA
HETATM   20  O4  UNL     1       3.579   1.852  -0.056  1.00  0.00    -0.532 OA
ENDBRANCH  12  18
TORSDOF 2
