REMARK  2 active torsions:
REMARK  status: ('A' for Active; 'I' for Inactive)
REMARK    1  A    between atoms: C2_3  and  C3_5 
REMARK    2  A    between atoms: C3_5  and  N3_6 
ROOT
HETATM    1  N1  UNL     1       4.490   2.303   0.630  1.00  0.00    -0.190 NA
HETATM    2  C1  UNL     1       3.674   1.506   0.366  1.00  0.00     0.116 C 
HETATM    3  C2  UNL     1       2.671   0.538   0.061  1.00  0.00     0.142 C 
HETATM    4  N2  UNL     1       2.925  -0.854   0.149  1.00  0.00    -0.089 NA
ENDROOT
BRANCH   3   5
HETATM    5  C3  UNL     1       1.478   0.939  -0.312  1.00  0.00     0.137 C 
BRANCH   5   6
HETATM    6  N3  UNL     1       0.445  -0.011  -0.627  1.00  0.00    -0.300 N 
HETATM    7  C4  UNL     1       0.551  -1.073  -1.437  1.00  0.00     0.190 A 
HETATM    8  N4  UNL     1      -0.664  -1.662  -1.423  1.00  0.00    -0.344 N 
HETATM    9  C5  UNL     1      -1.510  -0.999  -0.635  1.00  0.00     0.147 A 
ATOM     10  H4  UNL     1      -0.903  -2.504  -1.947  1.00  0.00     0.167 HD
HETATM   11  C6  UNL     1      -2.826  -1.117  -0.243  1.00  0.00     0.280 A 
HETATM   12  C8  UNL     1      -0.796   0.074  -0.116  1.00  0.00     0.149 A 
HETATM   13  O1  UNL     1      -3.475  -2.083  -0.709  1.00  0.00    -0.265 OA
HETATM   14  N5  UNL     1      -3.371  -0.222   0.604  1.00  0.00    -0.273 N 
HETATM   15  C7  UNL     1      -2.666   0.810   1.097  1.00  0.00     0.328 A 
ATOM     16  H5  UNL     1      -4.347  -0.331   0.879  1.00  0.00     0.173 HD
HETATM   17  O2  UNL     1      -3.203   1.646   1.899  1.00  0.00    -0.247 OA
HETATM   18  N6  UNL     1      -1.378   0.942   0.726  1.00  0.00    -0.292 N 
ATOM     19  H6  UNL     1      -0.832   1.721   1.094  1.00  0.00     0.172 HD
ENDBRANCH   5   6
ENDBRANCH   3   5
TORSDOF 2
