REMARK  2 active torsions:
REMARK  status: ('A' for Active; 'I' for Inactive)
REMARK    1  A    between atoms: C4_7  and  N3_8 
REMARK    2  A    between atoms: C5_13  and  N5_14 
ROOT
HETATM    1  N1  UNL     1       1.111  -1.879   3.092  1.00  0.00    -0.191 NA
HETATM    2  C1  UNL     1       1.495  -1.306   2.153  1.00  0.00     0.104 C 
HETATM    3  C2  UNL     1       1.997  -0.595   0.996  1.00  0.00     0.104 A 
HETATM    4  C3  UNL     1       3.359  -0.595   0.729  1.00  0.00     0.132 A 
HETATM    5  N2  UNL     1       3.822   0.069  -0.346  1.00  0.00    -0.201 N 
ATOM      6  H2  UNL     1       4.824   0.067  -0.538  1.00  0.00     0.183 HD
HETATM    7  C4  UNL     1       3.001   0.733  -1.171  1.00  0.00     0.677 A 
HETATM    8  N4  UNL     1       1.682   0.733  -0.913  1.00  0.00    -0.175 N 
ATOM      9  H4  UNL     1       1.057   1.238  -1.541  1.00  0.00     0.186 HD
HETATM   10  C5  UNL     1       1.159   0.090   0.144  1.00  0.00     0.141 A 
ENDROOT
BRANCH  10  11
HETATM   11  N5  UNL     1      -0.225   0.085   0.416  1.00  0.00    -0.364 N 
HETATM   12  C6  UNL     1      -0.946  -1.169   0.424  1.00  0.00     0.126 C 
HETATM   13  C7  UNL     1      -1.960  -1.230  -0.692  1.00  0.00     0.047 C 
HETATM   14  C8  UNL     1      -3.242  -0.558  -0.375  1.00  0.00     0.234 C 
HETATM   15  N6  UNL     1      -3.105   0.753   0.194  1.00  0.00    -0.074 N 
HETATM   16  C9  UNL     1      -1.987   1.491  -0.332  1.00  0.00     0.252 C 
ATOM     17  H62 UNL     1      -3.970   1.284   0.091  1.00  0.00     0.277 HD
ATOM     18  H61 UNL     1      -3.058   0.702   1.212  1.00  0.00     0.277 HD
HETATM   19  C10 UNL     1      -0.862   1.386   0.680  1.00  0.00     0.152 C 
ENDBRANCH  10  11
BRANCH   7  20
HETATM   20  N3  UNL     1       3.480   1.359  -2.191  1.00  0.00    -0.234 N 
ATOM     21  H32 UNL     1       4.481   1.359  -2.387  1.00  0.00     0.174 HD
ATOM     22  H31 UNL     1       2.855   1.864  -2.819  1.00  0.00     0.174 HD
ENDBRANCH   7  20
TORSDOF 2
