REMARK  2 active torsions:
REMARK  status: ('A' for Active; 'I' for Inactive)
REMARK    1  A    between atoms: N1_1  and  N2_4 
REMARK    2  A    between atoms: C6_14  and  N4_15 
ROOT
HETATM    1  N2  UNL     1      -1.502  -0.739  -0.381  1.00  0.00    -0.220 N 
HETATM    2  C1  UNL     1      -2.604  -0.026  -0.130  1.00  0.00     0.334 A 
HETATM    3  O1  UNL     1      -3.732  -0.548  -0.403  1.00  0.00    -0.260 OA
HETATM    4  C2  UNL     1      -2.565   1.241   0.408  1.00  0.00     0.316 A 
HETATM    5  O2  UNL     1      -3.624   1.879   0.629  1.00  0.00    -0.262 OA
HETATM    6  N3  UNL     1      -1.399   1.822   0.707  1.00  0.00    -0.317 N 
ATOM      7  H3  UNL     1      -1.358   2.760   1.105  1.00  0.00     0.169 HD
HETATM    8  C3  UNL     1      -0.268   1.107   0.457  1.00  0.00     0.064 A 
HETATM    9  C4  UNL     1       0.977   1.648   0.743  1.00  0.00     0.034 A 
HETATM   10  C5  UNL     1       2.115   0.923   0.489  1.00  0.00     0.038 A 
HETATM   11  C6  UNL     1       2.092  -0.359  -0.055  1.00  0.00     0.105 A 
HETATM   12  C7  UNL     1       0.844  -0.877  -0.331  1.00  0.00     0.070 A 
HETATM   13  C8  UNL     1      -0.306  -0.160  -0.081  1.00  0.00     0.088 A 
ENDROOT
BRANCH   1  14
HETATM   14  N1  UNL     1      -1.521  -2.018  -0.923  1.00  0.00    -0.335 N 
ATOM     15  H12 UNL     1      -2.417  -2.452  -1.148  1.00  0.00     0.177 HD
ATOM     16  H11 UNL     1      -0.680  -2.562  -1.115  1.00  0.00     0.177 HD
ENDBRANCH   1  14
BRANCH  11  17
HETATM   17  N4  UNL     1       3.286  -1.076  -0.303  1.00  0.00    -0.116 N 
HETATM   18  O3  UNL     1       3.260  -2.211  -0.784  1.00  0.00    -0.532 OA
HETATM   19  O4  UNL     1       4.484  -0.500  -0.004  1.00  0.00    -0.532 OA
ENDBRANCH  11  17
TORSDOF 2
