REMARK  2 active torsions:
REMARK  status: ('A' for Active; 'I' for Inactive)
REMARK    1  A    between atoms: N1_1  and  C1_4 
REMARK    2  A    between atoms: C4_15  and  N6_16 
ROOT
HETATM    1  C1  UNL     1      -2.354   1.718  -0.477  1.00  0.00     0.679 A 
HETATM    2  N2  UNL     1      -3.000   0.762  -1.162  1.00  0.00    -0.173 N 
ATOM      3  H2  UNL     1      -3.943   0.941  -1.508  1.00  0.00     0.186 HD
HETATM    4  C2  UNL     1      -2.424  -0.423  -1.398  1.00  0.00     0.169 A 
HETATM    5  N3  UNL     1      -2.847  -1.524  -2.045  1.00  0.00    -0.268 N 
ATOM      6  H3  UNL     1      -3.748  -1.658  -2.503  1.00  0.00     0.190 HD
HETATM    7  N4  UNL     1      -1.864  -2.391  -1.967  1.00  0.00    -0.240 N 
ATOM      8  H4  UNL     1      -1.889  -3.329  -2.367  1.00  0.00     0.208 HD
HETATM    9  N5  UNL     1      -0.837  -1.888  -1.302  1.00  0.00    -0.279 N 
ATOM     10  H5  UNL     1       0.041  -2.372  -1.113  1.00  0.00     0.189 HD
HETATM   11  C3  UNL     1      -1.139  -0.633  -0.914  1.00  0.00     0.140 A 
HETATM   12  C4  UNL     1      -0.460   0.336  -0.210  1.00  0.00     0.158 A 
HETATM   13  N7  UNL     1      -1.111   1.511  -0.011  1.00  0.00    -0.174 N 
ATOM     14  H7  UNL     1      -0.644   2.256   0.506  1.00  0.00     0.186 HD
ENDROOT
BRANCH  12  15
HETATM   15  N6  UNL     1       0.846   0.069   0.258  1.00  0.00    -0.301 N 
HETATM   16  C5  UNL     1       1.171   0.035   1.670  1.00  0.00     0.134 C 
HETATM   17  C6  UNL     1       2.575  -0.450   1.791  1.00  0.00     0.029 C 
HETATM   18  C7  UNL     1       2.942  -0.965   0.436  1.00  0.00     0.105 C 
HETATM   19  C8  UNL     1       2.036  -0.201  -0.457  1.00  0.00     0.225 C 
HETATM   20  O1  UNL     1       2.248   0.162  -1.641  1.00  0.00    -0.273 OA
ENDBRANCH  12  15
BRANCH   1  21
HETATM   21  N1  UNL     1      -2.963   2.831  -0.286  1.00  0.00    -0.234 N 
ATOM     22  H12 UNL     1      -3.907   2.988  -0.640  1.00  0.00     0.174 HD
ATOM     23  H11 UNL     1      -2.472   3.558   0.235  1.00  0.00     0.174 HD
ENDBRANCH   1  21
TORSDOF 2
