REMARK  5 active torsions:
REMARK  status: ('A' for Active; 'I' for Inactive)
REMARK    1  A    between atoms: C2_2  and  C3_3 
REMARK    2  A    between atoms: C2_2  and  C6_10 
REMARK    3  A    between atoms: C3_3  and  C4_4 
REMARK    4  A    between atoms: C4_4  and  C5_5 
REMARK    5  A    between atoms: C5_5  and  N1_6 
ROOT
HETATM    1  C6  UNL     1       2.528   0.347  -0.136  1.00  0.00    -0.002 C 
HETATM    2  C7  UNL     1       1.941   1.706  -0.579  1.00  0.00     0.006 C 
HETATM    3  C8  UNL     1       0.662   1.750   0.195  1.00  0.00     0.006 C 
HETATM    4  C9  UNL     1       0.453   0.375   0.799  1.00  0.00    -0.002 C 
HETATM    5  C10 UNL     1      -0.973   0.001   0.894  1.00  0.00    -0.005 C 
HETATM    6  C11 UNL     1      -1.653   1.076   1.728  1.00  0.00     0.006 C 
HETATM    7  C12 UNL     1      -3.142   0.886   1.788  1.00  0.00     0.010 C 
HETATM    8  C13 UNL     1      -3.778   0.674   0.443  1.00  0.00    -0.040 C 
HETATM    9  C14 UNL     1      -3.588   1.910  -0.381  1.00  0.00     0.015 C 
HETATM   10  C15 UNL     1      -5.244   0.429   0.619  1.00  0.00     0.009 C 
HETATM   11  C16 UNL     1      -5.590  -1.023   0.366  1.00  0.00     0.001 C 
HETATM   12  C17 UNL     1      -5.185  -1.425  -1.024  1.00  0.00     0.000 C 
HETATM   13  C18 UNL     1      -3.827  -0.928  -1.414  1.00  0.00     0.006 C 
HETATM   14  C19 UNL     1      -3.080  -0.537  -0.184  1.00  0.00    -0.002 C 
HETATM   15  C20 UNL     1      -1.663  -0.089  -0.449  1.00  0.00    -0.005 C 
HETATM   16  C21 UNL     1      -0.884  -1.024  -1.299  1.00  0.00     0.006 C 
HETATM   17  C22 UNL     1       0.509  -0.393  -1.483  1.00  0.00     0.010 C 
HETATM   18  C23 UNL     1       1.269  -0.471  -0.209  1.00  0.00    -0.036 C 
HETATM   19  C24 UNL     1       1.324  -1.832   0.388  1.00  0.00     0.016 C 
ENDROOT
BRANCH   1  20
HETATM   20  C2  UNL     1       3.698  -0.020  -0.930  1.00  0.00    -0.014 C 
HETATM   21  C1  UNL     1       3.450  -0.253  -2.396  1.00  0.00     0.010 C 
BRANCH  20  22
HETATM   22  C3  UNL     1       4.530  -1.129  -0.403  1.00  0.00     0.006 C 
BRANCH  22  23
HETATM   23  C4  UNL     1       4.990  -1.090   1.000  1.00  0.00     0.027 C 
BRANCH  23  24
HETATM   24  C5  UNL     1       5.945  -0.030   1.408  1.00  0.00     0.229 C 
BRANCH  24  25
HETATM   25  N1  UNL     1       5.498   1.315   1.253  1.00  0.00    -0.079 N 
ATOM     26  H13 UNL     1       5.201   1.471   0.290  1.00  0.00     0.274 HD
ATOM     27  H12 UNL     1       4.612   1.442   1.742  1.00  0.00     0.274 HD
ATOM     28  H11 UNL     1       6.154   2.044   1.533  1.00  0.00     0.274 HD
ENDBRANCH  24  25
ENDBRANCH  23  24
ENDBRANCH  22  23
ENDBRANCH  20  22
ENDBRANCH   1  20
TORSDOF 5
