REMARK  9 active torsions:
REMARK  status: ('A' for Active; 'I' for Inactive)
REMARK    1  A    between atoms: C2_2  and  O1_5 
REMARK    2  A    between atoms: O1_5  and  C5_6 
REMARK       I    between atoms: C5_6  and  N1_8 
REMARK    3  A    between atoms: C7_10  and  N2_11 
REMARK    4  A    between atoms: C8_15  and  C10_17 
REMARK    5  A    between atoms: C11_18  and  C12_19 
REMARK    6  A    between atoms: C16_24  and  C17_25 
REMARK    7  A    between atoms: C18_26  and  C19_27 
REMARK    8  A    between atoms: C19_27  and  C20_28 
REMARK    9  A    between atoms: C20_28  and  N3_29 
ROOT
HETATM    1  C12 UNL     1       2.046  -0.850  -2.252  1.00  0.00     0.020 A 
HETATM    2  C13 UNL     1       2.454  -1.465  -3.415  1.00  0.00     0.039 A 
HETATM    3  C14 UNL     1       3.780  -1.725  -3.715  1.00  0.00     0.013 A 
HETATM    4 BR1  UNL     1       4.313  -2.570  -5.318  1.00  0.00    -0.051 Br
HETATM    5  C15 UNL     1       4.729  -1.329  -2.768  1.00  0.00     0.039 A 
HETATM    6  C16 UNL     1       4.358  -0.712  -1.594  1.00  0.00     0.020 A 
HETATM    7  C23 UNL     1       3.021  -0.478  -1.348  1.00  0.00     0.041 A 
ENDROOT
BRANCH   1   8
HETATM    8  C11 UNL     1       0.659  -0.588  -1.957  1.00  0.00    -0.066 C 
HETATM    9  C10 UNL     1      -0.499  -0.349  -1.715  1.00  0.00    -0.087 C 
BRANCH   9  10
HETATM   10  C8  UNL     1      -1.904  -0.039  -1.438  1.00  0.00     0.066 C 
HETATM   11  C7  UNL     1      -2.840  -1.077  -2.013  1.00  0.00     0.223 C 
HETATM   12  C6  UNL     1      -3.866  -1.317  -0.930  1.00  0.00     0.162 C 
HETATM   13  N1  UNL     1      -3.535  -0.399   0.141  1.00  0.00    -0.324 N 
HETATM   14  C5  UNL     1      -4.462   0.153   1.066  1.00  0.00     0.363 C 
HETATM   15  C24 UNL     1      -2.105  -0.185   0.052  1.00  0.00     0.152 C 
HETATM   16  O2  UNL     1      -4.121   0.947   1.978  1.00  0.00    -0.238 OA
HETATM   17  C9  UNL     1      -2.243   1.354  -1.891  1.00  0.00     0.033 C 
BRANCH  11  18
HETATM   18  N2  UNL     1      -2.100  -2.294  -2.203  1.00  0.00    -0.072 N 
ATOM     19  H23 UNL     1      -1.686  -2.643  -1.338  1.00  0.00     0.274 HD
ATOM     20  H22 UNL     1      -2.701  -3.094  -2.400  1.00  0.00     0.274 HD
ATOM     21  H21 UNL     1      -1.407  -2.132  -2.934  1.00  0.00     0.274 HD
ENDBRANCH  11  18
BRANCH  14  22
HETATM   22  O1  UNL     1      -5.808  -0.171   0.995  1.00  0.00    -0.294 OA
BRANCH  22  23
HETATM   23  C2  UNL     1      -6.722   0.364   1.895  1.00  0.00     0.061 C 
HETATM   24  C1  UNL     1      -8.100  -0.202   1.528  1.00  0.00     0.046 C 
HETATM   25  C3  UNL     1      -6.789   1.863   1.885  1.00  0.00     0.046 C 
HETATM   26  C4  UNL     1      -6.401  -0.103   3.288  1.00  0.00     0.046 C 
ENDBRANCH  22  23
ENDBRANCH  14  22
ENDBRANCH   9  10
ENDBRANCH   1   8
BRANCH   6  27
HETATM   27  C17 UNL     1       5.365  -0.322  -0.649  1.00  0.00    -0.066 C 
HETATM   28  C18 UNL     1       6.208   0.023   0.142  1.00  0.00    -0.078 C 
BRANCH  28  29
HETATM   29  C19 UNL     1       7.246   0.443   1.081  1.00  0.00     0.143 C 
HETATM   30  C21 UNL     1       8.561  -0.286   0.928  1.00  0.00     0.157 C 
HETATM   31  N4  UNL     1       8.049  -1.290   1.809  1.00  0.00    -0.357 N 
HETATM   32  C22 UNL     1       7.124  -0.328   2.337  1.00  0.00     0.241 C 
ATOM     33  H4  UNL     1       8.254  -2.273   1.987  1.00  0.00     0.162 HD
HETATM   34  O3  UNL     1       6.504  -0.239   3.428  1.00  0.00    -0.272 OA
BRANCH  29  35
HETATM   35  C20 UNL     1       7.403   1.928   1.250  1.00  0.00     0.263 C 
BRANCH  35  36
HETATM   36  N3  UNL     1       6.168   2.472   1.728  1.00  0.00    -0.077 N 
ATOM     37  H33 UNL     1       5.378   2.230   1.130  1.00  0.00     0.274 HD
ATOM     38  H32 UNL     1       5.845   2.015   2.581  1.00  0.00     0.274 HD
ATOM     39  H31 UNL     1       6.275   3.480   1.843  1.00  0.00     0.274 HD
ENDBRANCH  35  36
ENDBRANCH  29  35
ENDBRANCH  28  29
ENDBRANCH   6  27
TORSDOF 9
