REMARK  2 active torsions:
REMARK  status: ('A' for Active; 'I' for Inactive)
REMARK    1  A    between atoms: C2_2  and  C5_5 
REMARK       I    between atoms: C5_5  and  N1_7 
REMARK       I    between atoms: N2_13  and  C9_15 
REMARK       I    between atoms: C9_15  and  N4_19 
REMARK    2  A    between atoms: N4_19  and  C10_21 
ROOT
HETATM    1  C5  UNL     1       5.445   0.027  -1.046  1.00  0.00     0.239 C 
HETATM    2  O1  UNL     1       6.454   0.430  -1.722  1.00  0.00    -0.272 OA
HETATM    3  N1  UNL     1       4.174  -0.136  -1.668  1.00  0.00    -0.237 N 
HETATM    4  C6  UNL     1       3.745   0.086  -3.027  1.00  0.00     0.254 C 
HETATM    5  O2  UNL     1       4.087   0.792  -3.994  1.00  0.00    -0.271 OA
HETATM    6  C7  UNL     1       2.681  -0.921  -2.789  1.00  0.00     0.219 C 
HETATM    7 BR1  UNL     1       3.190  -2.733  -3.184  1.00  0.00    -0.073 Br
HETATM    8  C8  UNL     1       2.849  -0.533  -1.358  1.00  0.00     0.133 C 
HETATM    9  N2  UNL     1       2.148  -0.533  -0.278  1.00  0.00    -0.179 N 
ATOM     10  H2  UNL     1       2.540  -0.193   0.600  1.00  0.00     0.185 HD
HETATM   11  C9  UNL     1       0.809  -1.021  -0.342  1.00  0.00     0.673 C 
HETATM   12  N3  UNL     1       0.668  -2.288  -0.094  1.00  0.00    -0.235 N 
ATOM     13  H31 UNL     1      -0.289  -2.637  -0.140  1.00  0.00     0.174 HD
ATOM     14  H32 UNL     1       1.457  -2.895   0.130  1.00  0.00     0.174 HD
HETATM   15  N4  UNL     1      -0.287  -0.178  -0.653  1.00  0.00    -0.212 N 
ATOM     16  H4  UNL     1      -0.638  -0.185  -1.611  1.00  0.00     0.178 HD
ENDROOT
BRANCH  15  17
HETATM   17  C10 UNL     1      -0.942   0.696   0.306  1.00  0.00     0.209 C 
HETATM   18  C11 UNL     1      -1.521  -0.066   1.416  1.00  0.00     0.243 C 
HETATM   19  O3  UNL     1      -0.801  -0.085   2.448  1.00  0.00    -0.271 OA
HETATM   20  N5  UNL     1      -2.718  -0.795   1.600  1.00  0.00    -0.349 N 
HETATM   21  C12 UNL     1      -3.859  -0.825   0.755  1.00  0.00     0.042 C 
ATOM     22  H5  UNL     1      -2.768  -1.369   2.442  1.00  0.00     0.163 HD
HETATM   23  C13 UNL     1      -3.641  -1.454  -0.585  1.00  0.00     0.039 C 
HETATM   24  C14 UNL     1      -4.940  -1.681   1.440  1.00  0.00     0.039 C 
HETATM   25  C15 UNL     1      -4.428   0.561   0.681  1.00  0.00     0.026 C 
HETATM   26  C16 UNL     1      -4.871   0.919   2.109  1.00  0.00     0.029 C 
HETATM   27  C17 UNL     1      -5.737   0.432  -0.117  1.00  0.00     0.029 C 
HETATM   28  S1  UNL     1      -3.478   1.843   0.031  1.00  0.00    -0.145 SA
HETATM   29  C18 UNL     1      -1.784   1.709  -0.352  1.00  0.00     0.031 C 
HETATM   30  C19 UNL     1      -1.649   1.716  -1.886  1.00  0.00     0.029 C 
HETATM   31  C20 UNL     1      -1.228   3.122  -0.002  1.00  0.00     0.029 C 
ENDBRANCH  15  17
BRANCH   1  32
HETATM   32  C2  UNL     1       5.686  -0.252   0.391  1.00  0.00     0.031 C 
HETATM   33  C1  UNL     1       4.865   0.711   1.215  1.00  0.00     0.025 C 
HETATM   34  C3  UNL     1       7.162  -0.088   0.718  1.00  0.00     0.025 C 
HETATM   35  C4  UNL     1       5.279  -1.665   0.751  1.00  0.00     0.025 C 
ENDBRANCH   1  32
TORSDOF 2
