REMARK  5 active torsions:
REMARK  status: ('A' for Active; 'I' for Inactive)
REMARK    1  A    between atoms: C2_2  and  C3_4 
REMARK    2  A    between atoms: C6_11  and  N3_12 
REMARK       I    between atoms: N3_12  and  C7_14 
REMARK    3  A    between atoms: N5_20  and  C11_21 
REMARK    4  A    between atoms: C11_21  and  O3_22 
REMARK    5  A    between atoms: C11_21  and  N6_24 
ROOT
HETATM    1  N6  UNL     1      -2.082  -0.223   0.655  1.00  0.00    -0.317 N 
HETATM    2  C12 UNL     1      -2.867   0.109   1.940  1.00  0.00     0.260 C 
HETATM    3  N7  UNL     1      -3.760   1.117   1.362  1.00  0.00    -0.324 N 
HETATM    4  C13 UNL     1      -3.984   0.832   0.089  1.00  0.00     0.043 A 
HETATM    5  C14 UNL     1      -4.805   1.757  -0.463  1.00  0.00     0.053 A 
HETATM    6  C15 UNL     1      -5.112   2.671   0.521  1.00  0.00     0.080 A 
HETATM    7  C16 UNL     1      -5.962   3.809   0.330  1.00  0.00     0.102 C 
HETATM    8  N8  UNL     1      -6.652   4.728   0.169  1.00  0.00    -0.191 NA
HETATM    9  C17 UNL     1      -4.449   2.246   1.639  1.00  0.00     0.104 A 
HETATM   10 BR1  UNL     1      -4.502   3.128   3.325  1.00  0.00    -0.029 Br
HETATM   11  C18 UNL     1      -3.193  -0.446  -0.175  1.00  0.00     0.073 C 
HETATM   12  C19 UNL     1      -3.116  -0.673  -1.621  1.00  0.00     0.045 C 
HETATM   13  C20 UNL     1      -4.064  -1.612   0.390  1.00  0.00     0.045 C 
ENDROOT
BRANCH   1  14
HETATM   14  C11 UNL     1      -0.719  -0.233   0.763  1.00  0.00     0.221 C 
BRANCH  14  15
HETATM   15  N5  UNL     1       0.453  -0.363   0.030  1.00  0.00    -0.317 N 
HETATM   16  C3  UNL     1       1.749  -0.426   0.777  1.00  0.00     0.197 C 
HETATM   17  C4  UNL     1       2.803  -0.111  -0.173  1.00  0.00     0.044 A 
HETATM   18  C5  UNL     1       2.294  -0.111  -1.439  1.00  0.00     0.066 A 
HETATM   19  C6  UNL     1       4.163   0.186  -0.263  1.00  0.00     0.134 A 
HETATM   20  N1  UNL     1       3.303   0.173  -2.271  1.00  0.00    -0.300 N 
HETATM   21  C8  UNL     1       0.800  -0.422  -1.327  1.00  0.00     0.074 C 
HETATM   22  N2  UNL     1       4.415   0.349  -1.564  1.00  0.00    -0.285 N 
ATOM     23  H1  UNL     1       3.230   0.243  -3.286  1.00  0.00     0.186 HD
ATOM     24  H2  UNL     1       5.328   0.576  -1.958  1.00  0.00     0.188 HD
HETATM   25  C9  UNL     1       0.554  -1.747  -2.018  1.00  0.00     0.045 C 
HETATM   26  C10 UNL     1       0.192   0.663  -2.218  1.00  0.00     0.045 C 
BRANCH  16  27
HETATM   27  C2  UNL     1       1.959  -1.800   1.291  1.00  0.00     0.150 C 
HETATM   28  C1  UNL     1       3.158  -2.182   2.076  1.00  0.00     0.093 C 
HETATM   29  O1  UNL     1       1.121  -2.652   1.065  1.00  0.00    -0.296 OA
ENDBRANCH  16  27
BRANCH  19  30
HETATM   30  N3  UNL     1       4.976   0.277   0.705  1.00  0.00    -0.295 N 
HETATM   31  C7  UNL     1       6.339   0.575   0.606  1.00  0.00     0.334 C 
HETATM   32  N4  UNL     1       6.867   1.831   0.194  1.00  0.00    -0.040 NA
HETATM   33  O2  UNL     1       7.176  -0.315   0.897  1.00  0.00    -0.251 OA
ATOM     34  H3  UNL     1       4.603   0.119   1.641  1.00  0.00     0.171 HD
ENDBRANCH  19  30
ENDBRANCH  14  15
BRANCH  14  35
HETATM   35  O3  UNL     1      -0.380  -0.048   2.083  1.00  0.00    -0.332 OA
ATOM     36  H3  UNL     1      -1.182   0.041   2.585  1.00  0.00     0.220 HD
ENDBRANCH  14  35
ENDBRANCH   1  14
TORSDOF 5
