REMARK  9 active torsions:
REMARK  status: ('A' for Active; 'I' for Inactive)
REMARK    1  A    between atoms: C2_4  and  C3_5 
REMARK    2  A    between atoms: C2_4  and  N3_10 
REMARK    3  A    between atoms: C3_5  and  N2_6 
REMARK    4  A    between atoms: N3_10  and  N4_11 
REMARK    5  A    between atoms: N4_11  and  C4_13 
REMARK    6  A    between atoms: C4_13  and  N5_15 
REMARK    7  A    between atoms: N5_15  and  N6_17 
REMARK       I    between atoms: N6_17  and  C5_19 
REMARK       I    between atoms: C5_19  and  N7_21 
REMARK    8  A    between atoms: N7_21  and  C6_23 
REMARK    9  A    between atoms: C6_23  and  O2_25 
ROOT
HETATM    1  C4  UNL     1      -0.195  -1.106  -0.719  1.00  0.00     0.216 C 
HETATM    2  S1  UNL     1      -1.137  -2.351  -1.197  1.00  0.00    -0.037 SA
ENDROOT
BRANCH   1   3
HETATM    3  N4  UNL     1      -0.887   0.078  -0.254  1.00  0.00    -0.206 N 
ATOM      4  H4  UNL     1      -0.337   0.873   0.071  1.00  0.00     0.204 HD
BRANCH   3   5
HETATM    5  N3  UNL     1      -2.206   0.164  -0.236  1.00  0.00    -0.308 NA
BRANCH   5   6
HETATM    6  C2  UNL     1      -3.577   0.255  -0.218  1.00  0.00     0.201 C 
HETATM    7  N1  UNL     1      -4.269   0.071  -1.272  1.00  0.00    -0.370 N 
HETATM    8  C1  UNL     1      -5.690   0.176  -1.294  1.00  0.00     0.148 C 
ATOM      9  H1  UNL     1      -3.784  -0.162  -2.139  1.00  0.00     0.161 HD
BRANCH   6  10
HETATM   10  C3  UNL     1      -4.321   0.593   1.042  1.00  0.00     0.323 C 
BRANCH  10  11
HETATM   11  N2  UNL     1      -5.306  -0.418   1.328  1.00  0.00    -0.071 N 
ATOM     12  H23 UNL     1      -5.938  -0.566   0.541  1.00  0.00     0.274 HD
ATOM     13  H22 UNL     1      -4.894  -1.350   1.368  1.00  0.00     0.274 HD
ATOM     14  H21 UNL     1      -5.811  -0.188   2.184  1.00  0.00     0.274 HD
ENDBRANCH  10  11
ENDBRANCH   6  10
ENDBRANCH   5   6
ENDBRANCH   3   5
ENDBRANCH   1   3
BRANCH   1  15
HETATM   15  N5  UNL     1       1.199  -1.238  -0.775  1.00  0.00    -0.270 N 
ATOM     16  H5  UNL     1       1.586  -2.121  -1.109  1.00  0.00     0.189 HD
BRANCH  15  17
HETATM   17  N6  UNL     1       2.086  -0.231  -0.400  1.00  0.00    -0.249 N 
HETATM   18  C5  UNL     1       3.487  -0.483  -0.372  1.00  0.00     0.336 C 
HETATM   19  O1  UNL     1       3.907  -1.637  -0.682  1.00  0.00    -0.246 OA
HETATM   20  N7  UNL     1       4.441   0.485  -0.020  1.00  0.00    -0.316 N 
ATOM     21  H7  UNL     1       4.125   1.421   0.232  1.00  0.00     0.166 HD
ATOM     22  H6  UNL     1       1.730   0.690  -0.145  1.00  0.00     0.192 HD
BRANCH  20  23
HETATM   23  C6  UNL     1       5.847   0.199  -0.003  1.00  0.00     0.217 C 
HETATM   24  C7  UNL     1       6.497   0.404   1.329  1.00  0.00     0.063 C 
BRANCH  23  25
HETATM   25  O2  UNL     1       6.450   0.981  -1.008  1.00  0.00    -0.377 OA
ATOM     26  H2  UNL     1       7.381   0.792  -0.997  1.00  0.00     0.212 HD
ENDBRANCH  23  25
ENDBRANCH  20  23
ENDBRANCH  15  17
ENDBRANCH   1  15
TORSDOF 9
