REMARK  8 active torsions:
REMARK  status: ('A' for Active; 'I' for Inactive)
REMARK    1  A    between atoms: N1_2  and  C2_4 
REMARK    2  A    between atoms: C2_4  and  N2_6 
REMARK    3  A    between atoms: N2_6  and  N3_8 
REMARK    4  A    between atoms: N3_8  and  C3_10 
REMARK    5  A    between atoms: C3_10  and  N4_12 
REMARK       I    between atoms: N4_12  and  C4_14 
REMARK    6  A    between atoms: C4_14  and  C5_16 
REMARK    7  A    between atoms: C5_16  and  C6_17 
REMARK       I    between atoms: C6_17  and  N5_19 
REMARK    8  A    between atoms: N5_19  and  N6_21 
ROOT
HETATM    1  N4  UNL     1      -0.318   0.640  -0.106  1.00  0.00    -0.302 N 
ATOM      2  H4  UNL     1      -0.033   0.105  -0.927  1.00  0.00     0.171 HD
HETATM    3  C4  UNL     1      -1.696   0.674   0.220  1.00  0.00     0.232 C 
HETATM    4  O1  UNL     1      -2.057   1.322   1.217  1.00  0.00    -0.273 OA
ENDROOT
BRANCH   1   5
HETATM    5  C3  UNL     1       0.689   1.303   0.638  1.00  0.00     0.193 C 
HETATM    6  S2  UNL     1       0.265   2.159   1.946  1.00  0.00    -0.039 SA
BRANCH   5   7
HETATM    7  N3  UNL     1       2.057   1.228   0.255  1.00  0.00    -0.274 N 
ATOM      8  H3  UNL     1       2.767   1.713   0.804  1.00  0.00     0.189 HD
BRANCH   7   9
HETATM    9  N2  UNL     1       2.429   0.491  -0.872  1.00  0.00    -0.274 N 
ATOM     10  H2  UNL     1       1.831   0.516  -1.698  1.00  0.00     0.189 HD
BRANCH   9  11
HETATM   11  C2  UNL     1       3.613  -0.292  -0.905  1.00  0.00     0.186 C 
HETATM   12  S1  UNL     1       4.047  -1.151  -2.219  1.00  0.00    -0.040 SA
BRANCH  11  13
HETATM   13  N1  UNL     1       4.453  -0.336   0.236  1.00  0.00    -0.370 N 
HETATM   14  C1  UNL     1       5.685  -1.137   0.233  1.00  0.00     0.148 C 
ATOM     15  H1  UNL     1       4.199   0.195   1.069  1.00  0.00     0.161 HD
ENDBRANCH  11  13
ENDBRANCH   9  11
ENDBRANCH   7   9
ENDBRANCH   5   7
ENDBRANCH   1   5
BRANCH   3  16
HETATM   16  C5  UNL     1      -2.672  -0.045  -0.610  1.00  0.00     0.207 C 
BRANCH  16  17
HETATM   17  C6  UNL     1      -4.029   0.157  -0.048  1.00  0.00     0.244 C 
HETATM   18  O2  UNL     1      -4.296   0.835   0.974  1.00  0.00    -0.271 OA
HETATM   19  N5  UNL     1      -5.099  -0.480  -0.741  1.00  0.00    -0.276 N 
ATOM     20  H5  UNL     1      -4.922  -1.040  -1.575  1.00  0.00     0.189 HD
BRANCH  19  21
HETATM   21  N6  UNL     1      -6.396  -0.318  -0.248  1.00  0.00    -0.343 N 
ATOM     22  H62 UNL     1      -6.556   0.245   0.587  1.00  0.00     0.176 HD
ATOM     23  H61 UNL     1      -7.162  -0.774  -0.744  1.00  0.00     0.176 HD
ENDBRANCH  19  21
ENDBRANCH  16  17
ENDBRANCH   3  16
TORSDOF 8
