REMARK  8 active torsions:
REMARK  status: ('A' for Active; 'I' for Inactive)
REMARK       I    between atoms: C2_2  and  N1_4 
REMARK    1  A    between atoms: N1_4  and  C3_6 
REMARK    2  A    between atoms: C3_6  and  N2_8 
REMARK    3  A    between atoms: N2_8  and  N3_10 
REMARK    4  A    between atoms: N3_10  and  C4_12 
REMARK    5  A    between atoms: C4_12  and  N4_14 
REMARK    6  A    between atoms: N4_14  and  N5_16 
REMARK       I    between atoms: N5_16  and  C5_18 
REMARK    7  A    between atoms: C5_18  and  C6_20 
REMARK    8  A    between atoms: C6_20  and  N6_21 
ROOT
HETATM    1  C4  UNL     1      -0.528   0.207   0.074  1.00  0.00     0.205 C 
HETATM    2  S2  UNL     1      -0.357  -0.164  -1.496  1.00  0.00    -0.038 SA
ENDROOT
BRANCH   1   3
HETATM    3  N3  UNL     1       0.574   0.105   0.958  1.00  0.00    -0.273 N 
ATOM      4  H3  UNL     1       0.463   0.331   1.946  1.00  0.00     0.189 HD
BRANCH   3   5
HETATM    5  N2  UNL     1       1.821  -0.309   0.463  1.00  0.00    -0.274 N 
ATOM      6  H2  UNL     1       1.978  -1.267   0.149  1.00  0.00     0.189 HD
BRANCH   5   7
HETATM    7  C3  UNL     1       2.858   0.667   0.418  1.00  0.00     0.193 C 
HETATM    8  S1  UNL     1       2.423   2.195   0.940  1.00  0.00    -0.039 SA
BRANCH   7   9
HETATM    9  N1  UNL     1       4.180   0.455  -0.035  1.00  0.00    -0.303 N 
HETATM   10  C2  UNL     1       4.765  -0.724  -0.510  1.00  0.00     0.219 C 
HETATM   11  C1  UNL     1       6.196  -0.716  -0.943  1.00  0.00     0.117 C 
HETATM   12  O1  UNL     1       4.152  -1.791  -0.594  1.00  0.00    -0.274 OA
ATOM     13  H1  UNL     1       4.790   1.272  -0.013  1.00  0.00     0.171 HD
ENDBRANCH   7   9
ENDBRANCH   5   7
ENDBRANCH   3   5
ENDBRANCH   1   3
BRANCH   1  14
HETATM   14  N4  UNL     1      -1.804   0.626   0.535  1.00  0.00    -0.272 N 
ATOM     15  H4  UNL     1      -1.929   0.853   1.522  1.00  0.00     0.189 HD
BRANCH  14  16
HETATM   16  N5  UNL     1      -2.888   0.733  -0.331  1.00  0.00    -0.266 N 
HETATM   17  C5  UNL     1      -4.128   0.108   0.008  1.00  0.00     0.261 C 
HETATM   18  O2  UNL     1      -4.208  -0.534   1.088  1.00  0.00    -0.270 OA
ATOM     19  H5  UNL     1      -2.798   1.255  -1.203  1.00  0.00     0.190 HD
BRANCH  17  20
HETATM   20  C6  UNL     1      -5.322   0.200  -0.887  1.00  0.00     0.333 C 
BRANCH  20  21
HETATM   21  N6  UNL     1      -6.405  -0.530  -0.269  1.00  0.00    -0.071 N 
ATOM     22  H63 UNL     1      -6.154  -1.493  -0.046  1.00  0.00     0.274 HD
ATOM     23  H62 UNL     1      -6.600  -0.215   0.681  1.00  0.00     0.274 HD
ATOM     24  H61 UNL     1      -7.220  -0.467  -0.880  1.00  0.00     0.274 HD
ENDBRANCH  20  21
ENDBRANCH  17  20
ENDBRANCH  14  16
ENDBRANCH   1  14
TORSDOF 8
