REMARK  4 active torsions:
REMARK  status: ('A' for Active; 'I' for Inactive)
REMARK    1  A    between atoms: N1_2  and  N2_3 
REMARK       I    between atoms: N2_3  and  C2_5 
REMARK       I    between atoms: C2_5  and  N4_9 
REMARK    2  A    between atoms: N4_9  and  N5_11 
REMARK       I    between atoms: N5_11  and  C3_13 
REMARK    3  A    between atoms: C3_13  and  C4_15 
REMARK       I    between atoms: N6_19  and  C8_20 
REMARK       I    between atoms: C8_20  and  N7_22 
REMARK    4  A    between atoms: N7_22  and  N8_24 
ROOT
HETATM    1  N5  UNL     1       1.496  -0.804   0.284  1.00  0.00    -0.255 N 
ATOM      2  H5  UNL     1       1.108  -1.505  -0.348  1.00  0.00     0.190 HD
HETATM    3  C3  UNL     1       0.637  -0.110   1.164  1.00  0.00     0.242 C 
HETATM    4  O1  UNL     1       1.130   0.750   1.936  1.00  0.00    -0.271 OA
ENDROOT
BRANCH   3   5
HETATM    5  C4  UNL     1      -0.829  -0.334   1.237  1.00  0.00     0.098 C 
HETATM    6  C5  UNL     1      -1.477   0.544   2.252  1.00  0.00     0.017 C 
HETATM    7  C6  UNL     1      -2.477   1.516   1.730  1.00  0.00     0.021 C 
HETATM    8  C7  UNL     1      -3.369   0.993   0.654  1.00  0.00     0.127 C 
HETATM    9  N6  UNL     1      -2.776   0.028  -0.220  1.00  0.00    -0.332 N 
HETATM   10  C8  UNL     1      -3.580  -0.680  -1.121  1.00  0.00     0.336 C 
HETATM   11  C9  UNL     1      -1.381  -0.189  -0.152  1.00  0.00     0.141 C 
HETATM   12  O2  UNL     1      -3.072  -1.528  -1.890  1.00  0.00    -0.245 OA
HETATM   13  N7  UNL     1      -4.970  -0.441  -1.170  1.00  0.00    -0.258 N 
ATOM     14  H7  UNL     1      -5.377   0.252  -0.541  1.00  0.00     0.191 HD
BRANCH  13  15
HETATM   15  N8  UNL     1      -5.817  -1.137  -2.069  1.00  0.00    -0.341 N 
ATOM     16  H82 UNL     1      -5.394  -1.826  -2.691  1.00  0.00     0.177 HD
ATOM     17  H81 UNL     1      -6.822  -0.964  -2.104  1.00  0.00     0.177 HD
ENDBRANCH  13  15
ENDBRANCH   3   5
BRANCH   1  18
HETATM   18  N4  UNL     1       2.859  -0.548   0.265  1.00  0.00    -0.129 N 
HETATM   19  C2  UNL     1       3.615  -0.823  -0.925  1.00  0.00     0.702 C 
HETATM   20  N2  UNL     1       5.026  -0.967  -0.858  1.00  0.00    -0.136 N 
HETATM   21  N3  UNL     1       3.026  -0.942  -2.066  1.00  0.00    -0.232 N 
ATOM     22  H2  UNL     1       5.417  -1.834  -0.490  1.00  0.00     0.201 HD
ATOM     23  H32 UNL     1       3.563  -1.137  -2.911  1.00  0.00     0.174 HD
ATOM     24  H31 UNL     1       2.012  -0.839  -2.114  1.00  0.00     0.174 HD
ATOM     25  H4  UNL     1       3.321  -0.167   1.090  1.00  0.00     0.205 HD
BRANCH  20  26
HETATM   26  N1  UNL     1       5.884   0.029  -1.275  1.00  0.00    -0.131 NA
HETATM   27  C1  UNL     1       6.048   1.087  -0.302  1.00  0.00     0.159 C 
ENDBRANCH  20  26
ENDBRANCH   1  18
TORSDOF 4
