REMARK  10 active torsions:
REMARK  status: ('A' for Active; 'I' for Inactive)
REMARK    1  A    between atoms: N1_2  and  C2_3 
REMARK    2  A    between atoms: N1_2  and  C7_8 
REMARK    3  A    between atoms: C2_3  and  C3_4 
REMARK    4  A    between atoms: C8_11  and  N3_12 
REMARK    5  A    between atoms: N3_12  and  C9_14 
REMARK    6  A    between atoms: C12_19  and  O1_20 
REMARK    7  A    between atoms: O1_20  and  C13_21 
REMARK    8  A    between atoms: C13_21  and  C14_22 
REMARK    9  A    between atoms: C17_28  and  N6_29 
REMARK   10  A    between atoms: N6_29  and  N7_30 
ROOT
HETATM    1  C7  UNL     1      -1.522  -0.000  -0.546  1.00  0.00     0.697 A 
HETATM    2  N2  UNL     1      -1.720  -1.312  -0.296  1.00  0.00    -0.022 N 
ATOM      3  H2  UNL     1      -2.669  -1.682  -0.345  1.00  0.00     0.203 HD
HETATM    4  C8  UNL     1      -0.719  -2.147   0.014  1.00  0.00     0.696 A 
HETATM    5  N4  UNL     1       0.519  -1.632   0.073  1.00  0.00    -0.154 N 
ATOM      6  H4  UNL     1       1.294  -2.253   0.308  1.00  0.00     0.188 HD
HETATM    7  C12 UNL     1       0.785  -0.335  -0.164  1.00  0.00     0.252 A 
HETATM    8  N9  UNL     1      -0.270   0.476  -0.477  1.00  0.00    -0.154 N 
ATOM      9  H9  UNL     1      -0.101   1.465  -0.662  1.00  0.00     0.188 HD
ENDROOT
BRANCH   7  10
HETATM   10  O1  UNL     1       2.059   0.211  -0.107  1.00  0.00    -0.317 OA
BRANCH  10  11
HETATM   11  C13 UNL     1       3.126  -0.635   0.216  1.00  0.00     0.240 C 
BRANCH  11  12
HETATM   12  C14 UNL     1       4.455   0.066   0.248  1.00  0.00     0.220 C 
HETATM   13  C15 UNL     1       5.499  -0.976   0.668  1.00  0.00     0.073 C 
HETATM   14  N5  UNL     1       4.521   1.128   1.198  1.00  0.00    -0.324 N 
HETATM   15  C16 UNL     1       5.549   2.001   0.782  1.00  0.00     0.268 C 
ATOM     16  H5  UNL     1       3.934   1.236   2.025  1.00  0.00     0.165 HD
HETATM   17  O2  UNL     1       6.174   2.845   1.445  1.00  0.00    -0.270 OA
HETATM   18  C17 UNL     1       5.763   1.720  -0.665  1.00  0.00     0.391 C 
HETATM   19  N8  UNL     1       4.799   0.689  -0.992  1.00  0.00    -0.018 N 
ATOM     20  H82 UNL     1       5.129   0.033  -1.700  1.00  0.00     0.282 HD
ATOM     21  H81 UNL     1       3.992   1.035  -1.511  1.00  0.00     0.282 HD
BRANCH  18  22
HETATM   22  N6  UNL     1       7.105   1.232  -0.920  1.00  0.00    -0.105 NA
BRANCH  22  23
HETATM   23  N7  UNL     1       8.083   2.133  -0.550  1.00  0.00    -0.346 N 
ATOM     24  H72 UNL     1       7.868   3.043  -0.141  1.00  0.00     0.172 HD
ATOM     25  H71 UNL     1       9.027   1.790  -0.729  1.00  0.00     0.172 HD
ENDBRANCH  22  23
ENDBRANCH  18  22
ENDBRANCH  11  12
ENDBRANCH  10  11
ENDBRANCH   7  10
BRANCH   4  26
HETATM   26  N3  UNL     1      -0.962  -3.369   0.240  1.00  0.00    -0.221 N 
ATOM     27  H3  UNL     1      -0.155  -3.948   0.471  1.00  0.00     0.178 HD
BRANCH  26  28
HETATM   28  C9  UNL     1      -2.217  -4.036   0.212  1.00  0.00     0.099 A 
HETATM   29  C10 UNL     1      -3.469  -3.454   0.726  1.00  0.00     0.028 A 
HETATM   30  C11 UNL     1      -2.796  -4.671   1.427  1.00  0.00     0.028 A 
ENDBRANCH  26  28
ENDBRANCH   4  26
BRANCH   1  31
HETATM   31  N1  UNL     1      -2.656   0.824  -0.869  1.00  0.00    -0.221 N 
HETATM   32  C1  UNL     1      -2.506   2.236  -1.151  1.00  0.00     0.168 C 
BRANCH  31  33
HETATM   33  C2  UNL     1      -3.994   0.268  -0.920  1.00  0.00     0.145 C 
BRANCH  33  34
HETATM   34  C3  UNL     1      -4.792   0.833   0.226  1.00  0.00     0.004 C 
HETATM   35  C4  UNL     1      -6.235   0.312   0.279  1.00  0.00     0.006 C 
HETATM   36  C5  UNL     1      -6.686   1.716   0.646  1.00  0.00     0.001 C 
HETATM   37  C6  UNL     1      -5.406   2.202  -0.055  1.00  0.00     0.006 C 
ENDBRANCH  33  34
ENDBRANCH  31  33
ENDBRANCH   1  31
TORSDOF 10
