REMARK  9 active torsions:
REMARK  status: ('A' for Active; 'I' for Inactive)
REMARK    1  A    between atoms: C2_3  and  O2_5 
REMARK    2  A    between atoms: O2_5  and  C3_6 
REMARK    3  A    between atoms: C3_6  and  C4_7 
REMARK    4  A    between atoms: C4_7  and  O3_8 
REMARK    5  A    between atoms: O3_8  and  C5_9 
REMARK    6  A    between atoms: C5_9  and  N2_10 
REMARK    7  A    between atoms: C9_20  and  C10_21 
REMARK    8  A    between atoms: C10_21  and  C11_22 
REMARK    9  A    between atoms: C13_29  and  O7_30 
ROOT
HETATM    1  N1  UNL     1      -4.380   0.785  -5.042  1.00  0.00    -0.186 NA
HETATM    2  C1  UNL     1      -4.735   0.412  -3.995  1.00  0.00     0.170 C 
HETATM    3  C2  UNL     1      -5.146  -0.038  -2.718  1.00  0.00     0.365 C 
HETATM    4  O1  UNL     1      -6.393  -0.106  -2.450  1.00  0.00    -0.247 OA
ENDROOT
BRANCH   3   5
HETATM    5  O2  UNL     1      -4.294  -0.423  -1.697  1.00  0.00    -0.307 OA
BRANCH   5   6
HETATM    6  C3  UNL     1      -4.714  -0.869  -0.429  1.00  0.00     0.206 C 
BRANCH   6   7
HETATM    7  C4  UNL     1      -3.535  -1.194   0.407  1.00  0.00     0.196 C 
BRANCH   7   8
HETATM    8  O3  UNL     1      -2.630  -0.263   0.702  1.00  0.00    -0.369 OA
BRANCH   8   9
HETATM    9  C5  UNL     1      -1.902   0.391  -0.222  1.00  0.00     0.305 C 
BRANCH   9  10
HETATM   10  N2  UNL     1      -1.022   1.309   0.516  1.00  0.00    -0.261 N 
HETATM   11  C6  UNL     1      -1.377   2.551   0.803  1.00  0.00     0.332 A 
HETATM   12  O4  UNL     1      -2.510   2.936   0.411  1.00  0.00    -0.246 OA
HETATM   13  N3  UNL     1      -0.533   3.335   1.488  1.00  0.00    -0.273 N 
HETATM   14  C7  UNL     1       0.677   2.920   1.907  1.00  0.00     0.280 A 
ATOM     15  H3  UNL     1      -0.821   4.290   1.702  1.00  0.00     0.173 HD
HETATM   16  O5  UNL     1       1.486   3.617   2.543  1.00  0.00    -0.265 OA
HETATM   17  C8  UNL     1       1.063   1.610   1.608  1.00  0.00     0.147 A 
HETATM   18  N4  UNL     1       2.134   0.866   1.842  1.00  0.00    -0.338 N 
HETATM   19  C14 UNL     1       0.173   0.828   0.902  1.00  0.00     0.147 A 
HETATM   20  C9  UNL     1       1.994  -0.370   1.323  1.00  0.00     0.089 A 
ATOM     21  H4  UNL     1       2.958   1.187   2.350  1.00  0.00     0.167 HD
HETATM   22  N7  UNL     1       0.782  -0.387   0.745  1.00  0.00    -0.329 N 
ATOM     23  H7  UNL     1       0.376  -1.187   0.261  1.00  0.00     0.168 HD
BRANCH  20  24
HETATM   24  C10 UNL     1       3.006  -1.477   1.401  1.00  0.00     0.138 C 
BRANCH  24  25
HETATM   25  C11 UNL     1       3.947  -1.359   0.248  1.00  0.00     0.071 A 
HETATM   26  N5  UNL     1       5.209  -0.899   0.267  1.00  0.00    -0.308 N 
HETATM   27  C12 UNL     1       5.677  -0.971  -0.984  1.00  0.00     0.326 A 
ATOM     28  H5  UNL     1       5.716  -0.558   1.084  1.00  0.00     0.170 HD
HETATM   29  O6  UNL     1       6.852  -0.613  -1.337  1.00  0.00    -0.247 OA
HETATM   30  N6  UNL     1       4.751  -1.465  -1.810  1.00  0.00    -0.287 N 
HETATM   31  C13 UNL     1       3.673  -1.709  -1.049  1.00  0.00     0.167 A 
ATOM     32  H6  UNL     1       4.844  -1.624  -2.813  1.00  0.00     0.172 HD
BRANCH  31  33
HETATM   33  O7  UNL     1       2.472  -2.242  -1.563  1.00  0.00    -0.345 OA
ATOM     34  H7  UNL     1       2.282  -2.485  -2.462  1.00  0.00     0.219 HD
ENDBRANCH  31  33
ENDBRANCH  24  25
ENDBRANCH  20  24
ENDBRANCH   9  10
ENDBRANCH   8   9
ENDBRANCH   7   8
ENDBRANCH   6   7
ENDBRANCH   5   6
ENDBRANCH   3   5
TORSDOF 9
