REMARK  10 active torsions:
REMARK  status: ('A' for Active; 'I' for Inactive)
REMARK    1  A    between atoms: O1_2  and  C2_3 
REMARK    2  A    between atoms: C2_3  and  C3_4 
REMARK    3  A    between atoms: C3_4  and  O3_6 
REMARK    4  A    between atoms: O3_6  and  C4_7 
REMARK    5  A    between atoms: C4_7  and  N1_8 
REMARK    6  A    between atoms: C5_9  and  C6_10 
REMARK       I    between atoms: C6_10  and  N2_12 
REMARK    7  A    between atoms: N2_12  and  N3_14 
REMARK    8  A    between atoms: C7_16  and  C8_17 
REMARK    9  A    between atoms: C11_20  and  N4_21 
REMARK   10  A    between atoms: C12_26  and  O5_27 
ROOT
HETATM    1  C6  UNL     1      -0.082   1.531  -0.429  1.00  0.00     0.287 C 
HETATM    2  O4  UNL     1      -0.691   1.418  -1.559  1.00  0.00    -0.264 OA
HETATM    3  N2  UNL     1      -0.828   1.222   0.702  1.00  0.00    -0.265 N 
ATOM      4  H2  UNL     1      -0.415   1.302   1.631  1.00  0.00     0.190 HD
ENDROOT
BRANCH   1   5
HETATM    5  C5  UNL     1       1.298   1.975  -0.504  1.00  0.00     0.115 A 
HETATM    6  N1  UNL     1       2.241   1.575   0.298  1.00  0.00    -0.272 N 
HETATM    7  C15 UNL     1       3.466   2.202   0.228  1.00  0.00     0.331 A 
HETATM    8  N6  UNL     1       3.744   3.194  -0.620  1.00  0.00    -0.275 N 
HETATM    9  O7  UNL     1       4.394   1.834   1.001  1.00  0.00    -0.246 OA
HETATM   10  C14 UNL     1       2.776   3.597  -1.444  1.00  0.00     0.251 A 
ATOM     11  H6  UNL     1       4.666   3.630  -0.637  1.00  0.00     0.173 HD
HETATM   12  C13 UNL     1       1.533   3.030  -1.437  1.00  0.00     0.110 A 
HETATM   13  O6  UNL     1       3.039   4.530  -2.245  1.00  0.00    -0.268 OA
BRANCH   6  14
HETATM   14  C4  UNL     1       2.247   0.435   1.175  1.00  0.00     0.314 C 
BRANCH  14  15
HETATM   15  O3  UNL     1       2.975  -0.651   0.701  1.00  0.00    -0.299 OA
BRANCH  15  16
HETATM   16  C3  UNL     1       2.838  -1.377  -0.395  1.00  0.00     0.284 C 
HETATM   17  O2  UNL     1       1.924  -1.132  -1.222  1.00  0.00    -0.263 OA
BRANCH  16  18
HETATM   18  C2  UNL     1       3.708  -2.536  -0.784  1.00  0.00     0.278 C 
BRANCH  18  19
HETATM   19  O1  UNL     1       4.732  -2.812   0.057  1.00  0.00    -0.386 OA
HETATM   20  C1  UNL     1       5.699  -1.871   0.244  1.00  0.00     0.202 C 
ENDBRANCH  18  19
ENDBRANCH  16  18
ENDBRANCH  15  16
ENDBRANCH  14  15
ENDBRANCH   6  14
ENDBRANCH   1   5
BRANCH   3  21
HETATM   21  N3  UNL     1      -2.164   0.797   0.549  1.00  0.00    -0.308 N 
HETATM   22  C7  UNL     1      -2.459  -0.427   0.290  1.00  0.00     0.122 C 
ATOM     23  H3  UNL     1      -2.916   1.479   0.646  1.00  0.00     0.186 HD
BRANCH  22  24
HETATM   24  C8  UNL     1      -3.853  -0.802   0.144  1.00  0.00     0.032 A 
HETATM   25  C9  UNL     1      -4.209  -2.118  -0.137  1.00  0.00     0.021 A 
HETATM   26  C10 UNL     1      -5.541  -2.469  -0.275  1.00  0.00     0.049 A 
HETATM   27  C11 UNL     1      -6.511  -1.510  -0.133  1.00  0.00     0.100 A 
HETATM   28  N5  UNL     1      -6.166  -0.232   0.140  1.00  0.00    -0.323 N 
HETATM   29  C12 UNL     1      -4.879   0.097   0.271  1.00  0.00     0.153 A 
ATOM     30  H5  UNL     1      -6.888   0.480   0.246  1.00  0.00     0.169 HD
BRANCH  27  31
HETATM   31  N4  UNL     1      -7.761  -1.777  -0.250  1.00  0.00    -0.385 N 
ATOM     32  H42 UNL     1      -8.021  -2.741  -0.456  1.00  0.00     0.157 HD
ATOM     33  H41 UNL     1      -8.482  -1.064  -0.144  1.00  0.00     0.157 HD
ENDBRANCH  27  31
BRANCH  29  34
HETATM   34  O5  UNL     1      -4.512   1.426   0.555  1.00  0.00    -0.345 OA
ATOM     35  H5  UNL     1      -5.223   2.049   0.643  1.00  0.00     0.219 HD
ENDBRANCH  29  34
ENDBRANCH  22  24
ENDBRANCH   3  21
TORSDOF 10
