REMARK  9 active torsions:
REMARK  status: ('A' for Active; 'I' for Inactive)
REMARK    1  A    between atoms: N1_1  and  C1_5 
REMARK    2  A    between atoms: C8_15  and  O1_16 
REMARK    3  A    between atoms: O1_16  and  N3_17 
REMARK       I    between atoms: N3_17  and  C9_19 
REMARK    4  A    between atoms: C9_19  and  C10_21 
REMARK       I    between atoms: C10_21  and  N4_23 
REMARK    5  A    between atoms: N4_23  and  O4_25 
REMARK    6  A    between atoms: O4_25  and  C11_26 
REMARK    7  A    between atoms: C11_26  and  C12_27 
REMARK    8  A    between atoms: C12_27  and  O5_28 
REMARK    9  A    between atoms: O5_28  and  S1_29 
ROOT
HETATM    1  O1  UNL     1      -2.056   0.260  -1.077  1.00  0.00    -0.267 OA
ENDROOT
BRANCH   1   2
HETATM    2  C8  UNL     1      -2.754  -0.495  -0.183  1.00  0.00     0.218 C 
HETATM    3  C1  UNL     1      -3.783  -1.388  -0.948  1.00  0.00     0.217 C 
HETATM    4  C2  UNL     1      -4.790  -1.758   0.111  1.00  0.00     0.038 C 
HETATM    5  C3  UNL     1      -4.464  -0.933   1.330  1.00  0.00     0.044 C 
HETATM    6  C4  UNL     1      -3.738   0.252   0.672  1.00  0.00     0.156 C 
HETATM    7  C5  UNL     1      -3.192   1.190   1.668  1.00  0.00     0.043 C 
HETATM    8  N2  UNL     1      -4.707   0.969  -0.137  1.00  0.00    -0.064 N 
HETATM    9  C6  UNL     1      -3.544   2.581   1.148  1.00  0.00     0.030 C 
HETATM   10  C7  UNL     1      -4.338   2.351  -0.111  1.00  0.00     0.233 C 
ATOM     11  H22 UNL     1      -4.793   0.596  -1.082  1.00  0.00     0.278 HD
ATOM     12  H21 UNL     1      -5.670   0.807   0.156  1.00  0.00     0.278 HD
BRANCH   3  13
HETATM   13  N1  UNL     1      -3.046  -2.507  -1.438  1.00  0.00    -0.072 N 
ATOM     14  H13 UNL     1      -2.599  -3.011  -0.672  1.00  0.00     0.274 HD
ATOM     15  H12 UNL     1      -3.675  -3.237  -1.774  1.00  0.00     0.274 HD
ATOM     16  H11 UNL     1      -2.365  -2.257  -2.155  1.00  0.00     0.274 HD
ENDBRANCH   3  13
ENDBRANCH   1   2
BRANCH   1  17
HETATM   17  N3  UNL     1      -0.812  -0.089  -1.369  1.00  0.00    -0.226 N 
HETATM   18  C9  UNL     1       0.358   0.112  -0.616  1.00  0.00     0.335 C 
HETATM   19  O2  UNL     1       0.308   0.685   0.495  1.00  0.00    -0.260 OA
ATOM     20  H3  UNL     1      -0.686  -0.568  -2.261  1.00  0.00     0.198 HD
BRANCH  18  21
HETATM   21  C10 UNL     1       1.650  -0.328  -1.091  1.00  0.00     0.335 C 
HETATM   22  O3  UNL     1       1.719  -0.919  -2.213  1.00  0.00    -0.260 OA
HETATM   23  N4  UNL     1       2.814  -0.096  -0.312  1.00  0.00    -0.227 N 
ATOM     24  H4  UNL     1       2.730   0.380   0.586  1.00  0.00     0.198 HD
BRANCH  23  25
HETATM   25  O4  UNL     1       4.026  -0.493  -0.739  1.00  0.00    -0.275 OA
BRANCH  25  26
HETATM   26  C11 UNL     1       4.987   0.000   0.141  1.00  0.00     0.229 C 
BRANCH  26  27
HETATM   27  C12 UNL     1       6.373  -0.376  -0.268  1.00  0.00     0.221 C 
BRANCH  27  28
HETATM   28  O5  UNL     1       7.265   0.156   0.663  1.00  0.00    -0.255 OA
BRANCH  28  29
HETATM   29  S1  UNL     1       8.818  -0.250   0.184  1.00  0.00     0.251 S 
HETATM   30  O6  UNL     1       9.752  -0.390   1.374  1.00  0.00    -0.572 OA
HETATM   31  O7  UNL     1       8.745  -1.525  -0.601  1.00  0.00    -0.572 OA
HETATM   32  O8  UNL     1       9.474   0.983  -0.771  1.00  0.00    -0.572 OA
ENDBRANCH  28  29
ENDBRANCH  27  28
ENDBRANCH  26  27
ENDBRANCH  25  26
ENDBRANCH  23  25
ENDBRANCH  18  21
ENDBRANCH   1  17
TORSDOF 9
