REMARK  12 active torsions:
REMARK  status: ('A' for Active; 'I' for Inactive)
REMARK    1  A    between atoms: C2_2  and  N1_3 
REMARK    2  A    between atoms: C3_6  and  O1_7 
REMARK    3  A    between atoms: C5_10  and  C6_11 
REMARK    4  A    between atoms: C6_11  and  N3_12 
REMARK    5  A    between atoms: N3_12  and  C7_14 
REMARK    6  A    between atoms: C8_17  and  N5_18 
REMARK    7  A    between atoms: N5_18  and  C9_20 
REMARK    8  A    between atoms: C9_20  and  C10_21 
REMARK    9  A    between atoms: C10_21  and  O2_22 
REMARK   10  A    between atoms: N8_32  and  C15_33 
REMARK   11  A    between atoms: C15_33  and  C16_34 
REMARK   12  A    between atoms: C16_34  and  O4_35 
ROOT
HETATM    1  C7  UNL     1       0.220  -0.059  -0.018  1.00  0.00     0.148 A 
HETATM    2  N4  UNL     1      -0.222   1.218  -0.104  1.00  0.00    -0.175 N 
ATOM      3  H4  UNL     1       0.448   1.949  -0.345  1.00  0.00     0.186 HD
HETATM    4  C8  UNL     1      -1.504   1.569   0.114  1.00  0.00     0.681 A 
HETATM    5  N6  UNL     1      -2.402   0.621   0.434  1.00  0.00    -0.174 N 
ATOM      6  H6  UNL     1      -3.374   0.883   0.600  1.00  0.00     0.186 HD
HETATM    7  C11 UNL     1      -2.034  -0.673   0.538  1.00  0.00     0.158 A 
HETATM    8  C12 UNL     1      -0.725  -1.007   0.312  1.00  0.00     0.128 A 
HETATM    9  N7  UNL     1      -0.589  -2.330   0.469  1.00  0.00    -0.297 N 
HETATM   10  C13 UNL     1       0.619  -3.108   0.326  1.00  0.00     0.161 C 
HETATM   11  C14 UNL     1      -1.821  -2.808   0.792  1.00  0.00     0.330 A 
HETATM   12  O3  UNL     1      -2.032  -4.026   1.007  1.00  0.00    -0.246 OA
HETATM   13  N8  UNL     1      -2.701  -1.801   0.835  1.00  0.00    -0.281 N 
ENDROOT
BRANCH   1  14
HETATM   14  N3  UNL     1       1.440  -0.361  -0.230  1.00  0.00    -0.368 N 
ATOM     15  H3  UNL     1       1.699  -1.344  -0.146  1.00  0.00     0.161 HD
BRANCH  14  16
HETATM   16  C6  UNL     1       2.473   0.559  -0.574  1.00  0.00     0.180 C 
BRANCH  16  17
HETATM   17  C5  UNL     1       3.643  -0.116  -1.221  1.00  0.00     0.050 A 
HETATM   18  N1  UNL     1       4.726  -0.623  -0.587  1.00  0.00    -0.293 N 
HETATM   19  N2  UNL     1       5.554  -1.141  -1.470  1.00  0.00    -0.278 N 
HETATM   20  C3  UNL     1       5.046  -0.992  -2.710  1.00  0.00     0.156 A 
ATOM     21  H2  UNL     1       6.444  -1.587  -1.249  1.00  0.00     0.189 HD
HETATM   22  C4  UNL     1       3.826  -0.338  -2.550  1.00  0.00     0.085 A 
BRANCH  18  23
HETATM   23  C2  UNL     1       4.934  -0.597   0.840  1.00  0.00     0.144 C 
HETATM   24  C1  UNL     1       5.673   0.670   1.258  1.00  0.00     0.028 C 
ENDBRANCH  18  23
BRANCH  20  25
HETATM   25  O1  UNL     1       5.606  -1.400  -3.908  1.00  0.00    -0.345 OA
ATOM     26  H1  UNL     1       5.248  -1.295  -4.782  1.00  0.00     0.219 HD
ENDBRANCH  20  25
ENDBRANCH  16  17
ENDBRANCH  14  16
ENDBRANCH   1  14
BRANCH   4  27
HETATM   27  N5  UNL     1      -1.818   2.808   0.007  1.00  0.00    -0.224 N 
ATOM     28  H5  UNL     1      -1.073   3.460  -0.239  1.00  0.00     0.177 HD
BRANCH  27  29
HETATM   29  C9  UNL     1      -3.128   3.350   0.204  1.00  0.00     0.164 C 
BRANCH  29  30
HETATM   30  C10 UNL     1      -3.236   4.749  -0.415  1.00  0.00     0.184 C 
BRANCH  30  31
HETATM   31  O2  UNL     1      -4.531   5.226  -0.192  1.00  0.00    -0.399 OA
ATOM     32  H2  UNL     1      -4.598   6.093  -0.575  1.00  0.00     0.209 HD
ENDBRANCH  30  31
ENDBRANCH  29  30
ENDBRANCH  27  29
ENDBRANCH   4  27
BRANCH  13  33
HETATM   33  C15 UNL     1      -4.101  -1.898   1.141  1.00  0.00     0.161 C 
BRANCH  33  34
HETATM   34  C16 UNL     1      -4.952  -2.126  -0.080  1.00  0.00     0.184 C 
BRANCH  34  35
HETATM   35  O4  UNL     1      -6.284  -2.203   0.333  1.00  0.00    -0.399 OA
ATOM     36  H4  UNL     1      -6.821  -2.347  -0.437  1.00  0.00     0.209 HD
ENDBRANCH  34  35
ENDBRANCH  33  34
ENDBRANCH  13  33
TORSDOF 12
