REMARK  15 active torsions:
REMARK  status: ('A' for Active; 'I' for Inactive)
REMARK    1  A    between atoms: N1_1  and  C1_5 
REMARK    2  A    between atoms: C1_5  and  C2_6 
REMARK    3  A    between atoms: C2_6  and  C3_7 
REMARK    4  A    between atoms: C3_7  and  C4_8 
REMARK    5  A    between atoms: C4_8  and  N2_9 
REMARK    6  A    between atoms: C5_10  and  O1_11 
REMARK    7  A    between atoms: N3_14  and  C7_15 
REMARK    8  A    between atoms: C7_15  and  C8_16 
REMARK    9  A    between atoms: C8_16  and  O2_17 
REMARK   10  A    between atoms: C8_16  and  N4_19 
REMARK   11  A    between atoms: N4_19  and  C9_21 
REMARK   12  A    between atoms: C9_21  and  C10_22 
REMARK   13  A    between atoms: C9_21  and  S1_29 
REMARK   14  A    between atoms: C10_22  and  C11_23 
REMARK   15  A    between atoms: S1_29  and  C17_32 
ROOT
HETATM    1  C8  UNL     1      -0.202  -0.622   1.006  1.00  0.00     0.233 C 
ENDROOT
BRANCH   1   2
HETATM    2  C7  UNL     1       0.676  -0.457   2.279  1.00  0.00     0.186 C 
BRANCH   2   3
HETATM    3  N3  UNL     1       2.082  -0.491   1.923  1.00  0.00    -0.301 N 
HETATM    4  C6  UNL     1       2.807  -1.615   1.813  1.00  0.00     0.151 A 
HETATM    5  C5  UNL     1       4.105  -1.176   1.457  1.00  0.00     0.162 A 
HETATM    6  N2  UNL     1       4.121   0.149   1.368  1.00  0.00    -0.279 N 
HETATM    7  C23 UNL     1       2.843   0.563   1.662  1.00  0.00     0.330 A 
HETATM    8  O5  UNL     1       2.435   1.757   1.687  1.00  0.00    -0.246 OA
BRANCH   5   9
HETATM    9  O1  UNL     1       5.158  -2.023   1.249  1.00  0.00    -0.345 OA
ATOM     10  H1  UNL     1       5.147  -2.971   1.313  1.00  0.00     0.219 HD
ENDBRANCH   5   9
BRANCH   6  11
HETATM   11  C4  UNL     1       5.128   1.099   1.054  1.00  0.00     0.136 C 
BRANCH  11  12
HETATM   12  C3  UNL     1       5.256   1.559  -0.341  1.00  0.00     0.022 C 
BRANCH  12  13
HETATM   13  C2  UNL     1       5.657   0.499  -1.307  1.00  0.00     0.029 C 
BRANCH  13  14
HETATM   14  C1  UNL     1       7.046  -0.049  -1.010  1.00  0.00     0.229 C 
BRANCH  14  15
HETATM   15  N1  UNL     1       7.389  -1.066  -1.985  1.00  0.00    -0.079 N 
ATOM     16  H13 UNL     1       6.687  -1.804  -2.033  1.00  0.00     0.274 HD
ATOM     17  H12 UNL     1       7.308  -0.723  -2.942  1.00  0.00     0.274 HD
ATOM     18  H11 UNL     1       8.320  -1.433  -1.786  1.00  0.00     0.274 HD
ENDBRANCH  14  15
ENDBRANCH  13  14
ENDBRANCH  12  13
ENDBRANCH  11  12
ENDBRANCH   6  11
ENDBRANCH   2   3
ENDBRANCH   1   2
BRANCH   1  19
HETATM   19  O2  UNL     1       0.188  -1.858   0.515  1.00  0.00    -0.376 OA
ATOM     20  H2  UNL     1      -0.348  -1.959  -0.263  1.00  0.00     0.212 HD
ENDBRANCH   1  19
BRANCH   1  21
HETATM   21  N4  UNL     1      -1.525  -0.493   1.445  1.00  0.00    -0.378 N 
ATOM     22  H4  UNL     1      -1.768  -0.889   2.353  1.00  0.00     0.157 HD
BRANCH  21  23
HETATM   23  C9  UNL     1      -2.525   0.140   0.723  1.00  0.00     0.212 C 
BRANCH  23  24
HETATM   24  C10 UNL     1      -3.008  -0.532  -0.522  1.00  0.00     0.079 C 
BRANCH  24  25
HETATM   25  C11 UNL     1      -3.616  -1.859  -0.305  1.00  0.00    -0.055 A 
HETATM   26  C12 UNL     1      -2.970  -3.024  -0.525  1.00  0.00     0.007 A 
HETATM   27  C13 UNL     1      -3.561  -4.278  -0.296  1.00  0.00     0.001 A 
HETATM   28  C14 UNL     1      -4.836  -4.336   0.166  1.00  0.00     0.000 A 
HETATM   29  C15 UNL     1      -5.541  -3.163   0.407  1.00  0.00     0.001 A 
HETATM   30  C16 UNL     1      -4.932  -1.952   0.172  1.00  0.00     0.007 A 
ENDBRANCH  24  25
ENDBRANCH  23  24
BRANCH  23  31
HETATM   31  S1  UNL     1      -2.218   1.879   0.427  1.00  0.00     0.197 S 
HETATM   32  O3  UNL     1      -1.083   2.059  -0.548  1.00  0.00    -0.220 OA
HETATM   33  O4  UNL     1      -1.930   2.534   1.742  1.00  0.00    -0.220 OA
BRANCH  31  34
HETATM   34  C17 UNL     1      -3.592   2.684  -0.277  1.00  0.00     0.061 A 
HETATM   35  C18 UNL     1      -4.483   3.355   0.542  1.00  0.00     0.023 A 
HETATM   36  C19 UNL     1      -5.603   4.011   0.007  1.00  0.00     0.002 A 
HETATM   37  C20 UNL     1      -5.825   3.987  -1.372  1.00  0.00     0.000 A 
HETATM   38  C21 UNL     1      -4.948   3.328  -2.167  1.00  0.00     0.002 A 
HETATM   39  C22 UNL     1      -3.845   2.683  -1.628  1.00  0.00     0.023 A 
ENDBRANCH  31  34
ENDBRANCH  23  31
ENDBRANCH  21  23
ENDBRANCH   1  21
TORSDOF 15
