REMARK  15 active torsions:
REMARK  status: ('A' for Active; 'I' for Inactive)
REMARK    1  A    between atoms: C2_2  and  O1_3 
REMARK    2  A    between atoms: C2_2  and  C3_5 
REMARK    3  A    between atoms: C3_5  and  O2_6 
REMARK    4  A    between atoms: O2_6  and  C4_7 
REMARK    5  A    between atoms: C7_10  and  C8_11 
REMARK    6  A    between atoms: C9_12  and  C10_13 
REMARK    7  A    between atoms: C10_13  and  O3_14 
REMARK    8  A    between atoms: O3_14  and  C11_15 
REMARK    9  A    between atoms: C12_17  and  C13_18 
REMARK   10  A    between atoms: C13_18  and  O5_19 
REMARK   11  A    between atoms: C14_21  and  O6_22 
REMARK   12  A    between atoms: C15_24  and  O7_25 
REMARK   13  A    between atoms: C16_27  and  O8_28 
REMARK   14  A    between atoms: O8_28  and  C17_29 
REMARK   15  A    between atoms: C17_29  and  C18_30 
ROOT
HETATM    1  C11 UNL     1      -2.647  -1.530  -1.144  1.00  0.00     0.292 C 
HETATM    2  O4  UNL     1      -3.767  -1.341  -1.906  1.00  0.00    -0.348 OA
HETATM    3  C12 UNL     1      -4.939  -1.876  -1.466  1.00  0.00     0.179 C 
HETATM    4  C14 UNL     1      -4.980  -2.375  -0.067  1.00  0.00     0.180 C 
HETATM    5  C15 UNL     1      -4.085  -1.701   0.905  1.00  0.00     0.183 C 
HETATM    6  C16 UNL     1      -2.845  -1.101   0.302  1.00  0.00     0.208 C 
ENDROOT
BRANCH   1   7
HETATM    7  O3  UNL     1      -2.257  -2.826  -1.156  1.00  0.00    -0.355 OA
BRANCH   7   8
HETATM    8  C10 UNL     1      -1.040  -3.158  -1.618  1.00  0.00     0.198 C 
BRANCH   8   9
HETATM    9  C9  UNL     1       0.130  -2.582  -0.936  1.00  0.00     0.000 C 
HETATM   10  C8  UNL     1       0.984  -1.834  -1.567  1.00  0.00     0.011 C 
BRANCH  10  11
HETATM   11  C7  UNL     1       2.169  -1.205  -1.036  1.00  0.00    -0.021 A 
HETATM   12  C6  UNL     1       2.999  -0.433  -1.814  1.00  0.00     0.017 A 
HETATM   13  C5  UNL     1       4.142   0.164  -1.279  1.00  0.00     0.057 A 
HETATM   14  C4  UNL     1       4.480   0.004   0.044  1.00  0.00     0.143 A 
HETATM   15  N1  UNL     1       3.628  -0.776   0.794  1.00  0.00    -0.341 N 
HETATM   16  C24 UNL     1       2.530  -1.349   0.280  1.00  0.00     0.104 A 
HETATM   17  C25 UNL     1       3.936  -0.978   2.197  1.00  0.00     0.158 C 
BRANCH  14  18
HETATM   18  O2  UNL     1       5.573   0.550   0.658  1.00  0.00    -0.333 OA
BRANCH  18  19
HETATM   19  C3  UNL     1       6.569   1.374   0.181  1.00  0.00     0.208 C 
BRANCH  19  20
HETATM   20  C2  UNL     1       6.101   2.734  -0.267  1.00  0.00     0.138 C 
HETATM   21  C1  UNL     1       5.560   3.480   0.969  1.00  0.00     0.041 C 
BRANCH  20  22
HETATM   22  O1  UNL     1       7.212   3.465  -0.732  1.00  0.00    -0.394 OA
ATOM     23  H1  UNL     1       7.545   3.005  -1.494  1.00  0.00     0.210 HD
ENDBRANCH  20  22
ENDBRANCH  19  20
ENDBRANCH  18  19
ENDBRANCH  14  18
ENDBRANCH  10  11
ENDBRANCH   8   9
ENDBRANCH   7   8
ENDBRANCH   1   7
BRANCH   6  24
HETATM   24  O8  UNL     1      -2.800   0.283   0.446  1.00  0.00    -0.374 OA
BRANCH  24  25
HETATM   25  C17 UNL     1      -1.753   0.746   1.197  1.00  0.00     0.207 C 
BRANCH  25  26
HETATM   26  C18 UNL     1      -1.870   2.239   1.241  1.00  0.00    -0.035 A 
HETATM   27  C19 UNL     1      -2.896   2.913   0.601  1.00  0.00     0.009 A 
HETATM   28  C20 UNL     1      -3.010   4.287   0.639  1.00  0.00     0.001 A 
HETATM   29  C21 UNL     1      -2.069   5.019   1.338  1.00  0.00     0.000 A 
HETATM   30  C22 UNL     1      -1.039   4.370   1.984  1.00  0.00     0.001 A 
HETATM   31  C23 UNL     1      -0.955   2.999   1.926  1.00  0.00     0.009 A 
ENDBRANCH  25  26
ENDBRANCH  24  25
ENDBRANCH   6  24
BRANCH   3  32
HETATM   32  C13 UNL     1      -5.513  -2.898  -2.457  1.00  0.00     0.198 C 
BRANCH  32  33
HETATM   33  O5  UNL     1      -4.649  -3.948  -2.669  1.00  0.00    -0.398 OA
ATOM     34  H5  UNL     1      -5.004  -4.581  -3.282  1.00  0.00     0.209 HD
ENDBRANCH  32  33
ENDBRANCH   3  32
BRANCH   5  35
HETATM   35  O7  UNL     1      -3.766  -2.579   1.961  1.00  0.00    -0.390 OA
ATOM     36  H7  UNL     1      -3.193  -2.147   2.584  1.00  0.00     0.210 HD
ENDBRANCH   5  35
BRANCH   4  37
HETATM   37  O6  UNL     1      -4.770  -3.774  -0.116  1.00  0.00    -0.390 OA
ATOM     38  H6  UNL     1      -4.796  -4.093   0.778  1.00  0.00     0.210 HD
ENDBRANCH   4  37
TORSDOF 15
