REMARK  15 active torsions:
REMARK  status: ('A' for Active; 'I' for Inactive)
REMARK    1  A    between atoms: C3_3  and  O1_6 
REMARK    2  A    between atoms: O1_6  and  C6_7 
REMARK    3  A    between atoms: C6_7  and  C7_8 
REMARK    4  A    between atoms: C7_8  and  O2_9 
REMARK    5  A    between atoms: O2_9  and  C8_10 
REMARK    6  A    between atoms: C10_12  and  O3_13 
REMARK    7  A    between atoms: O3_13  and  C11_14 
REMARK    8  A    between atoms: C11_14  and  C12_16 
REMARK    9  A    between atoms: C12_16  and  N1_17 
REMARK   10  A    between atoms: C12_16  and  C13_21 
REMARK   11  A    between atoms: C13_21  and  C14_22 
REMARK   12  A    between atoms: C14_22  and  O5_23 
REMARK   13  A    between atoms: O5_23  and  N2_24 
REMARK   14  A    between atoms: C18_31  and  N5_32 
REMARK   15  A    between atoms: N5_32  and  C19_34 
ROOT
HETATM    1  C1  UNL     1      -7.579   2.236   1.760  1.00  0.00     0.015 C 
HETATM    2  C2  UNL     1      -6.895   2.277   0.771  1.00  0.00    -0.080 C 
HETATM    3  C3  UNL     1      -6.062   2.345  -0.414  1.00  0.00     0.115 C 
HETATM    4  C4  UNL     1      -6.111   3.791  -0.914  1.00  0.00     0.060 C 
HETATM    5  C5  UNL     1      -6.709   1.480  -1.494  1.00  0.00     0.060 C 
ENDROOT
BRANCH   3   6
HETATM    6  O1  UNL     1      -4.748   2.033  -0.203  1.00  0.00    -0.366 OA
BRANCH   6   7
HETATM    7  C6  UNL     1      -4.505   0.775   0.278  1.00  0.00     0.196 C 
BRANCH   7   8
HETATM    8  C7  UNL     1      -3.009   0.615   0.445  1.00  0.00     0.202 C 
BRANCH   8   9
HETATM    9  O2  UNL     1      -2.674  -0.666   0.942  1.00  0.00    -0.347 OA
BRANCH   9  10
HETATM   10  C8  UNL     1      -1.334  -0.961   1.148  1.00  0.00     0.098 A 
HETATM   11  C9  UNL     1      -0.346  -0.030   0.877  1.00  0.00     0.076 A 
HETATM   12  C10 UNL     1       0.977  -0.355   1.092  1.00  0.00     0.082 A 
HETATM   13  C16 UNL     1       1.284  -1.609   1.577  1.00  0.00     0.040 A 
HETATM   14  C17 UNL     1       0.282  -2.538   1.846  1.00  0.00     0.035 A 
HETATM   15  C18 UNL     1      -1.039  -2.218   1.632  1.00  0.00     0.067 A 
BRANCH  12  16
HETATM   16  O3  UNL     1       2.023   0.514   0.849  1.00  0.00    -0.277 OA
BRANCH  16  17
HETATM   17  C11 UNL     1       2.638   0.549  -0.386  1.00  0.00     0.294 C 
HETATM   18  O4  UNL     1       2.225  -0.226  -1.282  1.00  0.00    -0.263 OA
BRANCH  17  19
HETATM   19  C12 UNL     1       3.751   1.490  -0.606  1.00  0.00     0.284 C 
BRANCH  19  20
HETATM   20  N1  UNL     1       3.978   2.233   0.616  1.00  0.00    -0.066 N 
ATOM     21  H13 UNL     1       3.135   2.698   0.953  1.00  0.00     0.275 HD
ATOM     22  H12 UNL     1       4.134   1.625   1.420  1.00  0.00     0.275 HD
ATOM     23  H11 UNL     1       4.748   2.884   0.464  1.00  0.00     0.275 HD
ENDBRANCH  19  20
BRANCH  19  24
HETATM   24  C13 UNL     1       5.002   0.640  -0.830  1.00  0.00     0.072 C 
BRANCH  24  25
HETATM   25  C14 UNL     1       6.187   1.565  -1.063  1.00  0.00     0.203 C 
BRANCH  25  26
HETATM   26  O5  UNL     1       7.336   0.771  -1.269  1.00  0.00    -0.278 OA
BRANCH  26  27
HETATM   27  N2  UNL     1       8.535   1.379  -1.501  1.00  0.00    -0.241 N 
HETATM   28  C15 UNL     1       9.205   2.030  -0.612  1.00  0.00     0.221 C 
HETATM   29  N3  UNL     1      10.443   2.610  -1.006  1.00  0.00    -0.065 NA
HETATM   30  N4  UNL     1       8.797   2.207   0.726  1.00  0.00    -0.065 NA
ATOM     31  H2  UNL     1       8.928   1.314  -2.440  1.00  0.00     0.196 HD
ENDBRANCH  26  27
ENDBRANCH  25  26
ENDBRANCH  24  25
ENDBRANCH  19  24
ENDBRANCH  17  19
ENDBRANCH  16  17
ENDBRANCH  12  16
BRANCH  15  32
HETATM   32  N5  UNL     1      -2.085  -3.144   1.898  1.00  0.00    -0.340 N 
ATOM     33  H5  UNL     1      -2.584  -3.084   2.786  1.00  0.00     0.167 HD
BRANCH  32  34
HETATM   34  C19 UNL     1      -2.425  -4.061   1.050  1.00  0.00     0.105 A 
HETATM   35  C20 UNL     1      -3.445  -4.911   1.391  1.00  0.00     0.048 A 
HETATM   36  C21 UNL     1      -3.863  -5.905   0.551  1.00  0.00     0.005 A 
HETATM   37  C22 UNL     1      -3.230  -6.043  -0.669  1.00  0.00     0.017 A 
HETATM   38  C23 UNL     1      -2.207  -5.172  -0.980  1.00  0.00     0.089 A 
HETATM   39  N6  UNL     1      -1.822  -4.208  -0.135  1.00  0.00    -0.352 N 
ATOM     40  H6  UNL     1      -1.062  -3.580  -0.397  1.00  0.00     0.166 HD
ENDBRANCH  32  34
ENDBRANCH  15  32
ENDBRANCH   9  10
ENDBRANCH   8   9
ENDBRANCH   7   8
ENDBRANCH   6   7
ENDBRANCH   3   6
TORSDOF 15
