REMARK  21 active torsions:
REMARK  status: ('A' for Active; 'I' for Inactive)
REMARK    1  A    between atoms: C2_2  and  C4_4 
REMARK    2  A    between atoms: C4_4  and  C5_5 
REMARK    3  A    between atoms: C5_5  and  N1_6 
REMARK    4  A    between atoms: C5_5  and  C11_15 
REMARK       I    between atoms: N1_6  and  C6_8 
REMARK    5  A    between atoms: C6_8  and  O2_10 
REMARK    6  A    between atoms: O2_10  and  C7_11 
REMARK    7  A    between atoms: C11_15  and  O3_16 
REMARK    8  A    between atoms: C11_15  and  N2_18 
REMARK       I    between atoms: N2_18  and  C12_20 
REMARK    9  A    between atoms: C12_20  and  C13_22 
REMARK   10  A    between atoms: C13_22  and  N3_23 
REMARK   11  A    between atoms: C13_22  and  C32_52 
REMARK   12  A    between atoms: C14_25  and  C16_27 
REMARK   13  A    between atoms: C16_27  and  C17_28 
REMARK   14  A    between atoms: C16_27  and  N4_31 
REMARK   15  A    between atoms: C17_28  and  O5_29 
REMARK       I    between atoms: N4_31  and  C18_33 
REMARK   16  A    between atoms: C18_33  and  C19_35 
REMARK   17  A    between atoms: C19_35  and  C22_38 
REMARK   18  A    between atoms: C22_38  and  C23_39 
REMARK   19  A    between atoms: C22_38  and  N5_41 
REMARK       I    between atoms: N5_41  and  C24_43 
REMARK   20  A    between atoms: C24_43  and  C25_45 
REMARK   21  A    between atoms: C25_45  and  C26_46 
ROOT
HETATM    1  N3  UNL     1      -0.679   2.635  -1.746  1.00  0.00    -0.360 N 
ATOM      2  H3  UNL     1      -0.607   3.552  -2.187  1.00  0.00     0.165 HD
HETATM    3  C14 UNL     1       0.097   2.566  -0.654  1.00  0.00     0.008 C 
HETATM    4  C15 UNL     1      -0.328   2.258   0.732  1.00  0.00     0.065 C 
ENDROOT
BRANCH   1   5
HETATM    5  C13 UNL     1      -1.541   1.826  -2.439  1.00  0.00     0.081 C 
BRANCH   5   6
HETATM    6  C12 UNL     1      -2.798   1.390  -1.733  1.00  0.00     0.270 C 
HETATM    7  N2  UNL     1      -3.756   0.679  -2.472  1.00  0.00    -0.304 N 
ATOM      8  H2  UNL     1      -3.509   0.519  -3.449  1.00  0.00     0.171 HD
HETATM    9  O4  UNL     1      -2.950   1.665  -0.559  1.00  0.00    -0.266 OA
BRANCH   7  10
HETATM   10  C11 UNL     1      -4.989   0.156  -2.089  1.00  0.00     0.141 C 
BRANCH  10  11
HETATM   11  C5  UNL     1      -5.734   0.246  -0.830  1.00  0.00     0.162 C 
BRANCH  11  12
HETATM   12  C4  UNL     1      -6.330   1.580  -0.541  1.00  0.00     0.037 C 
BRANCH  12  13
HETATM   13  C2  UNL     1      -7.335   2.138  -1.480  1.00  0.00    -0.020 C 
HETATM   14  C1  UNL     1      -7.743   3.548  -0.950  1.00  0.00     0.009 C 
HETATM   15  C3  UNL     1      -8.624   1.360  -1.442  1.00  0.00     0.009 C 
ENDBRANCH  12  13
ENDBRANCH  11  12
BRANCH  11  16
HETATM   16  N1  UNL     1      -6.767  -0.805  -0.860  1.00  0.00    -0.325 N 
HETATM   17  C6  UNL     1      -6.964  -1.726   0.201  1.00  0.00     0.362 C 
HETATM   18  O1  UNL     1      -6.232  -1.649   1.208  1.00  0.00    -0.238 OA
ATOM     19  H1  UNL     1      -7.368  -0.873  -1.681  1.00  0.00     0.165 HD
BRANCH  17  20
HETATM   20  O2  UNL     1      -7.935  -2.697   0.150  1.00  0.00    -0.294 OA
BRANCH  20  21
HETATM   21  C7  UNL     1      -8.129  -3.602   1.185  1.00  0.00     0.061 C 
HETATM   22  C8  UNL     1      -8.469  -2.963   2.505  1.00  0.00     0.046 C 
HETATM   23  C9  UNL     1      -9.319  -4.483   0.782  1.00  0.00     0.046 C 
HETATM   24  C10 UNL     1      -6.942  -4.549   1.346  1.00  0.00     0.046 C 
ENDBRANCH  20  21
ENDBRANCH  17  20
ENDBRANCH  11  16
ENDBRANCH  10  11
BRANCH  10  25
HETATM   25  O3  UNL     1      -5.578  -0.540  -3.027  1.00  0.00    -0.348 OA
ATOM     26  H3  UNL     1      -5.095  -0.598  -3.843  1.00  0.00     0.219 HD
ENDBRANCH  10  25
ENDBRANCH   7  10
ENDBRANCH   5   6
BRANCH   5  27
HETATM   27  C32 UNL     1      -1.009   0.685  -3.277  1.00  0.00     0.033 C 
HETATM   28  C33 UNL     1       0.215   1.049  -4.025  1.00  0.00     0.016 C 
HETATM   29  C34 UNL     1      -0.852  -0.595  -2.508  1.00  0.00     0.016 C 
ENDBRANCH   5  27
ENDBRANCH   1   5
BRANCH   3  30
HETATM   30  C16 UNL     1       1.535   2.176  -0.881  1.00  0.00     0.153 C 
BRANCH  30  31
HETATM   31  C17 UNL     1       2.260   3.201  -1.774  1.00  0.00     0.195 C 
BRANCH  31  32
HETATM   32  O5  UNL     1       3.554   2.752  -2.014  1.00  0.00    -0.398 OA
ATOM     33  H5  UNL     1       4.001   3.384  -2.565  1.00  0.00     0.209 HD
ENDBRANCH  31  32
ENDBRANCH  30  31
BRANCH  30  34
HETATM   34  N4  UNL     1       2.354   2.174   0.330  1.00  0.00    -0.349 N 
HETATM   35  C18 UNL     1       2.837   0.965   0.918  1.00  0.00     0.228 C 
HETATM   36  O6  UNL     1       2.511  -0.108   0.370  1.00  0.00    -0.273 OA
ATOM     37  H4  UNL     1       2.588   3.064   0.769  1.00  0.00     0.163 HD
BRANCH  35  38
HETATM   38  C19 UNL     1       3.681   1.084   2.115  1.00  0.00     0.060 C 
HETATM   39  C20 UNL     1       2.958   1.840   3.224  1.00  0.00     0.027 C 
HETATM   40  C21 UNL     1       4.903   1.908   1.741  1.00  0.00     0.027 C 
BRANCH  38  41
HETATM   41  C22 UNL     1       4.075  -0.239   2.710  1.00  0.00     0.162 C 
BRANCH  41  42
HETATM   42  C23 UNL     1       2.859  -1.001   3.131  1.00  0.00     0.257 C 
HETATM   43  O7  UNL     1       2.613  -2.132   2.715  1.00  0.00    -0.305 OA
ENDBRANCH  41  42
BRANCH  41  44
HETATM   44  N5  UNL     1       4.863  -1.007   1.786  1.00  0.00    -0.349 N 
HETATM   45  C24 UNL     1       6.242  -1.220   2.006  1.00  0.00     0.218 C 
HETATM   46  O8  UNL     1       6.794  -0.724   3.017  1.00  0.00    -0.274 OA
ATOM     47  H5  UNL     1       4.420  -1.405   0.958  1.00  0.00     0.163 HD
BRANCH  45  48
HETATM   48  C25 UNL     1       7.005  -2.024   1.043  1.00  0.00     0.107 C 
BRANCH  48  49
HETATM   49  C26 UNL     1       8.467  -2.135   1.312  1.00  0.00    -0.006 C 
HETATM   50  C27 UNL     1       9.175  -0.810   1.299  1.00  0.00     0.005 C 
HETATM   51  C28 UNL     1      10.633  -0.990   0.916  1.00  0.00     0.000 C 
HETATM   52  C29 UNL     1      10.700  -1.371  -0.551  1.00  0.00     0.000 C 
HETATM   53  C30 UNL     1       9.485  -2.151  -0.942  1.00  0.00     0.000 C 
HETATM   54  C31 UNL     1       9.087  -3.017   0.249  1.00  0.00     0.005 C 
ENDBRANCH  48  49
ENDBRANCH  45  48
ENDBRANCH  41  44
ENDBRANCH  38  41
ENDBRANCH  35  38
ENDBRANCH  30  34
ENDBRANCH   3  30
TORSDOF 21
