REMARK  14 active torsions:
REMARK  status: ('A' for Active; 'I' for Inactive)
REMARK    1  A    between atoms: O1_1  and  C1_3 
REMARK    2  A    between atoms: C1_3  and  C2_4 
REMARK    3  A    between atoms: C2_4  and  O2_5 
REMARK    4  A    between atoms: C2_4  and  C3_7 
REMARK    5  A    between atoms: C3_7  and  N1_8 
REMARK    6  A    between atoms: N1_8  and  C4_10 
REMARK    7  A    between atoms: C4_10  and  C5_11 
REMARK    8  A    between atoms: C4_10  and  C21_38 
REMARK    9  A    between atoms: C5_11  and  N2_12 
REMARK   10  A    between atoms: N2_12  and  C6_13 
REMARK   11  A    between atoms: C7_16  and  C8_17 
REMARK   12  A    between atoms: C14_25  and  N5_26 
REMARK   13  A    between atoms: N5_26  and  C15_28 
REMARK   14  A    between atoms: C15_28  and  C16_29 
ROOT
HETATM    1  C6  UNL     1      -0.407  -0.023   0.921  1.00  0.00     0.274 A 
HETATM    2  N3  UNL     1      -0.771  -1.258   0.473  1.00  0.00    -0.301 N 
ATOM      3  H3  UNL     1      -0.073  -2.001   0.505  1.00  0.00     0.171 HD
HETATM    4  C7  UNL     1      -1.982  -1.560  -0.005  1.00  0.00     0.134 A 
HETATM    5  N4  UNL     1      -2.917  -0.597  -0.055  1.00  0.00    -0.176 N 
ATOM      6  H4  UNL     1      -3.849  -0.805  -0.415  1.00  0.00     0.186 HD
HETATM    7  C14 UNL     1      -2.621   0.628   0.367  1.00  0.00     0.683 A 
HETATM    8  N7  UNL     1      -1.400   0.919   0.845  1.00  0.00    -0.149 N 
ATOM      9  H7  UNL     1      -1.206   1.869   1.161  1.00  0.00     0.188 HD
ENDROOT
BRANCH   1  10
HETATM   10  N2  UNL     1       0.666   0.205   1.331  1.00  0.00    -0.385 NA
BRANCH  10  11
HETATM   11  C5  UNL     1       1.872   0.428   1.782  1.00  0.00     0.188 C 
BRANCH  11  12
HETATM   12  C4  UNL     1       3.022  -0.371   1.112  1.00  0.00     0.163 C 
BRANCH  12  13
HETATM   13  N1  UNL     1       3.013  -0.052  -0.253  1.00  0.00    -0.406 N 
ATOM     14  H1  UNL     1       2.296   0.578  -0.613  1.00  0.00     0.154 HD
BRANCH  13  15
HETATM   15  C3  UNL     1       3.966  -0.579  -1.134  1.00  0.00     0.148 C 
BRANCH  15  16
HETATM   16  C2  UNL     1       3.609  -0.072  -2.543  1.00  0.00     0.159 C 
BRANCH  16  17
HETATM   17  C1  UNL     1       3.605   1.429  -2.581  1.00  0.00     0.197 C 
BRANCH  17  18
HETATM   18  O1  UNL     1       3.279   1.856  -3.864  1.00  0.00    -0.398 OA
ATOM     19  H1  UNL     1       3.276   2.806  -3.888  1.00  0.00     0.209 HD
ENDBRANCH  17  18
ENDBRANCH  16  17
BRANCH  16  20
HETATM   20  O2  UNL     1       4.547  -0.573  -3.457  1.00  0.00    -0.392 OA
ATOM     21  H2  UNL     1       4.550  -1.523  -3.433  1.00  0.00     0.210 HD
ENDBRANCH  16  20
ENDBRANCH  15  16
ENDBRANCH  13  15
ENDBRANCH  12  13
BRANCH  12  22
HETATM   22  C21 UNL     1       4.263  -0.144   1.864  1.00  0.00    -0.030 A 
HETATM   23  C22 UNL     1       5.410  -0.857   1.593  1.00  0.00     0.009 A 
HETATM   24  C23 UNL     1       6.617  -0.688   2.238  1.00  0.00     0.001 A 
HETATM   25  C24 UNL     1       6.642   0.280   3.228  1.00  0.00     0.000 A 
HETATM   26  C25 UNL     1       5.542   1.022   3.545  1.00  0.00     0.001 A 
HETATM   27  C26 UNL     1       4.355   0.809   2.863  1.00  0.00     0.009 A 
ENDBRANCH  12  22
ENDBRANCH  11  12
ENDBRANCH  10  11
ENDBRANCH   1  10
BRANCH   4  28
HETATM   28  C8  UNL     1      -2.222  -2.936  -0.447  1.00  0.00     0.009 A 
HETATM   29  C9  UNL     1      -3.434  -3.319  -0.933  1.00  0.00     0.015 A 
HETATM   30  C10 UNL     1      -3.620  -4.639  -1.345  1.00  0.00     0.001 A 
HETATM   31  C11 UNL     1      -2.565  -5.542  -1.252  1.00  0.00     0.000 A 
HETATM   32  C12 UNL     1      -1.351  -5.125  -0.756  1.00  0.00     0.001 A 
HETATM   33  C13 UNL     1      -1.156  -3.828  -0.347  1.00  0.00     0.015 A 
ENDBRANCH   4  28
BRANCH   7  34
HETATM   34  N5  UNL     1      -3.523   1.574   0.320  1.00  0.00    -0.220 N 
ATOM     35  H5  UNL     1      -3.308   2.517   0.643  1.00  0.00     0.178 HD
BRANCH  34  36
HETATM   36  C15 UNL     1      -4.821   1.254  -0.196  1.00  0.00     0.195 C 
BRANCH  36  37
HETATM   37  C16 UNL     1      -5.687   2.483  -0.221  1.00  0.00     0.027 A 
HETATM   38  C17 UNL     1      -6.560   2.750   0.815  1.00  0.00     0.027 A 
HETATM   39  C18 UNL     1      -7.334   3.905   0.742  1.00  0.00     0.003 A 
HETATM   40  C19 UNL     1      -7.235   4.761  -0.335  1.00  0.00     0.017 A 
HETATM   41  C20 UNL     1      -6.341   4.428  -1.329  1.00  0.00     0.088 A 
HETATM   42  N6  UNL     1      -5.574   3.300  -1.275  1.00  0.00    -0.368 N 
ATOM     43  H6  UNL     1      -4.922   3.082  -2.029  1.00  0.00     0.165 HD
ENDBRANCH  36  37
ENDBRANCH  34  36
ENDBRANCH   7  34
TORSDOF 14
