REMARK  12 active torsions:
REMARK  status: ('A' for Active; 'I' for Inactive)
REMARK    1  A    between atoms: O1_1  and  C1_3 
REMARK    2  A    between atoms: C1_3  and  C2_4 
REMARK    3  A    between atoms: C1_3  and  C6_18 
REMARK    4  A    between atoms: C2_4  and  O2_5 
REMARK    5  A    between atoms: O2_5  and  C3_6 
REMARK    6  A    between atoms: C3_6  and  C4_7 
REMARK    7  A    between atoms: C4_7  and  N1_8 
REMARK    8  A    between atoms: N1_8  and  C5_10 
REMARK    9  A    between atoms: C6_18  and  O3_19 
REMARK   10  A    between atoms: O3_19  and  C7_20 
REMARK   11  A    between atoms: C11_26  and  C12_27 
REMARK   12  A    between atoms: C12_27  and  C13_28 
ROOT
HETATM    1  C7  UNL     1      -0.571  -1.571   1.024  1.00  0.00     0.099 A 
HETATM    2  C8  UNL     1      -1.122  -2.702   1.582  1.00  0.00     0.056 A 
HETATM    3  C9  UNL     1      -2.406  -2.713   2.113  1.00  0.00     0.091 A 
HETATM    4  N6  UNL     1      -3.132  -1.597   2.085  1.00  0.00    -0.363 N 
ATOM      5  H6  UNL     1      -4.076  -1.591   2.472  1.00  0.00     0.165 HD
HETATM    6  C10 UNL     1      -2.618  -0.479   1.546  1.00  0.00     0.070 A 
HETATM    7  C11 UNL     1      -3.183   0.768   1.414  1.00  0.00    -0.009 A 
HETATM    8  C21 UNL     1      -2.238   1.551   0.797  1.00  0.00     0.098 A 
HETATM    9  N8  UNL     1      -1.129   0.834   0.551  1.00  0.00    -0.361 N 
ATOM     10  H8  UNL     1      -0.280   1.177   0.102  1.00  0.00     0.165 HD
HETATM   11  C22 UNL     1      -1.339  -0.425   1.005  1.00  0.00     0.093 A 
ENDROOT
BRANCH   1  12
HETATM   12  O3  UNL     1       0.703  -1.529   0.487  1.00  0.00    -0.346 OA
BRANCH  12  13
HETATM   13  C6  UNL     1       1.568  -2.655   0.462  1.00  0.00     0.209 C 
BRANCH  13  14
HETATM   14  C1  UNL     1       2.894  -2.281  -0.211  1.00  0.00     0.166 C 
BRANCH  14  15
HETATM   15  O1  UNL     1       3.688  -3.394  -0.200  1.00  0.00    -0.391 OA
ATOM     16  H1  UNL     1       3.351  -4.177  -0.619  1.00  0.00     0.210 HD
ENDBRANCH  14  15
BRANCH  14  17
HETATM   17  C2  UNL     1       3.419  -1.061   0.441  1.00  0.00     0.201 C 
BRANCH  17  18
HETATM   18  O2  UNL     1       4.551  -0.500  -0.039  1.00  0.00    -0.387 OA
BRANCH  18  19
HETATM   19  C3  UNL     1       5.704  -1.215  -0.034  1.00  0.00     0.188 C 
BRANCH  19  20
HETATM   20  C4  UNL     1       6.845  -0.366  -0.625  1.00  0.00     0.164 C 
BRANCH  20  21
HETATM   21  N1  UNL     1       6.957   0.805   0.218  1.00  0.00    -0.222 N 
ATOM     22  H1  UNL     1       6.553   0.811   1.154  1.00  0.00     0.177 HD
BRANCH  21  23
HETATM   23  C5  UNL     1       7.580   1.845  -0.238  1.00  0.00     0.706 A 
HETATM   24  N2  UNL     1       8.152   1.956  -1.452  1.00  0.00    -0.118 N 
HETATM   25  N3  UNL     1       8.678   3.151  -1.540  1.00  0.00    -0.212 N 
ATOM     26  H2  UNL     1       8.172   1.236  -2.175  1.00  0.00     0.207 HD
HETATM   27  N4  UNL     1       8.466   3.822  -0.419  1.00  0.00     0.009 NA
ATOM     28  H3  UNL     1       9.178   3.512  -2.353  1.00  0.00     0.206 HD
HETATM   29  N5  UNL     1       7.784   3.014   0.393  1.00  0.00    -0.114 N 
ATOM     30  H5  UNL     1       7.470   3.244   1.336  1.00  0.00     0.203 HD
ENDBRANCH  21  23
ENDBRANCH  20  21
ENDBRANCH  19  20
ENDBRANCH  18  19
ENDBRANCH  17  18
ENDBRANCH  14  17
ENDBRANCH  13  14
ENDBRANCH  12  13
ENDBRANCH   1  12
BRANCH   7  31
HETATM   31  C12 UNL     1      -4.524   1.191   1.839  1.00  0.00     0.083 C 
BRANCH  31  32
HETATM   32  C13 UNL     1      -5.546   0.684   0.906  1.00  0.00    -0.026 A 
HETATM   33  C14 UNL     1      -6.367  -0.393   1.116  1.00  0.00     0.096 A 
HETATM   34  N7  UNL     1      -7.174  -0.589   0.060  1.00  0.00    -0.365 N 
HETATM   35  C15 UNL     1      -6.888   0.366  -0.856  1.00  0.00     0.042 A 
ATOM     36  H7  UNL     1      -7.875  -1.324  -0.034  1.00  0.00     0.165 HD
HETATM   37  C16 UNL     1      -7.396   0.651  -2.110  1.00  0.00     0.030 A 
HETATM   38  C20 UNL     1      -5.874   1.167  -0.340  1.00  0.00    -0.002 A 
HETATM   39  C17 UNL     1      -6.944   1.699  -2.882  1.00  0.00     0.002 A 
HETATM   40  C18 UNL     1      -5.931   2.475  -2.330  1.00  0.00     0.001 A 
HETATM   41  C19 UNL     1      -5.402   2.230  -1.100  1.00  0.00     0.014 A 
ENDBRANCH  31  32
ENDBRANCH   7  31
TORSDOF 12
