REMARK  10 active torsions:
REMARK  status: ('A' for Active; 'I' for Inactive)
REMARK    1  A    between atoms: C2_2  and  O1_3 
REMARK    2  A    between atoms: N1_6  and  C4_7 
REMARK    3  A    between atoms: C5_10  and  N3_11 
REMARK    4  A    between atoms: C6_16  and  N5_17 
REMARK    5  A    between atoms: C7_24  and  O2_25 
REMARK    6  A    between atoms: O2_25  and  C8_26 
REMARK    7  A    between atoms: C8_26  and  C9_27 
REMARK    8  A    between atoms: C8_26  and  C11_31 
REMARK    9  A    between atoms: C9_27  and  C10_28 
REMARK   10  A    between atoms: C12_35  and  C13_36 
ROOT
HETATM    1  C1  UNL     1       1.786  -2.947   1.735  1.00  0.00     0.057 C 
HETATM    2  C2  UNL     1       1.231  -2.254   0.530  1.00  0.00     0.138 A 
HETATM    3  C3  UNL     1       2.350  -1.454  -0.098  1.00  0.00     0.214 A 
HETATM    4  N1  UNL     1       1.916  -0.073  -0.055  1.00  0.00    -0.117 N 
HETATM    5  N7  UNL     1       0.713  -0.014   0.628  1.00  0.00    -0.264 N 
ATOM      6  H7  UNL     1       0.214   0.851   0.837  1.00  0.00     0.189 HD
HETATM    7  C7  UNL     1       0.302  -1.187   0.967  1.00  0.00     0.170 A 
ENDROOT
BRANCH   7   8
HETATM    8  O2  UNL     1      -0.880  -1.453   1.668  1.00  0.00    -0.322 OA
BRANCH   8   9
HETATM    9  C8  UNL     1      -1.935  -0.510   1.634  1.00  0.00     0.208 C 
BRANCH   9  10
HETATM   10  C9  UNL     1      -3.060  -1.075   2.474  1.00  0.00     0.140 C 
BRANCH  10  11
HETATM   11  C10 UNL     1      -2.629  -1.298   3.879  1.00  0.00     0.234 C 
HETATM   12  N8  UNL     1      -3.553  -1.824   4.815  1.00  0.00    -0.062 NA
HETATM   13  O3  UNL     1      -1.445  -1.005   4.182  1.00  0.00    -0.277 OA
ENDBRANCH  10  11
ENDBRANCH   9  10
BRANCH   9  14
HETATM   14  C11 UNL     1      -2.415  -0.417   0.221  1.00  0.00     0.134 A 
HETATM   15  N9  UNL     1      -2.667  -1.400  -0.639  1.00  0.00    -0.244 N 
HETATM   16  O4  UNL     1      -3.060  -0.870  -1.742  1.00  0.00    -0.214 OA
ATOM     17  H9  UNL     1      -2.566  -2.398  -0.455  1.00  0.00     0.196 HD
HETATM   18  C12 UNL     1      -3.080   0.436  -1.653  1.00  0.00     0.219 A 
HETATM   19  N14 UNL     1      -2.674   0.736  -0.414  1.00  0.00    -0.318 N 
ATOM     20  H14 UNL     1      -2.579   1.673  -0.023  1.00  0.00     0.169 HD
BRANCH  18  21
HETATM   21  C13 UNL     1      -3.475   1.370  -2.716  1.00  0.00     0.191 A 
HETATM   22  N10 UNL     1      -3.880   1.047  -3.954  1.00  0.00    -0.265 N 
HETATM   23  N11 UNL     1      -4.146   2.174  -4.613  1.00  0.00    -0.226 N 
ATOM     24  H10 UNL     1      -3.969   0.102  -4.326  1.00  0.00     0.190 HD
HETATM   25  N12 UNL     1      -3.921   3.195  -3.829  1.00  0.00    -0.226 N 
ATOM     26  H11 UNL     1      -4.474   2.231  -5.577  1.00  0.00     0.210 HD
HETATM   27  N13 UNL     1      -3.505   2.710  -2.652  1.00  0.00    -0.265 N 
ATOM     28  H12 UNL     1      -4.040   4.179  -4.069  1.00  0.00     0.210 HD
ATOM     29  H13 UNL     1      -3.252   3.269  -1.838  1.00  0.00     0.190 HD
ENDBRANCH  18  21
ENDBRANCH   9  14
ENDBRANCH   8   9
ENDBRANCH   7   8
BRANCH   2  30
HETATM   30  O1  UNL     1       0.638  -3.122  -0.383  1.00  0.00    -0.380 OA
ATOM     31  H1  UNL     1       0.286  -2.682  -1.148  1.00  0.00     0.211 HD
ENDBRANCH   2  30
BRANCH   4  32
HETATM   32  C4  UNL     1       2.638   1.006  -0.633  1.00  0.00     0.728 A 
HETATM   33  N2  UNL     1       2.205   2.279  -0.574  1.00  0.00    -0.020 N 
HETATM   34  C5  UNL     1       2.893   3.296  -1.123  1.00  0.00     0.705 A 
ATOM     35  H2  UNL     1       1.326   2.479  -0.097  1.00  0.00     0.203 HD
HETATM   36  N4  UNL     1       4.066   3.044  -1.760  1.00  0.00    -0.022 N 
HETATM   37  C6  UNL     1       4.523   1.790  -1.835  1.00  0.00     0.705 A 
ATOM     38  H4  UNL     1       4.596   3.808  -2.179  1.00  0.00     0.203 HD
HETATM   39  N6  UNL     1       3.814   0.806  -1.280  1.00  0.00    -0.020 N 
ATOM     40  H6  UNL     1       4.174  -0.146  -1.345  1.00  0.00     0.203 HD
BRANCH  34  41
HETATM   41  N3  UNL     1       2.451   4.523  -1.053  1.00  0.00    -0.234 N 
ATOM     42  H32 UNL     1       1.570   4.712  -0.575  1.00  0.00     0.174 HD
ATOM     43  H31 UNL     1       2.973   5.294  -1.469  1.00  0.00     0.174 HD
ENDBRANCH  34  41
BRANCH  37  44
HETATM   44  N5  UNL     1       5.633   1.558  -2.439  1.00  0.00    -0.234 N 
ATOM     45  H52 UNL     1       6.175   2.311  -2.863  1.00  0.00     0.174 HD
ATOM     46  H51 UNL     1       5.982   0.601  -2.496  1.00  0.00     0.174 HD
ENDBRANCH  37  44
ENDBRANCH   4  32
TORSDOF 10
