REMARK  10 active torsions:
REMARK  status: ('A' for Active; 'I' for Inactive)
REMARK    1  A    between atoms: C2_2  and  O2_4 
REMARK    2  A    between atoms: O2_4  and  C3_5 
REMARK    3  A    between atoms: C3_5  and  O3_6 
REMARK    4  A    between atoms: C3_5  and  C4_8 
REMARK    5  A    between atoms: C4_8  and  O4_9 
REMARK    6  A    between atoms: C4_8  and  C5_11 
REMARK    7  A    between atoms: C6_14  and  N2_15 
REMARK    8  A    between atoms: C7_19  and  N4_20 
REMARK       I    between atoms: N4_20  and  C8_22 
REMARK    9  A    between atoms: C9_25  and  O5_26 
REMARK   10  A    between atoms: C11_30  and  S1_31 
ROOT
HETATM    1  C5  UNL     1       1.375   0.454   0.947  1.00  0.00     0.174 A 
HETATM    2  N1  UNL     1       0.631   1.550   0.939  1.00  0.00    -0.171 N 
ATOM      3  H1  UNL     1       1.082   2.446   1.126  1.00  0.00     0.186 HD
HETATM    4  C6  UNL     1      -0.701   1.535   0.694  1.00  0.00     0.688 A 
HETATM    5  N3  UNL     1      -1.334   0.382   0.445  1.00  0.00    -0.106 N 
HETATM    6  C7  UNL     1      -2.663   0.291   0.188  1.00  0.00     0.171 A 
HETATM    7  C9  UNL     1      -3.180  -0.975  -0.066  1.00  0.00     0.164 A 
HETATM    8  C10 UNL     1      -2.350  -2.095  -0.049  1.00  0.00     0.237 A 
HETATM    9  O6  UNL     1      -2.798  -3.267  -0.278  1.00  0.00    -0.283 OA
HETATM   10  C11 UNL     1      -1.014  -1.979   0.215  1.00  0.00     0.185 A 
HETATM   11  C12 UNL     1      -0.524  -0.720   0.462  1.00  0.00     0.202 A 
HETATM   12  O10 UNL     1       0.764  -0.668   0.703  1.00  0.00    -0.275 OA
ENDROOT
BRANCH   1  13
HETATM   13  C4  UNL     1       2.841   0.455   1.216  1.00  0.00     0.249 C 
BRANCH  13  14
HETATM   14  C3  UNL     1       3.630   0.886  -0.022  1.00  0.00     0.303 C 
BRANCH  14  15
HETATM   15  O2  UNL     1       4.989   0.807   0.293  1.00  0.00    -0.287 OA
BRANCH  15  16
HETATM   16  C2  UNL     1       5.858  -0.118  -0.311  1.00  0.00     0.257 C 
HETATM   17  C1  UNL     1       7.287  -0.193   0.027  1.00  0.00     0.126 C 
HETATM   18  O1  UNL     1       5.312  -0.880  -1.169  1.00  0.00    -0.266 OA
ENDBRANCH  15  16
ENDBRANCH  14  15
BRANCH  14  19
HETATM   19  O3  UNL     1       3.214   2.102  -0.500  1.00  0.00    -0.368 OA
ATOM     20  H3  UNL     1       2.290   2.156  -0.714  1.00  0.00     0.212 HD
ENDBRANCH  14  19
ENDBRANCH  13  14
BRANCH  13  21
HETATM   21  O4  UNL     1       3.110   1.276   2.308  1.00  0.00    -0.382 OA
ATOM     22  H4  UNL     1       2.620   1.008   3.077  1.00  0.00     0.210 HD
ENDBRANCH  13  21
ENDBRANCH   1  13
BRANCH   4  23
HETATM   23  N2  UNL     1      -1.326   2.668   0.664  1.00  0.00    -0.234 N 
ATOM     24  H22 UNL     1      -0.844   3.547   0.854  1.00  0.00     0.174 HD
ATOM     25  H21 UNL     1      -2.329   2.657   0.479  1.00  0.00     0.174 HD
ENDBRANCH   4  23
BRANCH  10  26
HETATM   26  S1  UNL     1       0.041  -3.396   0.240  1.00  0.00     0.146 S 
HETATM   27  O7  UNL     1      -0.522  -4.401  -0.711  1.00  0.00    -0.591 OA
HETATM   28  O8  UNL     1       1.397  -2.974  -0.234  1.00  0.00    -0.591 OA
HETATM   29  O9  UNL     1       0.050  -3.986   1.794  1.00  0.00    -0.591 OA
ENDBRANCH  10  26
BRANCH   6  30
HETATM   30  N4  UNL     1      -3.513   1.402   0.276  1.00  0.00    -0.316 N 
HETATM   31  C8  UNL     1      -4.887   1.519  -0.156  1.00  0.00     0.202 C 
HETATM   32  N5  UNL     1      -5.042   1.239  -1.562  1.00  0.00    -0.066 NA
HETATM   33  N6  UNL     1      -5.865   0.971   0.714  1.00  0.00    -0.066 NA
ATOM     34  H4  UNL     1      -3.109   2.237   0.700  1.00  0.00     0.169 HD
ENDBRANCH   6  30
BRANCH   7  35
HETATM   35  O5  UNL     1      -4.499  -1.247  -0.346  1.00  0.00    -0.354 OA
ATOM     36  H5  UNL     1      -4.852  -2.112  -0.519  1.00  0.00     0.218 HD
ENDBRANCH   7  35
TORSDOF 10
