REMARK  11 active torsions:
REMARK  status: ('A' for Active; 'I' for Inactive)
REMARK    1  A    between atoms: N1_1  and  C1_4 
REMARK    2  A    between atoms: C3_8  and  C4_9 
REMARK    3  A    between atoms: C4_9  and  C5_10 
REMARK       I    between atoms: C5_10  and  N3_12 
REMARK    4  A    between atoms: N3_12  and  C6_14 
REMARK    5  A    between atoms: C7_16  and  C8_17 
REMARK    6  A    between atoms: C9_22  and  C10_23 
REMARK    7  A    between atoms: C10_23  and  C11_24 
REMARK    8  A    between atoms: C11_24  and  N6_25 
REMARK    9  A    between atoms: C11_24  and  C12_29 
REMARK   10  A    between atoms: C13_39  and  N12_40 
REMARK   11  A    between atoms: N12_40  and  N13_42 
ROOT
HETATM    1  C6  UNL     1      -0.890   2.204  -0.086  1.00  0.00     0.296 C 
HETATM    2  O2  UNL     1      -0.504   2.942   1.027  1.00  0.00    -0.327 OA
HETATM    3  C7  UNL     1       0.610   3.665   0.588  1.00  0.00     0.303 C 
HETATM    4  N11 UNL     1       0.337   3.921  -0.824  1.00  0.00    -0.342 N 
ATOM      5  H11 UNL     1       0.770   4.650  -1.391  1.00  0.00     0.164 HD
HETATM    6  C13 UNL     1      -0.539   3.075  -1.233  1.00  0.00     0.143 C 
ENDROOT
BRANCH   3   7
HETATM    7  C8  UNL     1       1.862   2.879   0.669  1.00  0.00     0.189 A 
HETATM    8  N4  UNL     1       3.015   3.358   1.159  1.00  0.00    -0.278 N 
HETATM    9  N5  UNL     1       3.888   2.344   1.055  1.00  0.00    -0.281 N 
ATOM     10  H4  UNL     1       3.190   4.292   1.531  1.00  0.00     0.189 HD
HETATM   11  C9  UNL     1       3.278   1.276   0.516  1.00  0.00     0.142 A 
ATOM     12  H5  UNL     1       4.866   2.379   1.342  1.00  0.00     0.189 HD
HETATM   13  O3  UNL     1       2.029   1.655   0.295  1.00  0.00    -0.278 OA
BRANCH  11  14
HETATM   14  C10 UNL     1       3.927  -0.032   0.248  1.00  0.00     0.127 C 
BRANCH  14  15
HETATM   15  C11 UNL     1       3.772  -0.910   1.464  1.00  0.00     0.260 C 
BRANCH  15  16
HETATM   16  N6  UNL     1       2.358  -1.096   1.723  1.00  0.00    -0.068 N 
ATOM     17  H63 UNL     1       1.858  -0.212   1.813  1.00  0.00     0.275 HD
ATOM     18  H62 UNL     1       1.857  -1.459   0.912  1.00  0.00     0.275 HD
ATOM     19  H61 UNL     1       2.253  -1.690   2.546  1.00  0.00     0.275 HD
ENDBRANCH  15  16
BRANCH  15  20
HETATM   20  C12 UNL     1       4.402  -2.224   1.249  1.00  0.00     0.138 A 
HETATM   21  N7  UNL     1       4.203  -3.326   1.994  1.00  0.00    -0.272 N 
HETATM   22  N8  UNL     1       4.949  -4.321   1.488  1.00  0.00    -0.007 NA
ATOM     23  H7  UNL     1       3.589  -3.394   2.806  1.00  0.00     0.185 HD
HETATM   24  N9  UNL     1       5.609  -3.859   0.441  1.00  0.00    -0.007 NA
HETATM   25  N10 UNL     1       5.285  -2.587   0.287  1.00  0.00    -0.272 N 
ATOM     26  H10 UNL     1       5.644  -1.973  -0.444  1.00  0.00     0.185 HD
ENDBRANCH  15  20
ENDBRANCH  14  15
ENDBRANCH  11  14
ENDBRANCH   3   7
BRANCH   1  27
HETATM   27  N3  UNL     1      -2.317   1.981  -0.122  1.00  0.00    -0.328 N 
HETATM   28  C5  UNL     1      -2.832   0.671  -0.208  1.00  0.00     0.224 C 
HETATM   29  O1  UNL     1      -2.037  -0.303  -0.254  1.00  0.00    -0.273 OA
ATOM     30  H3  UNL     1      -2.956   2.776  -0.085  1.00  0.00     0.165 HD
BRANCH  28  31
HETATM   31  C4  UNL     1      -4.299   0.449  -0.244  1.00  0.00     0.150 C 
BRANCH  31  32
HETATM   32  C3  UNL     1      -4.521  -1.028  -0.337  1.00  0.00     0.010 A 
HETATM   33  C2  UNL     1      -4.663  -1.933   0.683  1.00  0.00     0.105 A 
HETATM   34  N2  UNL     1      -4.850  -3.180   0.369  1.00  0.00    -0.346 N 
HETATM   35  C1  UNL     1      -4.894  -3.518  -0.919  1.00  0.00     0.142 A 
ATOM     36  H2  UNL     1      -4.961  -3.887   1.095  1.00  0.00     0.167 HD
HETATM   37  S1  UNL     1      -4.665  -2.027  -1.715  1.00  0.00    -0.057 SA
BRANCH  35  38
HETATM   38  N1  UNL     1      -5.073  -4.716  -1.432  1.00  0.00    -0.380 N 
ATOM     39  H12 UNL     1      -5.210  -5.608  -0.956  1.00  0.00     0.158 HD
ATOM     40  H11 UNL     1      -5.107  -4.975  -2.418  1.00  0.00     0.158 HD
ENDBRANCH  35  38
ENDBRANCH  31  32
ENDBRANCH  28  31
ENDBRANCH   1  27
BRANCH   6  41
HETATM   41  N12 UNL     1      -1.088   2.982  -2.571  1.00  0.00    -0.292 N 
ATOM     42  H12 UNL     1      -2.100   2.980  -2.700  1.00  0.00     0.187 HD
BRANCH  41  43
HETATM   43  N13 UNL     1      -0.251   2.895  -3.689  1.00  0.00    -0.344 N 
ATOM     44 2H13 UNL     1       0.758   2.898  -3.543  1.00  0.00     0.176 HD
ATOM     45 1H13 UNL     1      -0.637   2.830  -4.631  1.00  0.00     0.176 HD
ENDBRANCH  41  43
ENDBRANCH   6  41
TORSDOF 11
