REMARK  9 active torsions:
REMARK  status: ('A' for Active; 'I' for Inactive)
REMARK       I    between atoms: C2_2  and  N1_4 
REMARK    1  A    between atoms: N1_4  and  C3_6 
REMARK    2  A    between atoms: C3_6  and  C4_7 
REMARK    3  A    between atoms: C4_7  and  O2_8 
REMARK    4  A    between atoms: C4_7  and  C5_10 
REMARK    5  A    between atoms: N2_12  and  S1_13 
REMARK    6  A    between atoms: C7_19  and  N4_20 
REMARK    7  A    between atoms: C10_30  and  N8_31 
REMARK    8  A    between atoms: N10_35  and  O6_36 
REMARK    9  A    between atoms: N11_38  and  N12_39 
ROOT
HETATM    1  N4  UNL     1      -1.537   0.503   0.453  1.00  0.00    -0.045 N 
HETATM    2  C8  UNL     1      -2.041  -0.631  -0.225  1.00  0.00     0.758 A 
HETATM    3  N5  UNL     1      -1.954  -1.059  -1.515  1.00  0.00    -0.018 N 
ATOM      4  H5  UNL     1      -1.435  -0.486  -2.181  1.00  0.00     0.203 HD
HETATM    5  C9  UNL     1      -2.515  -2.194  -1.955  1.00  0.00     0.705 A 
HETATM    6  N6  UNL     1      -2.454  -2.648  -3.150  1.00  0.00    -0.234 N 
ATOM      7  H61 UNL     1      -2.881  -3.512  -3.485  1.00  0.00     0.174 HD
ATOM      8  H62 UNL     1      -1.941  -2.095  -3.836  1.00  0.00     0.174 HD
HETATM    9  N7  UNL     1      -3.203  -2.936  -1.035  1.00  0.00    -0.020 N 
ATOM     10  H7  UNL     1      -3.649  -3.808  -1.320  1.00  0.00     0.203 HD
HETATM   11  C10 UNL     1      -3.296  -2.525   0.242  1.00  0.00     0.730 A 
HETATM   12  N9  UNL     1      -2.717  -1.371   0.658  1.00  0.00     0.133 N 
HETATM   13  N10 UNL     1      -2.652  -0.722   1.883  1.00  0.00    -0.040 N 
HETATM   14  N11 UNL     1      -2.106   0.541   1.717  1.00  0.00     0.021 NA
ENDROOT
BRANCH   1  15
HETATM   15  C7  UNL     1      -0.617   1.429  -0.142  1.00  0.00     0.170 A 
HETATM   16  C5  UNL     1       0.734   1.273  -0.236  1.00  0.00     0.038 A 
HETATM   17  C6  UNL     1       1.217   2.401  -0.913  1.00  0.00     0.145 A 
HETATM   18  N2  UNL     1       0.155   3.183  -1.195  1.00  0.00    -0.171 N 
HETATM   19  N3  UNL     1      -0.917   2.588  -0.730  1.00  0.00    -0.265 N 
ATOM     20  H3  UNL     1      -1.862   2.964  -0.808  1.00  0.00     0.190 HD
BRANCH  16  21
HETATM   21  C4  UNL     1       1.617   0.175   0.288  1.00  0.00     0.174 C 
BRANCH  21  22
HETATM   22  C3  UNL     1       2.942   0.160  -0.408  1.00  0.00     0.159 C 
BRANCH  22  23
HETATM   23  N1  UNL     1       3.833  -0.803   0.162  1.00  0.00    -0.359 N 
HETATM   24  C2  UNL     1       3.576  -2.178   0.267  1.00  0.00     0.213 C 
HETATM   25  C1  UNL     1       4.550  -3.138   0.892  1.00  0.00     0.117 C 
HETATM   26  O1  UNL     1       2.516  -2.697  -0.153  1.00  0.00    -0.274 OA
ATOM     27  H1  UNL     1       4.725  -0.463   0.520  1.00  0.00     0.162 HD
ENDBRANCH  22  23
ENDBRANCH  21  22
BRANCH  21  28
HETATM   28  O2  UNL     1       1.843   0.484   1.637  1.00  0.00    -0.389 OA
ATOM     29  H2  UNL     1       1.002   0.494   2.079  1.00  0.00     0.210 HD
ENDBRANCH  21  28
ENDBRANCH  16  21
BRANCH  18  30
HETATM   30  S1  UNL     1       0.279   4.688  -2.030  1.00  0.00     0.230 S 
HETATM   31  O3  UNL     1       1.685   4.988  -2.408  1.00  0.00    -0.576 OA
HETATM   32  O4  UNL     1      -0.620   4.587  -3.231  1.00  0.00    -0.576 OA
HETATM   33  O5  UNL     1      -0.292   5.870  -0.957  1.00  0.00    -0.576 OA
ENDBRANCH  18  30
ENDBRANCH   1  15
BRANCH  14  34
HETATM   34  N12 UNL     1      -3.168   1.487   1.620  1.00  0.00    -0.323 NA
ATOM     35 2H12 UNL     1      -2.766   2.417   1.498  1.00  0.00     0.174 HD
ATOM     36 1H12 UNL     1      -3.587   1.515   2.550  1.00  0.00     0.174 HD
ENDBRANCH  14  34
BRANCH  13  37
HETATM   37  O6  UNL     1      -3.083  -1.298   3.041  1.00  0.00    -0.253 OA
ATOM     38  H6  UNL     1      -3.039  -0.854   3.880  1.00  0.00     0.248 HD
ENDBRANCH  13  37
BRANCH  11  39
HETATM   39  N8  UNL     1      -3.939  -3.217   1.143  1.00  0.00    -0.232 N 
ATOM     40  H82 UNL     1      -4.374  -4.085   0.830  1.00  0.00     0.174 HD
ATOM     41  H81 UNL     1      -4.010  -2.905   2.112  1.00  0.00     0.174 HD
ENDBRANCH  11  39
TORSDOF 9
