REMARK  7 active torsions:
REMARK  status: ('A' for Active; 'I' for Inactive)
REMARK    1  A    between atoms: N2_3  and  N3_4 
REMARK    2  A    between atoms: N2_3  and  C3_15 
REMARK       I    between atoms: N3_4  and  C2_6 
REMARK       I    between atoms: C2_6  and  N4_7 
REMARK       I    between atoms: C2_6  and  N5_11 
REMARK    3  A    between atoms: C4_18  and  N7_19 
REMARK       I    between atoms: N7_19  and  C5_21 
REMARK    4  A    between atoms: N9_24  and  C6_25 
REMARK    5  A    between atoms: N11_29  and  C8_30 
REMARK    6  A    between atoms: C8_30  and  C9_31 
REMARK    7  A    between atoms: C14_43  and  O4_44 
ROOT
HETATM    1  N1  UNL     1      -5.117  -1.749   3.257  1.00  0.00    -0.170 NA
HETATM    2  C1  UNL     1      -4.850  -1.038   2.378  1.00  0.00     0.206 C 
HETATM    3  N2  UNL     1      -4.533  -0.154   1.307  1.00  0.00    -0.171 N 
ENDROOT
BRANCH   3   4
HETATM    4  N3  UNL     1      -5.608   0.388   0.651  1.00  0.00    -0.266 N 
HETATM    5  C2  UNL     1      -5.370   0.992  -0.612  1.00  0.00     0.495 C 
HETATM    6  N4  UNL     1      -6.670   1.504  -1.079  1.00  0.00    -0.032 N 
HETATM    7  N5  UNL     1      -4.894   0.095  -1.642  1.00  0.00    -0.032 N 
ATOM      8  H43 UNL     1      -7.400   0.792  -1.102  1.00  0.00     0.279 HD
ATOM      9  H42 UNL     1      -7.123   2.128  -0.411  1.00  0.00     0.279 HD
ATOM     10  H41 UNL     1      -6.499   1.938  -1.986  1.00  0.00     0.279 HD
ATOM     11  H53 UNL     1      -4.057  -0.394  -1.323  1.00  0.00     0.279 HD
ATOM     12  H52 UNL     1      -5.533  -0.693  -1.744  1.00  0.00     0.279 HD
ATOM     13  H51 UNL     1      -4.723   0.529  -2.549  1.00  0.00     0.279 HD
ATOM     14  H3  UNL     1      -6.544   0.358   1.055  1.00  0.00     0.185 HD
ENDBRANCH   3   4
BRANCH   3  15
HETATM   15  C3  UNL     1      -3.159   0.081   1.032  1.00  0.00     0.192 A 
HETATM   16  N6  UNL     1      -2.502  -0.749   0.203  1.00  0.00    -0.170 N 
HETATM   17  C4  UNL     1      -1.184  -0.555  -0.085  1.00  0.00     0.698 A 
ATOM     18  H6  UNL     1      -2.997  -1.536  -0.217  1.00  0.00     0.186 HD
HETATM   19  N9  UNL     1      -0.539   0.476   0.465  1.00  0.00    -0.105 N 
HETATM   20  C13 UNL     1      -1.174   1.335   1.308  1.00  0.00     0.304 A 
HETATM   21  O3  UNL     1      -0.519   2.301   1.807  1.00  0.00    -0.264 OA
HETATM   22  C14 UNL     1      -2.509   1.151   1.609  1.00  0.00     0.183 A 
BRANCH  17  23
HETATM   23  N7  UNL     1      -0.476  -1.418  -0.951  1.00  0.00    -0.143 N 
HETATM   24  C5  UNL     1      -1.175  -2.514  -1.530  1.00  0.00     0.347 C 
HETATM   25  N8  UNL     1      -0.487  -3.416  -2.415  1.00  0.00    -0.039 NA
HETATM   26  O1  UNL     1      -2.396  -2.726  -1.291  1.00  0.00    -0.250 OA
ATOM     27  H7  UNL     1       0.511  -1.260  -1.156  1.00  0.00     0.188 HD
ENDBRANCH  17  23
BRANCH  19  28
HETATM   28  C6  UNL     1       0.829   0.692   0.174  1.00  0.00     0.094 A 
HETATM   29  C7  UNL     1       1.364   1.234  -0.977  1.00  0.00     0.139 A 
HETATM   30  N10 UNL     1       2.703   1.279  -0.866  1.00  0.00    -0.308 N 
HETATM   31  N11 UNL     1       3.065   0.791   0.306  1.00  0.00    -0.299 N 
ATOM     32  H10 UNL     1       3.341   1.635  -1.578  1.00  0.00     0.186 HD
HETATM   33  C12 UNL     1       1.932   0.419   0.973  1.00  0.00     0.142 A 
BRANCH  31  34
HETATM   34  C8  UNL     1       4.412   0.680   0.792  1.00  0.00     0.175 C 
BRANCH  34  35
HETATM   35  C9  UNL     1       5.104  -0.613   0.478  1.00  0.00     0.129 C 
HETATM   36  C10 UNL     1       5.202  -0.833  -0.999  1.00  0.00     0.205 C 
HETATM   37  O2  UNL     1       6.338  -0.041  -1.376  1.00  0.00    -0.320 OA
HETATM   38  C11 UNL     1       7.129   0.206  -0.256  1.00  0.00     0.213 C 
HETATM   39  N12 UNL     1       8.238   0.905  -0.242  1.00  0.00    -0.365 N 
HETATM   40  N13 UNL     1       6.499  -0.440   0.833  1.00  0.00    -0.348 N 
ATOM     41 2H12 UNL     1       8.692   1.371  -1.027  1.00  0.00     0.159 HD
ATOM     42 1H12 UNL     1       8.817   1.086   0.578  1.00  0.00     0.159 HD
ATOM     43  H13 UNL     1       6.943  -0.730   1.705  1.00  0.00     0.163 HD
ENDBRANCH  34  35
ENDBRANCH  31  34
ENDBRANCH  19  28
BRANCH  22  44
HETATM   44  O4  UNL     1      -3.154   2.035   2.474  1.00  0.00    -0.353 OA
ATOM     45  H4  UNL     1      -2.706   2.772   2.872  1.00  0.00     0.218 HD
ENDBRANCH  22  44
ENDBRANCH   3  15
TORSDOF 7
