REMARK  10 active torsions:
REMARK  status: ('A' for Active; 'I' for Inactive)
REMARK    1  A    between atoms: C2_2  and  O2_4 
REMARK    2  A    between atoms: O2_4  and  C3_5 
REMARK    3  A    between atoms: C3_5  and  C4_6 
REMARK    4  A    between atoms: C4_6  and  O3_7 
REMARK    5  A    between atoms: O3_7  and  C5_8 
REMARK    6  A    between atoms: C5_8  and  N1_9 
REMARK    7  A    between atoms: N2_12  and  N3_13 
REMARK    8  A    between atoms: C8_14  and  O4_15 
REMARK    9  A    between atoms: C9_17  and  O5_18 
REMARK   10  A    between atoms: N4_22  and  N5_24 
ROOT
HETATM    1  N3  UNL     1      -2.084   0.506  -0.367  1.00  0.00    -0.199 N 
HETATM    2  C8  UNL     1      -2.179   1.317  -1.427  1.00  0.00     0.199 A 
HETATM    3  C9  UNL     1      -3.365   2.047  -1.369  1.00  0.00     0.136 A 
HETATM    4  C10 UNL     1      -4.015   1.668  -0.233  1.00  0.00     0.093 A 
HETATM    5  C11 UNL     1      -5.206   2.031   0.358  1.00  0.00     0.138 A 
HETATM    6  N4  UNL     1      -6.022   2.859  -0.082  1.00  0.00    -0.291 N 
ATOM      7  H4  UNL     1      -6.806   2.923   0.567  1.00  0.00     0.188 HD
HETATM    8  N6  UNL     1      -5.505   1.395   1.545  1.00  0.00    -0.318 N 
ATOM      9  H6  UNL     1      -6.380   1.641   2.009  1.00  0.00     0.169 HD
HETATM   10  C12 UNL     1      -4.733   0.486   2.124  1.00  0.00     0.191 A 
HETATM   11  C13 UNL     1      -5.120  -0.141   3.387  1.00  0.00     0.137 C 
HETATM   12  N7  UNL     1      -5.411  -0.624   4.391  1.00  0.00    -0.188 NA
HETATM   13  N8  UNL     1      -3.579   0.147   1.532  1.00  0.00    -0.317 N 
ATOM     14  H8  UNL     1      -2.973  -0.550   1.965  1.00  0.00     0.169 HD
HETATM   15  C14 UNL     1      -3.213   0.723   0.366  1.00  0.00     0.150 A 
ENDROOT
BRANCH   6  16
HETATM   16  N5  UNL     1      -6.239   3.690  -1.094  1.00  0.00    -0.344 N 
ATOM     17  H52 UNL     1      -5.443   3.606  -1.726  1.00  0.00     0.176 HD
ATOM     18  H51 UNL     1      -6.909   4.369  -1.455  1.00  0.00     0.176 HD
ENDBRANCH   6  16
BRANCH   1  19
HETATM   19  N2  UNL     1      -1.049  -0.373  -0.059  1.00  0.00    -0.208 N 
HETATM   20  C7  UNL     1      -0.844  -1.470  -0.976  1.00  0.00     0.183 C 
HETATM   21  C6  UNL     1       0.363  -2.310  -0.619  1.00  0.00     0.136 C 
HETATM   22  N1  UNL     1       1.168  -1.535   0.276  1.00  0.00    -0.192 NA
HETATM   23  N11 UNL     1       0.929  -1.836   1.623  1.00  0.00    -0.034 NA
HETATM   24  N10 UNL     1      -0.248  -1.164   1.972  1.00  0.00     0.002 NA
HETATM   25  N9  UNL     1      -0.360  -0.060   1.106  1.00  0.00     0.007 NA
BRANCH  22  26
HETATM   26  C5  UNL     1       2.580  -1.504  -0.045  1.00  0.00     0.279 C 
BRANCH  26  27
HETATM   27  O3  UNL     1       3.175  -2.720  -0.004  1.00  0.00    -0.374 OA
BRANCH  27  28
HETATM   28  C4  UNL     1       4.475  -2.853  -0.338  1.00  0.00     0.196 C 
BRANCH  28  29
HETATM   29  C3  UNL     1       5.497  -2.088   0.419  1.00  0.00     0.205 C 
BRANCH  29  30
HETATM   30  O2  UNL     1       5.325  -0.692   0.336  1.00  0.00    -0.320 OA
BRANCH  30  31
HETATM   31  C2  UNL     1       6.107   0.256   0.925  1.00  0.00     0.254 C 
HETATM   32  C1  UNL     1       5.842   1.720   0.774  1.00  0.00     0.126 C 
HETATM   33  O1  UNL     1       7.102  -0.127   1.630  1.00  0.00    -0.266 OA
ENDBRANCH  30  31
ENDBRANCH  29  30
ENDBRANCH  28  29
ENDBRANCH  27  28
ENDBRANCH  26  27
ENDBRANCH  22  26
ENDBRANCH   1  19
BRANCH   3  34
HETATM   34  O5  UNL     1      -3.808   2.981  -2.281  1.00  0.00    -0.356 OA
ATOM     35  H5  UNL     1      -4.616   3.479  -2.241  1.00  0.00     0.218 HD
ENDBRANCH   3  34
BRANCH   2  36
HETATM   36  O4  UNL     1      -1.238   1.429  -2.454  1.00  0.00    -0.343 OA
ATOM     37  H4  UNL     1      -1.305   2.005  -3.207  1.00  0.00     0.219 HD
ENDBRANCH   2  36
TORSDOF 10
