REMARK  12 active torsions:
REMARK  status: ('A' for Active; 'I' for Inactive)
REMARK    1  A    between atoms: N1_1  and  C1_4 
REMARK    2  A    between atoms: N5_11  and  C2_12 
REMARK    3  A    between atoms: C3_14  and  C4_15 
REMARK    4  A    between atoms: C4_15  and  C5_17 
REMARK    5  A    between atoms: C5_17  and  O3_18 
REMARK    6  A    between atoms: C5_17  and  O4_20 
REMARK    7  A    between atoms: C5_17  and  C6_22 
REMARK    8  A    between atoms: C6_22  and  O5_23 
REMARK    9  A    between atoms: C6_22  and  C7_25 
REMARK   10  A    between atoms: C8_28  and  C9_29 
REMARK   11  A    between atoms: C12_43  and  O7_44 
REMARK   12  A    between atoms: C13_46  and  O8_47 
ROOT
HETATM    1  C5  UNL     1       0.432  -1.715   1.002  1.00  0.00     0.285 C 
ENDROOT
BRANCH   1   2
HETATM    2  C4  UNL     1      -0.773  -1.247   1.761  1.00  0.00     0.254 C 
HETATM    3  O2  UNL     1      -0.713  -1.073   3.004  1.00  0.00    -0.284 OA
BRANCH   2   4
HETATM    4  C3  UNL     1      -2.043  -0.978   1.101  1.00  0.00     0.166 A 
HETATM    5  O1  UNL     1      -2.286  -1.108  -0.202  1.00  0.00    -0.282 OA
HETATM    6  C2  UNL     1      -3.501  -0.801  -0.511  1.00  0.00     0.225 A 
HETATM    7  C13 UNL     1      -4.128  -0.433   0.687  1.00  0.00     0.156 A 
HETATM    8  C12 UNL     1      -3.205  -0.547   1.696  1.00  0.00     0.141 A 
BRANCH   6   9
HETATM    9  N5  UNL     1      -4.103  -0.825  -1.802  1.00  0.00    -0.043 N 
HETATM   10  C1  UNL     1      -4.765   0.173  -2.427  1.00  0.00     0.716 A 
HETATM   11  N2  UNL     1      -5.186  -0.243  -3.642  1.00  0.00    -0.115 N 
HETATM   12  N3  UNL     1      -4.780  -1.497  -3.761  1.00  0.00    -0.213 N 
ATOM     13  H2  UNL     1      -5.710   0.300  -4.328  1.00  0.00     0.207 HD
HETATM   14  N4  UNL     1      -4.134  -1.849  -2.667  1.00  0.00    -0.204 N 
ATOM     15  H3  UNL     1      -4.941  -2.096  -4.571  1.00  0.00     0.210 HD
ATOM     16  H4  UNL     1      -3.719  -2.766  -2.503  1.00  0.00     0.211 HD
BRANCH  10  17
HETATM   17  N1  UNL     1      -4.947   1.351  -1.894  1.00  0.00    -0.231 N 
ATOM     18  H12 UNL     1      -5.447   2.105  -2.366  1.00  0.00     0.174 HD
ATOM     19  H11 UNL     1      -4.629   1.665  -0.977  1.00  0.00     0.174 HD
ENDBRANCH  10  17
ENDBRANCH   6   9
BRANCH   7  20
HETATM   20  O8  UNL     1      -5.438  -0.038   0.773  1.00  0.00    -0.354 OA
ATOM     21  H8  UNL     1      -5.863   0.211   1.585  1.00  0.00     0.218 HD
ENDBRANCH   7  20
BRANCH   8  22
HETATM   22  O7  UNL     1      -3.459  -0.268   3.027  1.00  0.00    -0.355 OA
ATOM     23  H7  UNL     1      -4.262   0.030   3.438  1.00  0.00     0.218 HD
ENDBRANCH   8  22
ENDBRANCH   2   4
ENDBRANCH   1   2
BRANCH   1  24
HETATM   24  O3  UNL     1       0.064  -1.810  -0.308  1.00  0.00    -0.354 OA
ATOM     25  H3  UNL     1       0.828  -2.107  -0.789  1.00  0.00     0.214 HD
ENDBRANCH   1  24
BRANCH   1  26
HETATM   26  O4  UNL     1       0.736  -3.042   1.397  1.00  0.00    -0.354 OA
ATOM     27  H4  UNL     1       1.500  -3.339   0.916  1.00  0.00     0.214 HD
ENDBRANCH   1  26
BRANCH   1  28
HETATM   28  C6  UNL     1       1.600  -0.922   1.247  1.00  0.00     0.158 C 
BRANCH  28  29
HETATM   29  O5  UNL     1       1.968  -0.821   2.506  1.00  0.00    -0.356 OA
ATOM     30  H5  UNL     1       2.742  -0.295   2.668  1.00  0.00     0.217 HD
ENDBRANCH  28  29
BRANCH  28  31
HETATM   31  C7  UNL     1       2.427  -0.218   0.303  1.00  0.00     0.144 A 
HETATM   32  N6  UNL     1       3.516   0.491   0.781  1.00  0.00    -0.337 N 
HETATM   33  C8  UNL     1       4.356   1.181   0.018  1.00  0.00     0.086 A 
ATOM     34  H6  UNL     1       3.684   0.483   1.787  1.00  0.00     0.167 HD
HETATM   35  C10 UNL     1       4.146   1.205  -1.342  1.00  0.00     0.108 A 
HETATM   36  C11 UNL     1       3.083   0.520  -1.866  1.00  0.00     0.249 A 
HETATM   37  O6  UNL     1       2.834   0.500  -3.099  1.00  0.00    -0.268 OA
HETATM   38  N11 UNL     1       2.253  -0.174  -1.015  1.00  0.00    -0.307 N 
ATOM     39  H11 UNL     1       1.464  -0.681  -1.416  1.00  0.00     0.170 HD
BRANCH  33  40
HETATM   40  C9  UNL     1       5.498   1.914   0.605  1.00  0.00     0.164 A 
HETATM   41  N7  UNL     1       5.793   1.957   1.907  1.00  0.00    -0.267 N 
HETATM   42  N8  UNL     1       6.878   2.710   2.015  1.00  0.00    -0.227 N 
ATOM     43  H7  UNL     1       5.285   1.502   2.666  1.00  0.00     0.190 HD
HETATM   44  N9  UNL     1       7.277   3.140   0.848  1.00  0.00    -0.227 N 
ATOM     45  H8  UNL     1       7.342   2.926   2.897  1.00  0.00     0.210 HD
HETATM   46  N10 UNL     1       6.413   2.642  -0.043  1.00  0.00    -0.267 N 
ATOM     47  H9  UNL     1       8.083   3.734   0.655  1.00  0.00     0.210 HD
ATOM     48  H10 UNL     1       6.447   2.793  -1.051  1.00  0.00     0.190 HD
ENDBRANCH  33  40
ENDBRANCH  28  31
ENDBRANCH   1  28
TORSDOF 12
