REMARK  12 active torsions:
REMARK  status: ('A' for Active; 'I' for Inactive)
REMARK    1  A    between atoms: C2_6  and  C3_7 
REMARK    2  A    between atoms: C3_7  and  O3_9 
REMARK    3  A    between atoms: O3_9  and  C4_10 
REMARK    4  A    between atoms: C5_13  and  N4_14 
REMARK    5  A    between atoms: C6_17  and  C7_18 
REMARK       I    between atoms: C7_18  and  N5_20 
REMARK    6  A    between atoms: N6_22  and  C8_24 
REMARK    7  A    between atoms: C8_24  and  O5_25 
REMARK    8  A    between atoms: C8_24  and  O6_27 
REMARK    9  A    between atoms: C10_30  and  N7_31 
REMARK   10  A    between atoms: C12_35  and  C13_36 
REMARK   11  A    between atoms: C13_36  and  O7_37 
REMARK   12  A    between atoms: C13_36  and  O8_39 
ROOT
HETATM    1  C4  UNL     1       1.115  -0.641   0.198  1.00  0.00     0.255 A 
HETATM    2  N3  UNL     1       0.795  -1.314   1.307  1.00  0.00    -0.306 N 
ATOM      3  H3  UNL     1       1.502  -1.932   1.704  1.00  0.00     0.171 HD
HETATM    4  C5  UNL     1      -0.362  -1.239   1.924  1.00  0.00     0.120 A 
HETATM    5  C6  UNL     1      -1.344  -0.393   1.387  1.00  0.00     0.108 A 
HETATM    6  C9  UNL     1      -1.049   0.327   0.230  1.00  0.00     0.106 A 
HETATM    7  C10 UNL     1      -2.037   1.163  -0.297  1.00  0.00     0.058 A 
HETATM    8  C11 UNL     1      -1.667   1.855  -1.479  1.00  0.00     0.063 A 
HETATM    9  C12 UNL     1      -0.433   1.681  -2.012  1.00  0.00     0.083 A 
HETATM   10  N8  UNL     1       0.451   0.855  -1.430  1.00  0.00    -0.290 N 
ATOM     11  H8  UNL     1       1.374   0.740  -1.848  1.00  0.00     0.187 HD
HETATM   12  N9  UNL     1       0.153   0.188  -0.329  1.00  0.00    -0.215 N 
ENDROOT
BRANCH   5  13
HETATM   13  C7  UNL     1      -2.604  -0.340   2.067  1.00  0.00     0.276 C 
HETATM   14  O4  UNL     1      -2.794   0.507   2.971  1.00  0.00    -0.266 OA
HETATM   15  N5  UNL     1      -3.642  -1.247   1.727  1.00  0.00    -0.266 N 
HETATM   16  N6  UNL     1      -4.070  -2.158   2.507  1.00  0.00    -0.282 N 
ATOM     17  H5  UNL     1      -4.070  -1.164   0.805  1.00  0.00     0.190 HD
ATOM     18  H6  UNL     1      -3.681  -2.289   3.441  1.00  0.00     0.185 HD
BRANCH  16  19
HETATM   19  C8  UNL     1      -5.137  -2.999   2.002  1.00  0.00     0.380 C 
BRANCH  19  20
HETATM   20  O5  UNL     1      -6.349  -2.402   2.260  1.00  0.00    -0.354 OA
ATOM     21  H5  UNL     1      -7.048  -2.953   1.929  1.00  0.00     0.214 HD
ENDBRANCH  19  20
BRANCH  19  22
HETATM   22  O6  UNL     1      -4.967  -3.336   0.677  1.00  0.00    -0.354 OA
ATOM     23  H6  UNL     1      -5.666  -3.887   0.346  1.00  0.00     0.214 HD
ENDBRANCH  19  22
ENDBRANCH  16  19
ENDBRANCH   5  13
BRANCH   4  24
HETATM   24  N4  UNL     1      -0.672  -1.892   3.000  1.00  0.00    -0.384 N 
ATOM     25  H42 UNL     1       0.042  -2.507   3.390  1.00  0.00     0.157 HD
ATOM     26  H41 UNL     1      -1.571  -1.834   3.479  1.00  0.00     0.157 HD
ENDBRANCH   4  24
BRANCH   7  27
HETATM   27  N7  UNL     1      -3.128   1.332   0.191  1.00  0.00    -0.397 N 
ATOM     28  H72 UNL     1      -3.394   0.834   1.041  1.00  0.00     0.156 HD
ATOM     29  H71 UNL     1      -3.849   1.942  -0.194  1.00  0.00     0.156 HD
ENDBRANCH   7  27
BRANCH   1  30
HETATM   30  O3  UNL     1       2.330  -0.716  -0.460  1.00  0.00    -0.238 OA
BRANCH  30  31
HETATM   31  C3  UNL     1       3.481  -0.131   0.037  1.00  0.00     0.339 C 
HETATM   32  O2  UNL     1       3.370   0.483   1.151  1.00  0.00    -0.255 OA
BRANCH  31  33
HETATM   33  C2  UNL     1       4.760  -0.202  -0.658  1.00  0.00     0.228 A 
HETATM   34  N1  UNL     1       6.006   0.192  -0.488  1.00  0.00    -0.214 N 
HETATM   35  C1  UNL     1       6.719   0.902   0.555  1.00  0.00     0.190 C 
HETATM   36  O1  UNL     1       6.329  -0.341  -1.652  1.00  0.00    -0.151 OA
HETATM   37  N2  UNL     1       5.127  -0.732  -1.837  1.00  0.00    -0.218 N 
ATOM     38  H2  UNL     1       4.643  -1.240  -2.578  1.00  0.00     0.198 HD
ENDBRANCH  31  33
ENDBRANCH  30  31
ENDBRANCH   1  30
BRANCH   9  39
HETATM   39  C13 UNL     1      -0.082   2.427  -3.265  1.00  0.00     0.306 C 
BRANCH  39  40
HETATM   40  O7  UNL     1      -0.477   3.740  -3.249  1.00  0.00    -0.366 OA
ATOM     41  H7  UNL     1      -0.255   4.212  -4.043  1.00  0.00     0.213 HD
ENDBRANCH  39  40
BRANCH  39  42
HETATM   42  O8  UNL     1       1.308   2.354  -3.419  1.00  0.00    -0.366 OA
ATOM     43  H8  UNL     1       1.530   2.826  -4.213  1.00  0.00     0.213 HD
ENDBRANCH  39  42
ENDBRANCH   9  39
TORSDOF 12
