REMARK  7 active torsions:
REMARK  status: ('A' for Active; 'I' for Inactive)
REMARK    1  A    between atoms: N1_1  and  C1_4 
REMARK    2  A    between atoms: C2_7  and  S1_8 
REMARK    3  A    between atoms: S1_8  and  C3_9 
REMARK    4  A    between atoms: C3_9  and  C4_10 
REMARK    5  A    between atoms: C5_19  and  S2_20 
REMARK    6  A    between atoms: S2_20  and  N7_23 
REMARK    7  A    between atoms: N7_23  and  N8_25 
ROOT
HETATM    1  C1  UNL     1      -2.493  -2.354  -0.213  1.00  0.00     0.679 A 
HETATM    2  N2  UNL     1      -1.275  -1.957   0.179  1.00  0.00    -0.184 N 
ATOM      3  H2  UNL     1      -0.637  -2.645   0.579  1.00  0.00     0.185 HD
HETATM    4  C2  UNL     1      -0.859  -0.660   0.060  1.00  0.00     0.115 A 
HETATM    5  C5  UNL     1      -1.694   0.291  -0.474  1.00  0.00     0.183 A 
HETATM    6  C6  UNL     1      -2.957  -0.135  -0.878  1.00  0.00     0.285 A 
HETATM    7  O3  UNL     1      -3.738   0.730  -1.373  1.00  0.00    -0.266 OA
HETATM    8  N9  UNL     1      -3.302  -1.421  -0.734  1.00  0.00    -0.155 N 
ATOM      9  H9  UNL     1      -4.233  -1.707  -1.038  1.00  0.00     0.187 HD
ENDROOT
BRANCH   4  10
HETATM   10  S1  UNL     1       0.785  -0.264   0.627  1.00  0.00    -0.102 SA
BRANCH  10  11
HETATM   11  C3  UNL     1       1.964  -0.680  -0.679  1.00  0.00     0.160 C 
BRANCH  11  12
HETATM   12  C4  UNL     1       3.331  -0.300  -0.205  1.00  0.00     0.122 A 
HETATM   13  N3  UNL     1       3.856   0.912  -0.423  1.00  0.00    -0.272 N 
HETATM   14  N4  UNL     1       5.053   0.900   0.121  1.00  0.00    -0.227 N 
ATOM     15  H3  UNL     1       3.415   1.690  -0.914  1.00  0.00     0.190 HD
HETATM   16  N5  UNL     1       5.295  -0.257   0.664  1.00  0.00    -0.227 N 
ATOM     17  H4  UNL     1       5.701   1.688   0.118  1.00  0.00     0.210 HD
HETATM   18  N6  UNL     1       4.235  -1.013   0.470  1.00  0.00    -0.272 N 
ATOM     19  H5  UNL     1       6.149  -0.529   1.151  1.00  0.00     0.210 HD
ATOM     20  H6  UNL     1       4.124  -1.978   0.782  1.00  0.00     0.190 HD
ENDBRANCH  11  12
ENDBRANCH  10  11
ENDBRANCH   4  10
BRANCH   5  21
HETATM   21  S2  UNL     1      -1.218   1.949  -0.595  1.00  0.00     0.283 S 
HETATM   22  O1  UNL     1      -1.900   2.592  -1.768  1.00  0.00    -0.199 OA
HETATM   23  O2  UNL     1       0.241   2.088  -0.741  1.00  0.00    -0.199 OA
BRANCH  21  24
HETATM   24  N7  UNL     1      -1.697   2.847   0.817  1.00  0.00    -0.229 N 
ATOM     25  H7  UNL     1      -2.579   3.341   0.954  1.00  0.00     0.199 HD
BRANCH  24  26
HETATM   26  N8  UNL     1      -0.639   2.761   1.727  1.00  0.00    -0.336 N 
ATOM     27  H82 UNL     1       0.239   2.264   1.578  1.00  0.00     0.177 HD
ATOM     28  H81 UNL     1      -0.920   3.287   2.554  1.00  0.00     0.177 HD
ENDBRANCH  24  26
ENDBRANCH  21  24
ENDBRANCH   5  21
BRANCH   1  29
HETATM   29  N1  UNL     1      -2.865  -3.592  -0.090  1.00  0.00    -0.234 N 
ATOM     30  H12 UNL     1      -2.249  -4.302   0.306  1.00  0.00     0.174 HD
ATOM     31  H11 UNL     1      -3.792  -3.894  -0.388  1.00  0.00     0.174 HD
ENDBRANCH   1  29
TORSDOF 7
