REMARK  7 active torsions:
REMARK  status: ('A' for Active; 'I' for Inactive)
REMARK    1  A    between atoms: N1_2  and  C2_4 
REMARK    2  A    between atoms: C3_7  and  C4_8 
REMARK    3  A    between atoms: C4_8  and  N3_9 
REMARK    4  A    between atoms: C6_11  and  C7_12 
REMARK    5  A    between atoms: C7_12  and  C8_13 
REMARK    6  A    between atoms: C9_18  and  N6_19 
REMARK    7  A    between atoms: C11_32  and  N12_33 
ROOT
HETATM    1  N3  UNL     1      -0.415   0.019  -0.630  1.00  0.00    -0.280 N 
HETATM    2  C5  UNL     1       0.618  -0.241   0.190  1.00  0.00     0.139 A 
HETATM    3  C6  UNL     1       1.359   0.899   0.289  1.00  0.00     0.050 A 
HETATM    4  N9  UNL     1       0.756   1.840  -0.480  1.00  0.00    -0.289 N 
ATOM      5  H9  UNL     1       1.064   2.803  -0.619  1.00  0.00     0.188 HD
HETATM    6  N10 UNL     1      -0.304   1.268  -1.012  1.00  0.00    -0.240 N 
ATOM      7  H10 UNL     1      -0.956   1.737  -1.641  1.00  0.00     0.208 HD
ENDROOT
BRANCH   1   8
HETATM    8  C4  UNL     1      -1.443  -0.902  -1.011  1.00  0.00     0.227 C 
BRANCH   8   9
HETATM    9  C3  UNL     1      -2.618  -0.890  -0.104  1.00  0.00     0.133 A 
HETATM   10  N2  UNL     1      -3.673  -0.090  -0.321  1.00  0.00    -0.178 N 
HETATM   11  C2  UNL     1      -4.749  -0.063   0.489  1.00  0.00     0.693 A 
ATOM     12  H2  UNL     1      -3.660   0.525  -1.135  1.00  0.00     0.185 HD
HETATM   13  N13 UNL     1      -4.764  -0.882   1.574  1.00  0.00    -0.023 N 
HETATM   14  C11 UNL     1      -3.719  -1.687   1.805  1.00  0.00     0.691 A 
ATOM     15  H13 UNL     1      -5.564  -0.883   2.207  1.00  0.00     0.203 HD
HETATM   16  N11 UNL     1      -2.654  -1.691   0.972  1.00  0.00    -0.178 N 
ATOM     17  H11 UNL     1      -1.867  -2.311   1.164  1.00  0.00     0.185 HD
BRANCH  11  18
HETATM   18  N1  UNL     1      -5.770   0.704   0.285  1.00  0.00    -0.230 N 
HETATM   19  C1  UNL     1      -5.723   1.565  -0.883  1.00  0.00     0.165 C 
ATOM     20  H1  UNL     1      -6.572   0.704   0.916  1.00  0.00     0.177 HD
ENDBRANCH  11  18
BRANCH  14  21
HETATM   21  N12 UNL     1      -3.707  -2.466   2.816  1.00  0.00    -0.234 N 
ATOM     22 2H12 UNL     1      -2.911  -3.079   2.992  1.00  0.00     0.174 HD
ATOM     23 1H12 UNL     1      -4.510  -2.463   3.444  1.00  0.00     0.174 HD
ENDBRANCH  14  21
ENDBRANCH   8   9
ENDBRANCH   1   8
BRANCH   3  24
HETATM   24  C7  UNL     1       2.596   1.178   1.045  1.00  0.00     0.122 C 
BRANCH  24  25
HETATM   25  C8  UNL     1       3.834   1.026   0.238  1.00  0.00     0.073 A 
HETATM   26  N4  UNL     1       4.473   2.134  -0.234  1.00  0.00    -0.287 N 
HETATM   27  N5  UNL     1       5.568   2.028  -0.957  1.00  0.00    -0.132 N 
ATOM     28  H4  UNL     1       4.097   3.059  -0.024  1.00  0.00     0.187 HD
HETATM   29  C9  UNL     1       6.131   0.855  -1.282  1.00  0.00     0.691 A 
ATOM     30  H5  UNL     1       6.012   2.884  -1.288  1.00  0.00     0.205 HD
HETATM   31  N7  UNL     1       5.530  -0.258  -0.834  1.00  0.00    -0.176 N 
HETATM   32  C10 UNL     1       4.402  -0.182  -0.088  1.00  0.00     0.156 A 
ATOM     33  H7  UNL     1       5.927  -1.171  -1.058  1.00  0.00     0.185 HD
HETATM   34  N8  UNL     1       3.816  -1.384   0.360  1.00  0.00    -0.080 NA
BRANCH  29  35
HETATM   35  N6  UNL     1       7.199   0.836  -1.990  1.00  0.00    -0.233 N 
ATOM     36  H62 UNL     1       7.656   1.682  -2.331  1.00  0.00     0.174 HD
ATOM     37  H61 UNL     1       7.627  -0.056  -2.237  1.00  0.00     0.174 HD
ENDBRANCH  29  35
ENDBRANCH  24  25
ENDBRANCH   3  24
TORSDOF 7
