REMARK  8 active torsions:
REMARK  status: ('A' for Active; 'I' for Inactive)
REMARK    1  A    between atoms: O1_2  and  N1_3 
REMARK    2  A    between atoms: N1_3  and  C2_5 
REMARK    3  A    between atoms: C3_8  and  N3_9 
REMARK    4  A    between atoms: N3_9  and  N4_11 
REMARK    5  A    between atoms: C4_16  and  C5_17 
REMARK    6  A    between atoms: C5_17  and  N8_22 
REMARK    7  A    between atoms: N8_22  and  C7_24 
REMARK    8  A    between atoms: C8_31  and  C9_32 
ROOT
HETATM    1  C5  UNL     1       1.744  -0.227   1.269  1.00  0.00     0.158 C 
HETATM    2  N6  UNL     1       1.846   0.199   2.494  1.00  0.00    -0.277 N 
ATOM      3  H6  UNL     1       1.080   0.724   2.916  1.00  0.00     0.179 HD
HETATM    4  C6  UNL     1       2.987  -0.057   3.223  1.00  0.00     0.183 C 
HETATM    5  N7  UNL     1       3.964  -0.256   3.848  1.00  0.00    -0.172 NA
ENDROOT
BRANCH   1   6
HETATM    6  C4  UNL     1       0.502   0.093   0.581  1.00  0.00     0.113 A 
HETATM    7  N5  UNL     1       0.176   1.409   0.361  1.00  0.00    -0.185 N 
HETATM    8  C3  UNL     1      -0.932   1.795  -0.255  1.00  0.00     0.698 A 
ATOM      9  H5  UNL     1       0.821   2.128   0.689  1.00  0.00     0.184 HD
HETATM   10  N2  UNL     1      -1.778   0.844  -0.685  1.00  0.00    -0.172 N 
HETATM   11  C2  UNL     1      -1.551  -0.463  -0.518  1.00  0.00     0.158 A 
ATOM     12  H2  UNL     1      -2.633   1.132  -1.161  1.00  0.00     0.186 HD
HETATM   13  C8  UNL     1      -0.374  -0.855   0.137  1.00  0.00     0.106 A 
BRANCH   8  14
HETATM   14  N3  UNL     1      -1.274   3.150  -0.485  1.00  0.00    -0.138 N 
ATOM     15  H3  UNL     1      -0.978   3.620  -1.341  1.00  0.00     0.205 HD
BRANCH  14  16
HETATM   16  N4  UNL     1      -2.017   3.830   0.470  1.00  0.00    -0.331 N 
ATOM     17  H42 UNL     1      -2.305   3.346   1.320  1.00  0.00     0.177 HD
ATOM     18  H41 UNL     1      -2.263   4.806   0.304  1.00  0.00     0.177 HD
ENDBRANCH  14  16
ENDBRANCH   8  14
BRANCH  11  19
HETATM   19  N1  UNL     1      -2.339  -1.391  -0.917  1.00  0.00    -0.250 N 
ATOM     20  H1  UNL     1      -2.119  -2.375  -0.765  1.00  0.00     0.196 HD
BRANCH  19  21
HETATM   21  O1  UNL     1      -3.494  -1.007  -1.559  1.00  0.00    -0.284 OA
HETATM   22  C1  UNL     1      -4.777  -1.123  -0.997  1.00  0.00     0.237 C 
ENDBRANCH  19  21
ENDBRANCH  11  19
BRANCH  13  23
HETATM   23  C9  UNL     1      -0.171  -2.262   0.326  1.00  0.00     0.271 C 
HETATM   24  N13 UNL     1      -1.059  -3.249  -0.257  1.00  0.00    -0.057 NA
HETATM   25  O2  UNL     1       0.755  -2.777   0.988  1.00  0.00    -0.271 OA
ENDBRANCH  13  23
ENDBRANCH   1   6
BRANCH   1  26
HETATM   26  N8  UNL     1       2.835  -0.899   0.699  1.00  0.00    -0.172 N 
ATOM     27  H8  UNL     1       2.912  -1.903   0.864  1.00  0.00     0.186 HD
BRANCH  26  28
HETATM   28  C7  UNL     1       3.741  -0.341  -0.014  1.00  0.00     0.709 A 
HETATM   29  N9  UNL     1       3.841   0.951  -0.358  1.00  0.00    -0.117 N 
HETATM   30  N10 UNL     1       4.940   1.115  -1.113  1.00  0.00     0.006 NA
ATOM     31  H9  UNL     1       3.189   1.689  -0.090  1.00  0.00     0.202 HD
HETATM   32  N11 UNL     1       5.531  -0.081  -1.241  1.00  0.00     0.006 NA
HETATM   33  N12 UNL     1       4.788  -0.970  -0.564  1.00  0.00    -0.117 N 
ATOM     34  H12 UNL     1       4.989  -1.967  -0.481  1.00  0.00     0.202 HD
ENDBRANCH  26  28
ENDBRANCH   1  26
TORSDOF 8
