REMARK  7 active torsions:
REMARK  status: ('A' for Active; 'I' for Inactive)
REMARK    1  A    between atoms: O1_2  and  C2_3 
REMARK    2  A    between atoms: C5_6  and  N1_7 
REMARK    3  A    between atoms: N1_7  and  N2_9 
REMARK    4  A    between atoms: C7_13  and  O2_14 
REMARK    5  A    between atoms: N3_17  and  O3_19 
REMARK    6  A    between atoms: N6_26  and  C11_27 
REMARK    7  A    between atoms: C11_27  and  C12_28 
ROOT
HETATM    1  C2  UNL     1      -1.917  -0.587   0.643  1.00  0.00     0.160 A 
HETATM    2  C3  UNL     1      -0.754  -1.253   0.669  1.00  0.00     0.075 A 
HETATM    3  C4  UNL     1       0.452  -0.510   0.290  1.00  0.00     0.043 A 
HETATM    4  C5  UNL     1       1.665  -1.193   0.309  1.00  0.00     0.077 A 
HETATM    5  C6  UNL     1       2.781  -0.475  -0.058  1.00  0.00     0.060 A 
HETATM    6  C7  UNL     1       3.927  -1.110  -0.058  1.00  0.00     0.149 C 
HETATM    7  C8  UNL     1       2.704   0.875  -0.429  1.00  0.00     0.143 A 
HETATM    8  N3  UNL     1       3.801   1.443  -0.748  1.00  0.00    -0.252 N 
ATOM      9  H3  UNL     1       4.635   0.857  -0.703  1.00  0.00     0.196 HD
HETATM   10  N4  UNL     1       1.542   1.510  -0.441  1.00  0.00    -0.320 N 
HETATM   11  C9  UNL     1       1.428   2.892  -0.815  1.00  0.00     0.159 C 
HETATM   12  C10 UNL     1       0.429   0.798  -0.078  1.00  0.00     0.136 A 
HETATM   13  N5  UNL     1      -0.688   1.430  -0.101  1.00  0.00    -0.280 N 
ATOM     14  H5  UNL     1      -0.712   2.412  -0.376  1.00  0.00     0.189 HD
HETATM   15  N6  UNL     1      -1.869   0.777   0.249  1.00  0.00    -0.261 N 
ENDROOT
BRANCH   4  16
HETATM   16  N1  UNL     1       1.746  -2.547   0.694  1.00  0.00    -0.305 N 
ATOM     17  H1  UNL     1       1.940  -2.784   1.667  1.00  0.00     0.186 HD
BRANCH  16  18
HETATM   18  N2  UNL     1       1.565  -3.561  -0.238  1.00  0.00    -0.345 N 
ATOM     19  H22 UNL     1       1.372  -3.306  -1.207  1.00  0.00     0.176 HD
ATOM     20  H21 UNL     1       1.624  -4.540   0.041  1.00  0.00     0.176 HD
ENDBRANCH  16  18
ENDBRANCH   4  16
BRANCH   6  21
HETATM   21  O2  UNL     1       5.069  -0.418  -0.421  1.00  0.00    -0.372 OA
ATOM     22  H2  UNL     1       5.900  -0.878  -0.421  1.00  0.00     0.216 HD
ENDBRANCH   6  21
BRANCH   1  23
HETATM   23  O1  UNL     1      -3.073  -1.258   0.995  1.00  0.00    -0.340 OA
HETATM   24  C1  UNL     1      -3.081  -2.296   1.961  1.00  0.00     0.211 C 
ENDBRANCH   1  23
BRANCH   8  25
HETATM   25  O3  UNL     1       3.999   2.717  -1.137  1.00  0.00    -0.288 OA
ATOM     26  H3  UNL     1       4.816   3.140  -1.375  1.00  0.00     0.244 HD
ENDBRANCH   8  25
BRANCH  15  27
HETATM   27  C11 UNL     1      -3.096   1.556   0.189  1.00  0.00     0.250 C 
BRANCH  27  28
HETATM   28  C12 UNL     1      -3.916   1.038  -0.942  1.00  0.00     0.251 C 
HETATM   29  N7  UNL     1      -5.176   1.600  -1.274  1.00  0.00    -0.061 NA
HETATM   30  O4  UNL     1      -3.514   0.070  -1.656  1.00  0.00    -0.275 OA
ENDBRANCH  27  28
ENDBRANCH  15  27
TORSDOF 7
