REMARK  10 active torsions:
REMARK  status: ('A' for Active; 'I' for Inactive)
REMARK    1  A    between atoms: O1_2  and  C2_3 
REMARK    2  A    between atoms: C3_6  and  N2_7 
REMARK    3  A    between atoms: C5_14  and  N5_15 
REMARK    4  A    between atoms: N5_15  and  C6_17 
REMARK    5  A    between atoms: C6_17  and  O2_18 
REMARK    6  A    between atoms: C6_17  and  C7_20 
REMARK    7  A    between atoms: C7_20  and  N6_21 
REMARK    8  A    between atoms: C7_20  and  C8_28 
REMARK    9  A    between atoms: N6_21  and  N7_23 
REMARK   10  A    between atoms: N11_34  and  N12_35 
ROOT
HETATM    1  C6  UNL     1       0.571  -0.457  -0.713  1.00  0.00     0.173 C 
ENDROOT
BRANCH   1   2
HETATM    2  N5  UNL     1      -0.113   0.242   0.264  1.00  0.00    -0.329 N 
ATOM      3  H5  UNL     1       0.340   0.409   1.162  1.00  0.00     0.168 HD
BRANCH   2   4
HETATM    4  C5  UNL     1      -1.464   0.748   0.048  1.00  0.00     0.128 A 
HETATM    5  C2  UNL     1      -2.496  -0.099   0.389  1.00  0.00     0.187 A 
HETATM    6  N1  UNL     1      -3.760   0.335   0.203  1.00  0.00    -0.168 N 
HETATM    7  C3  UNL     1      -3.993   1.560  -0.300  1.00  0.00     0.679 A 
ATOM      8  H1  UNL     1      -4.544  -0.270   0.446  1.00  0.00     0.186 HD
HETATM    9  N3  UNL     1      -2.967   2.386  -0.632  1.00  0.00    -0.177 N 
HETATM   10  C4  UNL     1      -1.690   2.002  -0.467  1.00  0.00     0.163 A 
ATOM     11  H3  UNL     1      -3.169   3.311  -1.012  1.00  0.00     0.185 HD
HETATM   12  N4  UNL     1      -0.598   2.844  -0.805  1.00  0.00    -0.080 NA
BRANCH   5  13
HETATM   13  O1  UNL     1      -2.233  -1.380   0.915  1.00  0.00    -0.339 OA
HETATM   14  C1  UNL     1      -3.354  -2.175   1.234  1.00  0.00     0.211 C 
ENDBRANCH   5  13
BRANCH   7  15
HETATM   15  N2  UNL     1      -5.202   1.991  -0.484  1.00  0.00    -0.234 N 
ATOM     16  H22 UNL     1      -5.972   1.371  -0.235  1.00  0.00     0.174 HD
ATOM     17  H21 UNL     1      -5.379   2.920  -0.866  1.00  0.00     0.174 HD
ENDBRANCH   7  15
ENDBRANCH   2   4
ENDBRANCH   1   2
BRANCH   1  18
HETATM   18  O2  UNL     1      -0.178  -0.599  -1.810  1.00  0.00    -0.344 OA
ATOM     19  H2  UNL     1       0.292  -1.079  -2.481  1.00  0.00     0.219 HD
ENDBRANCH   1  18
BRANCH   1  20
HETATM   20  C7  UNL     1       1.865  -1.040  -0.815  1.00  0.00     0.147 C 
BRANCH  20  21
HETATM   21  N6  UNL     1       2.061  -1.696  -1.955  1.00  0.00    -0.279 N 
ATOM     22  H6  UNL     1       1.282  -1.710  -2.613  1.00  0.00     0.189 HD
BRANCH  21  23
HETATM   23  N7  UNL     1       3.193  -2.352  -2.336  1.00  0.00    -0.249 N 
HETATM   24  N8  UNL     1       3.252  -3.618  -2.543  1.00  0.00    -0.331 N 
ATOM     25  H82 UNL     1       2.392  -4.149  -2.410  1.00  0.00     0.178 HD
ATOM     26  H81 UNL     1       4.099  -4.109  -2.828  1.00  0.00     0.178 HD
ATOM     27  H7  UNL     1       4.044  -1.805  -2.464  1.00  0.00     0.207 HD
ENDBRANCH  21  23
ENDBRANCH  20  21
BRANCH  20  28
HETATM   28  C8  UNL     1       2.967  -1.089   0.105  1.00  0.00     0.175 A 
HETATM   29  N9  UNL     1       3.967  -2.061   0.045  1.00  0.00    -0.281 N 
HETATM   30  N10 UNL     1       4.873  -1.824   0.942  1.00  0.00    -0.293 N 
ATOM     31  H9  UNL     1       3.983  -2.844  -0.609  1.00  0.00     0.188 HD
HETATM   32  C9  UNL     1       4.569  -0.735   1.634  1.00  0.00     0.224 A 
ATOM     33  H10 UNL     1       5.704  -2.396   1.094  1.00  0.00     0.187 HD
HETATM   34  N11 UNL     1       3.388  -0.299   1.096  1.00  0.00    -0.237 N 
BRANCH  34  35
HETATM   35  N12 UNL     1       2.799   0.890   1.556  1.00  0.00    -0.336 N 
ATOM     36 2H12 UNL     1       1.919   1.215   1.155  1.00  0.00     0.177 HD
ATOM     37 1H12 UNL     1       3.121   1.493   2.313  1.00  0.00     0.177 HD
ENDBRANCH  34  35
ENDBRANCH  20  28
ENDBRANCH   1  20
TORSDOF 10
