REMARK  6 active torsions:
REMARK  status: ('A' for Active; 'I' for Inactive)
REMARK    1  A    between atoms: N1_1  and  C1_4 
REMARK    2  A    between atoms: N5_12  and  C4_13 
REMARK    3  A    between atoms: C4_13  and  C5_14 
REMARK    4  A    between atoms: C5_14  and  N6_15 
REMARK    5  A    between atoms: C7_22  and  S1_23 
REMARK    6  A    between atoms: S1_23  and  N10_24 
ROOT
HETATM    1  C1  UNL     1      -1.854  -2.033  -1.035  1.00  0.00     0.678 A 
HETATM    2  N2  UNL     1      -0.814  -1.188  -0.905  1.00  0.00    -0.173 N 
ATOM      3  H2  UNL     1       0.105  -1.485  -1.232  1.00  0.00     0.186 HD
HETATM    4  C2  UNL     1      -0.944   0.033  -0.360  1.00  0.00     0.167 A 
HETATM    5  C3  UNL     1      -2.181   0.451   0.087  1.00  0.00     0.133 A 
HETATM    6  N3  UNL     1      -1.996   1.680   0.567  1.00  0.00    -0.278 N 
ATOM      7  H3  UNL     1      -2.720   2.271   0.976  1.00  0.00     0.184 HD
HETATM    8  N4  UNL     1      -0.725   2.009   0.428  1.00  0.00    -0.018 NA
HETATM    9  N5  UNL     1      -0.041   1.023  -0.139  1.00  0.00    -0.256 N 
HETATM   10  C7  UNL     1      -3.260  -0.405  -0.039  1.00  0.00     0.195 A 
HETATM   11  N11 UNL     1      -3.047  -1.602  -0.592  1.00  0.00    -0.177 N 
ATOM     12  H11 UNL     1      -3.844  -2.232  -0.684  1.00  0.00     0.185 HD
ENDROOT
BRANCH   9  13
HETATM   13  C4  UNL     1       1.353   0.948  -0.475  1.00  0.00     0.170 C 
BRANCH  13  14
HETATM   14  C5  UNL     1       2.147   0.379   0.682  1.00  0.00     0.172 C 
BRANCH  14  15
HETATM   15  N6  UNL     1       3.555   0.301   0.347  1.00  0.00    -0.226 N 
HETATM   16  N7  UNL     1       4.542   1.298   0.557  1.00  0.00    -0.002 NA
HETATM   17  N8  UNL     1       5.665   0.516   0.910  1.00  0.00    -0.004 NA
HETATM   18  N9  UNL     1       5.641  -0.520  -0.029  1.00  0.00    -0.236 N 
HETATM   19  C6  UNL     1       4.252  -0.793  -0.265  1.00  0.00     0.352 C 
ATOM     20  H9  UNL     1       6.442  -0.984  -0.456  1.00  0.00     0.188 HD
HETATM   21  O1  UNL     1       3.713  -1.744  -0.856  1.00  0.00    -0.244 OA
ENDBRANCH  14  15
ENDBRANCH  13  14
ENDBRANCH   9  13
BRANCH   1  22
HETATM   22  N1  UNL     1      -1.700  -3.218  -1.570  1.00  0.00    -0.234 N 
ATOM     23  H12 UNL     1      -0.794  -3.545  -1.906  1.00  0.00     0.174 HD
ATOM     24  H11 UNL     1      -2.488  -3.858  -1.668  1.00  0.00     0.174 HD
ENDBRANCH   1  22
BRANCH  10  25
HETATM   25  S1  UNL     1      -4.808   0.140   0.529  1.00  0.00     0.275 S 
HETATM   26  O2  UNL     1      -4.839   0.323   2.013  1.00  0.00    -0.199 OA
HETATM   27  O3  UNL     1      -5.816  -0.943   0.205  1.00  0.00    -0.199 OA
BRANCH  25  28
HETATM   28  N10 UNL     1      -5.321   1.565  -0.291  1.00  0.00    -0.323 N 
ATOM     29 2H10 UNL     1      -4.771   2.021  -1.019  1.00  0.00     0.169 HD
ATOM     30 1H10 UNL     1      -6.230   1.885   0.043  1.00  0.00     0.169 HD
ENDBRANCH  25  28
ENDBRANCH  10  25
TORSDOF 6
