REMARK  7 active torsions:
REMARK  status: ('A' for Active; 'I' for Inactive)
REMARK    1  A    between atoms: C2_2  and  N1_3 
REMARK    2  A    between atoms: C2_2  and  C9_25 
REMARK    3  A    between atoms: N1_3  and  C3_5 
REMARK    4  A    between atoms: C3_5  and  C4_6 
REMARK    5  A    between atoms: C4_6  and  N2_7 
REMARK    6  A    between atoms: C6_14  and  N6_15 
REMARK    7  A    between atoms: C7_20  and  N8_21 
ROOT
HETATM    1  N2  UNL     1      -2.094  -0.125   0.988  1.00  0.00    -0.267 N 
HETATM    2  N3  UNL     1      -2.580  -0.546   2.156  1.00  0.00    -0.018 NA
HETATM    3  N4  UNL     1      -3.896  -0.638   2.077  1.00  0.00    -0.267 N 
ATOM      4  H4  UNL     1      -4.515  -0.937   2.831  1.00  0.00     0.186 HD
HETATM    5  C5  UNL     1      -4.287  -0.275   0.845  1.00  0.00     0.166 A 
HETATM    6  N5  UNL     1      -5.489  -0.189   0.251  1.00  0.00    -0.173 N 
ATOM      7  H5  UNL     1      -6.327  -0.434   0.778  1.00  0.00     0.186 HD
HETATM    8  C6  UNL     1      -5.607   0.214  -1.025  1.00  0.00     0.679 A 
HETATM    9  N7  UNL     1      -4.484   0.530  -1.689  1.00  0.00    -0.175 N 
ATOM     10  H7  UNL     1      -4.569   0.838  -2.658  1.00  0.00     0.186 HD
HETATM   11  C7  UNL     1      -3.252   0.464  -1.151  1.00  0.00     0.146 A 
HETATM   12  C8  UNL     1      -3.113   0.053   0.156  1.00  0.00     0.138 A 
ENDROOT
BRANCH   1  13
HETATM   13  C4  UNL     1      -0.695   0.075   0.742  1.00  0.00     0.166 C 
BRANCH  13  14
HETATM   14  C3  UNL     1      -0.016  -1.178   0.227  1.00  0.00     0.141 C 
BRANCH  14  15
HETATM   15  N1  UNL     1       1.387  -0.976  -0.020  1.00  0.00    -0.391 N 
ATOM     16  H1  UNL     1       1.705  -1.005  -0.989  1.00  0.00     0.159 HD
BRANCH  15  17
HETATM   17  C2  UNL     1       2.348  -0.742   0.972  1.00  0.00     0.016 C 
HETATM   18  C1  UNL     1       2.091  -1.195   2.353  1.00  0.00     0.069 C 
BRANCH  17  19
HETATM   19  C9  UNL     1       3.476  -0.127   0.702  1.00  0.00     0.051 A 
HETATM   20  C10 UNL     1       4.474   0.134   1.650  1.00  0.00     0.126 A 
HETATM   21  N9  UNL     1       5.456   0.765   1.009  1.00  0.00    -0.290 N 
HETATM   22  N10 UNL     1       5.188   0.940  -0.278  1.00  0.00    -0.164 N 
ATOM     23  H9  UNL     1       6.317   1.078   1.457  1.00  0.00     0.188 HD
HETATM   24  C11 UNL     1       3.980   0.398  -0.474  1.00  0.00     0.169 A 
HETATM   25  N13 UNL     1       5.623   1.444  -1.506  1.00  0.00     0.016 NA
HETATM   26  N11 UNL     1       3.623   0.521  -1.722  1.00  0.00    -0.268 N 
HETATM   27  N12 UNL     1       4.623   1.180  -2.441  1.00  0.00    -0.005 NA
ATOM     28  H11 UNL     1       2.744   0.186  -2.115  1.00  0.00     0.185 HD
ENDBRANCH  17  19
ENDBRANCH  15  17
ENDBRANCH  14  15
ENDBRANCH  13  14
ENDBRANCH   1  13
BRANCH  11  29
HETATM   29  N8  UNL     1      -2.192   0.777  -1.817  1.00  0.00    -0.383 N 
ATOM     30  H82 UNL     1      -2.295   1.081  -2.785  1.00  0.00     0.157 HD
ATOM     31  H81 UNL     1      -1.258   0.727  -1.409  1.00  0.00     0.157 HD
ENDBRANCH  11  29
BRANCH   8  32
HETATM   32  N6  UNL     1      -6.781   0.296  -1.602  1.00  0.00    -0.234 N 
ATOM     33  H62 UNL     1      -7.634   0.056  -1.097  1.00  0.00     0.174 HD
ATOM     34  H61 UNL     1      -6.871   0.602  -2.571  1.00  0.00     0.174 HD
ENDBRANCH   8  32
TORSDOF 7
