REMARK  7 active torsions:
REMARK  status: ('A' for Active; 'I' for Inactive)
REMARK       I    between atoms: N1_2  and  C2_4 
REMARK       I    between atoms: C2_4  and  N2_6 
REMARK    1  A    between atoms: C3_9  and  N4_10 
REMARK    2  A    between atoms: N4_10  and  N5_12 
REMARK    3  A    between atoms: N5_12  and  C4_14 
REMARK    4  A    between atoms: C4_14  and  C5_18 
REMARK    5  A    between atoms: C5_18  and  S1_19 
REMARK    6  A    between atoms: S1_19  and  C6_20 
REMARK    7  A    between atoms: N9_27  and  N10_28 
ROOT
HETATM    1  N4  UNL     1      -0.441  -0.920   0.904  1.00  0.00    -0.127 N 
ATOM      2  H4  UNL     1       0.261  -1.659   0.934  1.00  0.00     0.205 HD
ENDROOT
BRANCH   1   3
HETATM    3  C3  UNL     1      -1.673  -1.195   0.599  1.00  0.00     0.737 A 
HETATM    4  N3  UNL     1      -2.693  -0.321   0.523  1.00  0.00    -0.114 N 
HETATM    5  N2  UNL     1      -3.800  -0.945   0.189  1.00  0.00    -0.137 N 
ATOM      6  H3  UNL     1      -2.618   0.681   0.699  1.00  0.00     0.206 HD
HETATM    7  C2  UNL     1      -5.069  -0.331   0.018  1.00  0.00     0.345 C 
HETATM    8  C9  UNL     1      -3.469  -2.234   0.052  1.00  0.00     0.386 A 
HETATM    9  N1  UNL     1      -5.225   1.059   0.208  1.00  0.00    -0.345 N 
HETATM   10  O1  UNL     1      -6.092  -1.020  -0.309  1.00  0.00    -0.245 OA
HETATM   11  C1  UNL     1      -6.531   1.701   0.035  1.00  0.00     0.151 C 
ATOM     12  H1  UNL     1      -4.417   1.625   0.469  1.00  0.00     0.163 HD
HETATM   13  N9  UNL     1      -2.161  -2.419   0.299  1.00  0.00    -0.034 N 
HETATM   14  O2  UNL     1      -4.290  -3.128  -0.265  1.00  0.00    -0.242 OA
BRANCH  13  15
HETATM   15  N10 UNL     1      -1.430  -3.610   0.263  1.00  0.00    -0.320 N 
ATOM     16 2H10 UNL     1      -0.437  -3.750   0.450  1.00  0.00     0.178 HD
ATOM     17 1H10 UNL     1      -1.798  -4.534   0.037  1.00  0.00     0.178 HD
ENDBRANCH  13  15
ENDBRANCH   1   3
BRANCH   1  18
HETATM   18  N5  UNL     1      -0.091   0.401   1.190  1.00  0.00    -0.274 N 
ATOM     19  H5  UNL     1      -0.335   0.796   2.098  1.00  0.00     0.189 HD
BRANCH  18  20
HETATM   20  C4  UNL     1       0.602   1.214   0.237  1.00  0.00     0.099 C 
HETATM   21  N6  UNL     1      -0.082   1.915  -0.583  1.00  0.00    -0.387 N 
ATOM     22  H62 UNL     1      -1.101   1.884  -0.545  1.00  0.00     0.157 HD
ATOM     23  H61 UNL     1       0.412   2.494  -1.262  1.00  0.00     0.157 HD
BRANCH  20  24
HETATM   24  C5  UNL     1       2.074   1.259   0.182  1.00  0.00     0.159 C 
BRANCH  24  25
HETATM   25  S1  UNL     1       2.815  -0.339  -0.149  1.00  0.00    -0.087 SA
BRANCH  25  26
HETATM   26  C6  UNL     1       4.584  -0.160  -0.192  1.00  0.00     0.136 C 
HETATM   27  N7  UNL     1       5.434  -1.100  -0.409  1.00  0.00    -0.369 N 
HETATM   28  C7  UNL     1       6.796  -0.629  -0.378  1.00  0.00     0.141 C 
ATOM     29  H7  UNL     1       5.174  -2.071  -0.584  1.00  0.00     0.161 HD
HETATM   30  C8  UNL     1       6.666   0.717   0.311  1.00  0.00     0.141 C 
HETATM   31  N8  UNL     1       5.281   1.050   0.006  1.00  0.00    -0.369 N 
ATOM     32  H8  UNL     1       4.887   1.989  -0.054  1.00  0.00     0.161 HD
ENDBRANCH  25  26
ENDBRANCH  24  25
ENDBRANCH  20  24
ENDBRANCH  18  20
ENDBRANCH   1  18
TORSDOF 7
