REMARK  16 active torsions:
REMARK  status: ('A' for Active; 'I' for Inactive)
REMARK    1  A    between atoms: C2_2  and  N1_3 
REMARK       I    between atoms: N1_3  and  C3_5 
REMARK       I    between atoms: C3_5  and  N4_10 
REMARK    2  A    between atoms: N4_10  and  C5_12 
REMARK    3  A    between atoms: C5_12  and  C6_13 
REMARK    4  A    between atoms: C6_13  and  C7_14 
REMARK    5  A    between atoms: C7_14  and  C8_15 
REMARK    6  A    between atoms: C8_15  and  C9_16 
REMARK    7  A    between atoms: C9_16  and  C10_17 
REMARK    8  A    between atoms: C10_17  and  C11_18 
REMARK    9  A    between atoms: C11_18  and  C12_19 
REMARK   10  A    between atoms: C12_19  and  C13_20 
REMARK   11  A    between atoms: C13_20  and  C14_21 
REMARK   12  A    between atoms: C14_21  and  N5_22 
REMARK   13  A    between atoms: C16_24  and  C17_25 
REMARK   14  A    between atoms: C20_28  and  C21_29 
REMARK   15  A    between atoms: C21_29  and  C22_30 
REMARK   16  A    between atoms: C24_36  and  O2_37 
ROOT
HETATM    1  N1  UNL     1      -8.739   0.476  -1.137  1.00  0.00    -0.226 N 
ATOM      2  H1  UNL     1      -8.739   0.467  -2.157  1.00  0.00     0.177 HD
HETATM    3  C3  UNL     1      -8.049  -0.545  -0.426  1.00  0.00     0.682 C 
HETATM    4  N2  UNL     1      -8.007  -1.721  -1.008  1.00  0.00    -0.126 N 
ATOM      5  H2  UNL     1      -8.456  -1.849  -1.915  1.00  0.00     0.197 HD
HETATM    6  C4  UNL     1      -7.351  -2.811  -0.398  1.00  0.00     0.196 C 
HETATM    7  N3  UNL     1      -6.825  -3.724   0.100  1.00  0.00    -0.171 NA
HETATM    8  N4  UNL     1      -7.432  -0.364   0.824  1.00  0.00    -0.226 N 
ATOM      9  H4  UNL     1      -8.005  -0.358   1.668  1.00  0.00     0.177 HD
ENDROOT
BRANCH   1  10
HETATM   10  C2  UNL     1      -9.440   1.526  -0.434  1.00  0.00     0.133 C 
HETATM   11  C1  UNL     1     -10.085   2.456  -1.441  1.00  0.00     0.027 C 
ENDBRANCH   1  10
BRANCH   8  12
HETATM   12  C5  UNL     1      -5.977  -0.183   0.940  1.00  0.00     0.138 C 
BRANCH  12  13
HETATM   13  C6  UNL     1      -5.587   1.138   0.358  1.00  0.00     0.020 C 
BRANCH  13  14
HETATM   14  C7  UNL     1      -4.117   1.354   0.476  1.00  0.00     0.002 C 
BRANCH  14  15
HETATM   15  C8  UNL     1      -3.374   0.292  -0.287  1.00  0.00     0.000 C 
BRANCH  15  16
HETATM   16  C9  UNL     1      -1.873   0.611  -0.094  1.00  0.00     0.000 C 
BRANCH  16  17
HETATM   17  C10 UNL     1      -1.071  -0.412  -0.850  1.00  0.00     0.000 C 
BRANCH  17  18
HETATM   18  C11 UNL     1       0.420  -0.184  -0.685  1.00  0.00     0.000 C 
BRANCH  18  19
HETATM   19  C12 UNL     1       0.797  -0.283   0.761  1.00  0.00     0.002 C 
BRANCH  19  20
HETATM   20  C13 UNL     1       0.436  -1.621   1.307  1.00  0.00     0.022 C 
BRANCH  20  21
HETATM   21  C14 UNL     1       1.157  -2.725   0.630  1.00  0.00     0.150 C 
BRANCH  21  22
HETATM   22  N5  UNL     1       2.601  -2.645   0.810  1.00  0.00    -0.287 N 
HETATM   23  C15 UNL     1       3.522  -2.019   0.071  1.00  0.00     0.144 A 
HETATM   24  C16 UNL     1       4.771  -2.230   0.608  1.00  0.00     0.083 A 
HETATM   25  N7  UNL     1       4.571  -2.995   1.683  1.00  0.00    -0.284 N 
HETATM   26  N8  UNL     1       3.282  -3.246   1.811  1.00  0.00    -0.240 N 
ATOM     27  H7  UNL     1       5.302  -3.333   2.309  1.00  0.00     0.188 HD
ATOM     28  H8  UNL     1       2.863  -3.808   2.552  1.00  0.00     0.208 HD
BRANCH  24  29
HETATM   29  C17 UNL     1       6.048  -1.708   0.093  1.00  0.00     0.035 A 
HETATM   30  C18 UNL     1       7.287  -1.967   0.621  1.00  0.00     0.022 A 
HETATM   31  C19 UNL     1       8.340  -1.410   0.012  1.00  0.00     0.016 A 
HETATM   32  C20 UNL     1       8.100  -0.631  -1.085  1.00  0.00    -0.012 A 
HETATM   33  S2  UNL     1       6.395  -0.702  -1.231  1.00  0.00    -0.092 SA
BRANCH  32  34
HETATM   34  C21 UNL     1       9.049   0.122  -1.973  1.00  0.00     0.097 C 
BRANCH  34  35
HETATM   35  C22 UNL     1       9.140   1.508  -1.389  1.00  0.00     0.043 A 
HETATM   36  S1  UNL     1       8.385   2.951  -1.908  1.00  0.00    -0.029 SA
HETATM   37  C23 UNL     1       9.009   3.998  -0.716  1.00  0.00     0.290 A 
HETATM   38  O1  UNL     1       8.820   5.256  -0.540  1.00  0.00    -0.260 OA
HETATM   39  N6  UNL     1       9.768   3.194   0.026  1.00  0.00    -0.297 N 
HETATM   40  C24 UNL     1       9.848   1.933  -0.297  1.00  0.00     0.157 A 
ATOM     41  H6  UNL     1      10.277   3.557   0.832  1.00  0.00     0.171 HD
BRANCH  40  42
HETATM   42  O2  UNL     1      10.640   1.003   0.445  1.00  0.00    -0.345 OA
ATOM     43  H2  UNL     1      11.131   1.298   1.203  1.00  0.00     0.219 HD
ENDBRANCH  40  42
ENDBRANCH  34  35
ENDBRANCH  32  34
ENDBRANCH  24  29
ENDBRANCH  21  22
ENDBRANCH  20  21
ENDBRANCH  19  20
ENDBRANCH  18  19
ENDBRANCH  17  18
ENDBRANCH  16  17
ENDBRANCH  15  16
ENDBRANCH  14  15
ENDBRANCH  13  14
ENDBRANCH  12  13
ENDBRANCH   8  12
TORSDOF 16
