REMARK  15 active torsions:
REMARK  status: ('A' for Active; 'I' for Inactive)
REMARK    1  A    between atoms: C2_2  and  C3_3 
REMARK    2  A    between atoms: C3_3  and  C4_4 
REMARK    3  A    between atoms: C4_4  and  C5_5 
REMARK    4  A    between atoms: C5_5  and  C6_6 
REMARK    5  A    between atoms: C7_9  and  C8_10 
REMARK       I    between atoms: C8_10  and  N2_12 
REMARK    6  A    between atoms: N2_12  and  C9_14 
REMARK    7  A    between atoms: C9_14  and  C10_15 
REMARK    8  A    between atoms: C9_14  and  C13_19 
REMARK    9  A    between atoms: C10_15  and  C11_16 
REMARK   10  A    between atoms: C16_22  and  S1_23 
REMARK   11  A    between atoms: S1_23  and  C17_24 
REMARK   12  A    between atoms: C19_28  and  N4_29 
REMARK   13  A    between atoms: N7_38  and  C21_39 
REMARK   14  A    between atoms: C21_39  and  C22_40 
REMARK   15  A    between atoms: C22_40  and  C23_41 
ROOT
HETATM    1  C6  UNL     1      -1.356   1.183  -3.161  1.00  0.00     0.125 A 
HETATM    2  N1  UNL     1      -2.131   0.421  -2.365  1.00  0.00    -0.333 N 
ATOM      3  H1  UNL     1      -3.149   0.428  -2.308  1.00  0.00     0.168 HD
HETATM    4  C7  UNL     1      -1.283  -0.351  -1.661  1.00  0.00     0.144 A 
HETATM    5  C16 UNL     1       0.004  -0.063  -2.028  1.00  0.00     0.154 A 
HETATM    6  O3  UNL     1      -0.086   0.871  -2.937  1.00  0.00    -0.288 OA
ENDROOT
BRANCH   5   7
HETATM    7  S1  UNL     1       1.459  -0.850  -1.359  1.00  0.00    -0.026 SA
BRANCH   7   8
HETATM    8  C17 UNL     1       2.054  -0.036   0.103  1.00  0.00     0.153 A 
HETATM    9  N3  UNL     1       1.522   1.003   0.778  1.00  0.00    -0.330 N 
HETATM   10  C18 UNL     1       2.301   1.273   1.845  1.00  0.00     0.124 A 
ATOM     11  H3  UNL     1       0.670   1.503   0.523  1.00  0.00     0.168 HD
HETATM   12  C19 UNL     1       2.274   2.183   2.873  1.00  0.00     0.145 A 
HETATM   13  C25 UNL     1       3.352   0.369   1.829  1.00  0.00     0.156 A 
HETATM   14  N5  UNL     1       3.238   2.176   3.810  1.00  0.00    -0.175 N 
HETATM   15  C20 UNL     1       4.269   1.275   3.776  1.00  0.00     0.681 A 
ATOM     16  H5  UNL     1       3.201   2.860   4.566  1.00  0.00     0.186 HD
HETATM   17  N6  UNL     1       5.183   1.290   4.677  1.00  0.00    -0.234 N 
HETATM   18  N7  UNL     1       4.322   0.382   2.794  1.00  0.00    -0.166 N 
ATOM     19  H62 UNL     1       5.142   1.976   5.431  1.00  0.00     0.174 HD
ATOM     20  H61 UNL     1       5.951   0.619   4.652  1.00  0.00     0.174 HD
HETATM   21  N8  UNL     1       3.160  -0.403   0.756  1.00  0.00    -0.320 N 
ATOM     22  H8  UNL     1       3.773  -1.168   0.474  1.00  0.00     0.169 HD
BRANCH  12  23
HETATM   23  N4  UNL     1       1.314   3.034   2.918  1.00  0.00    -0.383 N 
ATOM     24  H42 UNL     1       0.583   3.039   2.207  1.00  0.00     0.157 HD
ATOM     25  H41 UNL     1       1.294   3.710   3.682  1.00  0.00     0.157 HD
ENDBRANCH  12  23
BRANCH  18  26
HETATM   26  C21 UNL     1       5.388  -0.598   2.692  1.00  0.00     0.149 C 
BRANCH  26  27
HETATM   27  C22 UNL     1       6.508   0.054   1.881  1.00  0.00     0.020 C 
BRANCH  27  28
HETATM   28  C23 UNL     1       7.672  -0.851   1.684  1.00  0.00    -0.003 C 
HETATM   29  C24 UNL     1       8.249  -1.237   3.028  1.00  0.00     0.005 C 
ENDBRANCH  27  28
ENDBRANCH  26  27
ENDBRANCH  18  26
ENDBRANCH   7   8
ENDBRANCH   5   7
BRANCH   4  30
HETATM   30  C8  UNL     1      -1.698  -1.352  -0.617  1.00  0.00     0.275 C 
HETATM   31  O1  UNL     1      -0.775  -1.720   0.144  1.00  0.00    -0.266 OA
HETATM   32  N2  UNL     1      -2.998  -1.805  -0.528  1.00  0.00    -0.328 N 
ATOM     33  H2  UNL     1      -3.571  -1.408  -1.272  1.00  0.00     0.168 HD
BRANCH  32  34
HETATM   34  C9  UNL     1      -3.761  -2.654   0.290  1.00  0.00     0.000 C 
BRANCH  34  35
HETATM   35  C10 UNL     1      -5.143  -2.952  -0.261  1.00  0.00     0.130 C 
BRANCH  35  36
HETATM   36  C11 UNL     1      -5.072  -3.628  -1.590  1.00  0.00     0.128 C 
HETATM   37  C12 UNL     1      -6.320  -4.056  -2.306  1.00  0.00     0.091 C 
HETATM   38  O2  UNL     1      -4.010  -3.850  -2.123  1.00  0.00    -0.298 OA
ENDBRANCH  35  36
ENDBRANCH  34  35
BRANCH  34  39
HETATM   39  C13 UNL     1      -3.176  -3.811   1.018  1.00  0.00     0.023 C 
HETATM   40  C14 UNL     1      -2.165  -3.532   2.086  1.00  0.00     0.016 C 
HETATM   41  C15 UNL     1      -4.238  -4.724   1.608  1.00  0.00     0.016 C 
ENDBRANCH  34  39
ENDBRANCH  32  34
ENDBRANCH   4  30
BRANCH   1  42
HETATM   42  C5  UNL     1      -1.756   2.231  -4.155  1.00  0.00     0.084 C 
BRANCH  42  43
HETATM   43  C4  UNL     1      -1.771   3.593  -3.475  1.00  0.00     0.008 C 
BRANCH  43  44
HETATM   44  C3  UNL     1      -2.157   4.654  -4.457  1.00  0.00     0.000 C 
BRANCH  44  45
HETATM   45  C2  UNL     1      -2.187   6.035  -3.896  1.00  0.00    -0.005 C 
HETATM   46  C1  UNL     1      -3.160   6.191  -2.764  1.00  0.00     0.005 C 
ENDBRANCH  44  45
ENDBRANCH  43  44
ENDBRANCH  42  43
ENDBRANCH   1  42
TORSDOF 15
