REMARK  17 active torsions:
REMARK  status: ('A' for Active; 'I' for Inactive)
REMARK    1  A    between atoms: O1_1  and  C1_3 
REMARK    2  A    between atoms: C1_3  and  C2_4 
REMARK    3  A    between atoms: N1_6  and  C4_7 
REMARK    4  A    between atoms: C4_7  and  O2_8 
REMARK    5  A    between atoms: C4_7  and  C5_10 
REMARK    6  A    between atoms: C4_7  and  C6_13 
REMARK    7  A    between atoms: C5_10  and  O3_11 
REMARK    8  A    between atoms: C6_13  and  C7_14 
REMARK    9  A    between atoms: C7_14  and  C8_15 
REMARK   10  A    between atoms: C8_15  and  C9_16 
REMARK   11  A    between atoms: C9_16  and  C10_17 
REMARK   12  A    between atoms: C10_17  and  C11_18 
REMARK   13  A    between atoms: C11_18  and  C12_19 
REMARK   14  A    between atoms: C12_19  and  N2_20 
REMARK   15  A    between atoms: N2_20  and  C13_23 
REMARK   16  A    between atoms: C13_23  and  C14_24 
REMARK   17  A    between atoms: C14_24  and  C15_25 
ROOT
HETATM    1  C12 UNL     1      -0.383   0.179   1.680  1.00  0.00     0.232 C 
ENDROOT
BRANCH   1   2
HETATM    2  C11 UNL     1      -1.212  -1.067   1.652  1.00  0.00     0.027 C 
BRANCH   2   3
HETATM    3  C10 UNL     1      -2.534  -0.772   0.930  1.00  0.00     0.002 C 
BRANCH   3   4
HETATM    4  C9  UNL     1      -3.251   0.296   1.660  1.00  0.00     0.000 C 
BRANCH   4   5
HETATM    5  C8  UNL     1      -4.605   0.576   0.985  1.00  0.00     0.000 C 
BRANCH   5   6
HETATM    6  C7  UNL     1      -4.387   1.021  -0.395  1.00  0.00     0.005 C 
BRANCH   6   7
HETATM    7  C6  UNL     1      -5.562   1.444  -1.182  1.00  0.00     0.064 C 
BRANCH   7   8
HETATM    8  C4  UNL     1      -6.633   0.474  -1.450  1.00  0.00     0.159 C 
BRANCH   8   9
HETATM    9  N1  UNL     1      -7.380  -0.076  -0.372  1.00  0.00    -0.317 N 
HETATM   10  C3  UNL     1      -7.673  -1.397  -0.228  1.00  0.00     0.122 A 
HETATM   11  C2  UNL     1      -8.436  -1.543   0.884  1.00  0.00     0.049 A 
HETATM   12  N4  UNL     1      -8.603  -0.318   1.410  1.00  0.00    -0.353 N 
HETATM   13  C28 UNL     1      -7.964   0.577   0.652  1.00  0.00     0.185 A 
ATOM     14  H4  UNL     1      -9.134  -0.105   2.255  1.00  0.00     0.166 HD
BRANCH  11  15
HETATM   15  C1  UNL     1      -8.974  -2.823   1.403  1.00  0.00     0.222 C 
BRANCH  15  16
HETATM   16  O1  UNL     1      -8.107  -3.430   2.290  1.00  0.00    -0.395 OA
ATOM     17  H1  UNL     1      -8.452  -4.250   2.623  1.00  0.00     0.209 HD
ENDBRANCH  15  16
ENDBRANCH  11  15
ENDBRANCH   8   9
BRANCH   8  18
HETATM   18  O2  UNL     1      -6.016  -0.588  -2.202  1.00  0.00    -0.368 OA
ATOM     19  H2  UNL     1      -5.517  -0.221  -2.922  1.00  0.00     0.212 HD
ENDBRANCH   8  18
BRANCH   8  20
HETATM   20  C5  UNL     1      -7.602   1.165  -2.450  1.00  0.00     0.225 C 
BRANCH  20  21
HETATM   21  O3  UNL     1      -8.549   0.266  -2.913  1.00  0.00    -0.396 OA
ATOM     22  H3  UNL     1      -9.141   0.688  -3.524  1.00  0.00     0.209 HD
ENDBRANCH  20  21
ENDBRANCH   8  20
ENDBRANCH   7   8
ENDBRANCH   6   7
ENDBRANCH   5   6
ENDBRANCH   4   5
ENDBRANCH   3   4
ENDBRANCH   2   3
ENDBRANCH   1   2
BRANCH   1  23
HETATM   23  N2  UNL     1      -0.096   0.694   0.383  1.00  0.00    -0.075 N 
ATOM     24  H22 UNL     1      -0.957   0.879  -0.131  1.00  0.00     0.277 HD
ATOM     25  H21 UNL     1       0.272   1.643   0.445  1.00  0.00     0.277 HD
BRANCH  23  26
HETATM   26  C13 UNL     1       0.774  -0.135  -0.376  1.00  0.00     0.235 C 
BRANCH  26  27
HETATM   27  C14 UNL     1       2.195  -0.198   0.100  1.00  0.00     0.060 C 
BRANCH  27  28
HETATM   28  C15 UNL     1       3.013  -1.093  -0.758  1.00  0.00     0.135 C 
HETATM   29  C16 UNL     1       3.072  -0.637  -2.166  1.00  0.00     0.081 C 
HETATM   30  C17 UNL     1       4.347   0.195  -2.129  1.00  0.00     0.019 A 
HETATM   31  S1  UNL     1       5.267   1.405  -2.896  1.00  0.00    -0.096 SA
HETATM   32  C20 UNL     1       5.099  -0.123  -1.044  1.00  0.00     0.092 A 
HETATM   33  C18 UNL     1       6.589   1.483  -1.821  1.00  0.00    -0.005 A 
HETATM   34  C19 UNL     1       6.279   0.549  -0.876  1.00  0.00     0.017 A 
HETATM   35  C27 UNL     1       7.916   2.148  -1.496  1.00  0.00     0.049 C 
HETATM   36  C21 UNL     1       7.440   0.553   0.125  1.00  0.00     0.057 C 
HETATM   37  C22 UNL     1       8.523  -0.317  -0.375  1.00  0.00     0.036 C 
HETATM   38  N3  UNL     1       6.990   0.355   1.449  1.00  0.00    -0.408 N 
HETATM   39  C26 UNL     1       7.901   1.991   0.014  1.00  0.00     0.041 C 
HETATM   40  C23 UNL     1       8.823  -1.547   0.404  1.00  0.00     0.004 C 
HETATM   41  C24 UNL     1       8.602  -1.329   1.880  1.00  0.00     0.019 C 
HETATM   42  C25 UNL     1       7.121  -0.943   2.008  1.00  0.00     0.115 C 
ATOM     43  H3  UNL     1       6.584   1.121   1.987  1.00  0.00     0.154 HD
HETATM   44  O4  UNL     1       4.377  -1.142  -0.353  1.00  0.00    -0.344 OA
ENDBRANCH  27  28
ENDBRANCH  26  27
ENDBRANCH  23  26
ENDBRANCH   1  23
TORSDOF 17
