REMARK  8 active torsions:
REMARK  status: ('A' for Active; 'I' for Inactive)
REMARK    1  A    between atoms: C2_2  and  C3_3 
REMARK    2  A    between atoms: C5_7  and  N2_8 
REMARK       I    between atoms: N2_8  and  C6_10 
REMARK       I    between atoms: C6_10  and  N3_12 
REMARK    3  A    between atoms: C8_15  and  N4_16 
REMARK    4  A    between atoms: N4_16  and  C9_18 
REMARK    5  A    between atoms: C9_18  and  C10_19 
REMARK    6  A    between atoms: C9_18  and  N5_24 
REMARK    7  A    between atoms: C10_19  and  C11_20 
REMARK    8  A    between atoms: N5_24  and  C15_26 
ROOT
HETATM    1  C3  UNL     1       2.517   1.029   1.135  1.00  0.00     0.026 A 
HETATM    2  C4  UNL     1       3.499   0.169   0.694  1.00  0.00     0.114 A 
HETATM    3  N1  UNL     1       3.174  -0.788  -0.214  1.00  0.00    -0.347 N 
ATOM      4  H1  UNL     1       3.891  -1.431  -0.550  1.00  0.00     0.167 HD
HETATM    5  C5  UNL     1       1.927  -0.893  -0.669  1.00  0.00     0.153 A 
HETATM    6  C8  UNL     1       0.913  -0.030  -0.234  1.00  0.00     0.148 A 
HETATM    7  N6  UNL     1       1.262   0.900   0.657  1.00  0.00    -0.342 N 
ATOM      8  H6  UNL     1       0.546   1.544   0.993  1.00  0.00     0.167 HD
ENDROOT
BRANCH   6   9
HETATM    9  N4  UNL     1      -0.232  -0.206  -0.719  1.00  0.00    -0.352 N 
ATOM     10  H4  UNL     1      -0.295  -0.974  -1.388  1.00  0.00     0.163 HD
BRANCH   9  11
HETATM   11  C9  UNL     1      -1.454   0.483  -0.494  1.00  0.00     0.179 C 
BRANCH  11  12
HETATM   12  C10 UNL     1      -2.599  -0.413  -0.095  1.00  0.00     0.054 C 
BRANCH  12  13
HETATM   13  C11 UNL     1      -2.380  -1.182   1.162  1.00  0.00    -0.048 C 
HETATM   14  C12 UNL     1      -2.143  -0.269   2.364  1.00  0.00     0.014 C 
HETATM   15  C13 UNL     1      -3.736  -1.846   1.476  1.00  0.00     0.014 C 
HETATM   16  C14 UNL     1      -1.383  -2.287   1.071  1.00  0.00     0.014 C 
ENDBRANCH  12  13
ENDBRANCH  11  12
BRANCH  11  17
HETATM   17  N5  UNL     1      -1.739   1.277  -1.651  1.00  0.00    -0.398 N 
ATOM     18  H5  UNL     1      -1.202   1.182  -2.513  1.00  0.00     0.155 HD
BRANCH  17  19
HETATM   19  C15 UNL     1      -2.803   2.198  -1.535  1.00  0.00     0.070 C 
HETATM   20  C16 UNL     1      -2.556   3.245  -0.500  1.00  0.00     0.031 C 
HETATM   21  C17 UNL     1      -2.925   2.917  -2.889  1.00  0.00     0.031 C 
ENDBRANCH  17  19
ENDBRANCH  11  17
ENDBRANCH   9  11
ENDBRANCH   6   9
BRANCH   5  22
HETATM   22  N2  UNL     1       1.657  -1.812  -1.528  1.00  0.00    -0.292 N 
HETATM   23  C6  UNL     1       2.655  -2.693  -1.983  1.00  0.00     0.321 C 
HETATM   24  O1  UNL     1       3.113  -2.517  -3.140  1.00  0.00    -0.247 OA
HETATM   25  N3  UNL     1       3.173  -3.764  -1.217  1.00  0.00    -0.347 N 
HETATM   26  C7  UNL     1       4.200  -4.644  -1.727  1.00  0.00     0.151 C 
ATOM     27  H3  UNL     1       2.811  -3.920  -0.276  1.00  0.00     0.163 HD
ATOM     28  H2  UNL     1       0.706  -1.903  -1.884  1.00  0.00     0.172 HD
ENDBRANCH   5  22
BRANCH   1  29
HETATM   29  C2  UNL     1       2.850   2.085   2.129  1.00  0.00     0.054 C 
HETATM   30  C1  UNL     1       3.282   3.370   1.483  1.00  0.00     0.011 C 
ENDBRANCH   1  29
TORSDOF 8
