REMARK  5 active torsions:
REMARK  status: ('A' for Active; 'I' for Inactive)
REMARK    1  A    between atoms: C2_2  and  C5_5 
REMARK    2  A    between atoms: C5_5  and  C6_6 
REMARK    3  A    between atoms: C6_6  and  N1_7 
REMARK       I    between atoms: N1_7  and  C7_9 
REMARK       I    between atoms: C7_9  and  N2_11 
REMARK    4  A    between atoms: N2_11  and  C8_13 
REMARK    5  A    between atoms: N3_15  and  C9_17 
ROOT
HETATM    1  C8  UNL     1      -0.765  -2.394   0.342  1.00  0.00     0.176 C 
HETATM    2  S1  UNL     1      -0.858  -3.976   1.046  1.00  0.00    -0.041 SA
HETATM    3  N3  UNL     1      -1.944  -1.722   0.469  1.00  0.00    -0.360 N 
ATOM      4  H3  UNL     1      -2.608  -2.262   1.023  1.00  0.00     0.162 HD
ENDROOT
BRANCH   1   5
HETATM    5  N2  UNL     1       0.451  -2.184  -0.231  1.00  0.00    -0.286 N 
HETATM    6  C7  UNL     1       0.987  -1.080  -0.894  1.00  0.00     0.322 C 
HETATM    7  N1  UNL     1       2.338  -1.194  -1.419  1.00  0.00    -0.343 N 
HETATM    8  O1  UNL     1       0.422  -0.015  -1.077  1.00  0.00    -0.247 OA
ATOM      9  H1  UNL     1       2.845  -2.071  -1.299  1.00  0.00     0.164 HD
ATOM     10  H2  UNL     1       1.087  -2.979  -0.163  1.00  0.00     0.173 HD
BRANCH   7  11
HETATM   11  C6  UNL     1       2.969  -0.120  -2.092  1.00  0.00     0.125 C 
BRANCH  11  12
HETATM   12  C5  UNL     1       3.195   1.077  -1.262  1.00  0.00     0.028 C 
BRANCH  12  13
HETATM   13  C2  UNL     1       4.083   0.971  -0.080  1.00  0.00    -0.050 C 
HETATM   14  C1  UNL     1       4.118   2.389   0.543  1.00  0.00     0.014 C 
HETATM   15  C3  UNL     1       5.523   0.673  -0.449  1.00  0.00     0.014 C 
HETATM   16  C4  UNL     1       3.685  -0.010   0.980  1.00  0.00     0.014 C 
ENDBRANCH  12  13
ENDBRANCH  11  12
ENDBRANCH   7  11
ENDBRANCH   1   5
BRANCH   3  17
HETATM   17  C9  UNL     1      -2.519  -0.494   0.058  1.00  0.00     0.110 C 
HETATM   18  C10 UNL     1      -2.914  -0.425  -1.408  1.00  0.00     0.148 C 
HETATM   19  N4  UNL     1      -3.130   0.976  -1.709  1.00  0.00    -0.359 N 
HETATM   20  C11 UNL     1      -3.808   1.759  -0.741  1.00  0.00     0.218 C 
ATOM     21  H4  UNL     1      -2.806   1.384  -2.586  1.00  0.00     0.162 HD
HETATM   22  O2  UNL     1      -4.185   2.916  -1.043  1.00  0.00    -0.274 OA
HETATM   23  C12 UNL     1      -4.105   1.285   0.631  1.00  0.00     0.113 C 
HETATM   24  C13 UNL     1      -3.801  -0.165   0.845  1.00  0.00    -0.018 C 
HETATM   25  C14 UNL     1      -4.963  -0.979   0.392  1.00  0.00     0.017 C 
HETATM   26  C15 UNL     1      -3.494  -0.476   2.293  1.00  0.00     0.017 C 
ENDBRANCH   3  17
TORSDOF 5
