REMARK  6 active torsions:
REMARK  status: ('A' for Active; 'I' for Inactive)
REMARK       I    between atoms: C1_4  and  N2_5 
REMARK       I    between atoms: C1_4  and  N4_18 
REMARK    1  A    between atoms: N2_5  and  C2_7 
REMARK    2  A    between atoms: C2_7  and  C3_8 
REMARK    3  A    between atoms: C3_8  and  C4_9 
REMARK    4  A    between atoms: C4_9  and  N3_10 
REMARK    5  A    between atoms: C8_14  and  O1_15 
REMARK    6  A    between atoms: N4_18  and  C10_20 
ROOT
HETATM    1  N1  UNL     1      -1.363   2.856   1.071  1.00  0.00    -0.235 N 
ATOM      2  H11 UNL     1      -2.294   2.944   1.478  1.00  0.00     0.174 HD
ATOM      3  H12 UNL     1      -0.771   3.686   1.096  1.00  0.00     0.174 HD
HETATM    4  C1  UNL     1      -1.002   1.747   0.573  1.00  0.00     0.667 C 
HETATM    5  N2  UNL     1       0.314   1.622  -0.003  1.00  0.00    -0.227 N 
ATOM      6  H2  UNL     1       0.775   2.398  -0.478  1.00  0.00     0.177 HD
HETATM    7  N4  UNL     1      -1.816   0.605   0.538  1.00  0.00    -0.221 N 
ATOM      8  H4  UNL     1      -1.591  -0.191   1.135  1.00  0.00     0.178 HD
ENDROOT
BRANCH   5   9
HETATM    9  C2  UNL     1       0.934   0.332   0.135  1.00  0.00     0.140 C 
BRANCH   9  10
HETATM   10  C3  UNL     1       2.369   0.407  -0.380  1.00  0.00     0.050 C 
BRANCH  10  11
HETATM   11  C4  UNL     1       3.060  -0.923  -0.177  1.00  0.00     0.274 C 
BRANCH  11  12
HETATM   12  N3  UNL     1       4.424  -0.814  -0.658  1.00  0.00     0.090 N 
HETATM   13  C5  UNL     1       5.122  -1.967  -0.155  1.00  0.00     0.272 C 
HETATM   14  C6  UNL     1       6.602  -1.936  -0.256  1.00  0.00     0.033 C 
HETATM   15  C7  UNL     1       7.270  -0.634   0.000  1.00  0.00     0.035 C 
HETATM   16  C8  UNL     1       6.466   0.564  -0.397  1.00  0.00     0.146 C 
HETATM   17  C9  UNL     1       4.988   0.386  -0.177  1.00  0.00     0.303 C 
BRANCH  16  18
HETATM   18  O1  UNL     1       6.861   1.632   0.412  1.00  0.00    -0.394 OA
ATOM     19  H1  UNL     1       6.351   2.393   0.160  1.00  0.00     0.210 HD
ENDBRANCH  16  18
ENDBRANCH  11  12
ENDBRANCH  10  11
ENDBRANCH   9  10
ENDBRANCH   5   9
BRANCH   7  20
HETATM   20  C10 UNL     1      -2.955   0.541  -0.321  1.00  0.00     0.107 C 
HETATM   21  C11 UNL     1      -4.091   1.361   0.231  1.00  0.00     0.010 C 
HETATM   22  C12 UNL     1      -5.136   1.421  -0.864  1.00  0.00     0.011 C 
HETATM   23  C16 UNL     1      -4.617   0.652   1.451  1.00  0.00     0.011 C 
HETATM   24  C13 UNL     1      -5.578   0.039  -1.238  1.00  0.00    -0.013 C 
HETATM   25  C14 UNL     1      -6.179  -0.604  -0.024  1.00  0.00     0.009 C 
HETATM   26  C19 UNL     1      -4.414  -0.753  -1.760  1.00  0.00     0.011 C 
HETATM   27  C15 UNL     1      -5.131  -0.723   1.052  1.00  0.00    -0.013 C 
HETATM   28  C17 UNL     1      -4.022  -1.597   0.494  1.00  0.00     0.011 C 
HETATM   29  C18 UNL     1      -3.400  -0.871  -0.646  1.00  0.00     0.010 C 
ENDBRANCH   7  20
TORSDOF 6
