REMARK  6 active torsions:
REMARK  status: ('A' for Active; 'I' for Inactive)
REMARK    1  A    between atoms: C2_2  and  C14_28 
REMARK    2  A    between atoms: N1_3  and  N2_5 
REMARK       I    between atoms: N2_5  and  C3_7 
REMARK       I    between atoms: C3_7  and  N5_12 
REMARK    3  A    between atoms: N5_12  and  C5_14 
REMARK    4  A    between atoms: C5_14  and  C6_15 
REMARK    5  A    between atoms: C6_15  and  N6_16 
REMARK       I    between atoms: N6_16  and  C7_18 
REMARK       I    between atoms: C7_18  and  N7_20 
REMARK    6  A    between atoms: N7_20  and  C8_22 
ROOT
HETATM    1  N2  UNL     1      -3.320   0.470  -2.312  1.00  0.00    -0.132 N 
ATOM      2  H2  UNL     1      -3.005   1.420  -2.509  1.00  0.00     0.205 HD
HETATM    3  C3  UNL     1      -2.433  -0.451  -1.659  1.00  0.00     0.701 C 
HETATM    4  N3  UNL     1      -1.997  -1.493  -2.229  1.00  0.00    -0.125 N 
ATOM      5  H3  UNL     1      -2.291  -1.677  -3.188  1.00  0.00     0.197 HD
HETATM    6  C4  UNL     1      -1.152  -2.386  -1.628  1.00  0.00     0.196 C 
HETATM    7  N4  UNL     1      -0.445  -3.161  -1.126  1.00  0.00    -0.171 NA
HETATM    8  N5  UNL     1      -2.054  -0.157  -0.330  1.00  0.00    -0.223 N 
ATOM      9  H5  UNL     1      -2.700  -0.321   0.442  1.00  0.00     0.177 HD
ENDROOT
BRANCH   1  10
HETATM   10  N1  UNL     1      -4.592   0.084  -2.675  1.00  0.00    -0.295 N 
HETATM   11  C2  UNL     1      -5.688   0.337  -2.106  1.00  0.00     0.004 C 
HETATM   12  C1  UNL     1      -5.742   1.151  -0.877  1.00  0.00     0.065 C 
ATOM     13  H1  UNL     1      -4.655  -0.484  -3.520  1.00  0.00     0.186 HD
BRANCH  11  14
HETATM   14  C14 UNL     1      -6.951  -0.197  -2.664  1.00  0.00     0.032 A 
HETATM   15  C15 UNL     1      -6.918  -1.018  -3.947  1.00  0.00     0.011 A 
HETATM   16  C16 UNL     1      -7.127  -1.720  -2.661  1.00  0.00     0.011 A 
ENDBRANCH  11  14
ENDBRANCH   1  10
BRANCH   8  17
HETATM   17  C5  UNL     1      -0.733   0.381  -0.083  1.00  0.00     0.158 C 
BRANCH  17  18
HETATM   18  C6  UNL     1      -0.604   0.615   1.385  1.00  0.00     0.144 C 
BRANCH  18  19
HETATM   19  N6  UNL     1       0.689   1.133   1.701  1.00  0.00    -0.342 N 
HETATM   20  C7  UNL     1       1.901   0.438   1.462  1.00  0.00     0.316 C 
HETATM   21  O1  UNL     1       1.836  -0.706   0.945  1.00  0.00    -0.247 OA
HETATM   22  N7  UNL     1       3.131   1.043   1.807  1.00  0.00    -0.339 N 
ATOM     23  H7  UNL     1       3.137   1.973   2.227  1.00  0.00     0.164 HD
ATOM     24  H6  UNL     1       0.744   2.059   2.124  1.00  0.00     0.164 HD
BRANCH  22  25
HETATM   25  C8  UNL     1       4.363   0.366   1.574  1.00  0.00     0.086 C 
HETATM   26  C9  UNL     1       5.349   1.154   0.742  1.00  0.00     0.025 C 
HETATM   27  C10 UNL     1       6.503   0.239   0.402  1.00  0.00     0.002 C 
HETATM   28  C11 UNL     1       7.065  -0.435   1.600  1.00  0.00     0.000 C 
HETATM   29  C12 UNL     1       6.078  -1.025   2.548  1.00  0.00     0.002 C 
HETATM   30  C13 UNL     1       5.069   0.061   2.900  1.00  0.00     0.025 C 
ENDBRANCH  22  25
ENDBRANCH  18  19
ENDBRANCH  17  18
ENDBRANCH   8  17
TORSDOF 6
