REMARK  5 active torsions:
REMARK  status: ('A' for Active; 'I' for Inactive)
REMARK    1  A    between atoms: C1_4  and  N2_5 
REMARK    2  A    between atoms: C1_4  and  C17_26 
REMARK    3  A    between atoms: N2_5  and  C2_7 
REMARK    4  A    between atoms: C10_16  and  C11_17 
REMARK    5  A    between atoms: C11_17  and  C12_18 
ROOT
HETATM    1  C2  UNL     1       0.872  -0.453   0.003  1.00  0.00     0.099 C 
HETATM    2  C3  UNL     1       1.741  -1.639  -0.516  1.00  0.00     0.013 C 
HETATM    3  C4  UNL     1       0.992  -1.911  -1.797  1.00  0.00     0.012 C 
HETATM    4  C5  UNL     1      -0.444  -1.804  -1.340  1.00  0.00    -0.000 C 
HETATM    5  C6  UNL     1      -1.013  -3.163  -1.134  1.00  0.00     0.009 C 
HETATM    6  C7  UNL     1      -0.963  -3.473   0.328  1.00  0.00     0.045 C 
HETATM    7  C8  UNL     1      -0.032  -2.423   0.876  1.00  0.00     0.114 C 
HETATM    8  F1  UNL     1      -0.167  -2.251   2.227  1.00  0.00    -0.242 F 
HETATM    9  C9  UNL     1       1.392  -2.709   0.446  1.00  0.00     0.051 C 
HETATM   10  C10 UNL     1      -0.395  -1.205   0.059  1.00  0.00     0.022 C 
ENDROOT
BRANCH   1  11
HETATM   11  N2  UNL     1       1.406  -0.017   1.274  1.00  0.00    -0.369 N 
ATOM     12  H2  UNL     1       0.802   0.004   2.096  1.00  0.00     0.161 HD
BRANCH  11  13
HETATM   13  C1  UNL     1       2.749   0.378   1.387  1.00  0.00     0.122 C 
HETATM   14  N1  UNL     1       3.549  -0.340   2.094  1.00  0.00    -0.384 N 
ATOM     15  H12 UNL     1       3.154  -1.169   2.537  1.00  0.00     0.157 HD
ATOM     16  H11 UNL     1       4.524  -0.053   2.176  1.00  0.00     0.157 HD
BRANCH  13  17
HETATM   17  C17 UNL     1       3.314   1.564   0.753  1.00  0.00     0.075 A 
HETATM   18  C18 UNL     1       2.676   2.494  -0.040  1.00  0.00     0.035 A 
HETATM   19  C19 UNL     1       3.611   3.454  -0.424  1.00  0.00     0.019 A 
HETATM   20  C20 UNL     1       4.808   3.088   0.146  1.00  0.00     0.088 A 
HETATM   21  N4  UNL     1       4.594   1.961   0.838  1.00  0.00    -0.363 N 
ATOM     22  H4  UNL     1       5.314   1.466   1.364  1.00  0.00     0.165 HD
ENDBRANCH  13  17
ENDBRANCH  11  13
ENDBRANCH   1  11
BRANCH  10  23
HETATM   23  C11 UNL     1      -1.641  -0.617   0.496  1.00  0.00     0.040 C 
BRANCH  23  24
HETATM   24  C12 UNL     1      -2.270   0.508  -0.197  1.00  0.00     0.085 C 
HETATM   25  C13 UNL     1      -3.585   0.801   0.558  1.00  0.00     0.026 C 
HETATM   26  C14 UNL     1      -4.222   2.059   0.104  1.00  0.00     0.011 C 
HETATM   27  C15 UNL     1      -3.571   2.765  -1.036  1.00  0.00     0.103 C 
HETATM   28  C16 UNL     1      -2.132   2.855  -0.792  1.00  0.00     0.217 C 
HETATM   29  O1  UNL     1      -1.426   3.838  -1.092  1.00  0.00    -0.274 OA
HETATM   30  N3  UNL     1      -1.497   1.725  -0.163  1.00  0.00    -0.356 N 
ATOM     31  H3  UNL     1      -0.576   1.781   0.271  1.00  0.00     0.162 HD
ENDBRANCH  23  24
ENDBRANCH  10  23
TORSDOF 5
