REMARK  5 active torsions:
REMARK  status: ('A' for Active; 'I' for Inactive)
REMARK    1  A    between atoms: C2_2  and  N1_5 
REMARK       I    between atoms: N1_5  and  C5_7 
REMARK       I    between atoms: C5_7  and  N2_9 
REMARK    2  A    between atoms: N2_9  and  C6_11 
REMARK    3  A    between atoms: C7_16  and  N5_17 
REMARK    4  A    between atoms: N5_17  and  C8_19 
REMARK    5  A    between atoms: C8_19  and  C9_20 
ROOT
HETATM    1  C6  UNL     1      -0.806  -0.240   0.901  1.00  0.00     0.145 A 
HETATM    2  N3  UNL     1      -0.809  -0.469  -0.427  1.00  0.00    -0.283 N 
ATOM      3  H3  UNL     1      -1.636  -0.596  -1.011  1.00  0.00     0.188 HD
HETATM    4  N4  UNL     1       0.450  -0.501  -0.842  1.00  0.00    -0.283 N 
ATOM      5  H4  UNL     1       0.748  -0.658  -1.805  1.00  0.00     0.188 HD
HETATM    6  C7  UNL     1       1.285  -0.291   0.217  1.00  0.00     0.137 A 
HETATM    7  C14 UNL     1       0.501  -0.126   1.315  1.00  0.00     0.101 A 
HETATM    8 BR1  UNL     1       1.084   0.202   3.104  1.00  0.00    -0.043 Br
ENDROOT
BRANCH   1   9
HETATM    9  N2  UNL     1      -1.831  -0.133   1.706  1.00  0.00    -0.292 N 
HETATM   10  C5  UNL     1      -3.162  -0.258   1.233  1.00  0.00     0.322 C 
HETATM   11  N1  UNL     1      -3.635   0.637   0.261  1.00  0.00    -0.335 N 
HETATM   12  O1  UNL     1      -3.874  -1.175   1.710  1.00  0.00    -0.247 OA
ATOM     13  H1  UNL     1      -3.001   1.359  -0.081  1.00  0.00     0.165 HD
ATOM     14  H2  UNL     1      -1.669   0.045   2.697  1.00  0.00     0.172 HD
BRANCH  11  15
HETATM   15  C2  UNL     1      -4.982   0.588  -0.283  1.00  0.00     0.023 C 
HETATM   16  C1  UNL     1      -5.120  -0.793  -0.928  1.00  0.00     0.037 C 
HETATM   17  C3  UNL     1      -6.041   0.723   0.768  1.00  0.00     0.037 C 
HETATM   18  C4  UNL     1      -5.132   1.591  -1.403  1.00  0.00     0.037 C 
ENDBRANCH  11  15
ENDBRANCH   1   9
BRANCH   6  19
HETATM   19  N5  UNL     1       2.688  -0.258   0.148  1.00  0.00    -0.373 N 
ATOM     20  H5  UNL     1       3.221  -0.093   1.002  1.00  0.00     0.161 HD
BRANCH  19  21
HETATM   21  C8  UNL     1       3.389  -0.447  -1.074  1.00  0.00     0.129 C 
BRANCH  21  22
HETATM   22  C9  UNL     1       4.873  -0.386  -0.947  1.00  0.00     0.026 C 
HETATM   23  C10 UNL     1       5.236   0.961  -0.413  1.00  0.00    -0.024 C 
HETATM   24  C11 UNL     1       6.249   0.901   0.433  1.00  0.00    -0.030 C 
HETATM   25  C12 UNL     1       6.667  -0.510   0.547  1.00  0.00     0.027 C 
HETATM   26  C13 UNL     1       5.446  -1.289   0.127  1.00  0.00     0.014 C 
ENDBRANCH  21  22
ENDBRANCH  19  21
ENDBRANCH   6  19
TORSDOF 5
