REMARK  4 active torsions:
REMARK  status: ('A' for Active; 'I' for Inactive)
REMARK    1  A    between atoms: N1_1  and  C1_4 
REMARK    2  A    between atoms: C3_8  and  C4_9 
REMARK    3  A    between atoms: C7_12  and  C8_13 
REMARK       I    between atoms: C8_13  and  N3_15 
REMARK    4  A    between atoms: N3_15  and  C9_17 
ROOT
HETATM    1  C4  UNL     1       2.377   0.108  -0.191  1.00  0.00     0.018 C 
HETATM    2  C5  UNL     1       2.007   1.593  -0.205  1.00  0.00     0.018 C 
HETATM    3  C6  UNL     1       0.490   1.462  -0.367  1.00  0.00     0.020 C 
HETATM    4  C7  UNL     1       0.122   0.076   0.035  1.00  0.00     0.043 C 
HETATM    5  C14 UNL     1       0.359  -0.807  -1.184  1.00  0.00     0.036 C 
HETATM    6  C15 UNL     1       1.838  -0.461  -1.446  1.00  0.00     0.073 C 
HETATM    7 BR1  UNL     1       2.743  -1.970  -2.165  1.00  0.00    -0.090 Br
HETATM    8  C16 UNL     1       1.345  -0.353   0.849  1.00  0.00     0.036 C 
ENDROOT
BRANCH   1   9
HETATM    9  C3  UNL     1       3.747  -0.129   0.175  1.00  0.00     0.052 A 
HETATM   10  C2  UNL     1       4.663   0.900   0.466  1.00  0.00     0.132 A 
HETATM   11  N2  UNL     1       5.835   0.342   0.771  1.00  0.00    -0.200 N 
HETATM   12  C1  UNL     1       5.687  -0.998   0.682  1.00  0.00     0.675 A 
ATOM     13  H2  UNL     1       6.689   0.838   1.026  1.00  0.00     0.183 HD
HETATM   14  N4  UNL     1       4.396  -1.266   0.315  1.00  0.00    -0.194 N 
ATOM     15  H4  UNL     1       4.001  -2.196   0.173  1.00  0.00     0.184 HD
BRANCH  12  16
HETATM   16  N1  UNL     1       6.619  -1.836   0.906  1.00  0.00    -0.234 N 
ATOM     17  H12 UNL     1       7.581  -1.636   1.180  1.00  0.00     0.174 HD
ATOM     18  H11 UNL     1       6.507  -2.848   0.839  1.00  0.00     0.174 HD
ENDBRANCH  12  16
ENDBRANCH   1   9
BRANCH   4  19
HETATM   19  C8  UNL     1      -1.146  -0.115   0.678  1.00  0.00     0.226 C 
HETATM   20  O1  UNL     1      -1.194  -0.471   1.883  1.00  0.00    -0.273 OA
HETATM   21  N3  UNL     1      -2.359   0.083   0.007  1.00  0.00    -0.356 N 
ATOM     22  H3  UNL     1      -2.327   0.369  -0.972  1.00  0.00     0.162 HD
BRANCH  21  23
HETATM   23  C9  UNL     1      -3.664  -0.097   0.630  1.00  0.00     0.084 C 
HETATM   24  C10 UNL     1      -4.441  -1.226   0.043  1.00  0.00     0.025 C 
HETATM   25  C11 UNL     1      -5.362  -0.673  -0.987  1.00  0.00     0.002 C 
HETATM   26  C12 UNL     1      -5.331   0.809  -0.851  1.00  0.00     0.002 C 
HETATM   27  C13 UNL     1      -4.559   1.101   0.422  1.00  0.00     0.025 C 
ENDBRANCH  21  23
ENDBRANCH   4  19
TORSDOF 4
