REMARK  3 active torsions:
REMARK  status: ('A' for Active; 'I' for Inactive)
REMARK    1  A    between atoms: C6_12  and  C7_13 
REMARK    2  A    between atoms: C7_13  and  N3_14 
REMARK       I    between atoms: N3_14  and  C8_16 
REMARK       I    between atoms: C8_16  and  N4_18 
REMARK    3  A    between atoms: N4_18  and  C9_20 
ROOT
HETATM    1  N3  UNL     1       1.370   0.094  -0.550  1.00  0.00    -0.318 N 
ATOM      2  H3  UNL     1       1.458   0.191  -1.562  1.00  0.00     0.170 HD
HETATM    3  C8  UNL     1       0.050   0.002   0.082  1.00  0.00     0.320 C 
HETATM    4  O1  UNL     1      -0.026  -0.118   1.328  1.00  0.00    -0.247 OA
HETATM    5  N4  UNL     1      -1.126   0.046  -0.683  1.00  0.00    -0.331 N 
ATOM      6  H4  UNL     1      -1.065   0.143  -1.697  1.00  0.00     0.165 HD
ENDROOT
BRANCH   1   7
HETATM    7  C7  UNL     1       2.523   0.045   0.279  1.00  0.00     0.108 C 
BRANCH   7   8
HETATM    8  C6  UNL     1       3.852   0.131  -0.246  1.00  0.00     0.030 A 
HETATM    9  C2  UNL     1       4.878   0.061   0.728  1.00  0.00    -0.028 A 
HETATM   10  C1  UNL     1       4.486  -0.087   2.126  1.00  0.00     0.050 C 
HETATM   11  C3  UNL     1       6.203   0.130   0.392  1.00  0.00     0.033 A 
HETATM   12 BR1  UNL     1       7.578   0.033   1.722  1.00  0.00    -0.049 Br
HETATM   13  C4  UNL     1       6.536   0.271  -0.938  1.00  0.00     0.109 A 
HETATM   14  N1  UNL     1       5.601   0.339  -1.876  1.00  0.00    -0.351 N 
HETATM   15  C5  UNL     1       4.249   0.270  -1.540  1.00  0.00     0.111 A 
ATOM     16  H1  UNL     1       5.873   0.443  -2.853  1.00  0.00     0.166 HD
HETATM   17  N2  UNL     1       3.487   0.345  -2.483  1.00  0.00    -0.385 N 
ATOM     18  H22 UNL     1       3.785   0.449  -3.453  1.00  0.00     0.157 HD
ATOM     19  H21 UNL     1       2.498   0.295  -2.237  1.00  0.00     0.157 HD
ENDBRANCH   7   8
ENDBRANCH   1   7
BRANCH   5  20
HETATM   20  C9  UNL     1      -2.407  -0.044  -0.058  1.00  0.00     0.156 C 
HETATM   21  C10 UNL     1      -3.218  -1.228  -0.528  1.00  0.00     0.033 C 
HETATM   22  C11 UNL     1      -4.544  -0.833  -1.125  1.00  0.00     0.007 C 
HETATM   23  C12 UNL     1      -5.347   0.087  -0.267  1.00  0.00    -0.012 C 
HETATM   24  C13 UNL     1      -6.066  -0.600   0.860  1.00  0.00     0.010 C 
HETATM   25  C14 UNL     1      -4.569   1.256   0.276  1.00  0.00     0.084 C 
HETATM   26  C15 UNL     1      -3.202   1.182  -0.268  1.00  0.00     0.149 C 
HETATM   27  O2  UNL     1      -2.747   2.115  -0.877  1.00  0.00    -0.296 OA
ENDBRANCH   5  20
TORSDOF 3
