REMARK  4 active torsions:
REMARK  status: ('A' for Active; 'I' for Inactive)
REMARK    1  A    between atoms: N1_2  and  C2_4 
REMARK    2  A    between atoms: C7_13  and  C8_14 
REMARK    3  A    between atoms: C8_14  and  N3_15 
REMARK       I    between atoms: N3_15  and  C9_17 
REMARK       I    between atoms: C9_17  and  N4_19 
REMARK    4  A    between atoms: N4_19  and  C10_21 
ROOT
HETATM    1  C2  UNL     1      -3.742  -0.697   0.589  1.00  0.00     0.064 A 
HETATM    2  C3  UNL     1      -4.730   0.196   0.286  1.00  0.00     0.060 A 
HETATM    3 BR1  UNL     1      -6.527  -0.452   0.115  1.00  0.00    -0.047 Br
HETATM    4  C4  UNL     1      -4.487   1.547   0.099  1.00  0.00     0.028 A 
HETATM    5  C5  UNL     1      -5.576   2.500  -0.230  1.00  0.00     0.070 C 
HETATM    6  N2  UNL     1      -3.233   1.990   0.220  1.00  0.00    -0.325 N 
ATOM      7  H2  UNL     1      -3.027   2.980   0.086  1.00  0.00     0.169 HD
HETATM    8  C6  UNL     1      -2.227   1.120   0.522  1.00  0.00     0.259 A 
HETATM    9  O1  UNL     1      -1.060   1.634   0.625  1.00  0.00    -0.267 OA
HETATM   10  C7  UNL     1      -2.430  -0.220   0.713  1.00  0.00     0.075 A 
ENDROOT
BRANCH  10  11
HETATM   11  C8  UNL     1      -1.432  -1.227   1.088  1.00  0.00     0.112 C 
BRANCH  11  12
HETATM   12  N3  UNL     1      -0.070  -0.870   1.151  1.00  0.00    -0.318 N 
HETATM   13  C9  UNL     1       0.805  -0.621   0.063  1.00  0.00     0.320 C 
HETATM   14  O2  UNL     1       0.332  -0.753  -1.104  1.00  0.00    -0.247 OA
HETATM   15  N4  UNL     1       2.163  -0.237   0.229  1.00  0.00    -0.338 N 
ATOM     16  H4  UNL     1       2.539  -0.131   1.171  1.00  0.00     0.164 HD
ATOM     17  H3  UNL     1       0.332  -0.781   2.084  1.00  0.00     0.170 HD
BRANCH  15  18
HETATM   18  C10 UNL     1       3.026   0.008  -0.907  1.00  0.00     0.086 C 
HETATM   19  C11 UNL     1       4.095  -1.046  -0.926  1.00  0.00     0.025 C 
HETATM   20  C12 UNL     1       5.454  -0.457  -1.197  1.00  0.00     0.002 C 
HETATM   21  C13 UNL     1       5.707   0.530  -0.068  1.00  0.00     0.000 C 
HETATM   22  C14 UNL     1       4.772   1.693  -0.223  1.00  0.00     0.002 C 
HETATM   23  C15 UNL     1       3.522   1.406  -0.957  1.00  0.00     0.025 C 
ENDBRANCH  15  18
ENDBRANCH  11  12
ENDBRANCH  10  11
BRANCH   1  24
HETATM   24  N1  UNL     1      -3.987  -2.075   0.787  1.00  0.00    -0.392 N 
HETATM   25  C1  UNL     1      -3.968  -2.984  -0.326  1.00  0.00     0.146 C 
ATOM     26  H1  UNL     1      -4.178  -2.426   1.725  1.00  0.00     0.159 HD
ENDBRANCH   1  24
TORSDOF 4
