REMARK  6 active torsions:
REMARK  status: ('A' for Active; 'I' for Inactive)
REMARK    1  A    between atoms: C2_2  and  C3_3 
REMARK    2  A    between atoms: C3_3  and  C4_4 
REMARK       I    between atoms: N2_8  and  C6_10 
REMARK    3  A    between atoms: N4_12  and  N5_14 
REMARK    4  A    between atoms: C7_17  and  N6_18 
REMARK    5  A    between atoms: N6_18  and  C8_20 
REMARK    6  A    between atoms: C12_24  and  C13_25 
ROOT
HETATM    1  C4  UNL     1       2.059   0.797   0.183  1.00  0.00     0.029 A 
HETATM    2  N1  UNL     1       0.882   1.191  -0.327  1.00  0.00    -0.343 N 
ATOM      3  H1  UNL     1       0.872   1.962  -0.995  1.00  0.00     0.167 HD
HETATM    4  C5  UNL     1      -0.281   0.613   0.005  1.00  0.00     0.135 A 
HETATM    5  N2  UNL     1      -1.392   1.036  -0.513  1.00  0.00    -0.314 N 
ATOM      6  H2  UNL     1      -2.248   0.562  -0.226  1.00  0.00     0.170 HD
HETATM    7  C6  UNL     1      -1.521   2.084  -1.430  1.00  0.00     0.208 C 
HETATM    8  N3  UNL     1      -1.012   1.931  -2.746  1.00  0.00    -0.062 NA
HETATM    9  N4  UNL     1      -2.104   3.169  -1.051  1.00  0.00    -0.280 N 
ATOM     10  H4  UNL     1      -2.452   3.227  -0.094  1.00  0.00     0.189 HD
HETATM   11  C7  UNL     1      -0.343  -0.428   0.897  1.00  0.00     0.081 A 
HETATM   12  C12 UNL     1       0.828  -0.885   1.462  1.00  0.00    -0.009 A 
HETATM   13  C15 UNL     1       2.013  -0.241   1.075  1.00  0.00     0.042 A 
HETATM   14 BR1  UNL     1       3.680  -0.832   1.824  1.00  0.00    -0.048 Br
ENDROOT
BRANCH  11  15
HETATM   15  N6  UNL     1      -1.559  -1.021   1.305  1.00  0.00    -0.378 N 
ATOM     16  H6  UNL     1      -1.864  -0.761   2.243  1.00  0.00     0.160 HD
BRANCH  15  17
HETATM   17  C8  UNL     1      -2.423  -1.912   0.635  1.00  0.00     0.019 C 
HETATM   18  C9  UNL     1      -3.646  -1.142   0.091  1.00  0.00     0.037 C 
HETATM   19  C10 UNL     1      -1.840  -2.684  -0.520  1.00  0.00     0.037 C 
HETATM   20  C11 UNL     1      -2.949  -2.931   1.621  1.00  0.00     0.037 C 
ENDBRANCH  15  17
ENDBRANCH  11  15
BRANCH   1  21
HETATM   21  C3  UNL     1       3.360   1.425  -0.171  1.00  0.00     0.058 C 
BRANCH  21  22
HETATM   22  C2  UNL     1       3.212   2.519  -1.181  1.00  0.00     0.002 C 
HETATM   23  C1  UNL     1       4.615   3.074  -1.448  1.00  0.00     0.005 C 
ENDBRANCH  21  22
ENDBRANCH   1  21
BRANCH  12  24
HETATM   24  C13 UNL     1       0.945  -1.968   2.455  1.00  0.00     0.038 C 
HETATM   25  C14 UNL     1       0.905  -3.359   1.932  1.00  0.00     0.010 C 
ENDBRANCH  12  24
BRANCH   9  26
HETATM   26  N5  UNL     1      -2.279   4.258  -1.885  1.00  0.00    -0.343 N 
ATOM     27  H52 UNL     1      -1.925   4.183  -2.839  1.00  0.00     0.176 HD
ATOM     28  H51 UNL     1      -2.740   5.117  -1.585  1.00  0.00     0.176 HD
ENDBRANCH   9  26
TORSDOF 6
