REMARK  6 active torsions:
REMARK  status: ('A' for Active; 'I' for Inactive)
REMARK    1  A    between atoms: C1_2  and  N1_3 
REMARK    2  A    between atoms: C1_2  and  N4_17 
REMARK    3  A    between atoms: C2_5  and  C3_6 
REMARK    4  A    between atoms: N4_17  and  C9_19 
REMARK    5  A    between atoms: C9_19  and  C10_20 
REMARK    6  A    between atoms: C10_20  and  C11_21 
ROOT
HETATM    1  N1  UNL     1      -1.103  -1.378  -0.543  1.00  0.00    -0.343 N 
ATOM      2  H1  UNL     1      -1.487  -2.323  -0.524  1.00  0.00     0.167 HD
HETATM    3  C2  UNL     1      -1.883  -0.362  -0.398  1.00  0.00     0.104 C 
ENDROOT
BRANCH   1   4
HETATM    4  C1  UNL     1       0.287  -1.183  -0.728  1.00  0.00     0.171 C 
HETATM    5  S1  UNL     1       1.081  -2.161  -1.751  1.00  0.00    -0.041 SA
BRANCH   4   6
HETATM    6  N4  UNL     1       0.991  -0.170  -0.054  1.00  0.00    -0.367 N 
ATOM      7  H4  UNL     1       0.457   0.425   0.579  1.00  0.00     0.161 HD
BRANCH   6   8
HETATM    8  C9  UNL     1       2.384   0.098  -0.177  1.00  0.00     0.128 C 
BRANCH   8   9
HETATM    9  C10 UNL     1       3.279  -0.966   0.400  1.00  0.00     0.078 C 
BRANCH   9  10
HETATM   10  C11 UNL     1       4.694  -0.505   0.179  1.00  0.00     0.027 A 
HETATM   11  C12 UNL     1       5.467   0.260   1.023  1.00  0.00     0.114 A 
HETATM   12  N5  UNL     1       6.643   0.409   0.399  1.00  0.00    -0.360 N 
HETATM   13  C13 UNL     1       6.628  -0.221  -0.774  1.00  0.00     0.180 A 
ATOM     14  H5  UNL     1       7.437   0.931   0.770  1.00  0.00     0.166 HD
HETATM   15  N6  UNL     1       5.415  -0.784  -0.900  1.00  0.00    -0.355 N 
ATOM     16  H6  UNL     1       5.099  -1.337  -1.697  1.00  0.00     0.166 HD
ENDBRANCH   9  10
ENDBRANCH   8   9
ENDBRANCH   6   8
ENDBRANCH   4   6
ENDBRANCH   1   4
BRANCH   3  17
HETATM   17  C3  UNL     1      -3.330  -0.480  -0.203  1.00  0.00     0.010 A 
HETATM   18  C4  UNL     1      -4.121  -1.602  -0.134  1.00  0.00     0.103 A 
HETATM   19  N2  UNL     1      -5.414  -1.219   0.060  1.00  0.00    -0.351 N 
HETATM   20  C5  UNL     1      -5.470   0.136   0.117  1.00  0.00     0.117 A 
ATOM     21  H2  UNL     1      -6.211  -1.849   0.148  1.00  0.00     0.166 HD
HETATM   22  N3  UNL     1      -6.287   1.210   0.270  1.00  0.00    -0.350 N 
HETATM   23  C8  UNL     1      -4.177   0.600  -0.046  1.00  0.00     0.040 A 
HETATM   24  C6  UNL     1      -5.558   2.347   0.210  1.00  0.00     0.110 A 
ATOM     25  H3  UNL     1      -7.297   1.166   0.409  1.00  0.00     0.166 HD
HETATM   26  C7  UNL     1      -4.253   1.976   0.014  1.00  0.00     0.041 A 
HETATM   27 BR1  UNL     1      -2.717   3.124  -0.159  1.00  0.00    -0.049 Br
ENDBRANCH   3  17
TORSDOF 6
