REMARK  8 active torsions:
REMARK  status: ('A' for Active; 'I' for Inactive)
REMARK       I    between atoms: C2_4  and  N2_5 
REMARK       I    between atoms: C2_4  and  N3_16 
REMARK    1  A    between atoms: N2_5  and  C3_7 
REMARK    2  A    between atoms: C3_7  and  C4_8 
REMARK    3  A    between atoms: C4_8  and  C5_9 
REMARK    4  A    between atoms: C5_9  and  C6_10 
REMARK    5  A    between atoms: N3_16  and  N4_18 
REMARK    6  A    between atoms: N4_18  and  C12_20 
REMARK    7  A    between atoms: C12_20  and  N5_22 
REMARK       I    between atoms: N5_22  and  C13_24 
REMARK    8  A    between atoms: C13_24  and  C14_26 
ROOT
HETATM    1  C1  UNL     1      -0.190   1.838   1.557  1.00  0.00     0.165 C 
HETATM    2  N1  UNL     1       0.547   0.967   0.667  1.00  0.00    -0.229 N 
ATOM      3  H1  UNL     1       1.565   1.021   0.685  1.00  0.00     0.177 HD
HETATM    4  C2  UNL     1       0.010   0.138  -0.137  1.00  0.00     0.688 C 
HETATM    5  N2  UNL     1      -1.394   0.024  -0.202  1.00  0.00    -0.225 N 
ATOM      6  H2  UNL     1      -1.949   0.619  -0.817  1.00  0.00     0.177 HD
HETATM    7  N3  UNL     1       0.816  -0.665  -0.961  1.00  0.00    -0.130 N 
ATOM      8  H3  UNL     1       1.055  -1.607  -0.652  1.00  0.00     0.205 HD
ENDROOT
BRANCH   5   9
HETATM    9  C3  UNL     1      -2.011  -0.972   0.640  1.00  0.00     0.138 C 
BRANCH   9  10
HETATM   10  C4  UNL     1      -3.488  -0.943   0.449  1.00  0.00     0.025 C 
BRANCH  10  11
HETATM   11  C5  UNL     1      -3.999   0.433   0.835  1.00  0.00     0.040 C 
BRANCH  11  12
HETATM   12  C6  UNL     1      -5.469   0.411   0.630  1.00  0.00    -0.058 A 
HETATM   13  C7  UNL     1      -6.292   0.029   1.665  1.00  0.00     0.007 A 
HETATM   14  C8  UNL     1      -7.646   0.025   1.426  1.00  0.00     0.001 A 
HETATM   15  C9  UNL     1      -8.151   0.389   0.204  1.00  0.00     0.000 A 
HETATM   16  C10 UNL     1      -7.315   0.770  -0.824  1.00  0.00     0.001 A 
HETATM   17  C11 UNL     1      -5.955   0.780  -0.604  1.00  0.00     0.007 A 
ENDBRANCH  11  12
ENDBRANCH  10  11
ENDBRANCH   9  10
ENDBRANCH   5   9
BRANCH   7  18
HETATM   18  N4  UNL     1       1.297  -0.214  -2.183  1.00  0.00    -0.262 N 
ATOM     19  H4  UNL     1       0.656  -0.009  -2.949  1.00  0.00     0.190 HD
BRANCH  18  20
HETATM   20  C12 UNL     1       2.687  -0.044  -2.346  1.00  0.00     0.193 C 
HETATM   21  S1  UNL     1       3.233   0.486  -3.786  1.00  0.00    -0.039 SA
BRANCH  20  22
HETATM   22  N5  UNL     1       3.611  -0.314  -1.309  1.00  0.00    -0.302 N 
HETATM   23  C13 UNL     1       5.013  -0.154  -1.439  1.00  0.00     0.231 C 
HETATM   24  O1  UNL     1       5.469   0.253  -2.536  1.00  0.00    -0.272 OA
ATOM     25  H5  UNL     1       3.246  -0.643  -0.415  1.00  0.00     0.171 HD
BRANCH  23  26
HETATM   26  C14 UNL     1       5.957  -0.446  -0.336  1.00  0.00     0.030 C 
HETATM   27  C15 UNL     1       5.636   0.436   0.852  1.00  0.00     0.025 C 
HETATM   28  C16 UNL     1       7.379  -0.147  -0.760  1.00  0.00     0.025 C 
HETATM   29  C17 UNL     1       5.834  -1.879   0.132  1.00  0.00     0.025 C 
ENDBRANCH  23  26
ENDBRANCH  20  22
ENDBRANCH  18  20
ENDBRANCH   7  18
TORSDOF 8
