REMARK  6 active torsions:
REMARK  status: ('A' for Active; 'I' for Inactive)
REMARK    1  A    between atoms: C3_3  and  N1_4 
REMARK       I    between atoms: N1_4  and  C4_6 
REMARK       I    between atoms: C4_6  and  N2_8 
REMARK    2  A    between atoms: N2_8  and  C5_10 
REMARK    3  A    between atoms: C5_10  and  C6_11 
REMARK    4  A    between atoms: C6_11  and  C7_12 
REMARK    5  A    between atoms: C15_21  and  O2_22 
REMARK    6  A    between atoms: C18_26  and  O3_27 
ROOT
HETATM    1  C1  UNL     1       0.853  -2.491  -1.076  1.00  0.00     0.012 C 
HETATM    2  C2  UNL     1       0.016  -2.133   0.114  1.00  0.00     0.009 C 
HETATM    3  C3  UNL     1       0.674  -1.092   0.988  1.00  0.00     0.090 C 
HETATM    4  C8  UNL     1      -0.309   0.077   0.989  1.00  0.00     0.031 C 
HETATM    5  C9  UNL     1      -1.652  -0.577   0.807  1.00  0.00    -0.001 C 
HETATM    6  C10 UNL     1      -1.342  -1.594  -0.262  1.00  0.00    -0.004 C 
HETATM    7  C11 UNL     1      -1.302  -0.913  -1.586  1.00  0.00     0.006 C 
HETATM    8  C12 UNL     1      -2.664  -0.421  -1.923  1.00  0.00     0.012 C 
HETATM    9  C13 UNL     1      -3.486   0.098  -0.804  1.00  0.00    -0.012 C 
HETATM   10  C14 UNL     1      -4.657  -0.876  -0.592  1.00  0.00     0.018 C 
HETATM   11  C15 UNL     1      -4.149   1.391  -1.283  1.00  0.00     0.127 C 
HETATM   12  C16 UNL     1      -3.177   2.480  -1.581  1.00  0.00     0.035 C 
HETATM   13  C17 UNL     1      -2.159   2.606  -0.496  1.00  0.00     0.034 C 
HETATM   14  C18 UNL     1      -2.447   1.805   0.725  1.00  0.00     0.123 C 
HETATM   15  C19 UNL     1      -2.773   0.348   0.488  1.00  0.00     0.029 C 
ENDROOT
BRANCH   3  16
HETATM   16  N1  UNL     1       1.931  -0.644   0.455  1.00  0.00    -0.338 N 
HETATM   17  C4  UNL     1       3.090  -0.740   1.251  1.00  0.00     0.316 C 
HETATM   18  O1  UNL     1       3.044  -1.214   2.432  1.00  0.00    -0.247 OA
HETATM   19  N2  UNL     1       4.322  -0.308   0.740  1.00  0.00    -0.343 N 
ATOM     20  H2  UNL     1       4.379   0.075  -0.203  1.00  0.00     0.164 HD
ATOM     21  H1  UNL     1       1.984  -0.261  -0.489  1.00  0.00     0.164 HD
BRANCH  19  22
HETATM   22  C5  UNL     1       5.508  -0.408   1.554  1.00  0.00     0.125 C 
BRANCH  22  23
HETATM   23  C6  UNL     1       6.734   0.112   0.813  1.00  0.00     0.034 C 
BRANCH  23  24
HETATM   24  C7  UNL     1       7.899  -0.059   1.797  1.00  0.00     0.116 C 
HETATM   25 CL1  UNL     1       9.418   0.494   1.108  1.00  0.00    -0.130 Cl
ENDBRANCH  23  24
ENDBRANCH  22  23
ENDBRANCH  19  22
ENDBRANCH   3  16
BRANCH  14  26
HETATM   26  O3  UNL     1      -3.494   2.476   1.406  1.00  0.00    -0.395 OA
ATOM     27  H3  UNL     1      -3.678   1.965   2.185  1.00  0.00     0.210 HD
ENDBRANCH  14  26
BRANCH  11  28
HETATM   28  O2  UNL     1      -4.764   1.047  -2.510  1.00  0.00    -0.395 OA
ATOM     29  H2  UNL     1      -5.176   1.850  -2.807  1.00  0.00     0.210 HD
ENDBRANCH  11  28
TORSDOF 6
