REMARK  5 active torsions:
REMARK  status: ('A' for Active; 'I' for Inactive)
REMARK       I    between atoms: C1_4  and  N2_5 
REMARK       I    between atoms: C1_4  and  N6_23 
REMARK       I    between atoms: C2_7  and  N3_8 
REMARK       I    between atoms: C2_7  and  N5_14 
REMARK    1  A    between atoms: N3_8  and  N4_10 
REMARK    2  A    between atoms: N4_10  and  C3_12 
REMARK    3  A    between atoms: N5_14  and  C4_16 
REMARK    4  A    between atoms: N6_23  and  C10_25 
REMARK    5  A    between atoms: C10_25  and  C11_26 
ROOT
HETATM    1  N1  UNL     1       0.764  -1.012   1.445  1.00  0.00    -0.234 N 
ATOM      2  H11 UNL     1       1.433  -1.748   1.672  1.00  0.00     0.174 HD
ATOM      3  H12 UNL     1       0.197  -0.556   2.160  1.00  0.00     0.174 HD
HETATM    4  C1  UNL     1       0.670  -0.685   0.204  1.00  0.00     0.686 C 
HETATM    5  N2  UNL     1      -0.265   0.344  -0.113  1.00  0.00    -0.021 N 
ATOM      6  H2  UNL     1      -0.098   1.274   0.271  1.00  0.00     0.203 HD
HETATM    7  C2  UNL     1      -1.290   0.178  -0.841  1.00  0.00     0.712 C 
HETATM    8  N3  UNL     1      -1.579  -1.090  -1.406  1.00  0.00    -0.129 N 
ATOM      9  H3  UNL     1      -1.796  -1.129  -2.402  1.00  0.00     0.205 HD
HETATM   10  N5  UNL     1      -2.148   1.278  -1.085  1.00  0.00    -0.189 N 
ATOM     11  H5  UNL     1      -1.888   1.932  -1.823  1.00  0.00     0.184 HD
HETATM   12  N6  UNL     1       1.457  -1.319  -0.789  1.00  0.00    -0.222 N 
ATOM     13  H6  UNL     1       1.105  -1.380  -1.745  1.00  0.00     0.178 HD
ENDROOT
BRANCH   8  14
HETATM   14  N4  UNL     1      -1.586  -2.289  -0.690  1.00  0.00    -0.263 N 
ATOM     15  H4  UNL     1      -0.853  -2.505  -0.014  1.00  0.00     0.190 HD
BRANCH  14  16
HETATM   16  C3  UNL     1      -2.533  -3.097  -0.910  1.00  0.00     0.369 C 
HETATM   17  O1  UNL     1      -3.236  -4.086  -1.146  1.00  0.00    -0.282 OA
ENDBRANCH  14  16
ENDBRANCH   8  14
BRANCH  10  18
HETATM   18  C4  UNL     1      -3.334   1.526  -0.376  1.00  0.00     0.066 A 
HETATM   19  C5  UNL     1      -3.761   0.694   0.636  1.00  0.00     0.031 A 
HETATM   20  C6  UNL     1      -4.933   0.956   1.321  1.00  0.00     0.002 A 
HETATM   21  C7  UNL     1      -5.718   2.062   1.017  1.00  0.00     0.002 A 
HETATM   22  C8  UNL     1      -5.290   2.884   0.012  1.00  0.00     0.021 A 
HETATM   23  C9  UNL     1      -4.112   2.621  -0.678  1.00  0.00     0.038 A 
HETATM   24 BR1  UNL     1      -3.619   3.845  -2.063  1.00  0.00    -0.049 Br
ENDBRANCH  10  18
BRANCH  12  25
HETATM   25  C10 UNL     1       2.742  -1.877  -0.472  1.00  0.00     0.176 C 
BRANCH  25  26
HETATM   26  C11 UNL     1       3.734  -0.912   0.025  1.00  0.00    -0.040 A 
HETATM   27  C12 UNL     1       3.616   0.444  -0.005  1.00  0.00     0.009 A 
HETATM   28  C13 UNL     1       4.629   1.236   0.503  1.00  0.00     0.001 A 
HETATM   29  C14 UNL     1       5.786   0.728   1.055  1.00  0.00     0.000 A 
HETATM   30  C15 UNL     1       5.899  -0.646   1.082  1.00  0.00     0.001 A 
HETATM   31  C16 UNL     1       4.896  -1.448   0.578  1.00  0.00     0.009 A 
ENDBRANCH  25  26
ENDBRANCH  12  25
TORSDOF 5
