REMARK  8 active torsions:
REMARK  status: ('A' for Active; 'I' for Inactive)
REMARK    1  A    between atoms: C2_2  and  C3_3 
REMARK    2  A    between atoms: C3_3  and  C4_4 
REMARK    3  A    between atoms: N1_11  and  C10_13 
REMARK    4  A    between atoms: N2_15  and  N3_17 
REMARK       I    between atoms: N3_17  and  C12_19 
REMARK       I    between atoms: C12_19  and  N4_21 
REMARK    5  A    between atoms: N4_21  and  N5_23 
REMARK    6  A    between atoms: N5_23  and  C13_25 
REMARK    7  A    between atoms: C13_25  and  N6_27 
REMARK    8  A    between atoms: N6_27  and  C14_29 
ROOT
HETATM    1  C10 UNL     1      -1.460  -0.070  -1.124  1.00  0.00     0.091 C 
HETATM    2  C11 UNL     1      -0.945  -1.361  -1.620  1.00  0.00     0.090 C 
HETATM    3  N2  UNL     1      -0.678   0.708  -0.476  1.00  0.00    -0.285 N 
ATOM      4  H2  UNL     1      -1.038   1.600  -0.136  1.00  0.00     0.188 HD
ENDROOT
BRANCH   3   5
HETATM    5  N3  UNL     1       0.662   0.372  -0.218  1.00  0.00    -0.249 N 
HETATM    6  C12 UNL     1       1.746   1.048  -0.832  1.00  0.00     0.353 C 
HETATM    7  O1  UNL     1       1.515   1.981  -1.635  1.00  0.00    -0.244 OA
HETATM    8  N4  UNL     1       3.082   0.676  -0.543  1.00  0.00    -0.248 N 
ATOM      9  H4  UNL     1       3.278  -0.082   0.110  1.00  0.00     0.192 HD
ATOM     10  H3  UNL     1       0.862  -0.386   0.435  1.00  0.00     0.192 HD
BRANCH   8  11
HETATM   11  N5  UNL     1       4.120   1.359  -1.162  1.00  0.00    -0.272 N 
ATOM     12  H5  UNL     1       3.907   2.138  -1.785  1.00  0.00     0.189 HD
BRANCH  11  13
HETATM   13  C13 UNL     1       5.455   0.997  -0.945  1.00  0.00     0.186 C 
HETATM   14  S1  UNL     1       6.643   1.824  -1.694  1.00  0.00    -0.040 SA
BRANCH  13  15
HETATM   15  N6  UNL     1       5.815  -0.072  -0.093  1.00  0.00    -0.362 N 
ATOM     16  H6  UNL     1       5.088  -0.605   0.385  1.00  0.00     0.162 HD
BRANCH  15  17
HETATM   17  C14 UNL     1       7.221  -0.419   0.109  1.00  0.00     0.076 C 
HETATM   18  C15 UNL     1       7.290  -1.587   1.046  1.00  0.00     0.032 C 
HETATM   19  C16 UNL     1       7.900   0.789   0.735  1.00  0.00     0.032 C 
ENDBRANCH  15  17
ENDBRANCH  13  15
ENDBRANCH  11  13
ENDBRANCH   8  11
ENDBRANCH   3   5
BRANCH   1  20
HETATM   20  N1  UNL     1      -2.794   0.289  -1.368  1.00  0.00    -0.352 N 
HETATM   21  C2  UNL     1      -3.615   0.701  -0.469  1.00  0.00    -0.012 C 
HETATM   22  C1  UNL     1      -3.166   0.818   0.927  1.00  0.00     0.063 C 
ATOM     23  H1  UNL     1      -3.136   0.218  -2.326  1.00  0.00     0.166 HD
BRANCH  21  24
HETATM   24  C3  UNL     1      -5.000   1.044  -0.861  1.00  0.00     0.092 C 
BRANCH  24  25
HETATM   25  C4  UNL     1      -6.026   0.232  -0.185  1.00  0.00    -0.031 A 
HETATM   26  C5  UNL     1      -6.786   0.752   0.839  1.00  0.00     0.009 A 
HETATM   27  C6  UNL     1      -7.753   0.018   1.485  1.00  0.00     0.001 A 
HETATM   28  C7  UNL     1      -8.014  -1.298   1.134  1.00  0.00     0.002 A 
HETATM   29  C8  UNL     1      -7.258  -1.825   0.112  1.00  0.00     0.024 A 
HETATM   30  C9  UNL     1      -6.292  -1.081  -0.529  1.00  0.00     0.040 A 
HETATM   31 CL1  UNL     1      -5.334  -1.776  -1.835  1.00  0.00    -0.084 Cl
ENDBRANCH  24  25
ENDBRANCH  21  24
ENDBRANCH   1  20
TORSDOF 8
