REMARK  8 active torsions:
REMARK  status: ('A' for Active; 'I' for Inactive)
REMARK    1  A    between atoms: C4_4  and  N1_5 
REMARK    2  A    between atoms: C7_8  and  C8_9 
REMARK    3  A    between atoms: C7_8  and  C10_11 
REMARK    4  A    between atoms: C14_17  and  N3_18 
REMARK    5  A    between atoms: C15_23  and  N5_24 
REMARK    6  A    between atoms: N5_24  and  C16_26 
REMARK    7  A    between atoms: C16_26  and  N6_28 
REMARK    8  A    between atoms: N6_28  and  C17_30 
ROOT
HETATM    1  C1  UNL     1       1.975   1.922   1.243  1.00  0.00     0.103 C 
HETATM    2  C2  UNL     1       1.869   0.782   0.802  1.00  0.00    -0.141 C 
HETATM    3  C3  UNL     1       1.718  -0.540   0.275  1.00  0.00     0.093 A 
HETATM    4  C4  UNL     1       0.492  -1.079  -0.047  1.00  0.00     0.141 A 
HETATM    5  N2  UNL     1       0.491  -2.334  -0.542  1.00  0.00    -0.175 N 
ATOM      6  H2  UNL     1      -0.400  -2.765  -0.790  1.00  0.00     0.186 HD
HETATM    7  C14 UNL     1       1.621  -3.035  -0.720  1.00  0.00     0.679 A 
HETATM    8  N4  UNL     1       2.841  -2.530  -0.412  1.00  0.00    -0.175 N 
ATOM      9  H4  UNL     1       3.690  -3.077  -0.552  1.00  0.00     0.186 HD
HETATM   10  C15 UNL     1       2.890  -1.289   0.082  1.00  0.00     0.144 A 
ENDROOT
BRANCH   4  11
HETATM   11  N1  UNL     1      -0.668  -0.313   0.150  1.00  0.00    -0.365 N 
HETATM   12  C5  UNL     1      -0.913   0.863  -0.666  1.00  0.00     0.125 C 
HETATM   13  C6  UNL     1      -2.240   0.603  -1.349  1.00  0.00     0.029 C 
HETATM   14  C7  UNL     1      -3.395   0.547  -0.332  1.00  0.00    -0.038 C 
HETATM   15  C12 UNL     1      -2.821   0.361   1.019  1.00  0.00     0.029 C 
HETATM   16  C13 UNL     1      -1.685  -0.631   1.119  1.00  0.00     0.125 C 
BRANCH  14  17
HETATM   17  C8  UNL     1      -4.292  -0.545  -0.798  1.00  0.00     0.005 C 
HETATM   18  C9  UNL     1      -5.504  -0.842  -0.007  1.00  0.00     0.006 C 
ENDBRANCH  14  17
BRANCH  14  19
HETATM   19  C10 UNL     1      -4.036   1.911  -0.437  1.00  0.00     0.005 C 
HETATM   20  C11 UNL     1      -5.192   2.156   0.460  1.00  0.00     0.006 C 
ENDBRANCH  14  19
ENDBRANCH   4  11
BRANCH  10  21
HETATM   21  N5  UNL     1       3.976  -0.730   0.398  1.00  0.00    -0.318 N 
ATOM     22  H5  UNL     1       3.858   0.216   0.762  1.00  0.00     0.170 HD
BRANCH  21  23
HETATM   23  C16 UNL     1       5.297  -1.146   0.349  1.00  0.00     0.173 C 
HETATM   24  S1  UNL     1       5.830  -2.603   0.907  1.00  0.00    -0.041 SA
BRANCH  23  25
HETATM   25  N6  UNL     1       6.296  -0.278  -0.204  1.00  0.00    -0.367 N 
ATOM     26  H6  UNL     1       7.273  -0.567  -0.248  1.00  0.00     0.161 HD
BRANCH  25  27
HETATM   27  C17 UNL     1       5.880   1.028  -0.702  1.00  0.00     0.117 C 
HETATM   28  C18 UNL     1       7.068   1.822  -1.185  1.00  0.00     0.026 C 
ENDBRANCH  25  27
ENDBRANCH  23  25
ENDBRANCH  21  23
ENDBRANCH  10  21
BRANCH   7  29
HETATM   29  N3  UNL     1       1.562  -4.231  -1.191  1.00  0.00    -0.234 N 
ATOM     30  H32 UNL     1       0.644  -4.611  -1.423  1.00  0.00     0.174 HD
ATOM     31  H31 UNL     1       2.421  -4.764  -1.326  1.00  0.00     0.174 HD
ENDBRANCH   7  29
TORSDOF 8
