REMARK  8 active torsions:
REMARK  status: ('A' for Active; 'I' for Inactive)
REMARK    1  A    between atoms: N1_1  and  C1_4 
REMARK    2  A    between atoms: N4_9  and  N5_10 
REMARK       I    between atoms: N5_10  and  C3_12 
REMARK       I    between atoms: C3_12  and  N7_21 
REMARK    3  A    between atoms: N6_13  and  C4_15 
REMARK    4  A    between atoms: C4_15  and  C5_16 
REMARK    5  A    between atoms: C5_16  and  O1_17 
REMARK    6  A    between atoms: O1_17  and  C6_18 
REMARK    7  A    between atoms: C6_18  and  C7_19 
REMARK    8  A    between atoms: N7_21  and  C8_23 
ROOT
HETATM    1  N5  UNL     1       0.923  -1.361   0.817  1.00  0.00    -0.108 N 
ATOM      2  H5  UNL     1       0.878  -0.904   1.728  1.00  0.00     0.208 HD
HETATM    3  C3  UNL     1       0.820  -0.573  -0.338  1.00  0.00     0.691 C 
HETATM    4  N6  UNL     1       1.858   0.116  -0.707  1.00  0.00    -0.223 N 
ATOM      5  H6  UNL     1       1.782   0.688  -1.548  1.00  0.00     0.177 HD
HETATM    6  N7  UNL     1      -0.347  -0.469  -1.148  1.00  0.00    -0.216 N 
ATOM      7  H7  UNL     1      -0.312  -0.855  -2.091  1.00  0.00     0.178 HD
ENDROOT
BRANCH   1   8
HETATM    8  N4  UNL     1       1.087  -2.761   0.769  1.00  0.00    -0.136 N 
HETATM    9  C2  UNL     1       1.191  -3.575   1.807  1.00  0.00     0.245 A 
HETATM   10  N2  UNL     1       1.336  -4.838   1.383  1.00  0.00    -0.159 N 
HETATM   11  N3  UNL     1       1.156  -3.164   3.190  1.00  0.00    -0.060 NA
HETATM   12  C1  UNL     1       1.318  -4.792   0.041  1.00  0.00     0.694 A 
ATOM     13  H2  UNL     1       1.440  -5.670   1.964  1.00  0.00     0.187 HD
HETATM   14  N8  UNL     1       1.164  -3.500  -0.309  1.00  0.00    -0.108 N 
ATOM     15  H8  UNL     1       1.115  -3.151  -1.266  1.00  0.00     0.208 HD
BRANCH  12  16
HETATM   16  N1  UNL     1       1.432  -5.820  -0.753  1.00  0.00    -0.233 N 
ATOM     17  H12 UNL     1       1.549  -6.798  -0.488  1.00  0.00     0.174 HD
ATOM     18  H11 UNL     1       1.418  -5.785  -1.772  1.00  0.00     0.174 HD
ENDBRANCH  12  16
ENDBRANCH   1   8
BRANCH   4  19
HETATM   19  C4  UNL     1       3.100   0.117  -0.001  1.00  0.00     0.164 C 
BRANCH  19  20
HETATM   20  C5  UNL     1       3.745   1.514   0.027  1.00  0.00     0.187 C 
BRANCH  20  21
HETATM   21  O1  UNL     1       4.000   1.977  -1.208  1.00  0.00    -0.389 OA
BRANCH  21  22
HETATM   22  C6  UNL     1       4.631   3.142  -1.434  1.00  0.00     0.178 C 
BRANCH  22  23
HETATM   23  C7  UNL     1       4.069   4.414  -0.917  1.00  0.00     0.111 C 
HETATM   24 BR1  UNL     1       3.942   4.576   0.977  1.00  0.00    -0.094 Br
ENDBRANCH  22  23
ENDBRANCH  21  22
ENDBRANCH  20  21
ENDBRANCH  19  20
ENDBRANCH   4  19
BRANCH   6  25
HETATM   25  C8  UNL     1      -1.563   0.144  -0.718  1.00  0.00     0.048 C 
HETATM   26  C9  UNL     1      -2.087  -0.602   0.512  1.00  0.00     0.036 C 
HETATM   27  C10 UNL     1      -3.469  -0.090   0.898  1.00  0.00    -0.012 C 
HETATM   28  C11 UNL     1      -4.431  -0.179  -0.245  1.00  0.00     0.009 C 
HETATM   29  C15 UNL     1      -3.272   1.352   1.347  1.00  0.00     0.009 C 
HETATM   30  C12 UNL     1      -3.909   0.693  -1.363  1.00  0.00    -0.012 C 
HETATM   31  C13 UNL     1      -3.735   2.125  -0.913  1.00  0.00     0.009 C 
HETATM   32  C17 UNL     1      -2.585   0.109  -1.804  1.00  0.00     0.036 C 
HETATM   33  C14 UNL     1      -2.693   2.125   0.183  1.00  0.00    -0.012 C 
HETATM   34  C16 UNL     1      -1.380   1.583  -0.290  1.00  0.00     0.036 C 
ENDBRANCH   6  25
TORSDOF 8
