REMARK  12 active torsions:
REMARK  status: ('A' for Active; 'I' for Inactive)
REMARK    1  A    between atoms: N1_2  and  C2_4 
REMARK    2  A    between atoms: C2_4  and  N2_6 
REMARK    3  A    between atoms: N2_6  and  N3_8 
REMARK       I    between atoms: N3_8  and  C3_10 
REMARK    4  A    between atoms: C3_10  and  C4_12 
REMARK    5  A    between atoms: C4_12  and  C5_13 
REMARK    6  A    between atoms: C4_12  and  N4_17 
REMARK    7  A    between atoms: C5_13  and  C6_14 
REMARK       I    between atoms: N4_17  and  C9_18 
REMARK       I    between atoms: C9_18  and  N5_20 
REMARK    8  A    between atoms: N5_20  and  N6_22 
REMARK    9  A    between atoms: N6_22  and  C10_23 
REMARK   10  A    between atoms: C10_23  and  O3_24 
REMARK   11  A    between atoms: C10_23  and  C11_26 
REMARK   12  A    between atoms: C11_26  and  C12_28 
ROOT
HETATM    1  N4  UNL     1      -1.781  -1.279   0.331  1.00  0.00    -0.380 NA
HETATM    2  C9  UNL     1      -0.459  -1.354   0.263  1.00  0.00     0.418 C 
HETATM    3  O2  UNL     1       0.257  -2.185  -0.410  1.00  0.00    -0.228 OA
HETATM    4  N5  UNL     1       0.350  -0.321   0.984  1.00  0.00    -0.170 N 
ATOM      5  H5  UNL     1      -0.066   0.168   1.777  1.00  0.00     0.208 HD
ENDROOT
BRANCH   1   6
HETATM    6  C4  UNL     1      -3.192  -1.215   0.389  1.00  0.00     0.262 C 
BRANCH   6   7
HETATM    7  C3  UNL     1      -3.297   0.238  -0.227  1.00  0.00     0.272 C 
HETATM    8  N3  UNL     1      -4.014   1.162   0.501  1.00  0.00    -0.265 N 
ATOM      9  H3  UNL     1      -4.430   0.986   1.416  1.00  0.00     0.190 HD
HETATM   10  O1  UNL     1      -2.729   0.344  -1.242  1.00  0.00    -0.268 OA
BRANCH   8  11
HETATM   11  N2  UNL     1      -4.096   2.433  -0.222  1.00  0.00    -0.274 N 
ATOM     12  H2  UNL     1      -3.700   3.312   0.110  1.00  0.00     0.189 HD
BRANCH  11  13
HETATM   13  C2  UNL     1      -4.797   2.281  -1.442  1.00  0.00     0.186 C 
HETATM   14  S1  UNL     1      -5.518   0.804  -1.819  1.00  0.00    -0.040 SA
BRANCH  13  15
HETATM   15  N1  UNL     1      -4.935   3.359  -2.397  1.00  0.00    -0.370 N 
HETATM   16  C1  UNL     1      -4.381   4.599  -2.083  1.00  0.00     0.148 C 
ATOM     17  H1  UNL     1      -5.426   3.215  -3.279  1.00  0.00     0.161 HD
ENDBRANCH  13  15
ENDBRANCH  11  13
ENDBRANCH   8  11
ENDBRANCH   6   7
BRANCH   6  18
HETATM   18  C5  UNL     1      -3.986  -1.393   1.560  1.00  0.00     0.053 C 
BRANCH  18  19
HETATM   19  C6  UNL     1      -4.093  -2.881   1.965  1.00  0.00    -0.019 C 
HETATM   20  C7  UNL     1      -4.965  -3.006   3.210  1.00  0.00     0.009 C 
HETATM   21  C8  UNL     1      -2.837  -3.611   2.156  1.00  0.00     0.009 C 
ENDBRANCH  18  19
ENDBRANCH   6  18
ENDBRANCH   1   6
BRANCH   4  22
HETATM   22  N6  UNL     1       1.633  -0.011   0.612  1.00  0.00    -0.298 NA
BRANCH  22  23
HETATM   23  C10 UNL     1       2.803   0.478   0.379  1.00  0.00     0.233 C 
BRANCH  23  24
HETATM   24  O3  UNL     1       3.112   1.742   0.846  1.00  0.00    -0.336 OA
ATOM     25  H3  UNL     1       3.974   2.102   0.674  1.00  0.00     0.220 HD
ENDBRANCH  23  24
BRANCH  23  26
HETATM   26  C11 UNL     1       3.898  -0.125  -0.364  1.00  0.00     0.178 C 
HETATM   27 CL1  UNL     1       3.300  -1.381  -1.612  1.00  0.00    -0.115 Cl
BRANCH  26  28
HETATM   28  C12 UNL     1       4.840   0.692  -1.181  1.00  0.00     0.021 C 
HETATM   29  C13 UNL     1       5.732  -0.300  -1.898  1.00  0.00     0.015 C 
HETATM   30  C14 UNL     1       7.121   0.091  -1.565  1.00  0.00     0.009 C 
HETATM   31  C15 UNL     1       7.326  -0.144  -0.098  1.00  0.00    -0.026 C 
HETATM   32  C18 UNL     1       6.895   1.626  -1.542  1.00  0.00     0.017 C 
HETATM   33  C16 UNL     1       6.548   0.722   0.523  1.00  0.00    -0.025 C 
HETATM   34  C17 UNL     1       5.805   1.567  -0.437  1.00  0.00     0.014 C 
ENDBRANCH  26  28
ENDBRANCH  23  26
ENDBRANCH  22  23
ENDBRANCH   4  22
TORSDOF 12
