REMARK  9 active torsions:
REMARK  status: ('A' for Active; 'I' for Inactive)
REMARK    1  A    between atoms: C1_2  and  C2_3 
REMARK       I    between atoms: C1_2  and  N5_33 
REMARK    2  A    between atoms: C2_3  and  C3_4 
REMARK    3  A    between atoms: C3_4  and  N1_5 
REMARK       I    between atoms: N1_5  and  C4_7 
REMARK       I    between atoms: C4_7  and  N2_9 
REMARK    4  A    between atoms: N2_9  and  C5_11 
REMARK    5  A    between atoms: C11_19  and  C12_20 
REMARK    6  A    between atoms: C11_19  and  C13_22 
REMARK       I    between atoms: C13_22  and  N4_24 
REMARK    7  A    between atoms: N4_24  and  C14_26 
REMARK    8  A    between atoms: N5_33  and  C21_35 
REMARK    9  A    between atoms: C21_35  and  C22_36 
ROOT
HETATM    1  C5  UNL     1       1.603  -0.679  -0.844  1.00  0.00     0.109 A 
HETATM    2  C6  UNL     1       0.423  -1.058  -1.443  1.00  0.00     0.056 A 
HETATM    3  C7  UNL     1      -0.833  -0.722  -0.916  1.00  0.00    -0.046 A 
HETATM    4  C8  UNL     1      -0.888   0.015   0.244  1.00  0.00    -0.035 A 
HETATM    5  C9  UNL     1       0.314   0.379   0.820  1.00  0.00     0.097 A 
HETATM    6  N3  UNL     1       1.510   0.041   0.288  1.00  0.00    -0.352 N 
ATOM      7  H3  UNL     1       2.365   0.340   0.758  1.00  0.00     0.166 HD
HETATM    8  C10 UNL     1      -2.304   0.271   0.652  1.00  0.00     0.060 C 
HETATM    9  C11 UNL     1      -3.030  -0.819  -0.118  1.00  0.00     0.058 C 
HETATM   10  C20 UNL     1      -2.218  -0.994  -1.353  1.00  0.00     0.059 C 
ENDROOT
BRANCH   1  11
HETATM   11  N2  UNL     1       2.726  -1.023  -1.385  1.00  0.00    -0.295 N 
HETATM   12  C4  UNL     1       3.983  -0.661  -0.813  1.00  0.00     0.321 C 
HETATM   13  N1  UNL     1       4.534   0.614  -1.075  1.00  0.00    -0.342 N 
HETATM   14  O2  UNL     1       4.603  -1.478  -0.073  1.00  0.00    -0.247 OA
ATOM     15  H1  UNL     1       4.007   1.251  -1.673  1.00  0.00     0.164 HD
ATOM     16  H2  UNL     1       2.713  -1.569  -2.246  1.00  0.00     0.172 HD
BRANCH  13  17
HETATM   17  C3  UNL     1       5.794   1.066  -0.548  1.00  0.00     0.133 C 
BRANCH  17  18
HETATM   18  C2  UNL     1       6.969   0.247  -0.974  1.00  0.00     0.122 C 
BRANCH  18  19
HETATM   19  C1  UNL     1       8.244   0.759  -0.407  1.00  0.00     0.219 C 
HETATM   20  O1  UNL     1       8.198   1.770   0.330  1.00  0.00    -0.274 OA
HETATM   21  N5  UNL     1       9.476   0.148  -0.675  1.00  0.00    -0.360 N 
ATOM     22  H5  UNL     1       9.505  -0.675  -1.277  1.00  0.00     0.162 HD
BRANCH  21  23
HETATM   23  C21 UNL     1      10.702   0.658  -0.117  1.00  0.00     0.133 C 
BRANCH  23  24
HETATM   24  C22 UNL     1      11.896  -0.171  -0.551  1.00  0.00     0.105 C 
HETATM   25  S2  UNL     1      12.072  -0.168  -2.358  1.00  0.00    -0.096 SA
ENDBRANCH  23  24
ENDBRANCH  21  23
ENDBRANCH  18  19
ENDBRANCH  17  18
ENDBRANCH  13  17
ENDBRANCH   1  11
BRANCH   9  26
HETATM   26  C12 UNL     1      -3.063  -2.114   0.645  1.00  0.00     0.106 C 
HETATM   27  S1  UNL     1      -3.960  -3.320  -0.396  1.00  0.00    -0.096 SA
ENDBRANCH   9  26
BRANCH   9  28
HETATM   28  C13 UNL     1      -4.398  -0.360  -0.349  1.00  0.00     0.228 C 
HETATM   29  O3  UNL     1      -4.825  -0.225  -1.516  1.00  0.00    -0.273 OA
HETATM   30  N4  UNL     1      -5.243  -0.066   0.739  1.00  0.00    -0.356 N 
ATOM     31  H4  UNL     1      -4.870  -0.184   1.681  1.00  0.00     0.162 HD
BRANCH  30  32
HETATM   32  C14 UNL     1      -6.607   0.393   0.602  1.00  0.00     0.084 C 
HETATM   33  C15 UNL     1      -7.618  -0.581   1.148  1.00  0.00     0.025 C 
HETATM   34  C16 UNL     1      -8.978  -0.149   0.634  1.00  0.00     0.002 C 
HETATM   35  C17 UNL     1      -8.966   1.242   0.066  1.00  0.00     0.000 C 
HETATM   36  C18 UNL     1      -8.253   2.159   1.033  1.00  0.00     0.002 C 
HETATM   37  C19 UNL     1      -6.804   1.763   1.171  1.00  0.00     0.025 C 
ENDBRANCH  30  32
ENDBRANCH   9  28
TORSDOF 9
