REMARK  9 active torsions:
REMARK  status: ('A' for Active; 'I' for Inactive)
REMARK    1  A    between atoms: C2_2  and  O1_4 
REMARK    2  A    between atoms: C2_2  and  C4_6 
REMARK    3  A    between atoms: C7_9  and  N1_10 
REMARK       I    between atoms: N1_10  and  C8_12 
REMARK    4  A    between atoms: C8_12  and  C9_14 
REMARK    5  A    between atoms: C9_14  and  C10_15 
REMARK    6  A    between atoms: C9_14  and  N2_22 
REMARK    7  A    between atoms: C10_15  and  C11_16 
REMARK       I    between atoms: N2_22  and  C17_24 
REMARK       I    between atoms: C17_24  and  N3_26 
REMARK    8  A    between atoms: N3_26  and  C18_28 
REMARK    9  A    between atoms: C18_28  and  C19_29 
ROOT
HETATM    1  C9  UNL     1       0.953   0.667   0.808  1.00  0.00     0.178 C 
ENDROOT
BRANCH   1   2
HETATM    2  C8  UNL     1      -0.264  -0.151   0.643  1.00  0.00     0.240 C 
HETATM    3  N1  UNL     1      -1.552   0.425   0.529  1.00  0.00    -0.355 N 
ATOM      4  H1  UNL     1      -1.630   1.441   0.564  1.00  0.00     0.162 HD
HETATM    5  O2  UNL     1      -0.161  -1.401   0.601  1.00  0.00    -0.271 OA
BRANCH   3   6
HETATM    6  C7  UNL     1      -2.750  -0.338   0.368  1.00  0.00     0.084 C 
HETATM    7  C6  UNL     1      -3.414   0.077  -0.930  1.00  0.00     0.026 C 
HETATM    8  C5  UNL     1      -4.687  -0.642  -1.204  1.00  0.00     0.009 C 
HETATM    9  C4  UNL     1      -5.603  -0.713  -0.036  1.00  0.00     0.019 C 
HETATM   10  C24 UNL     1      -4.928  -0.910   1.284  1.00  0.00     0.009 C 
HETATM   11  C23 UNL     1      -3.727  -0.012   1.481  1.00  0.00     0.026 C 
BRANCH   9  12
HETATM   12  C2  UNL     1      -6.666  -1.774  -0.178  1.00  0.00     0.054 C 
HETATM   13  C1  UNL     1      -7.575  -1.811   1.031  1.00  0.00     0.045 C 
HETATM   14  C3  UNL     1      -7.539  -1.547  -1.392  1.00  0.00     0.045 C 
BRANCH  12  15
HETATM   15  O1  UNL     1      -6.101  -3.043  -0.309  1.00  0.00    -0.390 OA
ATOM     16  H1  UNL     1      -5.530  -3.020  -1.068  1.00  0.00     0.210 HD
ENDBRANCH  12  15
ENDBRANCH   9  12
ENDBRANCH   3   6
ENDBRANCH   1   2
BRANCH   1  17
HETATM   17  C10 UNL     1       0.983   1.690  -0.321  1.00  0.00     0.039 C 
BRANCH  17  18
HETATM   18  C11 UNL     1       2.183   2.590  -0.238  1.00  0.00    -0.012 C 
HETATM   19  C12 UNL     1       2.113   3.325   1.099  1.00  0.00     0.005 C 
HETATM   20  C13 UNL     1       2.966   4.585   0.955  1.00  0.00     0.000 C 
HETATM   21  C14 UNL     1       2.079   5.613   0.272  1.00  0.00     0.000 C 
HETATM   22  C15 UNL     1       1.268   4.869  -0.765  1.00  0.00     0.000 C 
HETATM   23  C16 UNL     1       2.024   3.671  -1.304  1.00  0.00     0.005 C 
ENDBRANCH  17  18
ENDBRANCH   1  17
BRANCH   1  24
HETATM   24  N2  UNL     1       2.104  -0.156   0.897  1.00  0.00    -0.330 N 
HETATM   25  C17 UNL     1       2.841  -0.678  -0.171  1.00  0.00     0.317 C 
HETATM   26  O3  UNL     1       2.520  -0.472  -1.360  1.00  0.00    -0.247 OA
HETATM   27  N3  UNL     1       4.021  -1.487   0.093  1.00  0.00    -0.339 N 
ATOM     28  H3  UNL     1       4.319  -1.680   1.049  1.00  0.00     0.164 HD
ATOM     29  H2  UNL     1       2.427  -0.391   1.835  1.00  0.00     0.165 HD
BRANCH  27  30
HETATM   30  C18 UNL     1       4.751  -2.004  -1.019  1.00  0.00     0.170 C 
BRANCH  30  31
HETATM   31  C19 UNL     1       5.927  -2.808  -0.677  1.00  0.00     0.043 A 
HETATM   32  C20 UNL     1       6.393  -3.112   0.571  1.00  0.00     0.107 A 
HETATM   33  N4  UNL     1       7.515  -3.882   0.701  1.00  0.00    -0.318 N 
HETATM   34  C21 UNL     1       8.197  -4.365  -0.342  1.00  0.00     0.326 A 
ATOM     35  H4  UNL     1       7.848  -4.099   1.640  1.00  0.00     0.170 HD
HETATM   36  O4  UNL     1       9.220  -5.066  -0.125  1.00  0.00    -0.247 OA
HETATM   37  N5  UNL     1       7.755  -4.078  -1.573  1.00  0.00    -0.275 N 
HETATM   38  C22 UNL     1       6.657  -3.325  -1.753  1.00  0.00     0.258 A 
ATOM     39  H5  UNL     1       8.259  -4.436  -2.385  1.00  0.00     0.173 HD
HETATM   40  O5  UNL     1       6.298  -3.095  -2.936  1.00  0.00    -0.267 OA
ENDBRANCH  30  31
ENDBRANCH  27  30
ENDBRANCH   1  24
TORSDOF 9
