REMARK  8 active torsions:
REMARK  status: ('A' for Active; 'I' for Inactive)
REMARK    1  A    between atoms: C3_5  and  C4_6 
REMARK       I    between atoms: C4_6  and  N2_8 
REMARK    2  A    between atoms: N2_8  and  C5_10 
REMARK    3  A    between atoms: C5_10  and  C6_11 
REMARK    4  A    between atoms: C5_10  and  C12_23 
REMARK       I    between atoms: C6_11  and  N3_13 
REMARK    5  A    between atoms: N3_13  and  C7_15 
REMARK    6  A    between atoms: C12_23  and  N5_24 
REMARK    7  A    between atoms: C12_23  and  C20_36 
REMARK       I    between atoms: N5_24  and  C13_26 
REMARK       I    between atoms: C13_26  and  N6_28 
REMARK    8  A    between atoms: N6_28  and  C14_30 
ROOT
HETATM    1  C5  UNL     1      -1.679  -0.708  -0.451  1.00  0.00     0.200 C 
ENDROOT
BRANCH   1   2
HETATM    2  N2  UNL     1      -1.411  -1.959   0.193  1.00  0.00    -0.340 N 
HETATM    3  C4  UNL     1      -2.365  -3.004   0.288  1.00  0.00     0.271 C 
HETATM    4  O1  UNL     1      -3.497  -2.819  -0.215  1.00  0.00    -0.266 OA
ATOM      5  H2  UNL     1      -0.489  -2.105   0.603  1.00  0.00     0.163 HD
BRANCH   3   6
HETATM    6  C3  UNL     1      -2.041  -4.269   0.955  1.00  0.00     0.124 A 
HETATM    7  N1  UNL     1      -0.871  -4.590   1.531  1.00  0.00    -0.340 N 
HETATM    8  C2  UNL     1      -0.954  -5.848   2.041  1.00  0.00     0.077 A 
ATOM      9  H1  UNL     1      -0.050  -3.986   1.578  1.00  0.00     0.167 HD
HETATM   10  C1  UNL     1       0.152  -6.530   2.747  1.00  0.00     0.089 C 
HETATM   11  N7  UNL     1      -2.183  -6.332   1.788  1.00  0.00    -0.348 N 
HETATM   12  C23 UNL     1      -2.861  -5.363   1.118  1.00  0.00     0.039 A 
ATOM     13  H7  UNL     1      -2.539  -7.252   2.049  1.00  0.00     0.167 HD
HETATM   14  C24 UNL     1      -4.264  -5.480   0.642  1.00  0.00     0.071 C 
ENDBRANCH   3   6
ENDBRANCH   1   2
BRANCH   1  15
HETATM   15  C6  UNL     1      -1.751   0.408   0.556  1.00  0.00     0.242 C 
HETATM   16  O2  UNL     1      -1.571   0.123   1.770  1.00  0.00    -0.271 OA
HETATM   17  N3  UNL     1      -2.015   1.713   0.109  1.00  0.00    -0.355 N 
ATOM     18  H3  UNL     1      -2.149   1.862  -0.891  1.00  0.00     0.162 HD
BRANCH  17  19
HETATM   19  C7  UNL     1      -2.107   2.861   0.991  1.00  0.00     0.087 C 
HETATM   20  C8  UNL     1      -3.454   3.505   0.960  1.00  0.00     0.052 C 
HETATM   21  C9  UNL     1      -3.517   4.499   2.118  1.00  0.00     0.234 C 
HETATM   22  N4  UNL     1      -2.482   5.480   1.933  1.00  0.00    -0.075 N 
HETATM   23  C10 UNL     1      -1.657   5.259   0.787  1.00  0.00     0.234 C 
ATOM     24  H42 UNL     1      -2.882   6.418   1.908  1.00  0.00     0.277 HD
ATOM     25  H41 UNL     1      -1.910   5.556   2.774  1.00  0.00     0.277 HD
HETATM   26  C11 UNL     1      -1.052   3.887   0.697  1.00  0.00     0.052 C 
ENDBRANCH  17  19
ENDBRANCH   1  15
BRANCH   1  27
HETATM   27  C12 UNL     1      -0.694  -0.385  -1.541  1.00  0.00     0.121 C 
BRANCH  27  28
HETATM   28  N5  UNL     1       0.654  -0.305  -1.074  1.00  0.00    -0.336 N 
HETATM   29  C13 UNL     1       1.501   0.812  -1.159  1.00  0.00     0.316 C 
HETATM   30  O3  UNL     1       1.024   1.856  -1.707  1.00  0.00    -0.247 OA
HETATM   31  N6  UNL     1       2.829   0.783  -0.658  1.00  0.00    -0.339 N 
ATOM     32  H6  UNL     1       3.177  -0.072  -0.223  1.00  0.00     0.164 HD
ATOM     33  H5  UNL     1       1.039  -1.142  -0.636  1.00  0.00     0.164 HD
BRANCH  31  34
HETATM   34  C14 UNL     1       3.704   1.936  -0.748  1.00  0.00     0.086 C 
HETATM   35  C15 UNL     1       4.043   2.486   0.621  1.00  0.00     0.025 C 
HETATM   36  C16 UNL     1       4.940   1.467   1.291  1.00  0.00     0.002 C 
HETATM   37  C17 UNL     1       6.290   1.560   0.631  1.00  0.00     0.000 C 
HETATM   38  C18 UNL     1       6.215   1.946  -0.818  1.00  0.00     0.002 C 
HETATM   39  C19 UNL     1       4.938   1.517  -1.483  1.00  0.00     0.025 C 
ENDBRANCH  31  34
ENDBRANCH  27  28
BRANCH  27  40
HETATM   40  C20 UNL     1      -0.876  -1.352  -2.687  1.00  0.00     0.003 C 
HETATM   41  C21 UNL     1      -2.266  -1.247  -3.245  1.00  0.00     0.011 C 
HETATM   42  C22 UNL     1       0.106  -1.031  -3.810  1.00  0.00     0.011 C 
ENDBRANCH  27  40
ENDBRANCH   1  27
TORSDOF 8
