REMARK  12 active torsions:
REMARK  status: ('A' for Active; 'I' for Inactive)
REMARK    1  A    between atoms: C7_8  and  C8_9 
REMARK       I    between atoms: C8_9  and  N1_11 
REMARK    2  A    between atoms: N1_11  and  N2_13 
REMARK    3  A    between atoms: N2_13  and  C9_15 
REMARK    4  A    between atoms: C9_15  and  N3_17 
REMARK    5  A    between atoms: N3_17  and  C10_19 
REMARK    6  A    between atoms: C10_19  and  C11_20 
REMARK    7  A    between atoms: C11_20  and  C12_21 
REMARK    8  A    between atoms: C12_21  and  C13_22 
REMARK    9  A    between atoms: C13_22  and  N4_23 
REMARK   10  A    between atoms: N4_23  and  C14_25 
REMARK   11  A    between atoms: C14_25  and  N5_27 
REMARK   12  A    between atoms: N5_27  and  C15_29 
ROOT
HETATM    1  N3  UNL     1      -1.302   0.838   0.798  1.00  0.00    -0.366 N 
ATOM      2  H3  UNL     1      -0.660   0.495   1.512  1.00  0.00     0.161 HD
ENDROOT
BRANCH   1   3
HETATM    3  C9  UNL     1      -2.663   0.717   1.033  1.00  0.00     0.186 C 
HETATM    4  S1  UNL     1      -3.162  -0.015   2.455  1.00  0.00    -0.040 SA
BRANCH   3   5
HETATM    5  N2  UNL     1      -3.686   1.161   0.174  1.00  0.00    -0.274 N 
ATOM      6  H2  UNL     1      -3.481   1.700  -0.668  1.00  0.00     0.189 HD
BRANCH   5   7
HETATM    7  N1  UNL     1      -5.039   0.817   0.542  1.00  0.00    -0.264 N 
HETATM    8  C8  UNL     1      -5.877   0.332  -0.493  1.00  0.00     0.270 C 
HETATM    9  O1  UNL     1      -5.484   0.285  -1.683  1.00  0.00    -0.266 OA
ATOM     10  H1  UNL     1      -5.375   0.918   1.500  1.00  0.00     0.190 HD
BRANCH   8  11
HETATM   11  C7  UNL     1      -7.217  -0.143  -0.194  1.00  0.00     0.039 A 
HETATM   12  C2  UNL     1      -7.243  -1.461   0.303  1.00  0.00    -0.045 A 
HETATM   13  C1  UNL     1      -5.999  -2.257   0.444  1.00  0.00     0.049 C 
HETATM   14  C3  UNL     1      -8.475  -1.985   0.624  1.00  0.00     0.031 A 
HETATM   15  C4  UNL     1      -9.618  -1.238   0.457  1.00  0.00     0.034 A 
HETATM   16 CL1  UNL     1     -11.156  -1.998   0.895  1.00  0.00    -0.084 Cl
HETATM   17  C5  UNL     1      -9.581   0.044  -0.026  1.00  0.00     0.025 A 
HETATM   18  C6  UNL     1      -8.340   0.603  -0.359  1.00  0.00     0.019 A 
ENDBRANCH   8  11
ENDBRANCH   5   7
ENDBRANCH   3   5
ENDBRANCH   1   3
BRANCH   1  19
HETATM   19  C10 UNL     1      -0.734   1.426  -0.409  1.00  0.00     0.122 C 
BRANCH  19  20
HETATM   20  C11 UNL     1       0.518   0.604  -0.657  1.00  0.00     0.021 C 
BRANCH  20  21
HETATM   21  C12 UNL     1       1.572   0.768   0.372  1.00  0.00     0.021 C 
BRANCH  21  22
HETATM   22  C13 UNL     1       2.332   2.098   0.208  1.00  0.00     0.122 C 
BRANCH  22  23
HETATM   23  N4  UNL     1       3.007   1.995  -1.103  1.00  0.00    -0.367 N 
ATOM     24  H4  UNL     1       2.688   2.575  -1.879  1.00  0.00     0.161 HD
BRANCH  23  25
HETATM   25  C14 UNL     1       4.103   1.093  -1.301  1.00  0.00     0.167 C 
HETATM   26  S2  UNL     1       4.686   0.960  -2.808  1.00  0.00    -0.041 SA
BRANCH  25  27
HETATM   27  N5  UNL     1       4.647   0.339  -0.256  1.00  0.00    -0.363 N 
ATOM     28  H5  UNL     1       4.231   0.553   0.650  1.00  0.00     0.162 HD
BRANCH  27  29
HETATM   29  C15 UNL     1       5.637  -0.643  -0.186  1.00  0.00     0.087 C 
HETATM   30  C16 UNL     1       6.547  -0.848  -1.337  1.00  0.00     0.052 C 
HETATM   31  C17 UNL     1       7.755  -1.707  -0.904  1.00  0.00     0.234 C 
HETATM   32  N6  UNL     1       8.584  -0.947   0.004  1.00  0.00    -0.075 N 
HETATM   33  C18 UNL     1       7.825   0.115   0.654  1.00  0.00     0.234 C 
ATOM     34  H62 UNL     1       9.042  -1.551   0.687  1.00  0.00     0.277 HD
ATOM     35  H61 UNL     1       9.413  -0.581  -0.464  1.00  0.00     0.277 HD
HETATM   36  C19 UNL     1       6.459  -0.363   1.091  1.00  0.00     0.052 C 
ENDBRANCH  27  29
ENDBRANCH  25  27
ENDBRANCH  23  25
ENDBRANCH  22  23
ENDBRANCH  21  22
ENDBRANCH  20  21
ENDBRANCH  19  20
ENDBRANCH   1  19
TORSDOF 12
