REMARK  10 active torsions:
REMARK  status: ('A' for Active; 'I' for Inactive)
REMARK    1  A    between atoms: C2_2  and  O1_4 
REMARK    2  A    between atoms: O1_4  and  C4_5 
REMARK    3  A    between atoms: C4_5  and  N2_9 
REMARK    4  A    between atoms: N2_9  and  C5_11 
REMARK    5  A    between atoms: C5_11  and  C6_12 
REMARK    6  A    between atoms: C5_11  and  C10_22 
REMARK    7  A    between atoms: C6_12  and  C7_13 
REMARK    8  A    between atoms: C7_13  and  C8_14 
REMARK    9  A    between atoms: C8_14  and  N3_15 
REMARK       I    between atoms: N3_15  and  C9_17 
REMARK       I    between atoms: C10_22  and  N6_24 
REMARK   10  A    between atoms: N6_24  and  C11_26 
ROOT
HETATM    1  C5  UNL     1      -1.390  -0.079  -0.717  1.00  0.00     0.177 C 
ENDROOT
BRANCH   1   2
HETATM    2  N2  UNL     1      -2.002  -0.345  -1.989  1.00  0.00    -0.343 N 
ATOM      3  H2  UNL     1      -2.765   0.251  -2.312  1.00  0.00     0.164 HD
BRANCH   2   4
HETATM    4  C4  UNL     1      -1.558  -1.441  -2.821  1.00  0.00     0.213 C 
HETATM    5  N1  UNL     1      -0.332  -1.787  -2.841  1.00  0.00    -0.365 N 
ATOM      6  H12 UNL     1      -0.019  -2.560  -3.428  1.00  0.00     0.159 HD
ATOM      7  H11 UNL     1       0.289  -1.245  -2.241  1.00  0.00     0.159 HD
BRANCH   4   8
HETATM    8  O1  UNL     1      -2.400  -2.176  -3.635  1.00  0.00    -0.318 OA
BRANCH   8   9
HETATM    9  C2  UNL     1      -2.704  -3.530  -3.508  1.00  0.00     0.123 C 
HETATM   10  C1  UNL     1      -1.565  -4.487  -3.578  1.00  0.00     0.040 C 
HETATM   11  C3  UNL     1      -3.654  -3.859  -2.368  1.00  0.00     0.040 C 
ENDBRANCH   8   9
ENDBRANCH   4   8
ENDBRANCH   2   4
ENDBRANCH   1   2
BRANCH   1  12
HETATM   12  C6  UNL     1      -2.044   1.137  -0.052  1.00  0.00     0.036 C 
BRANCH  12  13
HETATM   13  C7  UNL     1      -3.500   0.977   0.210  1.00  0.00     0.022 C 
BRANCH  13  14
HETATM   14  C8  UNL     1      -3.974   2.285   0.834  1.00  0.00     0.122 C 
BRANCH  14  15
HETATM   15  N3  UNL     1      -3.284   2.578   2.078  1.00  0.00    -0.365 N 
HETATM   16  C9  UNL     1      -3.635   3.788   2.715  1.00  0.00     0.181 C 
HETATM   17  N4  UNL     1      -2.754   4.513   3.308  1.00  0.00    -0.374 N 
HETATM   18  N5  UNL     1      -4.979   4.221   2.705  1.00  0.00    -0.064 NA
ATOM     19  H42 UNL     1      -1.783   4.200   3.315  1.00  0.00     0.158 HD
ATOM     20  H41 UNL     1      -3.008   5.387   3.768  1.00  0.00     0.158 HD
ATOM     21  H3  UNL     1      -2.586   1.946   2.469  1.00  0.00     0.162 HD
ENDBRANCH  14  15
ENDBRANCH  13  14
ENDBRANCH  12  13
ENDBRANCH   1  12
BRANCH   1  22
HETATM   22  C10 UNL     1       0.051   0.360  -0.871  1.00  0.00     0.240 C 
HETATM   23  O2  UNL     1       0.427   0.921  -1.918  1.00  0.00    -0.271 OA
HETATM   24  N6  UNL     1       0.994   0.139   0.169  1.00  0.00    -0.354 N 
ATOM     25  H6  UNL     1       0.695  -0.325   1.027  1.00  0.00     0.162 HD
BRANCH  24  26
HETATM   26  C11 UNL     1       2.355   0.557   0.032  1.00  0.00     0.092 C 
HETATM   27  C12 UNL     1       2.767   1.311   1.271  1.00  0.00     0.010 C 
HETATM   28  C13 UNL     1       4.107   1.934   1.026  1.00  0.00     0.011 C 
HETATM   29  C20 UNL     1       2.861   0.333   2.425  1.00  0.00     0.027 C 
HETATM   30  C14 UNL     1       5.091   0.845   0.740  1.00  0.00    -0.012 C 
HETATM   31  C15 UNL     1       4.689   0.040  -0.487  1.00  0.00     0.011 C 
HETATM   32  C19 UNL     1       5.187  -0.117   1.904  1.00  0.00     0.025 C 
HETATM   33  C16 UNL     1       3.312  -0.588  -0.252  1.00  0.00     0.010 C 
HETATM   34  C17 UNL     1       3.441  -1.532   0.898  1.00  0.00     0.027 C 
HETATM   35  C18 UNL     1       3.847  -0.770   2.131  1.00  0.00     0.019 C 
HETATM   36 BR1  UNL     1       3.887  -1.988   3.612  1.00  0.00    -0.086 Br
ENDBRANCH  24  26
ENDBRANCH   1  22
TORSDOF 10
