REMARK  4 active torsions:
REMARK  status: ('A' for Active; 'I' for Inactive)
REMARK    1  A    between atoms: C2_2  and  C3_3 
REMARK       I    between atoms: C3_3  and  N1_5 
REMARK    2  A    between atoms: N1_5  and  N2_6 
REMARK       I    between atoms: N2_6  and  C4_8 
REMARK       I    between atoms: C4_8  and  N3_10 
REMARK    3  A    between atoms: N3_10  and  N4_12 
REMARK       I    between atoms: N4_12  and  C5_14 
REMARK    4  A    between atoms: C5_14  and  C6_16 
ROOT
HETATM    1  N2  UNL     1       2.656  -0.874  -0.805  1.00  0.00    -0.180 N 
ATOM      2  H2  UNL     1       2.649  -1.366  -1.698  1.00  0.00     0.207 HD
HETATM    3  C4  UNL     1       1.307  -0.604  -0.151  1.00  0.00     0.363 C 
HETATM    4  O2  UNL     1       1.328   0.011   0.808  1.00  0.00    -0.243 OA
HETATM    5  N3  UNL     1       0.288  -1.234  -0.951  1.00  0.00    -0.247 N 
ATOM      6  H3  UNL     1       0.525  -1.678  -1.838  1.00  0.00     0.192 HD
ENDROOT
BRANCH   5   7
HETATM    7  N4  UNL     1      -1.022  -1.225  -0.492  1.00  0.00    -0.266 N 
HETATM    8  C5  UNL     1      -1.761  -0.164   0.050  1.00  0.00     0.240 C 
HETATM    9  O3  UNL     1      -1.259   0.977   0.139  1.00  0.00    -0.271 OA
ATOM     10  H4  UNL     1      -1.516  -2.115  -0.558  1.00  0.00     0.190 HD
BRANCH   8  11
HETATM   11  C6  UNL     1      -3.147  -0.493   0.500  1.00  0.00     0.084 C 
HETATM   12  C7  UNL     1      -4.024  -0.737  -0.713  1.00  0.00     0.019 C 
HETATM   13  C8  UNL     1      -5.151   0.200  -0.377  1.00  0.00    -0.013 C 
HETATM   14  C9  UNL     1      -4.433   1.457   0.025  1.00  0.00     0.010 C 
HETATM   15  C11 UNL     1      -5.301  -0.054   1.139  1.00  0.00     0.010 C 
HETATM   16  C10 UNL     1      -3.894   0.575   1.165  1.00  0.00    -0.001 C 
ENDBRANCH   8  11
ENDBRANCH   5   7
BRANCH   1  17
HETATM   17  N1  UNL     1       3.801  -0.537  -0.331  1.00  0.00    -0.283 NA
HETATM   18  C3  UNL     1       5.026  -0.190   0.189  1.00  0.00     0.312 C 
HETATM   19  O1  UNL     1       5.633  -0.791   1.080  1.00  0.00    -0.255 OA
BRANCH  18  20
HETATM   20  C2  UNL     1       5.678   1.035  -0.408  1.00  0.00     0.117 C 
HETATM   21  C1  UNL     1       6.957   1.318   0.328  1.00  0.00     0.016 C 
ENDBRANCH  18  20
ENDBRANCH   1  17
TORSDOF 4
