REMARK  7 active torsions:
REMARK  status: ('A' for Active; 'I' for Inactive)
REMARK    1  A    between atoms: C2_2  and  C4_4 
REMARK       I    between atoms: C4_4  and  N1_6 
REMARK    2  A    between atoms: N1_6  and  C5_8 
REMARK    3  A    between atoms: C5_8  and  N2_10 
REMARK    4  A    between atoms: N2_10  and  N3_12 
REMARK    5  A    between atoms: N3_12  and  C6_14 
REMARK    6  A    between atoms: C6_14  and  N4_16 
REMARK    7  A    between atoms: N4_16  and  C7_18 
ROOT
HETATM    1  N2  UNL     1      -0.039   0.223   1.616  1.00  0.00    -0.274 N 
ATOM      2  H2  UNL     1      -0.284   1.037   2.179  1.00  0.00     0.189 HD
ENDROOT
BRANCH   1   3
HETATM    3  C5  UNL     1      -0.981  -0.282   0.652  1.00  0.00     0.193 C 
HETATM    4  S1  UNL     1      -0.608  -1.584  -0.260  1.00  0.00    -0.039 SA
BRANCH   3   5
HETATM    5  N1  UNL     1      -2.244   0.352   0.488  1.00  0.00    -0.299 N 
HETATM    6  C4  UNL     1      -3.188  -0.103  -0.434  1.00  0.00     0.252 C 
HETATM    7  O1  UNL     1      -2.904  -1.119  -1.148  1.00  0.00    -0.268 OA
ATOM      8  H1  UNL     1      -2.467   1.165   1.062  1.00  0.00     0.171 HD
BRANCH   6   9
HETATM    9  C2  UNL     1      -4.476   0.527  -0.614  1.00  0.00    -0.003 C 
HETATM   10  C1  UNL     1      -4.821   1.572   0.092  1.00  0.00     0.024 C 
HETATM   11  C3  UNL     1      -5.422  -0.050  -1.642  1.00  0.00     0.053 C 
ENDBRANCH   6   9
ENDBRANCH   3   5
ENDBRANCH   1   3
BRANCH   1  12
HETATM   12  N3  UNL     1       1.194  -0.381   1.789  1.00  0.00    -0.274 N 
ATOM     13  H3  UNL     1       1.328  -1.013   2.578  1.00  0.00     0.189 HD
BRANCH  12  14
HETATM   14  C6  UNL     1       2.296  -0.144   0.887  1.00  0.00     0.186 C 
HETATM   15  S2  UNL     1       1.968   0.859  -0.349  1.00  0.00    -0.040 SA
BRANCH  14  16
HETATM   16  N4  UNL     1       3.541  -0.776   1.092  1.00  0.00    -0.361 N 
ATOM     17  H4  UNL     1       3.589  -1.398   1.899  1.00  0.00     0.162 HD
BRANCH  16  18
HETATM   18  C7  UNL     1       4.737  -0.669   0.334  1.00  0.00     0.084 A 
HETATM   19  C8  UNL     1       4.738  -0.859  -1.140  1.00  0.00     0.027 A 
HETATM   20  C9  UNL     1       5.140   0.472  -0.528  1.00  0.00     0.027 A 
ENDBRANCH  16  18
ENDBRANCH  14  16
ENDBRANCH  12  14
ENDBRANCH   1  12
TORSDOF 7
