REMARK  4 active torsions:
REMARK  status: ('A' for Active; 'I' for Inactive)
REMARK    1  A    between atoms: C4_6  and  C5_8 
REMARK    2  A    between atoms: C5_8  and  N2_9 
REMARK       I    between atoms: N2_9  and  C6_11 
REMARK       I    between atoms: C6_11  and  N3_13 
REMARK    3  A    between atoms: N3_13  and  N4_15 
REMARK       I    between atoms: N4_15  and  C7_17 
REMARK       I    between atoms: C7_17  and  N5_19 
REMARK    4  A    between atoms: N5_19  and  C8_21 
ROOT
HETATM    1  N2  UNL     1       2.230  -0.176   0.418  1.00  0.00    -0.338 N 
ATOM      2  H2  UNL     1       2.204  -1.116   0.814  1.00  0.00     0.164 HD
HETATM    3  C6  UNL     1       1.033   0.547   0.181  1.00  0.00     0.335 C 
HETATM    4  O1  UNL     1       1.081   1.716  -0.312  1.00  0.00    -0.246 OA
HETATM    5  N3  UNL     1      -0.209  -0.065   0.507  1.00  0.00    -0.248 N 
ATOM      6  H3  UNL     1      -0.238  -1.004   0.904  1.00  0.00     0.192 HD
ENDROOT
BRANCH   1   7
HETATM    7  C5  UNL     1       3.491   0.455   0.083  1.00  0.00     0.174 C 
BRANCH   7   8
HETATM    8  C4  UNL     1       4.581  -0.538   0.434  1.00  0.00     0.162 A 
HETATM    9  C2  UNL     1       5.991   0.013   0.121  1.00  0.00     0.027 A 
HETATM   10  N1  UNL     1       6.873   0.889   0.361  1.00  0.00    -0.398 N 
HETATM   11  C3  UNL     1       5.379  -1.205  -0.562  1.00  0.00     0.107 A 
HETATM   12  C1  UNL     1       8.103   0.840  -0.374  1.00  0.00     0.145 C 
ATOM     13  H1  UNL     1       6.712   1.613   1.061  1.00  0.00     0.158 HD
HETATM   14  F1  UNL     1       4.466  -1.114   1.676  1.00  0.00    -0.234 F 
ENDBRANCH   7   8
ENDBRANCH   1   7
BRANCH   5  15
HETATM   15  N4  UNL     1      -1.383   0.642   0.274  1.00  0.00    -0.248 N 
HETATM   16  C7  UNL     1      -2.620  -0.035   0.204  1.00  0.00     0.335 C 
HETATM   17  O2  UNL     1      -2.648  -1.283   0.353  1.00  0.00    -0.246 OA
HETATM   18  N5  UNL     1      -3.843   0.644  -0.031  1.00  0.00    -0.334 N 
ATOM     19  H5  UNL     1      -3.834   1.656  -0.155  1.00  0.00     0.165 HD
ATOM     20  H4  UNL     1      -1.351   1.654   0.153  1.00  0.00     0.192 HD
BRANCH  18  21
HETATM   21  C8  UNL     1      -5.102  -0.062  -0.099  1.00  0.00     0.023 C 
HETATM   22  C9  UNL     1      -6.213   0.950  -0.370  1.00  0.00     0.037 C 
HETATM   23  C10 UNL     1      -5.018  -1.071  -1.195  1.00  0.00     0.037 C 
HETATM   24  C11 UNL     1      -5.451  -0.689   1.250  1.00  0.00     0.037 C 
ENDBRANCH  18  21
ENDBRANCH   5  15
TORSDOF 4
