REMARK  3 active torsions:
REMARK  status: ('A' for Active; 'I' for Inactive)
REMARK    1  A    between atoms: C5_5  and  C6_6 
REMARK    2  A    between atoms: C6_6  and  C8_9 
REMARK       I    between atoms: C8_9  and  N1_11 
REMARK    3  A    between atoms: N1_11  and  N2_13 
REMARK       I    between atoms: N2_13  and  C9_15 
ROOT
HETATM    1  C8  UNL     1       0.802  -0.374   0.427  1.00  0.00     0.255 C 
HETATM    2  O1  UNL     1       1.252  -0.242   1.586  1.00  0.00    -0.270 OA
HETATM    3  N1  UNL     1       1.386   0.414  -0.592  1.00  0.00    -0.266 N 
ATOM      4  H1  UNL     1       1.028   0.315  -1.542  1.00  0.00     0.190 HD
ENDROOT
BRANCH   1   5
HETATM    5  C6  UNL     1      -0.296  -1.335   0.200  1.00  0.00     0.101 C 
HETATM    6  C7  UNL     1       0.268  -2.431  -0.723  1.00  0.00     0.038 C 
HETATM    7 BR1  UNL     1      -0.729  -2.281   1.858  1.00  0.00    -0.075 Br
BRANCH   5   8
HETATM    8  C5  UNL     1      -1.507  -0.784  -0.448  1.00  0.00     0.022 A 
HETATM    9  C2  UNL     1      -2.383   0.256   0.042  1.00  0.00    -0.042 A 
HETATM   10  C1  UNL     1      -3.248   0.979  -1.010  1.00  0.00     0.015 C 
HETATM   11  C3  UNL     1      -2.170   1.123   1.241  1.00  0.00     0.015 C 
HETATM   12  C4  UNL     1      -2.840  -1.163   0.219  1.00  0.00     0.016 A 
ENDBRANCH   5   8
ENDBRANCH   1   5
BRANCH   3  13
HETATM   13  N2  UNL     1       2.415   1.311  -0.372  1.00  0.00    -0.271 N 
HETATM   14  C9  UNL     1       3.739   0.933  -0.035  1.00  0.00     0.200 C 
HETATM   15  N3  UNL     1       4.051  -0.312   0.010  1.00  0.00    -0.372 N 
HETATM   16  N4  UNL     1       4.721   1.893   0.253  1.00  0.00    -0.062 NA
ATOM     17  H32 UNL     1       3.337  -1.010  -0.199  1.00  0.00     0.158 HD
ATOM     18  H31 UNL     1       5.004  -0.584   0.252  1.00  0.00     0.158 HD
ATOM     19  H2  UNL     1       2.209   2.306  -0.457  1.00  0.00     0.189 HD
ENDBRANCH   3  13
TORSDOF 3
