REMARK  3 active torsions:
REMARK  status: ('A' for Active; 'I' for Inactive)
REMARK    1  A    between atoms: C2_2  and  N1_4 
REMARK       I    between atoms: C4_6  and  N3_8 
REMARK       I    between atoms: C5_10  and  N4_11 
REMARK       I    between atoms: C5_10  and  N6_15 
REMARK    2  A    between atoms: N6_15  and  C7_17 
REMARK    3  A    between atoms: C7_17  and  C8_18 
ROOT
HETATM    1  N1  UNL     1      -1.732   0.771   0.640  1.00  0.00    -0.360 N 
ATOM      2  H1  UNL     1      -1.419   1.702   0.915  1.00  0.00     0.162 HD
HETATM    3  C4  UNL     1      -0.841  -0.019   0.197  1.00  0.00     0.203 C 
HETATM    4  N2  UNL     1      -1.186  -1.320  -0.207  1.00  0.00    -0.063 NA
HETATM    5  N3  UNL     1       0.496   0.408   0.107  1.00  0.00    -0.163 N 
ATOM      6  H3  UNL     1       0.665   1.354  -0.235  1.00  0.00     0.187 HD
HETATM    7  C5  UNL     1       1.516  -0.297   0.420  1.00  0.00     0.689 C 
HETATM    8  N4  UNL     1       1.303  -1.616   0.897  1.00  0.00    -0.126 N 
ATOM      9  H4  UNL     1       0.793  -1.765   1.768  1.00  0.00     0.197 HD
HETATM   10  C6  UNL     1       1.789  -2.713   0.178  1.00  0.00     0.196 C 
HETATM   11  N5  UNL     1       2.182  -3.640  -0.413  1.00  0.00    -0.171 NA
HETATM   12  N6  UNL     1       2.806   0.282   0.272  1.00  0.00    -0.225 N 
ATOM     13  H6  UNL     1       3.286   0.681   1.078  1.00  0.00     0.177 HD
ENDROOT
BRANCH  12  14
HETATM   14  C7  UNL     1       3.439   0.300  -1.049  1.00  0.00     0.149 C 
BRANCH  14  15
HETATM   15  C8  UNL     1       4.792   0.968  -0.917  1.00  0.00     0.105 C 
HETATM   16 BR1  UNL     1       4.618   2.781  -0.271  1.00  0.00    -0.095 Br
ENDBRANCH  14  15
ENDBRANCH  12  14
BRANCH   1  17
HETATM   17  C2  UNL     1      -3.122   0.497   0.794  1.00  0.00     0.076 C 
HETATM   18  C1  UNL     1      -3.720  -0.258  -0.383  1.00  0.00     0.032 C 
HETATM   19  C3  UNL     1      -3.848   1.849   0.828  1.00  0.00     0.032 C 
ENDBRANCH   1  17
TORSDOF 3
