REMARK  5 active torsions:
REMARK  status: ('A' for Active; 'I' for Inactive)
REMARK    1  A    between atoms: C2_2  and  N1_3 
REMARK    2  A    between atoms: C2_2  and  C7_17 
REMARK    3  A    between atoms: N1_3  and  C3_5 
REMARK    4  A    between atoms: C3_5  and  N2_7 
REMARK    5  A    between atoms: N2_7  and  C4_9 
ROOT
HETATM    1  C3  UNL     1       0.666  -1.137  -0.927  1.00  0.00     0.169 C 
HETATM    2  S1  UNL     1       0.502  -2.171  -2.193  1.00  0.00    -0.041 SA
ENDROOT
BRANCH   1   3
HETATM    3  N1  UNL     1      -0.408  -0.432  -0.365  1.00  0.00    -0.361 N 
ATOM      4  H1  UNL     1      -0.199   0.185   0.420  1.00  0.00     0.162 HD
BRANCH   3   5
HETATM    5  C2  UNL     1      -1.766  -0.500  -0.793  1.00  0.00     0.102 C 
HETATM    6  C1  UNL     1      -2.376  -1.875  -0.711  1.00  0.00     0.034 C 
BRANCH   5   7
HETATM    7  C7  UNL     1      -2.676   0.420  -0.009  1.00  0.00     0.050 C 
HETATM    8  C8  UNL     1      -2.792  -0.004   1.430  1.00  0.00     0.034 C 
HETATM    9  C9  UNL     1      -2.288   1.866  -0.126  1.00  0.00     0.034 C 
HETATM   10 CL1  UNL     1      -4.307   0.265  -0.743  1.00  0.00    -0.118 Cl
ENDBRANCH   5   7
ENDBRANCH   3   5
ENDBRANCH   1   3
BRANCH   1  11
HETATM   11  N2  UNL     1       1.988  -1.001  -0.430  1.00  0.00    -0.344 N 
ATOM     12  H2  UNL     1       2.750  -1.528  -0.856  1.00  0.00     0.164 HD
BRANCH  11  13
HETATM   13  C4  UNL     1       2.259  -0.099   0.701  1.00  0.00     0.205 C 
HETATM   14  C5  UNL     1       3.730  -0.146   1.080  1.00  0.00     0.171 C 
HETATM   15  N3  UNL     1       4.355   0.467  -0.061  1.00  0.00    -0.339 N 
HETATM   16  C6  UNL     1       3.412   1.355  -0.626  1.00  0.00     0.317 C 
ATOM     17  H3  UNL     1       5.302   0.293  -0.399  1.00  0.00     0.164 HD
HETATM   18  O1  UNL     1       3.533   2.144  -1.616  1.00  0.00    -0.247 OA
HETATM   19  N4  UNL     1       2.178   1.253   0.123  1.00  0.00    -0.320 N 
ATOM     20  H4  UNL     1       1.436   1.946   0.225  1.00  0.00     0.166 HD
ENDBRANCH  11  13
ENDBRANCH   1  11
TORSDOF 5
