REMARK  2 active torsions:
REMARK  status: ('A' for Active; 'I' for Inactive)
REMARK    1  A    between atoms: C2_2  and  C3_3 
REMARK    2  A    between atoms: C5_5  and  N1_6 
REMARK       I    between atoms: N1_6  and  C6_8 
REMARK       I    between atoms: N3_10  and  C7_12 
REMARK       I    between atoms: C7_12  and  N4_14 
REMARK       I    between atoms: N4_14  and  C8_16 
ROOT
HETATM    1  N1  UNL     1      -0.493  -1.037   0.185  1.00  0.00    -0.360 N 
ATOM      2  H1  UNL     1      -0.794  -2.004   0.068  1.00  0.00     0.162 HD
HETATM    3  C6  UNL     1       0.833  -0.635  -0.154  1.00  0.00     0.192 C 
HETATM    4  N2  UNL     1       1.150  -0.130  -1.443  1.00  0.00    -0.063 NA
HETATM    5  N3  UNL     1       1.785  -0.719   0.708  1.00  0.00    -0.283 N 
ATOM      6  H3  UNL     1       1.578  -1.079   1.640  1.00  0.00     0.173 HD
HETATM    7  C7  UNL     1       3.096  -0.332   0.406  1.00  0.00     0.329 C 
HETATM    8  O1  UNL     1       3.298   0.594  -0.424  1.00  0.00    -0.247 OA
HETATM    9  N4  UNL     1       4.214  -0.961   1.016  1.00  0.00    -0.283 N 
ATOM     10  H4  UNL     1       4.060  -1.711   1.690  1.00  0.00     0.173 HD
HETATM   11  C8  UNL     1       5.552  -0.563   0.704  1.00  0.00     0.189 C 
HETATM   12  N5  UNL     1       6.507  -1.174   1.292  1.00  0.00    -0.373 N 
ATOM     13  H51 UNL     1       7.461  -0.890   1.070  1.00  0.00     0.158 HD
ATOM     14  H52 UNL     1       6.351  -1.925   1.965  1.00  0.00     0.158 HD
HETATM   15  N6  UNL     1       5.769   0.479  -0.230  1.00  0.00    -0.064 NA
ENDROOT
BRANCH   1  16
HETATM   16  C5  UNL     1      -1.385  -0.047   0.692  1.00  0.00     0.086 C 
HETATM   17  C4  UNL     1      -2.747  -0.545   1.022  1.00  0.00     0.035 C 
HETATM   18  C3  UNL     1      -3.712   0.445   0.361  1.00  0.00     0.028 C 
HETATM   19  C10 UNL     1      -2.855   1.675   0.112  1.00  0.00     0.092 C 
HETATM   20  C9  UNL     1      -1.541   1.064  -0.336  1.00  0.00     0.046 C 
HETATM   21 CL1  UNL     1      -2.555   2.485   1.669  1.00  0.00    -0.124 Cl
BRANCH  18  22
HETATM   22  C2  UNL     1      -4.148  -0.162  -0.915  1.00  0.00    -0.031 C 
HETATM   23  C1  UNL     1      -5.429  -0.279  -1.204  1.00  0.00     0.007 C 
ENDBRANCH  18  22
ENDBRANCH   1  16
TORSDOF 2
