REMARK  3 active torsions:
REMARK  status: ('A' for Active; 'I' for Inactive)
REMARK    1  A    between atoms: C5_5  and  N1_6 
REMARK    2  A    between atoms: N1_6  and  C6_8 
REMARK    3  A    between atoms: C6_8  and  C7_12 
REMARK       I    between atoms: N3_16  and  C10_17 
ROOT
HETATM    1  C6  UNL     1       1.098   0.984   0.720  1.00  0.00     0.096 C 
HETATM    2  N2  UNL     1       0.920   1.940   1.547  1.00  0.00    -0.387 N 
ATOM      3  H21 UNL     1       1.530   2.757   1.504  1.00  0.00     0.157 HD
ATOM      4  H22 UNL     1       0.174   1.886   2.240  1.00  0.00     0.157 HD
ENDROOT
BRANCH   1   5
HETATM    5  N1  UNL     1       0.253  -0.148   0.779  1.00  0.00    -0.374 N 
ATOM      6  H1  UNL     1       0.297  -0.772   1.585  1.00  0.00     0.161 HD
BRANCH   5   7
HETATM    7  C5  UNL     1      -0.680  -0.429  -0.303  1.00  0.00     0.082 C 
HETATM    8  C4  UNL     1      -1.466  -1.667  -0.031  1.00  0.00     0.025 C 
HETATM    9  C3  UNL     1      -2.683  -1.471   0.811  1.00  0.00     0.006 C 
HETATM   10  C2  UNL     1      -3.429  -0.199   0.524  1.00  0.00    -0.019 C 
HETATM   11  C1  UNL     1      -4.917  -0.411   0.385  1.00  0.00     0.010 C 
HETATM   12  C12 UNL     1      -2.942   0.411  -0.779  1.00  0.00     0.006 C 
HETATM   13  C11 UNL     1      -1.500   0.794  -0.537  1.00  0.00     0.025 C 
ENDBRANCH   5   7
ENDBRANCH   1   5
BRANCH   1  14
HETATM   14  C7  UNL     1       2.174   1.062  -0.280  1.00  0.00     0.173 C 
HETATM   15  C8  UNL     1       3.026   2.275  -0.336  1.00  0.00     0.130 C 
HETATM   16 CL1  UNL     1       2.536   3.714   0.526  1.00  0.00    -0.121 Cl
HETATM   17  C9  UNL     1       4.029   1.467   0.462  1.00  0.00     0.149 C 
HETATM   18  N3  UNL     1       3.349   0.257   0.077  1.00  0.00    -0.341 N 
HETATM   19  C10 UNL     1       3.670  -1.112   0.054  1.00  0.00     0.184 C 
HETATM   20  N4  UNL     1       4.485  -1.645   0.939  1.00  0.00    -0.374 N 
HETATM   21  N5  UNL     1       3.166  -2.030  -0.895  1.00  0.00    -0.064 NA
ATOM     22  H42 UNL     1       4.849  -0.982   1.624  1.00  0.00     0.158 HD
ATOM     23  H41 UNL     1       4.718  -2.638   0.922  1.00  0.00     0.158 HD
ENDBRANCH   1  14
TORSDOF 3
