REMARK  7 active torsions:
REMARK  status: ('A' for Active; 'I' for Inactive)
REMARK       I    between atoms: N1_2  and  C2_4 
REMARK    1  A    between atoms: C2_4  and  C3_6 
REMARK    2  A    between atoms: C3_6  and  C4_7 
REMARK    3  A    between atoms: C4_7  and  C5_8 
REMARK    4  A    between atoms: C5_8  and  C6_9 
REMARK    5  A    between atoms: C6_9  and  C8_11 
REMARK    6  A    between atoms: C14_20  and  O2_21 
REMARK    7  A    between atoms: C15_23  and  C16_24 
ROOT
HETATM    1  C8  UNL     1       0.086  -0.350  -0.206  1.00  0.00     0.197 C 
HETATM    2  N2  UNL     1       0.650  -1.665  -0.417  1.00  0.00    -0.070 N 
ATOM      3  H21 UNL     1       0.880  -2.142   0.455  1.00  0.00     0.277 HD
ATOM      4  H22 UNL     1       1.592  -1.634  -0.807  1.00  0.00     0.277 HD
HETATM    5  C9  UNL     1      -0.272  -2.414  -1.239  1.00  0.00     0.233 C 
HETATM    6  C10 UNL     1      -1.666  -1.893  -1.185  1.00  0.00     0.038 C 
HETATM    7  C11 UNL     1      -2.072  -1.345   0.181  1.00  0.00    -0.027 C 
HETATM    8  C12 UNL     1      -2.175  -2.589   1.068  1.00  0.00     0.016 C 
HETATM    9  C13 UNL     1      -0.971  -0.478   0.799  1.00  0.00     0.055 C 
HETATM   10  C14 UNL     1      -1.601   0.751   1.370  1.00  0.00     0.139 C 
HETATM   11  C15 UNL     1      -2.271   1.503   0.277  1.00  0.00     0.120 C 
HETATM   12  C17 UNL     1      -3.516   0.714  -0.077  1.00  0.00     0.011 C 
HETATM   13  C18 UNL     1      -3.870   0.604  -1.518  1.00  0.00     0.007 C 
HETATM   14  C19 UNL     1      -4.176  -0.864  -1.210  1.00  0.00     0.011 C 
HETATM   15  C20 UNL     1      -3.417  -0.747   0.121  1.00  0.00    -0.032 C 
HETATM   16  C21 UNL     1      -4.386  -1.266   1.198  1.00  0.00     0.016 C 
ENDROOT
BRANCH   1  17
HETATM   17  C6  UNL     1       1.205   0.622   0.011  1.00  0.00     0.013 C 
HETATM   18  C7  UNL     1       1.934   0.374   1.296  1.00  0.00     0.012 C 
BRANCH  17  19
HETATM   19  C5  UNL     1       2.067   0.710  -1.212  1.00  0.00     0.006 C 
BRANCH  19  20
HETATM   20  C4  UNL     1       3.066   1.809  -1.262  1.00  0.00     0.010 C 
BRANCH  20  21
HETATM   21  C3  UNL     1       4.203   1.847  -0.329  1.00  0.00     0.103 C 
BRANCH  21  22
HETATM   22  C2  UNL     1       5.154   0.701  -0.463  1.00  0.00     0.217 C 
HETATM   23  N1  UNL     1       6.281   0.610   0.383  1.00  0.00    -0.365 N 
HETATM   24  C1  UNL     1       7.247  -0.456   0.325  1.00  0.00     0.149 C 
ATOM     25  H1  UNL     1       6.419   1.344   1.077  1.00  0.00     0.161 HD
HETATM   26  O1  UNL     1       4.968  -0.187  -1.318  1.00  0.00    -0.274 OA
ENDBRANCH  21  22
ENDBRANCH  20  21
ENDBRANCH  19  20
ENDBRANCH  17  19
ENDBRANCH   1  17
BRANCH  10  27
HETATM   27  O2  UNL     1      -0.877   1.467   2.273  1.00  0.00    -0.394 OA
ATOM     28  H2  UNL     1      -1.277   2.248   2.636  1.00  0.00     0.210 HD
ENDBRANCH  10  27
BRANCH  11  29
HETATM   29  C16 UNL     1      -2.658   2.896   0.618  1.00  0.00     0.179 C 
HETATM   30  O3  UNL     1      -2.543   3.419   1.731  1.00  0.00    -0.648 OA
HETATM   31  O4  UNL     1      -3.201   3.693  -0.398  1.00  0.00    -0.648 OA
ENDBRANCH  11  29
TORSDOF 7
