REMARK  6 active torsions:
REMARK  status: ('A' for Active; 'I' for Inactive)
REMARK       I    between atoms: C2_4  and  N2_5 
REMARK       I    between atoms: C2_4  and  N3_11 
REMARK    1  A    between atoms: N2_5  and  C3_7 
REMARK    2  A    between atoms: C9_14  and  C10_15 
REMARK    3  A    between atoms: C10_15  and  N4_16 
REMARK    4  A    between atoms: N4_16  and  C11_18 
REMARK    5  A    between atoms: C11_18  and  N5_20 
REMARK    6  A    between atoms: N5_20  and  C12_22 
ROOT
HETATM    1  C1  UNL     1      -2.875  -3.179  -0.135  1.00  0.00     0.165 C 
HETATM    2  N1  UNL     1      -2.151  -1.950  -0.153  1.00  0.00    -0.231 N 
ATOM      3  H1  UNL     1      -1.206  -1.991  -0.534  1.00  0.00     0.177 HD
HETATM    4  C2  UNL     1      -2.542  -0.810   0.249  1.00  0.00     0.672 C 
HETATM    5  N2  UNL     1      -3.831  -0.657   0.790  1.00  0.00    -0.218 N 
ATOM      6  H2  UNL     1      -4.000  -1.055   1.714  1.00  0.00     0.178 HD
HETATM    7  N3  UNL     1      -1.683   0.298   0.155  1.00  0.00    -0.218 N 
HETATM    8  C7  UNL     1      -1.264   0.837  -1.122  1.00  0.00     0.141 C 
HETATM    9  C8  UNL     1       0.206   1.182  -1.136  1.00  0.00     0.027 C 
HETATM   10  C9  UNL     1       0.816   0.633   0.129  1.00  0.00     0.006 C 
HETATM   11  C15 UNL     1       0.211   1.361   1.289  1.00  0.00     0.027 C 
HETATM   12  C16 UNL     1      -1.227   0.884   1.423  1.00  0.00     0.141 C 
ENDROOT
BRANCH   5  13
HETATM   13  C3  UNL     1      -4.932   0.015   0.149  1.00  0.00     0.036 C 
HETATM   14  C4  UNL     1      -4.686   1.459  -0.157  1.00  0.00     0.038 C 
HETATM   15  C5  UNL     1      -6.148  -0.087   1.042  1.00  0.00     0.038 C 
HETATM   16  C6  UNL     1      -5.212  -0.728  -1.162  1.00  0.00     0.038 C 
ENDBRANCH   5  13
BRANCH  10  17
HETATM   17  C10 UNL     1       2.308   0.642   0.116  1.00  0.00     0.126 C 
BRANCH  17  18
HETATM   18  N4  UNL     1       2.743  -0.188  -1.012  1.00  0.00    -0.367 N 
ATOM     19  H4  UNL     1       2.067  -0.648  -1.622  1.00  0.00     0.161 HD
BRANCH  18  20
HETATM   20  C11 UNL     1       4.132  -0.326  -1.222  1.00  0.00     0.167 C 
HETATM   21  S1  UNL     1       4.643  -1.247  -2.474  1.00  0.00    -0.041 SA
BRANCH  20  22
HETATM   22  N5  UNL     1       5.062   0.310  -0.380  1.00  0.00    -0.363 N 
ATOM     23  H5  UNL     1       4.740   0.884   0.399  1.00  0.00     0.162 HD
BRANCH  22  24
HETATM   24  C12 UNL     1       6.473   0.145  -0.626  1.00  0.00     0.075 C 
HETATM   25  C13 UNL     1       6.802  -1.327  -0.523  1.00  0.00     0.032 C 
HETATM   26  C14 UNL     1       7.238   0.959   0.392  1.00  0.00     0.032 C 
ENDBRANCH  22  24
ENDBRANCH  20  22
ENDBRANCH  18  20
ENDBRANCH  17  18
ENDBRANCH  10  17
TORSDOF 6
