REMARK  2 active torsions:
REMARK  status: ('A' for Active; 'I' for Inactive)
REMARK       I    between atoms: N1_2  and  C2_4 
REMARK       I    between atoms: C2_4  and  N3_8 
REMARK    1  A    between atoms: C4_10  and  N4_11 
REMARK       I    between atoms: N4_11  and  C5_13 
REMARK       I    between atoms: C5_13  and  N5_15 
REMARK    2  A    between atoms: N5_15  and  C6_17 
ROOT
HETATM    1  C1  UNL     1       7.299   0.730   0.199  1.00  0.00     0.165 C 
HETATM    2  N1  UNL     1       5.951   0.928  -0.244  1.00  0.00    -0.231 N 
ATOM      3  H1  UNL     1       5.762   0.896  -1.246  1.00  0.00     0.177 HD
HETATM    4  C2  UNL     1       4.863   1.167   0.640  1.00  0.00     0.670 C 
HETATM    5  N2  UNL     1       4.948   2.175   1.434  1.00  0.00    -0.235 N 
ATOM      6  H21 UNL     1       4.168   2.346   2.068  1.00  0.00     0.174 HD
ATOM      7  H22 UNL     1       5.770   2.779   1.423  1.00  0.00     0.174 HD
HETATM    8  N3  UNL     1       3.707   0.317   0.656  1.00  0.00    -0.208 N 
HETATM    9  C3  UNL     1       2.391   0.728   1.108  1.00  0.00     0.167 C 
HETATM   10  C4  UNL     1       1.496  -0.212   0.373  1.00  0.00     0.107 C 
HETATM   11  C14 UNL     1       2.246  -1.538   0.565  1.00  0.00     0.057 C 
HETATM   12  C15 UNL     1       3.669  -1.069   0.228  1.00  0.00     0.044 C 
HETATM   13  C16 UNL     1       3.782  -1.182  -1.287  1.00  0.00     0.039 C 
HETATM   14  C17 UNL     1       4.709  -1.918   0.880  1.00  0.00     0.039 C 
ENDROOT
BRANCH  10  15
HETATM   15  N4  UNL     1       0.160  -0.275   0.834  1.00  0.00    -0.337 N 
HETATM   16  C5  UNL     1      -0.917  -0.050  -0.065  1.00  0.00     0.316 C 
HETATM   17  O1  UNL     1      -0.693   0.212  -1.298  1.00  0.00    -0.247 OA
HETATM   18  N5  UNL     1      -2.277  -0.100   0.335  1.00  0.00    -0.338 N 
ATOM     19  H5  UNL     1      -2.513  -0.305   1.306  1.00  0.00     0.164 HD
ATOM     20  H4  UNL     1      -0.031  -0.482   1.814  1.00  0.00     0.164 HD
BRANCH  18  21
HETATM   21  C6  UNL     1      -3.314   0.135  -0.613  1.00  0.00     0.090 C 
HETATM   22  C7  UNL     1      -4.335  -0.976  -0.700  1.00  0.00     0.030 C 
HETATM   23  C8  UNL     1      -5.642  -0.308  -1.139  1.00  0.00    -0.012 C 
HETATM   24  C9  UNL     1      -6.662  -0.342   0.007  1.00  0.00     0.005 C 
HETATM   25  C13 UNL     1      -5.289   1.168  -1.317  1.00  0.00     0.011 C 
HETATM   26  C10 UNL     1      -6.345   0.762   0.984  1.00  0.00     0.001 C 
HETATM   27  C11 UNL     1      -4.837   0.984   1.095  1.00  0.00     0.007 C 
HETATM   28  C12 UNL     1      -4.217   1.314  -0.228  1.00  0.00     0.009 C 
ENDBRANCH  18  21
ENDBRANCH  10  15
TORSDOF 2
