REMARK  4 active torsions:
REMARK  status: ('A' for Active; 'I' for Inactive)
REMARK    1  A    between atoms: C3_3  and  C4_4 
REMARK    2  A    between atoms: C4_4  and  C5_5 
REMARK       I    between atoms: N1_6  and  C6_8 
REMARK       I    between atoms: C6_8  and  N2_10 
REMARK       I    between atoms: N2_10  and  C7_12 
REMARK       I    between atoms: C7_12  and  N4_16 
REMARK    3  A    between atoms: N4_16  and  C8_18 
REMARK    4  A    between atoms: C14_24  and  C15_25 
ROOT
HETATM    1  C1  UNL     1       7.144   2.103  -1.788  1.00  0.00     0.112 C 
HETATM    2  C2  UNL     1       6.095   1.313  -1.144  1.00  0.00    -0.111 C 
HETATM    3  C3  UNL     1       5.242   0.650  -0.608  1.00  0.00    -0.102 C 
ENDROOT
BRANCH   3   4
HETATM    4  C4  UNL     1       4.211  -0.181   0.056  1.00  0.00     0.138 C 
BRANCH   4   5
HETATM    5  C5  UNL     1       4.873  -1.147   0.931  1.00  0.00     0.077 C 
HETATM    6  N1  UNL     1       4.192  -2.000   1.599  1.00  0.00    -0.321 N 
HETATM    7  C6  UNL     1       2.753  -1.958   1.445  1.00  0.00     0.338 C 
ATOM      8  H1  UNL     1       4.643  -2.679   2.212  1.00  0.00     0.169 HD
HETATM    9  O1  UNL     1       2.273  -2.369   0.389  1.00  0.00    -0.246 OA
HETATM   10  N2  UNL     1       1.941  -1.455   2.493  1.00  0.00    -0.142 N 
HETATM   11  C7  UNL     1       0.545  -1.408   2.354  1.00  0.00     0.676 C 
ATOM     12  H2  UNL     1       2.375  -1.125   3.355  1.00  0.00     0.189 HD
HETATM   13  N3  UNL     1      -0.153  -0.947   3.336  1.00  0.00    -0.235 N 
HETATM   14  N4  UNL     1      -0.107  -1.846   1.188  1.00  0.00    -0.217 N 
ATOM     15  H32 UNL     1       0.320  -0.629   4.182  1.00  0.00     0.174 HD
ATOM     16  H31 UNL     1      -1.167  -0.913   3.235  1.00  0.00     0.174 HD
ATOM     17  H4  UNL     1       0.020  -2.816   0.899  1.00  0.00     0.178 HD
BRANCH  14  18
HETATM   18  C8  UNL     1      -0.957  -0.987   0.368  1.00  0.00     0.048 C 
HETATM   19  C9  UNL     1      -0.166   0.233  -0.043  1.00  0.00     0.036 C 
HETATM   20  C10 UNL     1      -1.010   1.102  -0.917  1.00  0.00    -0.011 C 
HETATM   21  C11 UNL     1      -1.330   0.370  -2.204  1.00  0.00     0.009 C 
HETATM   22  C17 UNL     1      -2.297   1.499  -0.237  1.00  0.00     0.014 C 
HETATM   23  C12 UNL     1      -2.052  -0.890  -1.850  1.00  0.00    -0.011 C 
HETATM   24  C13 UNL     1      -3.362  -0.595  -1.128  1.00  0.00     0.014 C 
HETATM   25  C19 UNL     1      -1.255  -1.751  -0.924  1.00  0.00     0.036 C 
HETATM   26  C14 UNL     1      -3.054   0.239   0.077  1.00  0.00    -0.038 C 
HETATM   27  C18 UNL     1      -2.220  -0.569   1.057  1.00  0.00     0.041 C 
BRANCH  26  28
HETATM   28  C15 UNL     1      -4.376   0.535   0.774  1.00  0.00     0.005 C 
HETATM   29  C16 UNL     1      -5.334   1.278  -0.098  1.00  0.00     0.006 C 
ENDBRANCH  26  28
ENDBRANCH  14  18
ENDBRANCH   4   5
ENDBRANCH   3   4
TORSDOF 4
