REMARK  6 active torsions:
REMARK  status: ('A' for Active; 'I' for Inactive)
REMARK    1  A    between atoms: C4_4  and  C5_5 
REMARK    2  A    between atoms: C5_5  and  N2_9 
REMARK       I    between atoms: C6_11  and  N4_13 
REMARK    3  A    between atoms: N4_13  and  C7_15 
REMARK    4  A    between atoms: C7_15  and  N5_17 
REMARK    5  A    between atoms: N5_17  and  C8_19 
REMARK    6  A    between atoms: C8_19  and  C9_20 
ROOT
HETATM    1  N2  UNL     1       0.294   1.870  -0.043  1.00  0.00    -0.320 N 
ATOM      2  H2  UNL     1       0.568   1.957   0.936  1.00  0.00     0.169 HD
HETATM    3  C6  UNL     1       1.204   1.717  -0.932  1.00  0.00     0.195 C 
HETATM    4  N3  UNL     1       0.857   1.589  -2.308  1.00  0.00    -0.063 NA
HETATM    5  N4  UNL     1       2.555   1.721  -0.528  1.00  0.00    -0.307 N 
ATOM      6  H4  UNL     1       2.956   2.569  -0.126  1.00  0.00     0.171 HD
ENDROOT
BRANCH   1   7
HETATM    7  C5  UNL     1      -1.078   1.922  -0.378  1.00  0.00     0.082 C 
HETATM    8  N1  UNL     1      -1.400   3.089  -0.913  1.00  0.00    -0.388 N 
ATOM      9  H12 UNL     1      -2.390   3.127  -1.155  1.00  0.00     0.157 HD
ATOM     10  H11 UNL     1      -0.672   3.795  -1.024  1.00  0.00     0.157 HD
BRANCH   7  11
HETATM   11  C4  UNL     1      -2.107   0.925  -0.221  1.00  0.00     0.070 A 
HETATM   12  C2  UNL     1      -2.251   0.450   1.252  1.00  0.00    -0.029 A 
HETATM   13  C1  UNL     1      -1.137   0.756   2.194  1.00  0.00     0.016 C 
HETATM   14  C3  UNL     1      -3.646   0.605   1.819  1.00  0.00     0.016 C 
HETATM   15  C10 UNL     1      -2.009  -0.480   0.093  1.00  0.00    -0.029 A 
HETATM   16  C11 UNL     1      -0.804  -1.322   0.111  1.00  0.00     0.016 C 
HETATM   17  C12 UNL     1      -3.261  -1.340  -0.188  1.00  0.00     0.016 C 
ENDBRANCH   7  11
ENDBRANCH   1   7
BRANCH   5  18
HETATM   18  C7  UNL     1       3.354   0.583  -0.669  1.00  0.00     0.174 C 
HETATM   19  S1  UNL     1       4.915   0.684  -0.199  1.00  0.00    -0.041 SA
BRANCH  18  20
HETATM   20  N5  UNL     1       2.842  -0.605  -1.200  1.00  0.00    -0.366 N 
ATOM     21  H5  UNL     1       1.858  -0.620  -1.469  1.00  0.00     0.161 HD
BRANCH  20  22
HETATM   22  C8  UNL     1       3.611  -1.812  -1.393  1.00  0.00     0.133 C 
BRANCH  22  23
HETATM   23  C9  UNL     1       4.074  -2.493  -0.162  1.00  0.00     0.104 C 
HETATM   24 BR1  UNL     1       2.683  -3.072   1.021  1.00  0.00    -0.095 Br
ENDBRANCH  22  23
ENDBRANCH  20  22
ENDBRANCH  18  20
ENDBRANCH   5  18
TORSDOF 6
