REMARK  4 active torsions:
REMARK  status: ('A' for Active; 'I' for Inactive)
REMARK       I    between atoms: C1_4  and  N2_5 
REMARK       I    between atoms: C1_4  and  N4_17 
REMARK    1  A    between atoms: N2_5  and  C2_7 
REMARK    2  A    between atoms: C2_7  and  N3_9 
REMARK    3  A    between atoms: N3_9  and  C3_11 
REMARK    4  A    between atoms: N4_17  and  C8_19 
ROOT
HETATM    1  N1  UNL     1       0.661  -0.518   2.487  1.00  0.00    -0.235 N 
ATOM      2  H11 UNL     1       1.462   0.112   2.532  1.00  0.00     0.174 HD
ATOM      3  H12 UNL     1      -0.115  -0.435   3.143  1.00  0.00     0.174 HD
HETATM    4  C1  UNL     1       0.643  -1.424   1.584  1.00  0.00     0.674 C 
HETATM    5  N2  UNL     1      -0.473  -2.301   1.521  1.00  0.00    -0.167 N 
ATOM      6  H2  UNL     1      -0.456  -3.203   1.997  1.00  0.00     0.186 HD
HETATM    7  N4  UNL     1       1.709  -1.538   0.683  1.00  0.00    -0.222 N 
ATOM      8  H4  UNL     1       1.655  -2.213  -0.079  1.00  0.00     0.178 HD
ENDROOT
BRANCH   5   9
HETATM    9  C2  UNL     1      -1.608  -1.895   0.783  1.00  0.00     0.186 C 
HETATM   10  S1  UNL     1      -2.898  -2.880   0.695  1.00  0.00    -0.040 SA
BRANCH   9  11
HETATM   11  N3  UNL     1      -1.607  -0.643   0.132  1.00  0.00    -0.362 N 
ATOM     12  H3  UNL     1      -0.783  -0.046   0.203  1.00  0.00     0.162 HD
BRANCH  11  13
HETATM   13  C3  UNL     1      -2.748  -0.185  -0.635  1.00  0.00     0.085 C 
HETATM   14  C4  UNL     1      -2.506   1.177  -1.236  1.00  0.00     0.026 C 
HETATM   15  C5  UNL     1      -3.937   1.602  -1.575  1.00  0.00     0.018 C 
HETATM   16  C6  UNL     1      -4.638   1.295  -0.268  1.00  0.00     0.060 C 
HETATM   17 BR1  UNL     1      -6.514   0.944  -0.548  1.00  0.00    -0.091 Br
HETATM   18  C7  UNL     1      -3.916   0.105   0.297  1.00  0.00     0.041 C 
ENDBRANCH  11  13
ENDBRANCH   9  11
ENDBRANCH   5   9
BRANCH   7  19
HETATM   19  C8  UNL     1       2.881  -0.712   0.821  1.00  0.00     0.103 C 
HETATM   20  C9  UNL     1       3.848  -1.088  -0.282  1.00  0.00     0.052 C 
HETATM   21  C10 UNL     1       5.024  -0.192  -0.298  1.00  0.00    -0.029 C 
HETATM   22  C11 UNL     1       4.802   1.110  -0.192  1.00  0.00    -0.030 C 
HETATM   23  C12 UNL     1       3.423   1.590  -0.065  1.00  0.00     0.029 C 
HETATM   24  C13 UNL     1       2.514   0.748   0.767  1.00  0.00     0.029 C 
ENDBRANCH   7  19
TORSDOF 4
