REMARK  2 active torsions:
REMARK  status: ('A' for Active; 'I' for Inactive)
REMARK    1  A    between atoms: C2_2  and  N1_3 
REMARK       I    between atoms: N1_3  and  C3_5 
REMARK       I    between atoms: C3_5  and  N3_9 
REMARK       I    between atoms: N3_9  and  C5_11 
REMARK       I    between atoms: C5_11  and  N5_15 
REMARK    2  A    between atoms: N5_15  and  C6_17 
ROOT
HETATM    1  N1  UNL     1       4.231  -0.178   0.007  1.00  0.00    -0.226 N 
ATOM      2  H1  UNL     1       5.235  -0.058   0.143  1.00  0.00     0.177 HD
HETATM    3  C3  UNL     1       3.340   0.880   0.342  1.00  0.00     0.688 C 
HETATM    4  N2  UNL     1       3.801   2.081   0.365  1.00  0.00    -0.230 N 
ATOM      5  H2  UNL     1       4.785   2.229   0.142  1.00  0.00     0.177 HD
HETATM    6  C4  UNL     1       2.988   3.229   0.692  1.00  0.00     0.165 C 
HETATM    7  N3  UNL     1       1.991   0.587   0.636  1.00  0.00    -0.023 N 
ATOM      8  H3  UNL     1       1.785   0.132   1.525  1.00  0.00     0.203 HD
HETATM    9  C5  UNL     1       0.901   0.884  -0.226  1.00  0.00     0.686 C 
HETATM   10  N4  UNL     1       0.993   0.882  -1.496  1.00  0.00    -0.234 N 
ATOM     11  H41 UNL     1       0.211   1.095  -2.115  1.00  0.00     0.174 HD
ATOM     12  H42 UNL     1       1.891   0.655  -1.923  1.00  0.00     0.174 HD
HETATM   13  N5  UNL     1      -0.347   1.199   0.367  1.00  0.00    -0.221 N 
ATOM     14  H5  UNL     1      -0.628   2.171   0.496  1.00  0.00     0.178 HD
ENDROOT
BRANCH  13  15
HETATM   15  C6  UNL     1      -1.228   0.106   0.792  1.00  0.00     0.103 C 
HETATM   16  C7  UNL     1      -2.475   0.639   1.383  1.00  0.00     0.031 C 
HETATM   17  C8  UNL     1      -3.710  -0.116   1.157  1.00  0.00    -0.006 C 
HETATM   18  C9  UNL     1      -4.556   0.554   0.063  1.00  0.00     0.026 C 
HETATM   19  C14 UNL     1      -3.655  -1.314   0.309  1.00  0.00     0.009 C 
HETATM   20  C10 UNL     1      -3.862  -0.405  -0.910  1.00  0.00     0.023 C 
HETATM   21 BR1  UNL     1      -5.018  -1.100  -2.249  1.00  0.00    -0.085 Br
HETATM   22  C11 UNL     1      -2.489  -0.007  -1.321  1.00  0.00     0.028 C 
HETATM   23  C12 UNL     1      -1.510  -0.749  -0.423  1.00  0.00     0.011 C 
HETATM   24  C13 UNL     1      -2.316  -1.935   0.125  1.00  0.00     0.013 C 
ENDBRANCH  13  15
BRANCH   1  25
HETATM   25  C2  UNL     1       3.724  -1.413  -0.522  1.00  0.00     0.133 C 
HETATM   26  C1  UNL     1       4.830  -2.372  -0.799  1.00  0.00     0.027 C 
ENDBRANCH   1  25
TORSDOF 2
