REMARK  3 active torsions:
REMARK  status: ('A' for Active; 'I' for Inactive)
REMARK       I    between atoms: C2_3  and  N2_4 
REMARK       I    between atoms: N2_4  and  C3_5 
REMARK       I    between atoms: C3_5  and  N3_7 
REMARK    1  A    between atoms: N3_7  and  C4_9 
REMARK    2  A    between atoms: N4_12  and  C7_14 
REMARK    3  A    between atoms: C12_22  and  C13_23 
ROOT
HETATM    1  C1  UNL     1       0.803  -2.225   1.019  1.00  0.00     0.234 C 
HETATM    2  N1  UNL     1       0.570  -1.015   0.700  1.00  0.00    -0.384 NA
HETATM    3  C2  UNL     1       0.216   0.160   0.399  1.00  0.00     0.335 C 
HETATM    4  N2  UNL     1       1.501   0.797   0.150  1.00  0.00    -0.303 NA
HETATM    5  C3  UNL     1       2.694   1.389  -0.082  1.00  0.00     0.397 C 
HETATM    6  O1  UNL     1       3.023   2.576  -0.051  1.00  0.00    -0.230 OA
HETATM    7  N3  UNL     1       3.765   0.404  -0.462  1.00  0.00    -0.327 N 
ATOM      8  H3  UNL     1       3.441  -0.531  -0.709  1.00  0.00     0.165 HD
HETATM    9  N4  UNL     1      -1.034   0.705   0.320  1.00  0.00    -0.333 N 
ATOM     10  H4  UNL     1      -1.142   1.718   0.265  1.00  0.00     0.165 HD
ENDROOT
BRANCH   9  11
HETATM   11  C7  UNL     1      -2.203  -0.142   0.314  1.00  0.00     0.094 C 
HETATM   12  C8  UNL     1      -2.613  -0.734  -1.036  1.00  0.00     0.059 C 
HETATM   13  C9  UNL     1      -4.108  -0.879  -0.895  1.00  0.00     0.193 C 
HETATM   14  N5  UNL     1      -4.369  -1.698   0.286  1.00  0.00    -0.070 N 
HETATM   15  C12 UNL     1      -4.427   0.464  -0.284  1.00  0.00     0.034 C 
HETATM   16  C10 UNL     1      -4.152  -0.846   1.492  1.00  0.00     0.239 C 
ATOM     17  H52 UNL     1      -5.292  -2.132   0.270  1.00  0.00     0.277 HD
ATOM     18  H51 UNL     1      -3.816  -2.555   0.303  1.00  0.00     0.277 HD
HETATM   19  C11 UNL     1      -3.452   0.394   0.867  1.00  0.00     0.041 C 
BRANCH  15  20
HETATM   20  C13 UNL     1      -4.324   1.671  -1.094  1.00  0.00     0.092 C 
HETATM   21 BR1  UNL     1      -4.884   3.155  -0.009  1.00  0.00    -0.096 Br
ENDBRANCH  15  20
ENDBRANCH   9  11
BRANCH   7  22
HETATM   22  C4  UNL     1       5.168   0.607  -0.521  1.00  0.00     0.079 C 
HETATM   23  C5  UNL     1       5.909  -0.687  -0.478  1.00  0.00     0.032 C 
HETATM   24  C6  UNL     1       5.623   1.394   0.730  1.00  0.00     0.032 C 
ENDBRANCH   7  22
TORSDOF 2
