REMARK  4 active torsions:
REMARK  status: ('A' for Active; 'I' for Inactive)
REMARK    1  A    between atoms: C16_17  and  N1_18 
REMARK       I    between atoms: N1_18  and  C17_20 
REMARK       I    between atoms: C17_20  and  N6_30 
REMARK    2  A    between atoms: N2_21  and  C18_23 
REMARK    3  A    between atoms: C18_23  and  C19_24 
REMARK    4  A    between atoms: C19_24  and  N3_25 
ROOT
HETATM    1  C1  UNL     1      -6.090  -2.915   0.026  1.00  0.00     0.097 C 
HETATM    2  C2  UNL     1      -5.558  -1.863  -0.296  1.00  0.00    -0.182 C 
HETATM    3  C3  UNL     1      -4.907  -0.613  -0.701  1.00  0.00     0.062 C 
HETATM    4  C4  UNL     1      -5.845   0.231  -1.504  1.00  0.00     0.043 C 
HETATM    5  C5  UNL     1      -6.055   1.597  -1.024  1.00  0.00    -0.026 C 
HETATM    6  C6  UNL     1      -5.306   2.264  -0.170  1.00  0.00     0.012 C 
HETATM    7  C7  UNL     1      -4.098   1.508   0.361  1.00  0.00     0.126 C 
HETATM    8  F1  UNL     1      -3.820   2.081   1.584  1.00  0.00    -0.238 F 
HETATM    9  C8  UNL     1      -3.063   1.815  -0.614  1.00  0.00     0.049 C 
HETATM   10  C9  UNL     1      -1.777   1.122  -0.667  1.00  0.00     0.014 C 
HETATM   11  C10 UNL     1      -1.109   0.861   0.660  1.00  0.00     0.038 C 
HETATM   12  C11 UNL     1      -1.469  -0.534   1.011  1.00  0.00    -0.075 C 
HETATM   13  C12 UNL     1      -2.582  -1.116   1.392  1.00  0.00    -0.023 C 
HETATM   14  C13 UNL     1      -3.940  -0.684   1.639  1.00  0.00     0.037 C 
HETATM   15  C14 UNL     1      -4.594   0.140   0.578  1.00  0.00     0.048 C 
HETATM   16  C15 UNL     1      -0.087  -0.941   0.741  1.00  0.00     0.060 C 
HETATM   17  C16 UNL     1       0.318   0.494   0.680  1.00  0.00     0.111 C 
ENDROOT
BRANCH  17  18
HETATM   18  N1  UNL     1       1.170   0.884  -0.387  1.00  0.00    -0.221 N 
HETATM   19  C17 UNL     1       2.565   0.493  -0.314  1.00  0.00     0.673 C 
HETATM   20  N2  UNL     1       2.931  -0.556  -0.874  1.00  0.00    -0.204 N 
HETATM   21  N6  UNL     1       3.463   1.332   0.401  1.00  0.00    -0.231 N 
ATOM     22  H2  UNL     1       2.150  -1.023  -1.335  1.00  0.00     0.183 HD
HETATM   23  C21 UNL     1       3.418   1.315   1.857  1.00  0.00     0.165 C 
ATOM     24  H6  UNL     1       4.123   1.932  -0.094  1.00  0.00     0.177 HD
ATOM     25  H1  UNL     1       0.813   1.421  -1.178  1.00  0.00     0.178 HD
BRANCH  20  26
HETATM   26  C18 UNL     1       4.120  -1.267  -1.043  1.00  0.00     0.098 C 
BRANCH  26  27
HETATM   27  C19 UNL     1       5.223  -1.025  -0.056  1.00  0.00     0.167 C 
BRANCH  27  28
HETATM   28  N3  UNL     1       6.366  -1.871  -0.387  1.00  0.00    -0.362 N 
HETATM   29  C20 UNL     1       7.543  -1.403  -0.588  1.00  0.00     0.197 C 
HETATM   30  N4  UNL     1       8.568  -2.338  -0.904  1.00  0.00    -0.067 NA
HETATM   31  N5  UNL     1       7.881  -0.029  -0.516  1.00  0.00    -0.067 NA
ATOM     32  H3  UNL     1       6.222  -2.878  -0.462  1.00  0.00     0.162 HD
ENDBRANCH  27  28
ENDBRANCH  26  27
ENDBRANCH  20  26
ENDBRANCH  17  18
TORSDOF 4
