REMARK  5 active torsions:
REMARK  status: ('A' for Active; 'I' for Inactive)
REMARK    1  A    between atoms: C1_2  and  C2_4 
REMARK    2  A    between atoms: C2_4  and  N2_5 
REMARK    3  A    between atoms: C2_4  and  C10_21 
REMARK       I    between atoms: N2_5  and  C3_7 
REMARK       I    between atoms: N4_9  and  C4_11 
REMARK       I    between atoms: C4_11  and  N5_13 
REMARK    4  A    between atoms: N5_13  and  N6_15 
REMARK    5  A    between atoms: N6_15  and  C5_16 
ROOT
HETATM    1  N2  UNL     1      -1.500   1.023   1.128  1.00  0.00    -0.351 N 
ATOM      2  H2  UNL     1      -1.453   1.219   2.128  1.00  0.00     0.163 HD
HETATM    3  C3  UNL     1      -0.543   0.130   0.580  1.00  0.00     0.192 C 
HETATM    4  N3  UNL     1      -0.771  -0.529  -0.654  1.00  0.00    -0.063 NA
HETATM    5  N4  UNL     1       0.573  -0.119   1.178  1.00  0.00    -0.282 N 
ATOM      6  H4  UNL     1       0.754   0.348   2.067  1.00  0.00     0.173 HD
HETATM    7  C4  UNL     1       1.554  -0.993   0.681  1.00  0.00     0.338 C 
HETATM    8  O2  UNL     1       1.206  -2.138   0.271  1.00  0.00    -0.246 OA
HETATM    9  N5  UNL     1       2.938  -0.665   0.609  1.00  0.00    -0.255 N 
ATOM     10  H5  UNL     1       3.241   0.253   0.934  1.00  0.00     0.187 HD
ENDROOT
BRANCH   1  11
HETATM   11  C2  UNL     1      -2.534   1.670   0.361  1.00  0.00     0.177 C 
BRANCH  11  12
HETATM   12  C1  UNL     1      -2.024   2.505  -0.733  1.00  0.00     0.254 C 
HETATM   13  N1  UNL     1      -2.992   3.183  -1.548  1.00  0.00    -0.060 NA
HETATM   14  O1  UNL     1      -0.835   2.685  -1.028  1.00  0.00    -0.275 OA
ENDBRANCH  11  12
BRANCH  11  15
HETATM   15  C10 UNL     1      -3.621   0.707  -0.029  1.00  0.00     0.018 C 
HETATM   16  C11 UNL     1      -4.846   1.373  -0.579  1.00  0.00     0.007 C 
HETATM   17  C12 UNL     1      -6.117   0.610  -0.175  1.00  0.00     0.002 C 
HETATM   18  C13 UNL     1      -5.780  -0.861  -0.284  1.00  0.00     0.016 C 
HETATM   19  C14 UNL     1      -4.938  -1.202   0.940  1.00  0.00     0.058 C 
HETATM   20 BR1  UNL     1      -4.084  -2.911   0.780  1.00  0.00    -0.091 Br
HETATM   21  C15 UNL     1      -3.955  -0.102   1.228  1.00  0.00     0.022 C 
ENDBRANCH  11  15
ENDBRANCH   1  11
BRANCH   9  22
HETATM   22  N6  UNL     1       3.895  -1.549   0.112  1.00  0.00    -0.132 NA
BRANCH  22  23
HETATM   23  C5  UNL     1       5.203  -1.225   0.652  1.00  0.00     0.099 C 
HETATM   24  C6  UNL     1       6.268  -2.160   0.131  1.00  0.00     0.023 C 
HETATM   25  C7  UNL     1       7.549  -1.414   0.434  1.00  0.00     0.002 C 
HETATM   26  C8  UNL     1       7.177   0.043   0.524  1.00  0.00     0.002 C 
HETATM   27  C9  UNL     1       5.701   0.126   0.192  1.00  0.00     0.023 C 
ENDBRANCH  22  23
ENDBRANCH   9  22
TORSDOF 5
