REMARK  6 active torsions:
REMARK  status: ('A' for Active; 'I' for Inactive)
REMARK       I    between atoms: N3_4  and  C2_6 
REMARK    1  A    between atoms: N5_8  and  C3_10 
REMARK    2  A    between atoms: C3_10  and  N6_12 
REMARK    3  A    between atoms: N6_12  and  C4_14 
REMARK    4  A    between atoms: C4_14  and  C5_15 
REMARK       I    between atoms: C5_15  and  N7_17 
REMARK    5  A    between atoms: N7_17  and  C6_19 
REMARK    6  A    between atoms: C6_19  and  C7_20 
ROOT
HETATM    1  C4  UNL     1      -0.544   0.131  -0.518  1.00  0.00     0.113 C 
HETATM    2  C13 UNL     1      -1.094   1.314  -1.290  1.00  0.00     0.041 C 
HETATM    3  C14 UNL     1      -2.153   0.881  -2.277  1.00  0.00     0.003 C 
HETATM    4  C15 UNL     1      -1.575  -0.058  -3.317  1.00  0.00     0.000 C 
HETATM    5  C16 UNL     1      -0.144  -0.394  -2.952  1.00  0.00     0.003 C 
HETATM    6  C17 UNL     1      -0.074  -0.918  -1.549  1.00  0.00     0.041 C 
ENDROOT
BRANCH   1   7
HETATM    7  N6  UNL     1      -1.528  -0.523   0.303  1.00  0.00    -0.349 N 
ATOM      8  H6  UNL     1      -1.765  -1.481   0.045  1.00  0.00     0.163 HD
BRANCH   7   9
HETATM    9  C3  UNL     1      -2.199   0.003   1.417  1.00  0.00     0.175 C 
HETATM   10  S1  UNL     1      -1.928   1.514   1.927  1.00  0.00    -0.041 SA
BRANCH   9  11
HETATM   11  N5  UNL     1      -3.141  -0.783   2.119  1.00  0.00    -0.307 N 
HETATM   12  C2  UNL     1      -4.329  -1.029   1.733  1.00  0.00     0.196 C 
HETATM   13  N3  UNL     1      -4.896  -0.539   0.513  1.00  0.00    -0.307 N 
HETATM   14  N4  UNL     1      -5.168  -1.836   2.540  1.00  0.00    -0.063 NA
HETATM   15  C1  UNL     1      -6.091  -0.073   0.448  1.00  0.00     0.203 C 
ATOM     16  H3  UNL     1      -4.330  -0.561  -0.335  1.00  0.00     0.170 HD
HETATM   17  N1  UNL     1      -6.979   0.013   1.546  1.00  0.00    -0.066 NA
HETATM   18  N2  UNL     1      -6.534   0.384  -0.831  1.00  0.00    -0.066 NA
ATOM     19  H5  UNL     1      -2.845  -1.186   3.008  1.00  0.00     0.171 HD
ENDBRANCH   9  11
ENDBRANCH   7   9
ENDBRANCH   1   7
BRANCH   1  20
HETATM   20  C5  UNL     1       0.699   0.496   0.204  1.00  0.00     0.246 C 
HETATM   21  O1  UNL     1       0.783   0.163   1.412  1.00  0.00    -0.271 OA
HETATM   22  N7  UNL     1       1.774   1.180  -0.368  1.00  0.00    -0.359 N 
ATOM     23  H7  UNL     1       1.695   1.446  -1.350  1.00  0.00     0.162 HD
BRANCH  22  24
HETATM   24  C6  UNL     1       2.988   1.539   0.326  1.00  0.00     0.127 C 
BRANCH  24  25
HETATM   25  C7  UNL     1       3.742   0.360   0.858  1.00  0.00     0.003 C 
HETATM   26  C8  UNL     1       4.143  -0.579  -0.272  1.00  0.00     0.006 C 
HETATM   27  C9  UNL     1       4.703  -1.833   0.380  1.00  0.00     0.000 C 
HETATM   28  C10 UNL     1       6.034  -1.450   0.998  1.00  0.00     0.000 C 
HETATM   29  C11 UNL     1       5.728  -0.418   2.073  1.00  0.00     0.000 C 
HETATM   30  C12 UNL     1       5.068   0.807   1.489  1.00  0.00     0.006 C 
ENDBRANCH  24  25
ENDBRANCH  22  24
ENDBRANCH   1  20
TORSDOF 6
