REMARK  7 active torsions:
REMARK  status: ('A' for Active; 'I' for Inactive)
REMARK    1  A    between atoms: C6_10  and  N3_11 
REMARK       I    between atoms: N3_11  and  C7_13 
REMARK       I    between atoms: C7_13  and  N6_24 
REMARK    2  A    between atoms: N4_14  and  C8_16 
REMARK    3  A    between atoms: C8_16  and  C10_18 
REMARK    4  A    between atoms: C10_18  and  C11_19 
REMARK    5  A    between atoms: C11_19  and  N5_20 
REMARK    6  A    between atoms: N6_24  and  C12_26 
REMARK    7  A    between atoms: N7_29  and  C15_30 
ROOT
HETATM    1  C1  UNL     1      -2.737   2.087  -2.361  1.00  0.00     0.018 C 
HETATM    2  C2  UNL     1      -2.638   2.244  -1.188  1.00  0.00    -0.072 C 
HETATM    3  C3  UNL     1      -2.544   2.429   0.231  1.00  0.00     0.086 A 
HETATM    4  C4  UNL     1      -3.187   3.441   0.922  1.00  0.00     0.044 A 
HETATM    5  C5  UNL     1      -4.059   4.487   0.329  1.00  0.00     0.071 C 
HETATM    6  N1  UNL     1      -2.881   3.305   2.219  1.00  0.00    -0.302 N 
ATOM      7  H1  UNL     1      -3.206   3.904   2.978  1.00  0.00     0.186 HD
HETATM    8  N2  UNL     1      -2.087   2.263   2.343  1.00  0.00    -0.284 N 
ATOM      9  H2  UNL     1      -1.703   1.936   3.230  1.00  0.00     0.188 HD
HETATM   10  C6  UNL     1      -1.846   1.686   1.158  1.00  0.00     0.156 A 
ENDROOT
BRANCH  10  11
HETATM   11  N3  UNL     1      -1.120   0.677   0.971  1.00  0.00    -0.174 N 
HETATM   12  C7  UNL     1      -0.781  -0.014  -0.182  1.00  0.00     0.676 C 
HETATM   13  N4  UNL     1      -1.474  -1.038  -0.527  1.00  0.00    -0.222 N 
HETATM   14  N6  UNL     1       0.334   0.361  -1.016  1.00  0.00    -0.222 N 
ATOM     15  H4  UNL     1      -1.222  -1.546  -1.375  1.00  0.00     0.178 HD
ATOM     16  H6  UNL     1       0.187   0.435  -2.023  1.00  0.00     0.178 HD
ATOM     17  H3  UNL     1      -0.705   0.298   1.822  1.00  0.00     0.186 HD
BRANCH  13  18
HETATM   18  C8  UNL     1      -2.587  -1.484   0.245  1.00  0.00     0.096 C 
HETATM   19  C9  UNL     1      -2.150  -2.337   1.440  1.00  0.00     0.032 C 
BRANCH  18  20
HETATM   20  C10 UNL     1      -3.514  -2.364  -0.571  1.00  0.00     0.052 C 
BRANCH  20  21
HETATM   21  C11 UNL     1      -4.647  -2.773   0.347  1.00  0.00     0.231 C 
BRANCH  21  22
HETATM   22  N5  UNL     1      -5.583  -3.628  -0.381  1.00  0.00    -0.079 N 
ATOM     23  H53 UNL     1      -5.921  -3.188  -1.237  1.00  0.00     0.274 HD
ATOM     24  H52 UNL     1      -5.120  -4.433  -0.803  1.00  0.00     0.274 HD
ATOM     25  H51 UNL     1      -6.346  -3.903   0.237  1.00  0.00     0.274 HD
ENDBRANCH  21  22
ENDBRANCH  20  21
ENDBRANCH  18  20
ENDBRANCH  13  18
BRANCH  14  26
HETATM   26  C12 UNL     1       1.637   0.634  -0.492  1.00  0.00     0.102 C 
HETATM   27  C13 UNL     1       2.571   0.994  -1.596  1.00  0.00     0.045 C 
HETATM   28  C14 UNL     1       3.532  -0.086  -1.969  1.00  0.00     0.126 C 
HETATM   29  N7  UNL     1       4.241  -0.604  -0.833  1.00  0.00    -0.367 N 
HETATM   30  C17 UNL     1       3.664  -0.465   0.483  1.00  0.00     0.083 C 
HETATM   31  C18 UNL     1       4.108   0.814   1.139  1.00  0.00     0.032 C 
HETATM   32  C19 UNL     1       2.161  -0.535   0.346  1.00  0.00     0.050 C 
BRANCH  29  33
HETATM   33  C15 UNL     1       5.490  -1.244  -1.000  1.00  0.00     0.069 C 
HETATM   34  C16 UNL     1       6.589  -1.075  -0.011  1.00  0.00     0.088 C 
HETATM   35  N8  UNL     1       5.643  -1.983  -2.045  1.00  0.00    -0.389 N 
ATOM     36  H82 UNL     1       4.890  -2.099  -2.723  1.00  0.00     0.157 HD
ATOM     37  H81 UNL     1       6.544  -2.445  -2.166  1.00  0.00     0.157 HD
ENDBRANCH  29  33
ENDBRANCH  14  26
ENDBRANCH  10  11
TORSDOF 7
