REMARK  5 active torsions:
REMARK  status: ('A' for Active; 'I' for Inactive)
REMARK    1  A    between atoms: C7_8  and  N1_9 
REMARK       I    between atoms: N1_9  and  C8_11 
REMARK    2  A    between atoms: C8_11  and  C9_13 
REMARK    3  A    between atoms: C9_13  and  C10_14 
REMARK    4  A    between atoms: C14_18  and  C15_19 
REMARK    5  A    between atoms: C15_19  and  N2_20 
REMARK       I    between atoms: N2_20  and  C16_22 
REMARK       I    between atoms: N4_24  and  C17_26 
ROOT
HETATM    1  C1  UNL     1      -2.292   5.208   0.801  1.00  0.00     0.015 C 
HETATM    2  C2  UNL     1      -1.577   4.138   1.080  1.00  0.00    -0.078 C 
HETATM    3  C3  UNL     1      -0.228   3.719   0.534  1.00  0.00     0.018 C 
HETATM    4  C4  UNL     1       0.474   3.472   1.850  1.00  0.00     0.053 C 
HETATM    5  C5  UNL     1      -0.519   2.659   2.606  1.00  0.00     0.113 C 
HETATM    6  F1  UNL     1      -0.536   3.079   3.932  1.00  0.00    -0.242 F 
HETATM    7  C6  UNL     1      -0.271   1.188   2.623  1.00  0.00     0.070 C 
HETATM    8  C7  UNL     1      -0.275   0.553   1.242  1.00  0.00     0.101 C 
HETATM    9  C14 UNL     1      -1.115   1.353   0.325  1.00  0.00     0.014 C 
HETATM   10  C18 UNL     1      -0.394   2.511  -0.317  1.00  0.00     0.026 C 
HETATM   11  C19 UNL     1      -2.303   1.864   1.168  1.00  0.00     0.029 C 
HETATM   12  C20 UNL     1      -1.876   3.012   2.017  1.00  0.00     0.055 C 
ENDROOT
BRANCH   9  13
HETATM   13  C15 UNL     1      -1.797   0.577  -0.764  1.00  0.00     0.075 C 
BRANCH  13  14
HETATM   14  N2  UNL     1      -0.981  -0.122  -1.677  1.00  0.00    -0.343 N 
HETATM   15  C16 UNL     1      -1.603  -0.923  -2.660  1.00  0.00     0.194 C 
HETATM   16  N3  UNL     1      -1.210  -0.796  -4.011  1.00  0.00    -0.063 NA
HETATM   17  N4  UNL     1      -2.503  -1.745  -2.332  1.00  0.00    -0.305 N 
HETATM   18  C17 UNL     1      -3.241  -2.623  -3.126  1.00  0.00     0.188 C 
ATOM     19  H4  UNL     1      -2.724  -1.771  -1.337  1.00  0.00     0.171 HD
HETATM   20  N5  UNL     1      -3.165  -3.892  -2.795  1.00  0.00    -0.373 N 
HETATM   21  N6  UNL     1      -4.045  -2.292  -4.227  1.00  0.00    -0.064 NA
ATOM     22  H52 UNL     1      -2.580  -4.133  -1.995  1.00  0.00     0.158 HD
ATOM     23  H51 UNL     1      -3.705  -4.534  -3.376  1.00  0.00     0.158 HD
ATOM     24  H2  UNL     1       0.035  -0.051  -1.629  1.00  0.00     0.167 HD
ENDBRANCH  13  14
ENDBRANCH   9  13
BRANCH   8  25
HETATM   25  N1  UNL     1       1.064   0.273   0.871  1.00  0.00    -0.355 N 
HETATM   26  C8  UNL     1       1.651  -1.022   0.831  1.00  0.00     0.218 C 
HETATM   27  O1  UNL     1       0.871  -1.979   1.168  1.00  0.00    -0.274 OA
ATOM     28  H1  UNL     1       1.654   1.064   0.612  1.00  0.00     0.162 HD
BRANCH  26  29
HETATM   29  C9  UNL     1       3.030  -1.306   0.446  1.00  0.00     0.111 C 
BRANCH  29  30
HETATM   30  C10 UNL     1       3.394  -2.766   0.550  1.00  0.00    -0.043 C 
HETATM   31  C11 UNL     1       4.842  -2.874   0.109  1.00  0.00     0.015 C 
HETATM   32  C12 UNL     1       2.557  -3.677  -0.273  1.00  0.00     0.015 C 
HETATM   33  C13 UNL     1       3.328  -3.244   1.994  1.00  0.00     0.015 C 
ENDBRANCH  29  30
ENDBRANCH  26  29
ENDBRANCH   8  25
TORSDOF 5
