REMARK  7 active torsions:
REMARK  status: ('A' for Active; 'I' for Inactive)
REMARK    1  A    between atoms: C2_2  and  N1_3 
REMARK    2  A    between atoms: C2_2  and  C16_22 
REMARK    3  A    between atoms: N1_3  and  C3_5 
REMARK    4  A    between atoms: C3_5  and  N2_7 
REMARK    5  A    between atoms: N2_7  and  C4_9 
REMARK    6  A    between atoms: C4_9  and  C5_10 
REMARK    7  A    between atoms: C11_16  and  C12_17 
ROOT
HETATM    1  N2  UNL     1       1.075   0.151  -0.221  1.00  0.00    -0.366 N 
ATOM      2  H2  UNL     1       0.722   0.617  -1.057  1.00  0.00     0.161 HD
ENDROOT
BRANCH   1   3
HETATM    3  C3  UNL     1       2.470   0.133   0.067  1.00  0.00     0.168 C 
HETATM    4  S1  UNL     1       3.044  -0.603   1.425  1.00  0.00    -0.041 SA
BRANCH   3   5
HETATM    5  N1  UNL     1       3.410   0.754  -0.783  1.00  0.00    -0.357 N 
ATOM      6  H1  UNL     1       3.051   1.224  -1.614  1.00  0.00     0.162 HD
BRANCH   5   7
HETATM    7  C2  UNL     1       4.821   0.778  -0.576  1.00  0.00     0.144 C 
HETATM    8  C1  UNL     1       5.196   1.305   0.799  1.00  0.00     0.040 C 
BRANCH   7   9
HETATM    9  C16 UNL     1       5.505  -0.513  -0.775  1.00  0.00     0.109 C 
HETATM   10  N3  UNL     1       4.820  -1.549  -1.087  1.00  0.00    -0.389 N 
ATOM     11  H32 UNL     1       3.807  -1.496  -1.191  1.00  0.00     0.157 HD
ATOM     12  H31 UNL     1       5.293  -2.442  -1.225  1.00  0.00     0.157 HD
HETATM   13  N4  UNL     1       6.912  -0.586  -0.631  1.00  0.00    -0.086 NA
ENDBRANCH   7   9
ENDBRANCH   5   7
ENDBRANCH   3   5
ENDBRANCH   1   3
BRANCH   1  14
HETATM   14  C4  UNL     1       0.182  -0.497   0.685  1.00  0.00     0.131 C 
BRANCH  14  15
HETATM   15  C5  UNL     1      -1.255  -0.420   0.288  1.00  0.00    -0.023 C 
HETATM   16  C6  UNL     1      -2.058  -1.159   1.360  1.00  0.00     0.015 C 
HETATM   17  C7  UNL     1      -3.525  -1.159   1.050  1.00  0.00    -0.013 C 
HETATM   18  C8  UNL     1      -3.748  -1.877  -0.257  1.00  0.00     0.009 C 
HETATM   19  C13 UNL     1      -3.988   0.279   1.001  1.00  0.00     0.015 C 
HETATM   20  C9  UNL     1      -2.969  -1.137  -1.333  1.00  0.00    -0.013 C 
HETATM   21  C10 UNL     1      -3.536   0.263  -1.396  1.00  0.00     0.015 C 
HETATM   22  C15 UNL     1      -1.497  -1.140  -1.023  1.00  0.00     0.015 C 
HETATM   23  C11 UNL     1      -3.227   0.979  -0.099  1.00  0.00    -0.030 C 
HETATM   24  C14 UNL     1      -1.744   0.992   0.135  1.00  0.00     0.021 C 
BRANCH  23  25
HETATM   25  C12 UNL     1      -3.795   2.376  -0.218  1.00  0.00     0.094 C 
HETATM   26 BR1  UNL     1      -3.033   3.356  -1.679  1.00  0.00    -0.096 Br
ENDBRANCH  23  25
ENDBRANCH  14  15
ENDBRANCH   1  14
TORSDOF 7
