REMARK  3 active torsions:
REMARK  status: ('A' for Active; 'I' for Inactive)
REMARK       I    between atoms: C1_4  and  N3_6 
REMARK    1  A    between atoms: N3_6  and  C2_8 
REMARK    2  A    between atoms: C10_16  and  C11_17 
REMARK       I    between atoms: C11_17  and  N4_19 
REMARK    3  A    between atoms: N4_19  and  C12_21 
ROOT
HETATM    1  C2  UNL     1      -1.776  -0.265   0.137  1.00  0.00     0.045 C 
HETATM    2  C3  UNL     1      -1.774  -1.731   0.549  1.00  0.00     0.036 C 
HETATM    3  C4  UNL     1      -2.421  -2.564  -0.504  1.00  0.00    -0.012 C 
HETATM    4  C5  UNL     1      -3.833  -2.127  -0.797  1.00  0.00     0.009 C 
HETATM    5  C6  UNL     1      -3.784  -0.701  -1.278  1.00  0.00    -0.012 C 
HETATM    6  C7  UNL     1      -2.930  -0.525  -2.519  1.00  0.00     0.010 C 
HETATM    7  C8  UNL     1      -1.537  -0.991  -2.188  1.00  0.00     0.002 C 
HETATM    8  C9  UNL     1      -1.627  -2.420  -1.788  1.00  0.00     0.010 C 
HETATM    9  C10 UNL     1      -0.973  -0.069  -1.117  1.00  0.00     0.110 C 
HETATM   10  C19 UNL     1      -3.223   0.112  -0.144  1.00  0.00     0.036 C 
ENDROOT
BRANCH   9  11
HETATM   11  C11 UNL     1       0.467  -0.270  -1.007  1.00  0.00     0.225 C 
HETATM   12  O1  UNL     1       0.939  -1.249  -1.716  1.00  0.00    -0.273 OA
HETATM   13  N4  UNL     1       1.433   0.411  -0.267  1.00  0.00    -0.356 N 
ATOM     14  H4  UNL     1       1.144   1.197   0.316  1.00  0.00     0.162 HD
BRANCH  13  15
HETATM   15  C12 UNL     1       2.859   0.033  -0.299  1.00  0.00     0.088 C 
HETATM   16  C13 UNL     1       3.676   1.262  -0.630  1.00  0.00     0.030 C 
HETATM   17  C14 UNL     1       4.704   1.379   0.497  1.00  0.00    -0.012 C 
HETATM   18  C15 UNL     1       4.048   1.807   1.774  1.00  0.00     0.005 C 
HETATM   19  C18 UNL     1       4.905  -0.122   0.782  1.00  0.00     0.011 C 
HETATM   20  C16 UNL     1       3.130   0.614   2.064  1.00  0.00     0.007 C 
HETATM   21  C17 UNL     1       3.399  -0.401   1.012  1.00  0.00     0.009 C 
ENDBRANCH  13  15
ENDBRANCH   9  11
BRANCH   1  22
HETATM   22  N3  UNL     1      -1.360   0.521   1.265  1.00  0.00    -0.355 N 
HETATM   23  C1  UNL     1      -1.561   1.928   1.350  1.00  0.00     0.182 C 
HETATM   24  N1  UNL     1      -1.443   2.736   0.357  1.00  0.00    -0.374 N 
HETATM   25  N2  UNL     1      -1.922   2.533   2.615  1.00  0.00    -0.064 NA
ATOM     26  H12 UNL     1      -1.587   3.744   0.418  1.00  0.00     0.158 HD
ATOM     27  H11 UNL     1      -1.189   2.310  -0.534  1.00  0.00     0.158 HD
ATOM     28  H3  UNL     1      -0.899   0.049   2.042  1.00  0.00     0.163 HD
ENDBRANCH   1  22
TORSDOF 3
