REMARK  4 active torsions:
REMARK  status: ('A' for Active; 'I' for Inactive)
REMARK    1  A    between atoms: C2_2  and  N1_5 
REMARK       I    between atoms: N1_5  and  C5_7 
REMARK       I    between atoms: C5_7  and  N2_9 
REMARK    2  A    between atoms: C8_12  and  C9_13 
REMARK    3  A    between atoms: C9_13  and  N3_14 
REMARK       I    between atoms: N3_14  and  C10_16 
REMARK       I    between atoms: C10_16  and  N5_20 
REMARK    4  A    between atoms: N5_20  and  C11_22 
ROOT
HETATM    1  C9  UNL     1      -0.293   1.906  -1.348  1.00  0.00     0.144 C 
ENDROOT
BRANCH   1   2
HETATM    2  C8  UNL     1       0.378   1.607  -0.030  1.00  0.00     0.024 C 
HETATM    3  C7  UNL     1       1.083   2.833   0.521  1.00  0.00     0.028 C 
HETATM    4  C6  UNL     1       2.413   2.732  -0.194  1.00  0.00     0.128 C 
HETATM    5  N2  UNL     1       2.716   1.325  -0.057  1.00  0.00    -0.334 N 
HETATM    6  C5  UNL     1       3.963   0.713   0.280  1.00  0.00     0.318 C 
HETATM    7  C17 UNL     1       1.490   0.613  -0.331  1.00  0.00     0.134 C 
HETATM    8  N1  UNL     1       4.066  -0.693   0.361  1.00  0.00    -0.335 N 
HETATM    9  O1  UNL     1       4.934   1.488   0.492  1.00  0.00    -0.247 OA
ATOM     10  H1  UNL     1       3.231  -1.249   0.175  1.00  0.00     0.165 HD
BRANCH   8  11
HETATM   11  C2  UNL     1       5.275  -1.381   0.689  1.00  0.00     0.023 C 
HETATM   12  C1  UNL     1       5.044  -2.887   0.694  1.00  0.00     0.037 C 
HETATM   13  C3  UNL     1       6.274  -1.136  -0.446  1.00  0.00     0.037 C 
HETATM   14  C4  UNL     1       5.901  -0.920   1.998  1.00  0.00     0.037 C 
ENDBRANCH   8  11
ENDBRANCH   1   2
BRANCH   1  15
HETATM   15  N3  UNL     1      -0.951   0.709  -1.812  1.00  0.00    -0.226 N 
HETATM   16  C10 UNL     1      -2.110   0.268  -1.072  1.00  0.00     0.667 C 
HETATM   17  N4  UNL     1      -1.968  -0.585  -0.148  1.00  0.00    -0.235 N 
HETATM   18  N5  UNL     1      -3.338   0.833  -1.453  1.00  0.00    -0.222 N 
ATOM     19  H42 UNL     1      -1.076  -0.995   0.129  1.00  0.00     0.174 HD
ATOM     20  H41 UNL     1      -2.787  -0.896   0.375  1.00  0.00     0.174 HD
ATOM     21  H5  UNL     1      -3.335   1.646  -2.069  1.00  0.00     0.178 HD
ATOM     22  H3  UNL     1      -0.613   0.197  -2.627  1.00  0.00     0.177 HD
BRANCH  18  23
HETATM   23  C11 UNL     1      -4.595   0.309  -1.008  1.00  0.00     0.099 C 
HETATM   24  C12 UNL     1      -4.700   0.449   0.495  1.00  0.00     0.026 C 
HETATM   25  C13 UNL     1      -6.181   0.191   0.795  1.00  0.00     0.002 C 
HETATM   26  C14 UNL     1      -6.396  -1.278   0.522  1.00  0.00     0.000 C 
HETATM   27  C15 UNL     1      -6.031  -1.728  -0.847  1.00  0.00     0.002 C 
HETATM   28  C16 UNL     1      -4.763  -1.115  -1.405  1.00  0.00     0.026 C 
ENDBRANCH  18  23
ENDBRANCH   1  15
TORSDOF 4
