REMARK  4 active torsions:
REMARK  status: ('A' for Active; 'I' for Inactive)
REMARK    1  A    between atoms: C2_2  and  C5_5 
REMARK    2  A    between atoms: C5_5  and  C6_6 
REMARK    3  A    between atoms: C6_6  and  N1_7 
REMARK       I    between atoms: N1_7  and  C7_9 
REMARK       I    between atoms: C7_9  and  N2_11 
REMARK       I    between atoms: C8_13  and  N4_15 
REMARK    4  A    between atoms: N4_15  and  C9_17 
ROOT
HETATM    1  N1  UNL     1       2.420  -0.173  -0.977  1.00  0.00    -0.343 N 
ATOM      2  H1  UNL     1       1.976  -0.958  -1.454  1.00  0.00     0.164 HD
HETATM    3  C7  UNL     1       1.615   0.598  -0.099  1.00  0.00     0.322 C 
HETATM    4  O1  UNL     1       2.117   1.571   0.504  1.00  0.00    -0.247 OA
HETATM    5  N2  UNL     1       0.237   0.291   0.116  1.00  0.00    -0.283 N 
ATOM      6  H2  UNL     1      -0.461   1.010  -0.074  1.00  0.00     0.173 HD
HETATM    7  C8  UNL     1      -0.158  -0.855   0.539  1.00  0.00     0.193 C 
HETATM    8  N3  UNL     1       0.812  -1.857   0.803  1.00  0.00    -0.063 NA
HETATM    9  N4  UNL     1      -1.538  -1.108   0.736  1.00  0.00    -0.343 N 
ATOM     10  H4  UNL     1      -1.850  -2.059   0.935  1.00  0.00     0.164 HD
ENDROOT
BRANCH   9  11
HETATM   11  C9  UNL     1      -2.515  -0.038   0.660  1.00  0.00     0.181 C 
HETATM   12  C10 UNL     1      -2.500   0.603  -0.667  1.00  0.00     0.051 C 
HETATM   13  C11 UNL     1      -3.834   0.848  -1.299  1.00  0.00    -0.010 C 
HETATM   14  C12 UNL     1      -4.717   1.742  -0.491  1.00  0.00     0.011 C 
HETATM   15  C16 UNL     1      -4.514  -0.428  -1.743  1.00  0.00     0.011 C 
HETATM   16  C13 UNL     1      -5.525   1.051   0.553  1.00  0.00     0.004 C 
HETATM   17  C14 UNL     1      -6.292  -0.077  -0.089  1.00  0.00     0.012 C 
HETATM   18  C18 UNL     1      -4.660   0.452   1.636  1.00  0.00     0.123 C 
HETATM   19  C15 UNL     1      -5.320  -1.065  -0.650  1.00  0.00     0.004 C 
HETATM   20  C17 UNL     1      -4.349  -1.583   0.390  1.00  0.00     0.123 C 
HETATM   21  N5  UNL     1      -3.768  -0.522   1.123  1.00  0.00    -0.392 N 
ENDBRANCH   9  11
BRANCH   1  22
HETATM   22  C6  UNL     1       3.807   0.064  -1.247  1.00  0.00     0.125 C 
BRANCH  22  23
HETATM   23  C5  UNL     1       4.658  -0.036  -0.023  1.00  0.00     0.028 C 
BRANCH  23  24
HETATM   24  C2  UNL     1       6.121   0.219  -0.366  1.00  0.00    -0.050 C 
HETATM   25  C1  UNL     1       6.268   1.589  -0.947  1.00  0.00     0.014 C 
HETATM   26  C3  UNL     1       6.891   0.170   0.947  1.00  0.00     0.014 C 
HETATM   27  C4  UNL     1       6.656  -0.791  -1.345  1.00  0.00     0.014 C 
ENDBRANCH  23  24
ENDBRANCH  22  23
ENDBRANCH   1  22
TORSDOF 4
