REMARK  6 active torsions:
REMARK  status: ('A' for Active; 'I' for Inactive)
REMARK    1  A    between atoms: C2_2  and  C5_5 
REMARK       I    between atoms: C5_5  and  N1_7 
REMARK    2  A    between atoms: N1_7  and  C6_9 
REMARK    3  A    between atoms: C6_9  and  C7_10 
REMARK    4  A    between atoms: C7_10  and  C8_11 
REMARK       I    between atoms: C8_11  and  N2_13 
REMARK    5  A    between atoms: N2_13  and  N3_15 
REMARK       I    between atoms: N3_15  and  C9_17 
REMARK       I    between atoms: C9_17  and  N4_19 
REMARK    6  A    between atoms: N4_19  and  C10_21 
ROOT
HETATM    1  C8  UNL     1      -0.263   0.034   1.059  1.00  0.00     0.237 C 
HETATM    2  O2  UNL     1      -0.742  -1.054   0.676  1.00  0.00    -0.272 OA
HETATM    3  N2  UNL     1      -0.998   0.923   1.901  1.00  0.00    -0.266 N 
ATOM      4  H2  UNL     1      -0.621   1.814   2.226  1.00  0.00     0.190 HD
ENDROOT
BRANCH   3   5
HETATM    5  N3  UNL     1      -2.290   0.467   2.247  1.00  0.00    -0.249 N 
HETATM    6  C9  UNL     1      -3.256   0.364   1.219  1.00  0.00     0.339 C 
HETATM    7  O3  UNL     1      -2.928   0.685   0.046  1.00  0.00    -0.245 OA
HETATM    8  N4  UNL     1      -4.552  -0.094   1.519  1.00  0.00    -0.308 N 
ATOM      9  H4  UNL     1      -4.747  -0.343   2.489  1.00  0.00     0.170 HD
ATOM     10  H3  UNL     1      -2.519   0.219   3.210  1.00  0.00     0.192 HD
BRANCH   8  11
HETATM   11  C10 UNL     1      -5.611  -0.239   0.585  1.00  0.00     0.036 A 
HETATM   12  C11 UNL     1      -6.659  -1.138   0.863  1.00  0.00     0.031 A 
HETATM   13  C12 UNL     1      -7.725  -1.328   0.017  1.00  0.00     0.021 A 
HETATM   14  C13 UNL     1      -7.811  -0.625  -1.169  1.00  0.00     0.011 A 
HETATM   15 BR1  UNL     1      -9.288  -0.873  -2.368  1.00  0.00    -0.051 Br
HETATM   16  C14 UNL     1      -6.804   0.260  -1.466  1.00  0.00     0.021 A 
HETATM   17  C15 UNL     1      -5.712   0.451  -0.595  1.00  0.00     0.031 A 
ENDBRANCH   8  11
ENDBRANCH   3   5
BRANCH   1  18
HETATM   18  C7  UNL     1       1.105   0.405   0.621  1.00  0.00     0.124 C 
BRANCH  18  19
HETATM   19  C6  UNL     1       1.657  -0.642  -0.314  1.00  0.00     0.132 C 
BRANCH  19  20
HETATM   20  N1  UNL     1       2.954  -0.300  -0.759  1.00  0.00    -0.360 N 
HETATM   21  C5  UNL     1       4.065  -0.158   0.078  1.00  0.00     0.225 C 
HETATM   22  O1  UNL     1       3.976  -0.339   1.319  1.00  0.00    -0.273 OA
ATOM     23  H1  UNL     1       3.089  -0.146  -1.758  1.00  0.00     0.162 HD
BRANCH  21  24
HETATM   24  C2  UNL     1       5.419   0.215  -0.425  1.00  0.00     0.030 C 
HETATM   25  C1  UNL     1       5.842  -0.893  -1.392  1.00  0.00     0.024 C 
HETATM   26  C3  UNL     1       6.438   0.255   0.672  1.00  0.00     0.024 C 
HETATM   27  C4  UNL     1       5.364   1.510  -1.190  1.00  0.00     0.024 C 
ENDBRANCH  21  24
ENDBRANCH  19  20
ENDBRANCH  18  19
ENDBRANCH   1  18
TORSDOF 6
