REMARK  8 active torsions:
REMARK  status: ('A' for Active; 'I' for Inactive)
REMARK    1  A    between atoms: C2_2  and  C3_3 
REMARK    2  A    between atoms: C8_8  and  C9_9 
REMARK    3  A    between atoms: C9_9  and  N1_10 
REMARK       I    between atoms: N1_10  and  C10_12 
REMARK    4  A    between atoms: C10_12  and  C11_14 
REMARK       I    between atoms: C11_14  and  N2_16 
REMARK    5  A    between atoms: N2_16  and  N3_18 
REMARK    6  A    between atoms: N3_18  and  C12_20 
REMARK    7  A    between atoms: C12_20  and  N4_22 
REMARK    8  A    between atoms: N4_22  and  C13_24 
ROOT
HETATM    1  C11 UNL     1       0.056  -0.651  -0.279  1.00  0.00     0.328 C 
HETATM    2  O2  UNL     1      -0.376  -1.762  -0.608  1.00  0.00    -0.261 OA
HETATM    3  N2  UNL     1       1.451  -0.379  -0.216  1.00  0.00    -0.260 N 
ATOM      4  H2  UNL     1       1.792   0.554   0.015  1.00  0.00     0.190 HD
ENDROOT
BRANCH   1   5
HETATM    5  C10 UNL     1      -0.946   0.424   0.096  1.00  0.00     0.315 C 
HETATM    6  N1  UNL     1      -2.184  -0.082   0.538  1.00  0.00    -0.328 N 
ATOM      7  H1  UNL     1      -2.063  -1.093   0.481  1.00  0.00     0.168 HD
HETATM    8  O1  UNL     1      -0.660   1.595   0.020  1.00  0.00    -0.262 OA
BRANCH   6   9
HETATM    9  C9  UNL     1      -3.465   0.063   1.004  1.00  0.00     0.103 C 
BRANCH   9  10
HETATM   10  C8  UNL     1      -4.651   0.475   0.271  1.00  0.00    -0.011 A 
HETATM   11  C3  UNL     1      -5.641  -0.539   0.167  1.00  0.00    -0.025 A 
HETATM   12  C4  UNL     1      -6.869  -0.300  -0.312  1.00  0.00     0.012 A 
HETATM   13  C5  UNL     1      -7.219   0.992  -0.740  1.00  0.00     0.001 A 
HETATM   14  C6  UNL     1      -6.262   2.016  -0.655  1.00  0.00     0.001 A 
HETATM   15  C7  UNL     1      -4.991   1.691  -0.132  1.00  0.00     0.013 A 
BRANCH  11  16
HETATM   16  C2  UNL     1      -5.101  -1.864   0.490  1.00  0.00     0.002 C 
HETATM   17  C1  UNL     1      -4.931  -2.743  -0.425  1.00  0.00     0.012 C 
ENDBRANCH  11  16
ENDBRANCH   9  10
ENDBRANCH   6   9
ENDBRANCH   1   5
BRANCH   3  18
HETATM   18  N3  UNL     1       2.362  -1.447  -0.485  1.00  0.00    -0.273 N 
ATOM     19  H3  UNL     1       1.991  -2.386  -0.634  1.00  0.00     0.189 HD
BRANCH  18  20
HETATM   20  C12 UNL     1       3.730  -1.250  -0.550  1.00  0.00     0.191 C 
HETATM   21  S1  UNL     1       4.701  -2.571  -0.764  1.00  0.00    -0.039 SA
BRANCH  20  22
HETATM   22  N4  UNL     1       4.286   0.005  -0.419  1.00  0.00    -0.332 N 
ATOM     23  H4  UNL     1       3.604   0.759  -0.341  1.00  0.00     0.168 HD
BRANCH  22  24
HETATM   24  C13 UNL     1       5.634   0.433  -0.374  1.00  0.00     0.034 A 
HETATM   25  C14 UNL     1       5.951   1.604   0.374  1.00  0.00     0.031 A 
HETATM   26  C15 UNL     1       7.217   2.034   0.551  1.00  0.00     0.026 A 
HETATM   27  C16 UNL     1       8.298   1.363   0.025  1.00  0.00     0.034 A 
HETATM   28 CL1  UNL     1       9.931   1.865   0.291  1.00  0.00    -0.084 Cl
HETATM   29  C17 UNL     1       7.993   0.210  -0.720  1.00  0.00     0.026 A 
HETATM   30  C18 UNL     1       6.707  -0.211  -0.893  1.00  0.00     0.031 A 
ENDBRANCH  22  24
ENDBRANCH  20  22
ENDBRANCH  18  20
ENDBRANCH   3  18
TORSDOF 8
