REMARK  3 active torsions:
REMARK  status: ('A' for Active; 'I' for Inactive)
REMARK    1  A    between atoms: C2_2  and  N1_5 
REMARK       I    between atoms: N1_5  and  C4_7 
REMARK       I    between atoms: C4_7  and  N5_20 
REMARK       I    between atoms: N2_8  and  C5_10 
REMARK       I    between atoms: C5_10  and  N3_12 
REMARK    2  A    between atoms: N3_12  and  C6_14 
REMARK    3  A    between atoms: N5_20  and  C10_22 
ROOT
HETATM    1  N1  UNL     1      -1.056   2.147   1.267  1.00  0.00    -0.195 N 
ATOM      2  H1  UNL     1      -1.938   1.831   1.671  1.00  0.00     0.184 HD
HETATM    3  C4  UNL     1      -0.143   1.198   0.756  1.00  0.00     0.682 C 
HETATM    4  N2  UNL     1       1.053   1.563   0.455  1.00  0.00    -0.141 N 
ATOM      5  H2  UNL     1       1.311   2.540   0.596  1.00  0.00     0.189 HD
HETATM    6  C5  UNL     1       2.037   0.670  -0.066  1.00  0.00     0.340 C 
HETATM    7  O1  UNL     1       2.296   0.737  -1.293  1.00  0.00    -0.246 OA
HETATM    8  N3  UNL     1       2.715  -0.264   0.733  1.00  0.00    -0.294 N 
ATOM      9  H3  UNL     1       2.475  -0.285   1.724  1.00  0.00     0.172 HD
HETATM   10  N5  UNL     1      -0.530  -0.147   0.573  1.00  0.00    -0.221 N 
ATOM     11  H5  UNL     1       0.190  -0.869   0.604  1.00  0.00     0.178 HD
ENDROOT
BRANCH   1  12
HETATM   12  C2  UNL     1      -0.758   3.547   1.225  1.00  0.00     0.029 C 
HETATM   13  C1  UNL     1      -0.007   4.128   0.060  1.00  0.00     0.069 C 
HETATM   14  C3  UNL     1      -1.135   4.337   2.198  1.00  0.00     0.081 C 
HETATM   15 BR1  UNL     1      -2.083   3.626   3.675  1.00  0.00    -0.062 Br
ENDBRANCH   1  12
BRANCH  10  16
HETATM   16  C10 UNL     1      -1.911  -0.551   0.342  1.00  0.00     0.099 C 
HETATM   17  C11 UNL     1      -2.005  -2.026   0.191  1.00  0.00     0.026 C 
HETATM   18  C12 UNL     1      -3.097  -2.541  -0.672  1.00  0.00     0.002 C 
HETATM   19  C13 UNL     1      -3.470  -1.658  -1.827  1.00  0.00     0.000 C 
HETATM   20  C14 UNL     1      -2.381  -0.622  -2.044  1.00  0.00     0.002 C 
HETATM   21  C15 UNL     1      -2.429   0.246  -0.802  1.00  0.00     0.026 C 
ENDBRANCH  10  16
BRANCH   8  22
HETATM   22  C6  UNL     1       3.700  -1.179   0.291  1.00  0.00     0.108 A 
HETATM   23  C7  UNL     1       4.243  -1.411  -0.939  1.00  0.00     0.050 A 
HETATM   24  C8  UNL     1       5.197  -2.436  -0.871  1.00  0.00     0.021 A 
HETATM   25  C9  UNL     1       5.197  -2.803   0.451  1.00  0.00     0.090 A 
HETATM   26  N4  UNL     1       4.317  -2.063   1.130  1.00  0.00    -0.352 N 
ATOM     27  H4  UNL     1       4.132  -2.146   2.130  1.00  0.00     0.166 HD
ENDBRANCH   8  22
TORSDOF 3
