REMARK  4 active torsions:
REMARK  status: ('A' for Active; 'I' for Inactive)
REMARK       I    between atoms: C1_2  and  N1_3 
REMARK       I    between atoms: C1_2  and  N5_18 
REMARK    1  A    between atoms: N1_3  and  C2_5 
REMARK    2  A    between atoms: C5_12  and  C6_13 
REMARK    3  A    between atoms: N5_18  and  C8_20 
REMARK    4  A    between atoms: C8_20  and  C9_21 
ROOT
HETATM    1  O1  UNL     1       0.876   1.205  -1.270  1.00  0.00    -0.247 OA
HETATM    2  C1  UNL     1       1.079   1.305  -0.045  1.00  0.00     0.325 C 
HETATM    3  N1  UNL     1       1.949   2.381   0.332  1.00  0.00    -0.291 N 
ATOM      4  H1  UNL     1       1.539   3.274   0.604  1.00  0.00     0.172 HD
HETATM    5  N5  UNL     1       0.534   0.469   0.923  1.00  0.00    -0.322 N 
ATOM      6  H5  UNL     1       0.821   0.683   1.878  1.00  0.00     0.169 HD
ENDROOT
BRANCH   3   7
HETATM    7  C2  UNL     1       3.224   2.258   0.339  1.00  0.00     0.153 A 
HETATM    8  N2  UNL     1       4.104   3.215   0.679  1.00  0.00    -0.283 N 
HETATM    9  N3  UNL     1       5.333   2.740   0.571  1.00  0.00    -0.297 N 
ATOM     10  H2  UNL     1       3.861   4.161   0.974  1.00  0.00     0.188 HD
HETATM   11  C3  UNL     1       5.325   1.463   0.160  1.00  0.00     0.080 A 
ATOM     12  H3  UNL     1       6.177   3.275   0.774  1.00  0.00     0.187 HD
HETATM   13  C4  UNL     1       6.036   0.339  -0.175  1.00  0.00     0.059 A 
HETATM   14  C7  UNL     1       3.972   1.148   0.010  1.00  0.00     0.107 A 
HETATM   15  C5  UNL     1       5.145  -0.654  -0.527  1.00  0.00     0.025 A 
HETATM   16  N4  UNL     1       3.914  -0.133  -0.404  1.00  0.00    -0.354 N 
ATOM     17  H4  UNL     1       3.050  -0.639  -0.598  1.00  0.00     0.166 HD
BRANCH  15  18
HETATM   18  C6  UNL     1       5.522  -2.044  -0.960  1.00  0.00     0.171 C 
HETATM   19 CL1  UNL     1       5.624  -3.138   0.437  1.00  0.00    -0.124 Cl
ENDBRANCH  15  18
ENDBRANCH   3   7
BRANCH   5  20
HETATM   20  C8  UNL     1      -0.342  -0.617   0.807  1.00  0.00     0.075 C 
BRANCH  20  21
HETATM   21  C9  UNL     1      -1.753  -0.415   0.348  1.00  0.00    -0.007 C 
HETATM   22  C10 UNL     1      -1.985   0.169  -0.982  1.00  0.00     0.019 C 
HETATM   23  C11 UNL     1      -3.478   0.080  -1.322  1.00  0.00    -0.013 C 
HETATM   24  C12 UNL     1      -3.952  -1.329  -1.301  1.00  0.00     0.009 C 
HETATM   25  C16 UNL     1      -4.182   0.987  -0.342  1.00  0.00     0.009 C 
HETATM   26  C13 UNL     1      -3.806  -1.850   0.111  1.00  0.00    -0.013 C 
HETATM   27  C14 UNL     1      -4.578  -0.980   1.044  1.00  0.00     0.009 C 
HETATM   28  C18 UNL     1      -2.364  -1.836   0.448  1.00  0.00     0.019 C 
HETATM   29  C15 UNL     1      -3.974   0.418   1.045  1.00  0.00    -0.013 C 
HETATM   30  C17 UNL     1      -2.516   0.408   1.385  1.00  0.00     0.019 C 
ENDBRANCH  20  21
ENDBRANCH   5  20
TORSDOF 4
