REMARK  7 active torsions:
REMARK  status: ('A' for Active; 'I' for Inactive)
REMARK    1  A    between atoms: C2_2  and  C3_3 
REMARK    2  A    between atoms: C2_2  and  C10_11 
REMARK    3  A    between atoms: C3_3  and  C4_4 
REMARK       I    between atoms: C10_11  and  N1_13 
REMARK    4  A    between atoms: N1_13  and  N2_15 
REMARK       I    between atoms: N2_15  and  C11_17 
REMARK       I    between atoms: C11_17  and  N3_19 
REMARK    5  A    between atoms: N3_19  and  C12_21 
REMARK    6  A    between atoms: C12_21  and  N4_23 
REMARK    7  A    between atoms: N4_23  and  C13_25 
ROOT
HETATM    1  N2  UNL     1       0.567   0.765  -0.045  1.00  0.00    -0.248 N 
ATOM      2  H2  UNL     1       1.270   1.411  -0.405  1.00  0.00     0.192 HD
HETATM    3  C11 UNL     1       1.057  -0.492   0.253  1.00  0.00     0.341 C 
HETATM    4  O2  UNL     1       0.375  -1.434   0.681  1.00  0.00    -0.245 OA
HETATM    5  N3  UNL     1       2.473  -0.726   0.058  1.00  0.00    -0.284 N 
ATOM      6  H3  UNL     1       3.042   0.039  -0.304  1.00  0.00     0.173 HD
ENDROOT
BRANCH   1   7
HETATM    7  N1  UNL     1      -0.675   1.298   0.053  1.00  0.00    -0.262 N 
HETATM    8  C10 UNL     1      -1.783   0.798   0.758  1.00  0.00     0.265 C 
HETATM    9  O1  UNL     1      -1.768  -0.299   1.412  1.00  0.00    -0.266 OA
ATOM     10  H1  UNL     1      -0.825   2.173  -0.449  1.00  0.00     0.190 HD
BRANCH   8  11
HETATM   11  C2  UNL     1      -3.036   1.575   0.749  1.00  0.00     0.006 C 
HETATM   12  C1  UNL     1      -3.119   2.716   0.167  1.00  0.00     0.025 C 
BRANCH  11  13
HETATM   13  C3  UNL     1      -4.217   1.034   1.468  1.00  0.00     0.082 C 
BRANCH  13  14
HETATM   14  C4  UNL     1      -5.034   0.280   0.446  1.00  0.00    -0.054 A 
HETATM   15  C5  UNL     1      -4.839  -1.018   0.118  1.00  0.00     0.009 A 
HETATM   16  C6  UNL     1      -5.579  -1.692  -0.858  1.00  0.00     0.024 A 
HETATM   17  C7  UNL     1      -6.553  -0.970  -1.501  1.00  0.00     0.034 A 
HETATM   18 CL1  UNL     1      -7.512  -1.725  -2.750  1.00  0.00    -0.084 Cl
HETATM   19  C8  UNL     1      -6.772   0.352  -1.183  1.00  0.00     0.024 A 
HETATM   20  C9  UNL     1      -6.043   0.989  -0.234  1.00  0.00     0.009 A 
ENDBRANCH  13  14
ENDBRANCH  11  13
ENDBRANCH   8  11
ENDBRANCH   1   7
BRANCH   5  21
HETATM   21  C12 UNL     1       3.107  -1.949   0.340  1.00  0.00     0.180 C 
HETATM   22  S1  UNL     1       2.140  -3.199   0.914  1.00  0.00    -0.040 SA
BRANCH  21  23
HETATM   23  N4  UNL     1       4.488  -2.156   0.253  1.00  0.00    -0.333 N 
ATOM     24  H4  UNL     1       4.827  -3.098   0.449  1.00  0.00     0.168 HD
BRANCH  23  25
HETATM   25  C13 UNL     1       5.440  -1.202  -0.074  1.00  0.00     0.034 A 
HETATM   26  C14 UNL     1       5.482   0.094   0.360  1.00  0.00     0.029 A 
HETATM   27  C15 UNL     1       6.454   0.995  -0.031  1.00  0.00     0.002 A 
HETATM   28  C16 UNL     1       7.422   0.567  -0.891  1.00  0.00     0.000 A 
HETATM   29  C17 UNL     1       7.434  -0.740  -1.367  1.00  0.00     0.002 A 
HETATM   30  C18 UNL     1       6.454  -1.606  -0.959  1.00  0.00     0.029 A 
ENDBRANCH  23  25
ENDBRANCH  21  23
ENDBRANCH   5  21
TORSDOF 7
