REMARK  9 active torsions:
REMARK  status: ('A' for Active; 'I' for Inactive)
REMARK    1  A    between atoms: N1_2  and  C2_4 
REMARK    2  A    between atoms: C2_4  and  N2_6 
REMARK    3  A    between atoms: N2_6  and  N3_8 
REMARK    4  A    between atoms: C3_10  and  O1_11 
REMARK    5  A    between atoms: C3_10  and  C4_13 
REMARK    6  A    between atoms: C4_13  and  C5_14 
REMARK    7  A    between atoms: C5_14  and  N4_15 
REMARK    8  A    between atoms: C5_14  and  C8_20 
REMARK       I    between atoms: N4_15  and  C6_17 
REMARK    9  A    between atoms: C14_27  and  C15_28 
ROOT
HETATM    1  C5  UNL     1      -0.443   0.005  -0.208  1.00  0.00     0.126 C 
ENDROOT
BRANCH   1   2
HETATM    2  C4  UNL     1       0.734   0.360  -1.183  1.00  0.00     0.115 C 
BRANCH   2   3
HETATM    3  C3  UNL     1       2.018   0.396  -0.490  1.00  0.00     0.132 C 
HETATM    4  N3  UNL     1       3.215   0.984  -0.780  1.00  0.00    -0.281 N 
ATOM      5  H3  UNL     1       3.298   1.537  -1.633  1.00  0.00     0.189 HD
BRANCH   4   6
HETATM    6  N2  UNL     1       4.356   0.852   0.069  1.00  0.00    -0.275 N 
ATOM      7  H2  UNL     1       4.260   0.996   1.074  1.00  0.00     0.189 HD
BRANCH   6   8
HETATM    8  C2  UNL     1       5.618   0.522  -0.477  1.00  0.00     0.186 C 
HETATM    9  S1  UNL     1       5.760   0.349  -2.096  1.00  0.00    -0.040 SA
BRANCH   8  10
HETATM   10  N1  UNL     1       6.764   0.356   0.326  1.00  0.00    -0.370 N 
HETATM   11  C1  UNL     1       8.076   0.013  -0.195  1.00  0.00     0.148 C 
ATOM     12  H1  UNL     1       6.667   0.484   1.333  1.00  0.00     0.161 HD
ENDBRANCH   8  10
ENDBRANCH   6   8
ENDBRANCH   4   6
BRANCH   3  13
HETATM   13  O1  UNL     1       2.010  -0.286   0.651  1.00  0.00    -0.348 OA
ATOM     14  H1  UNL     1       1.177  -0.695   0.853  1.00  0.00     0.219 HD
ENDBRANCH   3  13
ENDBRANCH   2   3
ENDBRANCH   1   2
BRANCH   1  15
HETATM   15  N4  UNL     1      -0.404   1.233   0.635  1.00  0.00    -0.352 N 
HETATM   16  C6  UNL     1      -0.159   1.505   1.930  1.00  0.00     0.214 C 
HETATM   17  C7  UNL     1      -0.222   2.964   2.380  1.00  0.00     0.117 C 
HETATM   18  O2  UNL     1       0.120   0.762   2.891  1.00  0.00    -0.274 OA
ATOM     19  H4  UNL     1      -0.615   2.075   0.099  1.00  0.00     0.163 HD
ENDBRANCH   1  15
BRANCH   1  20
HETATM   20  C8  UNL     1      -1.739   0.021  -0.843  1.00  0.00    -0.022 A 
HETATM   21  C9  UNL     1      -1.957   0.973  -1.882  1.00  0.00     0.034 A 
HETATM   22  C10 UNL     1      -3.151   1.141  -2.516  1.00  0.00     0.035 A 
HETATM   23 CL1  UNL     1      -3.256   2.363  -3.796  1.00  0.00    -0.084 Cl
HETATM   24  C11 UNL     1      -4.197   0.373  -2.153  1.00  0.00     0.031 A 
HETATM   25  C12 UNL     1      -4.041  -0.561  -1.154  1.00  0.00    -0.049 A 
HETATM   26  C13 UNL     1      -5.268  -1.296  -0.727  1.00  0.00     0.049 C 
HETATM   27  C14 UNL     1      -2.804  -0.761  -0.478  1.00  0.00    -0.020 A 
BRANCH  27  28
HETATM   28  C15 UNL     1      -2.781  -1.766   0.537  1.00  0.00    -0.076 C 
HETATM   29  C16 UNL     1      -3.544  -3.071   0.270  1.00  0.00     0.044 C 
HETATM   30  C17 UNL     1      -1.759  -2.021   1.556  1.00  0.00     0.044 C 
ENDBRANCH  27  28
ENDBRANCH   1  20
TORSDOF 9
