REMARK  7 active torsions:
REMARK  status: ('A' for Active; 'I' for Inactive)
REMARK    1  A    between atoms: O1_2  and  C2_3 
REMARK    2  A    between atoms: C6_9  and  C7_10 
REMARK    3  A    between atoms: C7_10  and  N2_12 
REMARK    4  A    between atoms: N2_12  and  N3_13 
REMARK    5  A    between atoms: N3_13  and  C9_15 
REMARK    6  A    between atoms: C9_15  and  N4_17 
REMARK       I    between atoms: N4_17  and  C10_19 
REMARK    7  A    between atoms: C10_19  and  C11_21 
ROOT
HETATM    1  N3  UNL     1      -0.426   0.657   0.250  1.00  0.00    -0.279 N 
ATOM      2  H3  UNL     1       0.094   0.350   1.072  1.00  0.00     0.184 HD
ENDROOT
BRANCH   1   3
HETATM    3  N2  UNL     1      -1.867   0.710   0.284  1.00  0.00    -0.128 NA
BRANCH   3   4
HETATM    4  C7  UNL     1      -2.327  -0.566  -0.234  1.00  0.00     0.148 C 
HETATM    5  C8  UNL     1      -1.650  -1.684   0.564  1.00  0.00     0.036 C 
BRANCH   4   6
HETATM    6  C6  UNL     1      -3.800  -0.748  -0.090  1.00  0.00     0.064 A 
HETATM    7  C2  UNL     1      -4.847  -0.184  -0.777  1.00  0.00     0.099 A 
HETATM    8  C3  UNL     1      -6.071  -0.667  -0.283  1.00  0.00    -0.011 A 
HETATM    9  C4  UNL     1      -7.427  -0.282  -0.777  1.00  0.00     0.052 C 
HETATM   10  C5  UNL     1      -5.726  -1.537   0.720  1.00  0.00     0.097 A 
HETATM   11  N1  UNL     1      -4.393  -1.582   0.831  1.00  0.00    -0.365 N 
ATOM     12  H1  UNL     1      -3.886  -2.155   1.505  1.00  0.00     0.165 HD
BRANCH   7  13
HETATM   13  O1  UNL     1      -4.782   0.724  -1.812  1.00  0.00    -0.353 OA
HETATM   14  C1  UNL     1      -4.851   2.109  -1.558  1.00  0.00     0.210 C 
ENDBRANCH   7  13
ENDBRANCH   4   6
ENDBRANCH   3   4
ENDBRANCH   1   3
BRANCH   1  15
HETATM   15  C9  UNL     1       0.258   1.029  -0.916  1.00  0.00     0.190 C 
HETATM   16  S1  UNL     1      -0.653   1.520  -2.227  1.00  0.00    -0.039 SA
BRANCH  15  17
HETATM   17  N4  UNL     1       1.639   1.019  -1.072  1.00  0.00    -0.302 N 
HETATM   18  C10 UNL     1       2.592   0.640  -0.091  1.00  0.00     0.235 C 
HETATM   19  O2  UNL     1       2.224   0.274   1.042  1.00  0.00    -0.272 OA
ATOM     20  H4  UNL     1       2.003   1.312  -1.979  1.00  0.00     0.171 HD
BRANCH  18  21
HETATM   21  C11 UNL     1       4.035   0.699  -0.467  1.00  0.00     0.068 A 
HETATM   22  C12 UNL     1       4.272   1.166  -1.897  1.00  0.00     0.028 C 
HETATM   23  C13 UNL     1       4.780  -0.568  -0.033  1.00  0.00    -0.008 A 
HETATM   24  C14 UNL     1       5.600  -1.227  -1.121  1.00  0.00     0.018 C 
HETATM   25  C15 UNL     1       4.155  -1.517   0.932  1.00  0.00     0.018 C 
HETATM   26  C16 UNL     1       5.140   0.779   0.471  1.00  0.00     0.058 A 
HETATM   27  C17 UNL     1       5.032   1.045   1.940  1.00  0.00     0.034 C 
HETATM   28 CL1  UNL     1       6.657   1.490  -0.217  1.00  0.00    -0.117 Cl
ENDBRANCH  18  21
ENDBRANCH  15  17
ENDBRANCH   1  15
TORSDOF 7
