REMARK  15 active torsions:
REMARK  status: ('A' for Active; 'I' for Inactive)
REMARK    1  A    between atoms: O1_2  and  C2_3 
REMARK    2  A    between atoms: C2_3  and  C3_4 
REMARK    3  A    between atoms: C2_3  and  C23_33 
REMARK    4  A    between atoms: C4_5  and  C5_6 
REMARK    5  A    between atoms: C5_6  and  C7_8 
REMARK    6  A    between atoms: C9_10  and  C10_11 
REMARK    7  A    between atoms: C10_11  and  C11_12 
REMARK    8  A    between atoms: C11_12  and  C12_13 
REMARK    9  A    between atoms: C14_15  and  C15_16 
REMARK   10  A    between atoms: C16_17  and  C17_18 
REMARK   11  A    between atoms: C18_20  and  O3_21 
REMARK   12  A    between atoms: C19_23  and  O4_24 
REMARK   13  A    between atoms: C20_26  and  O5_27 
REMARK   14  A    between atoms: C21_29  and  C22_30 
REMARK   15  A    between atoms: C22_30  and  O6_31 
ROOT
HETATM    1  C12 UNL     1       1.805  -1.174   1.451  1.00  0.00    -0.084 C 
HETATM    2  C13 UNL     1       1.194  -1.756   2.639  1.00  0.00     0.043 C 
HETATM    3  C14 UNL     1       3.118  -1.296   1.262  1.00  0.00     0.002 C 
ENDROOT
BRANCH   1   4
HETATM    4  C11 UNL     1       1.142  -0.472   0.454  1.00  0.00     0.037 C 
BRANCH   4   5
HETATM    5  C10 UNL     1      -0.447  -0.341   0.716  1.00  0.00     0.031 C 
BRANCH   5   6
HETATM    6  C9  UNL     1      -0.618   0.415  -0.508  1.00  0.00    -0.023 C 
HETATM    7  C7  UNL     1      -1.919   0.779  -0.733  1.00  0.00    -0.080 C 
HETATM    8  C8  UNL     1      -2.318   1.560  -1.925  1.00  0.00     0.044 C 
BRANCH   7   9
HETATM    9  C5  UNL     1      -3.028   0.401   0.221  1.00  0.00     0.032 C 
HETATM   10  C6  UNL     1      -3.544   1.741   0.784  1.00  0.00     0.019 C 
BRANCH   9  11
HETATM   11  C4  UNL     1      -4.034  -0.372  -0.513  1.00  0.00    -0.020 C 
HETATM   12  C3  UNL     1      -5.249  -0.389  -0.827  1.00  0.00     0.002 C 
BRANCH  12  13
HETATM   13  C2  UNL     1      -6.357   0.571  -0.500  1.00  0.00     0.150 C 
BRANCH  13  14
HETATM   14  O1  UNL     1      -7.267  -0.209   0.277  1.00  0.00    -0.386 OA
HETATM   15  C1  UNL     1      -7.200   0.079   1.626  1.00  0.00     0.202 C 
ENDBRANCH  13  14
BRANCH  13  16
HETATM   16  C23 UNL     1      -7.102   1.088  -1.650  1.00  0.00    -0.022 C 
HETATM   17  C24 UNL     1      -6.276   1.920  -2.608  1.00  0.00     0.017 C 
HETATM   18  C25 UNL     1      -7.750  -0.016  -2.424  1.00  0.00     0.017 C 
HETATM   19  C26 UNL     1      -8.159   2.059  -1.095  1.00  0.00     0.017 C 
ENDBRANCH  13  16
ENDBRANCH  12  13
ENDBRANCH   9  11
ENDBRANCH   7   9
ENDBRANCH   5   6
ENDBRANCH   4   5
ENDBRANCH   1   4
BRANCH   3  20
HETATM   20  C15 UNL     1       4.108  -1.920   2.046  1.00  0.00     0.003 C 
HETATM   21  C16 UNL     1       5.391  -1.901   1.628  1.00  0.00     0.033 C 
BRANCH  21  22
HETATM   22  C17 UNL     1       5.695  -1.228   0.373  1.00  0.00     0.058 C 
HETATM   23  O2  UNL     1       5.421   0.128   0.391  1.00  0.00    -0.322 OA
HETATM   24  C18 UNL     1       6.240   0.834   1.230  1.00  0.00     0.294 C 
HETATM   25  C19 UNL     1       7.706   0.617   0.843  1.00  0.00     0.203 C 
HETATM   26  C20 UNL     1       7.753  -0.179  -0.434  1.00  0.00     0.164 C 
HETATM   27  C21 UNL     1       6.966  -1.494  -0.323  1.00  0.00     0.097 C 
BRANCH  24  28
HETATM   28  O3  UNL     1       6.024   0.516   2.546  1.00  0.00    -0.368 OA
ATOM     29  H3  UNL     1       6.592   1.006   3.128  1.00  0.00     0.212 HD
ENDBRANCH  24  28
BRANCH  25  30
HETATM   30  O4  UNL     1       8.218   1.884   0.588  1.00  0.00    -0.388 OA
ATOM     31  H4  UNL     1       9.127   1.749   0.348  1.00  0.00     0.210 HD
ENDBRANCH  25  30
BRANCH  26  32
HETATM   32  O5  UNL     1       9.023  -0.327  -0.885  1.00  0.00    -0.392 OA
ATOM     33  H5  UNL     1       9.053  -0.829  -1.691  1.00  0.00     0.210 HD
ENDBRANCH  26  32
BRANCH  27  34
HETATM   34  C22 UNL     1       7.829  -2.604   0.121  1.00  0.00     0.178 C 
BRANCH  34  35
HETATM   35  O6  UNL     1       8.312  -2.596   1.385  1.00  0.00    -0.400 OA
ATOM     36  H6  UNL     1       8.868  -3.311   1.671  1.00  0.00     0.209 HD
ENDBRANCH  34  35
ENDBRANCH  27  34
ENDBRANCH  21  22
ENDBRANCH   3  20
TORSDOF 15
