REMARK  16 active torsions:
REMARK  status: ('A' for Active; 'I' for Inactive)
REMARK    1  A    between atoms: C6_6  and  C7_7 
REMARK    2  A    between atoms: C7_7  and  C8_8 
REMARK    3  A    between atoms: C7_7  and  C10_10 
REMARK    4  A    between atoms: C10_10  and  O1_11 
REMARK    5  A    between atoms: C10_10  and  C11_13 
REMARK    6  A    between atoms: C11_13  and  C13_15 
REMARK    7  A    between atoms: C13_15  and  C14_16 
REMARK    8  A    between atoms: C14_16  and  C15_17 
REMARK    9  A    between atoms: C15_17  and  O2_18 
REMARK   10  A    between atoms: C15_17  and  O3_20 
REMARK   11  A    between atoms: O3_20  and  C16_21 
REMARK   12  A    between atoms: C18_23  and  O4_24 
REMARK   13  A    between atoms: C19_26  and  O5_27 
REMARK   14  A    between atoms: C23_32  and  C25_34 
REMARK   15  A    between atoms: C25_34  and  C26_35 
REMARK   16  A    between atoms: C26_35  and  O6_36 
ROOT
HETATM    1  C1  UNL     1      -4.912  -0.536  -1.262  1.00  0.00     0.015 C 
HETATM    2  C2  UNL     1      -3.782   0.116  -0.992  1.00  0.00    -0.080 C 
HETATM    3  C3  UNL     1      -2.717  -0.075  -2.022  1.00  0.00     0.034 C 
HETATM    4  C4  UNL     1      -1.317  -0.150  -1.417  1.00  0.00     0.010 C 
HETATM    5  C5  UNL     1      -1.459  -0.209   0.045  1.00  0.00     0.002 C 
HETATM    6  C6  UNL     1      -0.190  -0.481   0.850  1.00  0.00     0.028 C 
HETATM    7  C18 UNL     1      -0.721  -0.790   2.196  1.00  0.00     0.151 C 
HETATM    8  C19 UNL     1      -1.170   0.525   2.820  1.00  0.00     0.148 C 
HETATM    9  C20 UNL     1      -1.765   1.495   1.906  1.00  0.00     0.044 C 
HETATM   10  C21 UNL     1      -2.083   1.096   0.520  1.00  0.00    -0.026 C 
HETATM   11  C22 UNL     1      -1.530   2.219  -0.366  1.00  0.00     0.016 C 
HETATM   12  C23 UNL     1      -3.591   0.958   0.219  1.00  0.00    -0.012 C 
HETATM   13  C24 UNL     1      -4.284   0.251   1.362  1.00  0.00     0.021 C 
ENDROOT
BRANCH   6  14
HETATM   14  C7  UNL     1       0.791  -1.382   0.209  1.00  0.00     0.022 C 
BRANCH  14  15
HETATM   15  C8  UNL     1       0.456  -2.766  -0.076  1.00  0.00     0.003 C 
HETATM   16  C9  UNL     1       0.081  -3.679   1.061  1.00  0.00     0.005 C 
ENDBRANCH  14  15
BRANCH  14  17
HETATM   17  C10 UNL     1       2.176  -1.112   0.674  1.00  0.00     0.130 C 
BRANCH  17  18
HETATM   18  O1  UNL     1       2.477  -1.300   1.999  1.00  0.00    -0.395 OA
ATOM     19  H1  UNL     1       3.363  -1.127   2.296  1.00  0.00     0.210 HD
ENDBRANCH  17  18
BRANCH  17  20
HETATM   20  C11 UNL     1       3.300  -1.790  -0.137  1.00  0.00     0.033 C 
HETATM   21  C12 UNL     1       4.559  -1.370   0.567  1.00  0.00     0.017 C 
BRANCH  20  22
HETATM   22  C13 UNL     1       3.225  -1.379  -1.523  1.00  0.00    -0.015 C 
BRANCH  22  23
HETATM   23  C14 UNL     1       3.932  -0.740  -2.349  1.00  0.00     0.060 C 
BRANCH  23  24
HETATM   24  C15 UNL     1       5.180  -0.062  -2.419  1.00  0.00     0.177 C 
BRANCH  24  25
HETATM   25  O2  UNL     1       5.507   0.485  -3.581  1.00  0.00    -0.341 OA
ATOM     26  H2  UNL     1       6.341   0.938  -3.628  1.00  0.00     0.220 HD
ENDBRANCH  24  25
BRANCH  24  27
HETATM   27  O3  UNL     1       6.161   0.153  -1.494  1.00  0.00    -0.331 OA
BRANCH  27  28
HETATM   28  C16 UNL     1       7.324   0.870  -1.822  1.00  0.00     0.173 C 
HETATM   29  C17 UNL     1       7.033   2.282  -2.277  1.00  0.00     0.034 C 
ENDBRANCH  27  28
ENDBRANCH  24  27
ENDBRANCH  23  24
ENDBRANCH  22  23
ENDBRANCH  20  22
ENDBRANCH  17  20
ENDBRANCH  14  17
ENDBRANCH   6  14
BRANCH   7  30
HETATM   30  O4  UNL     1       0.065  -1.396   3.126  1.00  0.00    -0.393 OA
ATOM     31  H4  UNL     1      -0.276  -1.594   3.990  1.00  0.00     0.210 HD
ENDBRANCH   7  30
BRANCH   8  32
HETATM   32  O5  UNL     1      -1.966   0.193   3.915  1.00  0.00    -0.393 OA
ATOM     33  H5  UNL     1      -2.246   1.013   4.304  1.00  0.00     0.210 HD
ENDBRANCH   8  32
BRANCH  12  34
HETATM   34  C25 UNL     1      -4.209   2.327   0.112  1.00  0.00     0.040 C 
BRANCH  34  35
HETATM   35  C26 UNL     1      -5.674   2.308  -0.110  1.00  0.00     0.165 C 
BRANCH  35  36
HETATM   36  O6  UNL     1      -6.140   3.655  -0.193  1.00  0.00    -0.401 OA
ATOM     37  H6  UNL     1      -7.079   3.643  -0.335  1.00  0.00     0.209 HD
ENDBRANCH  35  36
ENDBRANCH  34  35
ENDBRANCH  12  34
TORSDOF 16
