REMARK  5 active torsions:
REMARK  status: ('A' for Active; 'I' for Inactive)
REMARK       I    between atoms: N1_1  and  C1_4 
REMARK       I    between atoms: C1_4  and  N3_6 
REMARK    1  A    between atoms: N3_6  and  N4_8 
REMARK    2  A    between atoms: N4_8  and  C2_10 
REMARK    3  A    between atoms: C2_10  and  N5_11 
REMARK    4  A    between atoms: N5_11  and  N6_13 
REMARK    5  A    between atoms: N6_13  and  C3_15 
ROOT
HETATM    1  C3  UNL     1      -1.411  -0.887   0.779  1.00  0.00     0.713 A 
HETATM    2  N7  UNL     1      -1.954   0.344   0.827  1.00  0.00    -0.170 N 
ATOM      3  H7  UNL     1      -1.353   1.154   0.975  1.00  0.00     0.186 HD
HETATM    4  C4  UNL     1      -3.299   0.521   0.680  1.00  0.00     0.168 A 
HETATM    5  N8  UNL     1      -4.103   1.597   0.682  1.00  0.00    -0.335 N 
ATOM      6  H8  UNL     1      -3.788   2.559   0.809  1.00  0.00     0.168 HD
HETATM    7  C5  UNL     1      -5.380   1.227   0.493  1.00  0.00     0.183 A 
HETATM    8  N9  UNL     1      -5.408  -0.117   0.365  1.00  0.00    -0.334 N 
ATOM      9  H9  UNL     1      -6.237  -0.691   0.211  1.00  0.00     0.168 HD
HETATM   10  C6  UNL     1      -4.129  -0.564   0.479  1.00  0.00     0.167 A 
HETATM   11  N10 UNL     1      -3.550  -1.778   0.437  1.00  0.00    -0.268 N 
ATOM     12  H10 UNL     1      -4.134  -2.601   0.290  1.00  0.00     0.189 HD
HETATM   13  N11 UNL     1      -2.228  -1.934   0.583  1.00  0.00    -0.129 N 
ATOM     14  H11 UNL     1      -1.831  -2.873   0.544  1.00  0.00     0.205 HD
ENDROOT
BRANCH   1  15
HETATM   15  N6  UNL     1      -0.150  -1.122   0.910  1.00  0.00    -0.130 N 
ATOM     16  H6  UNL     1       0.170  -2.089   0.859  1.00  0.00     0.205 HD
BRANCH  15  17
HETATM   17  N5  UNL     1       0.790  -0.130   1.116  1.00  0.00    -0.281 N 
ATOM     18  H5  UNL     1       1.276  -0.061   2.010  1.00  0.00     0.188 HD
BRANCH  17  19
HETATM   19  C2  UNL     1       1.073   0.789   0.080  1.00  0.00     0.214 C 
BRANCH  19  20
HETATM   20  N4  UNL     1       2.182   0.697  -0.561  1.00  0.00    -0.293 N 
ATOM     21  H4  UNL     1       2.395   1.355  -1.311  1.00  0.00     0.187 HD
BRANCH  20  22
HETATM   22  N3  UNL     1       3.091  -0.300  -0.232  1.00  0.00    -0.273 N 
HETATM   23  C1  UNL     1       4.480  -0.039  -0.268  1.00  0.00     0.200 C 
HETATM   24  N1  UNL     1       5.084   0.454   0.760  1.00  0.00    -0.372 N 
HETATM   25  N2  UNL     1       5.230  -0.319  -1.445  1.00  0.00    -0.062 NA
ATOM     26  H12 UNL     1       6.086   0.642   0.734  1.00  0.00     0.158 HD
ATOM     27  H11 UNL     1       4.547   0.655   1.603  1.00  0.00     0.158 HD
ATOM     28  H3  UNL     1       2.755  -1.225   0.037  1.00  0.00     0.189 HD
ENDBRANCH  20  22
ENDBRANCH  19  20
ENDBRANCH  17  19
ENDBRANCH  15  17
ENDBRANCH   1  15
TORSDOF 5
