REMARK  4 active torsions:
REMARK  status: ('A' for Active; 'I' for Inactive)
REMARK    1  A    between atoms: N1_1  and  C1_4 
REMARK    2  A    between atoms: C4_9  and  N3_10 
REMARK    3  A    between atoms: C6_14  and  C7_15 
REMARK       I    between atoms: C7_15  and  N5_17 
REMARK    4  A    between atoms: N5_17  and  N6_19 
ROOT
HETATM    1  N3  UNL     1      -0.450   0.184   0.259  1.00  0.00    -0.203 N 
HETATM    2  N4  UNL     1      -0.017   1.359   0.672  1.00  0.00    -0.300 N 
ATOM      3  H4  UNL     1      -0.607   2.183   0.788  1.00  0.00     0.186 HD
HETATM    4  C5  UNL     1       1.319   1.327   0.923  1.00  0.00     0.130 A 
HETATM    5  C6  UNL     1       1.743   0.048   0.648  1.00  0.00     0.120 A 
HETATM    6  C8  UNL     1       0.629  -0.642   0.238  1.00  0.00     0.285 A 
HETATM    7  O2  UNL     1       0.601  -1.859  -0.107  1.00  0.00    -0.265 OA
ENDROOT
BRANCH   1   8
HETATM    8  C4  UNL     1      -1.798  -0.108  -0.085  1.00  0.00     0.147 A 
HETATM    9  C3  UNL     1      -2.028  -0.668  -1.322  1.00  0.00     0.068 A 
HETATM   10  C2  UNL     1      -3.334  -0.962  -1.680  1.00  0.00     0.110 A 
HETATM   11  N2  UNL     1      -4.336  -0.697  -0.824  1.00  0.00    -0.202 N 
HETATM   12  C1  UNL     1      -4.126  -0.151   0.385  1.00  0.00     0.677 A 
ATOM     13  H2  UNL     1      -5.292  -0.919  -1.103  1.00  0.00     0.183 HD
HETATM   14  N7  UNL     1      -2.839   0.133   0.727  1.00  0.00    -0.175 N 
ATOM     15  H7  UNL     1      -2.658   0.547   1.641  1.00  0.00     0.186 HD
BRANCH  12  16
HETATM   16  N1  UNL     1      -5.095   0.103   1.207  1.00  0.00    -0.234 N 
ATOM     17  H12 UNL     1      -6.059  -0.110   0.951  1.00  0.00     0.174 HD
ATOM     18  H11 UNL     1      -4.936   0.518   2.125  1.00  0.00     0.174 HD
ENDBRANCH  12  16
ENDBRANCH   1   8
BRANCH   5  19
HETATM   19  C7  UNL     1       3.112  -0.434   0.780  1.00  0.00     0.276 C 
HETATM   20  O1  UNL     1       3.349  -1.618   1.190  1.00  0.00    -0.266 OA
HETATM   21  N5  UNL     1       4.194   0.399   0.458  1.00  0.00    -0.272 N 
ATOM     22  H5  UNL     1       4.030   1.350   0.128  1.00  0.00     0.189 HD
BRANCH  21  23
HETATM   23  N6  UNL     1       5.495  -0.082   0.592  1.00  0.00    -0.342 N 
ATOM     24  H62 UNL     1       5.642  -1.035   0.923  1.00  0.00     0.176 HD
ATOM     25  H61 UNL     1       6.282   0.524   0.358  1.00  0.00     0.176 HD
ENDBRANCH  21  23
ENDBRANCH   5  19
TORSDOF 4
