REMARK  2 active torsions:
REMARK  status: ('A' for Active; 'I' for Inactive)
REMARK    1  A    between atoms: C7_16  and  C8_17 
REMARK    2  A    between atoms: C9_20  and  O1_21 
ROOT
HETATM    1  N1  UNL     1      -0.873   2.992  -1.675  1.00  0.00    -0.196 NA
HETATM    2  C1  UNL     1      -1.491   2.115  -1.206  1.00  0.00     0.075 C 
HETATM    3  C2  UNL     1      -2.265   1.017  -0.584  1.00  0.00     0.182 C 
HETATM    4  C3  UNL     1      -2.513   1.420   0.800  1.00  0.00     0.068 C 
HETATM    5  N2  UNL     1      -2.641   2.626   1.111  1.00  0.00    -0.395 N 
ATOM      6  H21 UNL     1      -2.814   2.907   2.076  1.00  0.00     0.156 HD
ATOM      7  H22 UNL     1      -2.584   3.345   0.390  1.00  0.00     0.156 HD
HETATM    8  S1  UNL     1      -2.612   0.171   2.052  1.00  0.00    -0.061 SA
HETATM    9  C4  UNL     1      -2.515  -1.381   1.180  1.00  0.00     0.068 C 
HETATM   10  N3  UNL     1      -2.998  -2.426   1.703  1.00  0.00    -0.395 N 
ATOM     11  H31 UNL     1      -2.943  -3.314   1.204  1.00  0.00     0.156 HD
ATOM     12  H32 UNL     1      -3.436  -2.359   2.622  1.00  0.00     0.156 HD
HETATM   13  C5  UNL     1      -1.880  -1.478  -0.153  1.00  0.00     0.182 C 
HETATM   14  C6  UNL     1      -0.824  -2.471  -0.148  1.00  0.00     0.075 C 
HETATM   15  N4  UNL     1       0.031  -3.295  -0.174  1.00  0.00    -0.196 NA
HETATM   16  C7  UNL     1      -1.434  -0.214  -0.734  1.00  0.00    -0.003 C 
ENDROOT
BRANCH  16  17
HETATM   17  C8  UNL     1       0.016   0.020  -0.942  1.00  0.00     0.074 A 
HETATM   18  N5  UNL     1       0.709   0.229  -2.102  1.00  0.00    -0.334 N 
HETATM   19  C9  UNL     1       2.027   0.243  -1.904  1.00  0.00     0.153 A 
ATOM     20  H5  UNL     1       0.269   0.359  -3.013  1.00  0.00     0.168 HD
HETATM   21  C10 UNL     1       2.260   0.043  -0.550  1.00  0.00     0.050 A 
HETATM   22  C11 UNL     1       1.020  -0.097   0.021  1.00  0.00     0.110 A 
HETATM   23  C14 UNL     1       3.479   0.122   0.233  1.00  0.00     0.017 C 
HETATM   24  O2  UNL     1       1.003  -0.310   1.377  1.00  0.00    -0.344 OA
HETATM   25  C12 UNL     1       2.084  -0.040   2.213  1.00  0.00     0.203 C 
HETATM   26  C13 UNL     1       3.384   0.076   1.537  1.00  0.00     0.001 C 
BRANCH  19  27
HETATM   27  O1  UNL     1       3.037   0.421  -2.853  1.00  0.00    -0.345 OA
ATOM     28  H1  UNL     1       3.976   0.431  -2.712  1.00  0.00     0.219 HD
ENDBRANCH  19  27
ENDBRANCH  16  17
TORSDOF 2
