REMARK  2 active torsions:
REMARK  status: ('A' for Active; 'I' for Inactive)
REMARK    1  A    between atoms: C2_2  and  N1_5 
REMARK    2  A    between atoms: C9_17  and  N5_18 
ROOT
HETATM    1  N1  UNL     1      -0.548  -1.019  -0.987  1.00  0.00    -0.331 N 
HETATM    2  C5  UNL     1      -0.483  -2.288  -1.585  1.00  0.00     0.184 A 
HETATM    3  N2  UNL     1       0.489  -3.035  -1.077  1.00  0.00    -0.348 N 
ATOM      4  H2  UNL     1       0.732  -3.988  -1.348  1.00  0.00     0.167 HD
HETATM    5  C6  UNL     1       1.083  -2.298  -0.147  1.00  0.00     0.100 A 
HETATM    6  C7  UNL     1       2.145  -2.568   0.666  1.00  0.00     0.131 A 
HETATM    7  S1  UNL     1       2.842  -4.058   0.528  1.00  0.00    -0.058 SA
HETATM    8  N3  UNL     1       2.619  -1.696   1.536  1.00  0.00    -0.331 N 
ATOM      9  H3  UNL     1       3.416  -1.928   2.129  1.00  0.00     0.168 HD
HETATM   10  C8  UNL     1       2.022  -0.493   1.619  1.00  0.00     0.124 A 
HETATM   11  N4  UNL     1       2.506   0.376   2.521  1.00  0.00    -0.327 N 
ATOM     12  H4  UNL     1       3.305   0.113   3.098  1.00  0.00     0.169 HD
HETATM   13  C9  UNL     1       1.955   1.575   2.669  1.00  0.00     0.125 A 
HETATM   14  C10 UNL     1       0.889   1.963   1.922  1.00  0.00     0.139 A 
HETATM   15  C11 UNL     1       0.295   3.276   2.093  1.00  0.00     0.107 C 
HETATM   16  N6  UNL     1      -0.170   4.350   2.249  1.00  0.00    -0.191 NA
HETATM   17  C12 UNL     1       0.345   1.087   0.961  1.00  0.00     0.212 A 
HETATM   18  O1  UNL     1      -0.667   1.599   0.340  1.00  0.00    -0.286 OA
HETATM   19  C13 UNL     1       0.938  -0.129   0.835  1.00  0.00     0.089 A 
HETATM   20  C14 UNL     1       0.438  -1.051  -0.091  1.00  0.00     0.084 A 
ENDROOT
BRANCH  13  21
HETATM   21  N5  UNL     1       2.429   2.414   3.539  1.00  0.00    -0.384 N 
ATOM     22  H52 UNL     1       3.230   2.123   4.100  1.00  0.00     0.157 HD
ATOM     23  H51 UNL     1       2.006   3.335   3.653  1.00  0.00     0.157 HD
ENDBRANCH  13  21
BRANCH   1  24
HETATM   24  C2  UNL     1      -1.482  -0.047  -1.415  1.00  0.00     0.027 C 
HETATM   25  C1  UNL     1      -2.797   0.074  -0.685  1.00  0.00     0.038 C 
HETATM   26  C3  UNL     1      -2.182  -0.841  -2.634  1.00  0.00     0.038 C 
HETATM   27  C4  UNL     1      -1.064   1.090  -2.323  1.00  0.00     0.038 C 
ENDBRANCH   1  24
TORSDOF 2
