REMARK  4 active torsions:
REMARK  status: ('A' for Active; 'I' for Inactive)
REMARK    1  A    between atoms: N1_1  and  C1_4 
REMARK    2  A    between atoms: C1_4  and  C2_6 
REMARK    3  A    between atoms: C6_11  and  C7_12 
REMARK    4  A    between atoms: N3_13  and  O1_15 
ROOT
HETATM    1  C2  UNL     1      -3.292  -1.116   0.445  1.00  0.00     0.048 A 
HETATM    2  C3  UNL     1      -2.112  -1.391  -0.098  1.00  0.00     0.053 A 
HETATM    3  C4  UNL     1      -1.113  -0.436  -0.273  1.00  0.00     0.052 A 
HETATM    4  C5  UNL     1      -1.570   0.761   0.193  1.00  0.00     0.044 A 
HETATM    5  S1  UNL     1      -3.185   0.539   0.793  1.00  0.00    -0.084 SA
HETATM    6  C6  UNL     1      -0.867   2.086   0.199  1.00  0.00     0.002 C 
HETATM    7  C8  UNL     1       0.411   2.092  -0.315  1.00  0.00     0.039 C 
HETATM    8  C9  UNL     1       1.605   2.719  -0.654  1.00  0.00     0.143 C 
HETATM    9  O2  UNL     1       2.410   1.619  -1.096  1.00  0.00    -0.320 OA
HETATM   10  C10 UNL     1       2.493   0.297  -0.684  1.00  0.00     0.103 A 
HETATM   11  C11 UNL     1       3.831   0.003  -0.322  1.00  0.00     0.066 A 
HETATM   12  C12 UNL     1       4.274  -1.212   0.119  1.00  0.00     0.049 A 
HETATM   13  N4  UNL     1       5.619  -1.470   0.479  1.00  0.00    -0.102 NA
HETATM   14  C13 UNL     1       3.383  -2.225   0.223  1.00  0.00     0.029 A 
HETATM   15  C14 UNL     1       2.104  -1.959  -0.119  1.00  0.00     0.034 A 
HETATM   16  C15 UNL     1       1.559  -0.728  -0.580  1.00  0.00     0.067 A 
HETATM   17  N5  UNL     1       0.173  -0.810  -0.840  1.00  0.00    -0.353 N 
ATOM     18  H5  UNL     1       0.024  -1.296  -1.724  1.00  0.00     0.166 HD
ENDROOT
BRANCH   1  19
HETATM   19  C1  UNL     1      -4.452  -1.977   0.718  1.00  0.00     0.127 C 
HETATM   20  N2  UNL     1      -5.578  -1.424   1.326  1.00  0.00    -0.082 NA
BRANCH  19  21
HETATM   21  N1  UNL     1      -4.407  -3.198   0.406  1.00  0.00    -0.387 N 
ATOM     22  H12 UNL     1      -5.212  -3.795   0.595  1.00  0.00     0.157 HD
ATOM     23  H11 UNL     1      -3.583  -3.603  -0.039  1.00  0.00     0.157 HD
ENDBRANCH  19  21
ENDBRANCH   1  19
BRANCH   6  24
HETATM   24  C7  UNL     1      -1.461   3.150   0.664  1.00  0.00     0.126 C 
HETATM   25  N3  UNL     1      -2.098   4.280   0.643  1.00  0.00    -0.280 N 
ATOM     26  H3  UNL     1      -2.040   4.917   1.438  1.00  0.00     0.193 HD
BRANCH  25  27
HETATM   27  O1  UNL     1      -2.863   4.619  -0.475  1.00  0.00    -0.290 OA
ATOM     28  H1  UNL     1      -3.329   5.446  -0.490  1.00  0.00     0.244 HD
ENDBRANCH  25  27
ENDBRANCH   6  24
TORSDOF 4
