REMARK  4 active torsions:
REMARK  status: ('A' for Active; 'I' for Inactive)
REMARK    1  A    between atoms: C7_7  and  O1_8 
REMARK    2  A    between atoms: C8_11  and  C9_12 
REMARK    3  A    between atoms: C10_15  and  N2_16 
REMARK    4  A    between atoms: C13_23  and  O3_24 
ROOT
HETATM    1  C9  UNL     1       1.502  -0.300  -0.031  1.00  0.00     0.115 A 
HETATM    2  N1  UNL     1       1.154  -1.590   0.038  1.00  0.00    -0.187 N 
ATOM      3  H1  UNL     1       0.173  -1.815   0.200  1.00  0.00     0.184 HD
HETATM    4  C10 UNL     1       2.021  -2.603  -0.094  1.00  0.00     0.677 A 
HETATM    5  N3  UNL     1       3.306  -2.302  -0.305  1.00  0.00    -0.190 N 
ATOM      6  H3  UNL     1       3.970  -3.070  -0.405  1.00  0.00     0.184 HD
HETATM    7  C11 UNL     1       3.774  -1.045  -0.393  1.00  0.00     0.082 A 
HETATM    8  C12 UNL     1       5.010  -0.484  -0.599  1.00  0.00     0.088 A 
HETATM    9  C13 UNL     1       4.858   0.875  -0.587  1.00  0.00     0.142 A 
HETATM   10  N4  UNL     1       3.542   1.125  -0.376  1.00  0.00    -0.333 N 
ATOM     11  H4  UNL     1       3.138   2.060  -0.319  1.00  0.00     0.168 HD
HETATM   12  C14 UNL     1       2.838  -0.011  -0.251  1.00  0.00     0.092 A 
ENDROOT
BRANCH   1  13
HETATM   13  C8  UNL     1       0.521   0.770   0.119  1.00  0.00     0.142 A 
HETATM   14  O2  UNL     1       0.694   2.045   0.079  1.00  0.00    -0.282 OA
HETATM   15  C7  UNL     1      -0.398   2.717   0.250  1.00  0.00     0.193 A 
HETATM   16  C6  UNL     1      -1.405   1.793   0.423  1.00  0.00     0.036 A 
HETATM   17  C5  UNL     1      -2.873   1.839   0.661  1.00  0.00     0.049 C 
HETATM   18  C15 UNL     1      -0.830   0.543   0.341  1.00  0.00     0.117 A 
HETATM   19  C4  UNL     1      -3.506   0.729  -0.153  1.00  0.00     0.042 C 
HETATM   20  C2  UNL     1      -2.985  -0.630   0.197  1.00  0.00     0.061 C 
HETATM   21  C1  UNL     1      -3.268  -1.538  -1.003  1.00  0.00     0.046 C 
HETATM   22  C3  UNL     1      -3.762  -1.199   1.361  1.00  0.00     0.046 C 
HETATM   23  O4  UNL     1      -1.582  -0.618   0.473  1.00  0.00    -0.337 OA
BRANCH  15  24
HETATM   24  O1  UNL     1      -0.605   4.104   0.271  1.00  0.00    -0.340 OA
ATOM     25  H1  UNL     1       0.089   4.741   0.152  1.00  0.00     0.220 HD
ENDBRANCH  15  24
ENDBRANCH   1  13
BRANCH   4  26
HETATM   26  N2  UNL     1       1.617  -3.852  -0.016  1.00  0.00    -0.234 N 
ATOM     27  H22 UNL     1       0.636  -4.082   0.145  1.00  0.00     0.174 HD
ATOM     28  H21 UNL     1       2.277  -4.623  -0.116  1.00  0.00     0.174 HD
ENDBRANCH   4  26
BRANCH   9  29
HETATM   29  O3  UNL     1       5.817   1.871  -0.753  1.00  0.00    -0.346 OA
ATOM     30  H3  UNL     1       5.711   2.815  -0.745  1.00  0.00     0.219 HD
ENDBRANCH   9  29
TORSDOF 4
