REMARK  7 active torsions:
REMARK  status: ('A' for Active; 'I' for Inactive)
REMARK    1  A    between atoms: C4_4  and  C5_5 
REMARK    2  A    between atoms: C5_5  and  O1_6 
REMARK    3  A    between atoms: C7_9  and  C8_10 
REMARK    4  A    between atoms: N1_11  and  O2_13 
REMARK    5  A    between atoms: C11_18  and  O4_19 
REMARK    6  A    between atoms: C12_21  and  O5_22 
REMARK    7  A    between atoms: C16_27  and  O6_28 
ROOT
HETATM    1  C5  UNL     1      -0.546   0.215  -0.328  1.00  0.00     0.103 C 
HETATM    2  C6  UNL     1       0.301   1.131  -1.139  1.00  0.00     0.061 C 
HETATM    3  C7  UNL     1       1.598   1.669  -0.579  1.00  0.00     0.089 C 
HETATM    4  C9  UNL     1       2.290   0.608   0.226  1.00  0.00     0.098 A 
HETATM    5  O3  UNL     1       1.642  -0.460   0.173  1.00  0.00    -0.313 OA
HETATM    6  C10 UNL     1       2.106  -1.438   0.810  1.00  0.00     0.089 A 
HETATM    7  C11 UNL     1       3.238  -0.989   1.385  1.00  0.00     0.131 A 
HETATM    8  C12 UNL     1       3.368   0.364   1.004  1.00  0.00     0.132 A 
HETATM    9  C13 UNL     1       1.182  -2.630   0.628  1.00  0.00     0.075 C 
HETATM   10  C14 UNL     1       0.331  -2.277  -0.566  1.00  0.00     0.020 C 
HETATM   11  C15 UNL     1      -0.387  -3.588  -0.945  1.00  0.00     0.013 C 
HETATM   12  C16 UNL     1      -0.606  -1.220  -0.647  1.00  0.00     0.160 C 
ENDROOT
BRANCH   1  13
HETATM   13  C4  UNL     1      -1.973   0.635  -0.780  1.00  0.00     0.015 C 
HETATM   14  C2  UNL     1      -3.023   0.680  -0.061  1.00  0.00    -0.088 C 
HETATM   15  C1  UNL     1      -4.315   1.123  -0.721  1.00  0.00     0.042 C 
HETATM   16  C3  UNL     1      -3.096   0.334   1.367  1.00  0.00     0.042 C 
ENDBRANCH   1  13
BRANCH   1  17
HETATM   17  O1  UNL     1      -0.629   0.560   1.025  1.00  0.00    -0.383 OA
ATOM     18  H1  UNL     1       0.243   0.303   1.301  1.00  0.00     0.211 HD
ENDBRANCH   1  17
BRANCH  12  19
HETATM   19  O6  UNL     1      -1.019  -1.201  -2.051  1.00  0.00    -0.392 OA
ATOM     20  H6  UNL     1      -1.058  -2.128  -2.257  1.00  0.00     0.210 HD
ENDBRANCH  12  19
BRANCH   3  21
HETATM   21  C8  UNL     1       1.479   2.868   0.244  1.00  0.00     0.098 C 
HETATM   22  N1  UNL     1       1.342   4.047  -0.310  1.00  0.00    -0.283 N 
ATOM     23  H1  UNL     1       1.322   4.097  -1.329  1.00  0.00     0.192 HD
BRANCH  22  24
HETATM   24  O2  UNL     1       1.226   5.202   0.384  1.00  0.00    -0.291 OA
ATOM     25  H2  UNL     1       1.127   6.057  -0.018  1.00  0.00     0.244 HD
ENDBRANCH  22  24
ENDBRANCH   3  21
BRANCH   8  26
HETATM   26  O5  UNL     1       4.349   1.272   1.324  1.00  0.00    -0.356 OA
ATOM     27  H5  UNL     1       5.107   1.101   1.871  1.00  0.00     0.218 HD
ENDBRANCH   8  26
BRANCH   7  28
HETATM   28  O4  UNL     1       4.080  -1.732   2.183  1.00  0.00    -0.356 OA
ATOM     29  H4  UNL     1       4.879  -1.415   2.589  1.00  0.00     0.218 HD
ENDBRANCH   7  28
TORSDOF 7
