REMARK  1 active torsions:
REMARK  status: ('A' for Active; 'I' for Inactive)
REMARK    1  A    between atoms: C2_2  and  C3_3 
ROOT
HETATM    1  C3  UNL     1       0.250   0.110   0.150  1.00  0.00     0.034 C 
HETATM    2  C4  UNL     1      -0.618   0.832  -0.883  1.00  0.00     0.131 C 
HETATM    3  N1  UNL     1      -1.925   0.757  -0.244  1.00  0.00    -0.360 N 
ATOM      4  H1  UNL     1      -2.686   1.423  -0.379  1.00  0.00     0.162 HD
HETATM    5  C5  UNL     1      -1.975  -0.387   0.596  1.00  0.00     0.218 C 
HETATM    6  O1  UNL     1      -2.968  -0.759   1.261  1.00  0.00    -0.274 OA
HETATM    7  C6  UNL     1      -0.644  -1.041   0.530  1.00  0.00     0.113 C 
ENDROOT
BRANCH   1   8
HETATM    8  C2  UNL     1       1.545  -0.289  -0.388  1.00  0.00    -0.030 C 
HETATM    9  C1  UNL     1       2.657   0.093   0.230  1.00  0.00     0.007 C 
ENDBRANCH   1   8
TORSDOF 1
