REMARK  2 active torsions:
REMARK  status: ('A' for Active; 'I' for Inactive)
REMARK    1  A    between atoms: C2_2  and  C3_3 
REMARK       I    between atoms: C3_3  and  N1_5 
REMARK    2  A    between atoms: N1_5  and  C4_7 
ROOT
HETATM    1  C3  UNL     1       0.049  -0.435   0.720  1.00  0.00     0.246 C 
HETATM    2  O1  UNL     1      -0.332  -1.131   1.693  1.00  0.00    -0.268 OA
HETATM    3  N1  UNL     1       1.383  -0.004   0.546  1.00  0.00    -0.301 N 
ATOM      4  H1  UNL     1       2.063  -0.278   1.255  1.00  0.00     0.171 HD
ENDROOT
BRANCH   1   5
HETATM    5  C2  UNL     1      -0.958  -0.070  -0.261  1.00  0.00     0.064 C 
HETATM    6  C1  UNL     1      -2.219  -0.428  -0.173  1.00  0.00     0.017 C 
ENDBRANCH   1   5
BRANCH   3   7
HETATM    7  C4  UNL     1       1.845   0.774  -0.530  1.00  0.00     0.355 C 
HETATM    8  O2  UNL     1       3.058   1.087  -0.562  1.00  0.00    -0.283 OA
ENDBRANCH   3   7
TORSDOF 2
