REMARK  1 active torsions:
REMARK  status: ('A' for Active; 'I' for Inactive)
REMARK    1  A    between atoms: N2_4  and  N3_6 
ROOT
HETATM    1  N3  UNL     1       1.643   0.281   0.952  1.00  0.00    -0.275 N 
ATOM      2  H3  UNL     1       1.948  -0.050   1.867  1.00  0.00     0.189 HD
HETATM    3  C1  UNL     1       0.478  -0.037   0.619  1.00  0.00     0.094 C 
HETATM    4  C2  UNL     1      -0.640  -0.797   1.209  1.00  0.00     0.097 C 
HETATM    5  C3  UNL     1      -1.485   0.166   0.368  1.00  0.00     0.128 C 
HETATM    6  N4  UNL     1      -0.330   0.195  -0.518  1.00  0.00    -0.378 N 
ATOM      7  H4  UNL     1      -0.173   0.325  -1.517  1.00  0.00     0.160 HD
ENDROOT
BRANCH   1   8
HETATM    8  N2  UNL     1       2.561   1.015   0.249  1.00  0.00    -0.248 N 
HETATM    9  N1  UNL     1       3.483   0.533  -0.473  1.00  0.00    -0.331 N 
ATOM     10  H12 UNL     1       3.532  -0.485  -0.524  1.00  0.00     0.178 HD
ATOM     11  H11 UNL     1       4.167   1.080  -0.997  1.00  0.00     0.178 HD
ATOM     12  H2  UNL     1       2.497   2.031   0.312  1.00  0.00     0.207 HD
ENDBRANCH   1   8
TORSDOF 1
