REMARK  13 active torsions:
REMARK  status: ('A' for Active; 'I' for Inactive)
REMARK    1  A    between atoms: O1_1  and  C1_3 
REMARK    2  A    between atoms: C1_3  and  C2_4 
REMARK    3  A    between atoms: C3_6  and  O3_7 
REMARK    4  A    between atoms: C4_9  and  O4_10 
REMARK    5  A    between atoms: O4_10  and  C5_11 
REMARK    6  A    between atoms: C5_11  and  C6_12 
REMARK    7  A    between atoms: C7_13  and  O5_14 
REMARK    8  A    between atoms: C8_16  and  O6_17 
REMARK    9  A    between atoms: C9_19  and  O7_20 
REMARK   10  A    between atoms: C10_22  and  O8_23 
REMARK   11  A    between atoms: O8_23  and  C11_24 
REMARK   12  A    between atoms: C11_24  and  C12_25 
REMARK   13  A    between atoms: C22_35  and  O9_36 
ROOT
HETATM    1  C6  UNL     1       1.471  -0.142   0.018  1.00  0.00     0.072 C 
HETATM    2  C7  UNL     1       1.471   0.342   1.429  1.00  0.00     0.158 C 
HETATM    3  C8  UNL     1       1.432  -0.828   2.359  1.00  0.00     0.178 C 
HETATM    4  C9  UNL     1       0.214  -1.696   2.241  1.00  0.00     0.180 C 
HETATM    5  C10 UNL     1      -0.570  -1.224   0.983  1.00  0.00     0.181 C 
HETATM    6  C22 UNL     1       0.458  -1.262  -0.109  1.00  0.00     0.158 C 
ENDROOT
BRANCH   1   7
HETATM    7  C5  UNL     1       2.861  -0.612  -0.346  1.00  0.00     0.181 C 
BRANCH   7   8
HETATM    8  O4  UNL     1       3.803   0.390  -0.240  1.00  0.00    -0.356 OA
BRANCH   8   9
HETATM    9  C4  UNL     1       5.048  -0.127  -0.590  1.00  0.00     0.317 C 
HETATM   10  C3  UNL     1       5.725   0.663  -1.677  1.00  0.00     0.315 C 
HETATM   11  O2  UNL     1       6.749   1.404  -1.049  1.00  0.00    -0.324 OA
HETATM   12  C2  UNL     1       6.334   1.388   0.259  1.00  0.00     0.289 C 
HETATM   13  O10 UNL     1       5.947   0.046   0.487  1.00  0.00    -0.324 OA
BRANCH  10  14
HETATM   14  O3  UNL     1       4.865   1.462  -2.399  1.00  0.00    -0.367 OA
ATOM     15  H3  UNL     1       4.176   0.963  -2.822  1.00  0.00     0.212 HD
ENDBRANCH  10  14
BRANCH  12  16
HETATM   16  C1  UNL     1       7.428   1.700   1.252  1.00  0.00     0.225 C 
BRANCH  16  17
HETATM   17  O1  UNL     1       7.976   2.960   1.043  1.00  0.00    -0.396 OA
ATOM     18  H1  UNL     1       8.664   3.156   1.668  1.00  0.00     0.209 HD
ENDBRANCH  16  17
ENDBRANCH  12  16
ENDBRANCH   8   9
ENDBRANCH   7   8
ENDBRANCH   1   7
BRANCH   2  19
HETATM   19  O5  UNL     1       2.664   1.040   1.725  1.00  0.00    -0.392 OA
ATOM     20  H5  UNL     1       2.664   1.348   2.624  1.00  0.00     0.210 HD
ENDBRANCH   2  19
BRANCH   6  21
HETATM   21  O9  UNL     1      -0.084  -1.210  -1.373  1.00  0.00    -0.392 OA
ATOM     22  H9  UNL     1      -0.719  -1.912  -1.453  1.00  0.00     0.210 HD
ENDBRANCH   6  21
BRANCH   3  23
HETATM   23  O6  UNL     1       1.577  -0.308   3.661  1.00  0.00    -0.390 OA
ATOM     24  H6  UNL     1       1.552  -1.051   4.252  1.00  0.00     0.210 HD
ENDBRANCH   3  23
BRANCH   5  25
HETATM   25  O8  UNL     1      -1.611  -1.999   0.716  1.00  0.00    -0.380 OA
BRANCH  25  26
HETATM   26  C11 UNL     1      -2.891  -1.713   0.801  1.00  0.00     0.177 C 
BRANCH  26  27
HETATM   27  C12 UNL     1      -3.594  -0.716  -0.050  1.00  0.00    -0.018 C 
HETATM   28  C13 UNL     1      -3.027   0.674   0.046  1.00  0.00     0.016 C 
HETATM   29  C14 UNL     1      -3.896   1.706  -0.641  1.00  0.00    -0.013 C 
HETATM   30  C15 UNL     1      -4.042   1.340  -2.103  1.00  0.00     0.009 C 
HETATM   31  C19 UNL     1      -5.239   1.765   0.002  1.00  0.00     0.009 C 
HETATM   32  C16 UNL     1      -4.609  -0.045  -2.186  1.00  0.00    -0.013 C 
HETATM   33  C17 UNL     1      -5.999  -0.013  -1.609  1.00  0.00     0.009 C 
HETATM   34  C21 UNL     1      -3.756  -1.083  -1.488  1.00  0.00     0.016 C 
HETATM   35  C18 UNL     1      -5.863   0.394  -0.165  1.00  0.00    -0.013 C 
HETATM   36  C20 UNL     1      -5.030  -0.580   0.561  1.00  0.00     0.016 C 
ENDBRANCH  26  27
ENDBRANCH  25  26
ENDBRANCH   5  25
BRANCH   4  37
HETATM   37  O7  UNL     1       0.618  -3.008   2.112  1.00  0.00    -0.390 OA
ATOM     38  H7  UNL     1      -0.153  -3.558   2.037  1.00  0.00     0.210 HD
ENDBRANCH   4  37
TORSDOF 13
