REMARK  12 active torsions:
REMARK  status: ('A' for Active; 'I' for Inactive)
REMARK    1  A    between atoms: C2_2  and  C4_4 
REMARK    2  A    between atoms: C5_6  and  C6_7 
REMARK    3  A    between atoms: C7_10  and  O4_11 
REMARK    4  A    between atoms: C8_13  and  O5_14 
REMARK    5  A    between atoms: O5_14  and  C9_15 
REMARK    6  A    between atoms: C10_17  and  C11_18 
REMARK    7  A    between atoms: C11_18  and  O7_19 
REMARK    8  A    between atoms: C12_21  and  O8_22 
REMARK    9  A    between atoms: C13_24  and  O9_25 
REMARK   10  A    between atoms: C14_27  and  O10_28 
REMARK   11  A    between atoms: C15_30  and  N1_31 
REMARK   12  A    between atoms: N1_31  and  C16_33 
ROOT
HETATM    1  C4  UNL     1      -2.383   0.896   0.390  1.00  0.00     0.175 C 
HETATM    2  O1  UNL     1      -2.235   1.127   1.784  1.00  0.00    -0.361 OA
HETATM    3  C5  UNL     1      -1.520   2.278   2.047  1.00  0.00     0.254 C 
HETATM    4  C7  UNL     1      -0.229   2.195   1.290  1.00  0.00     0.189 C 
HETATM    5  C8  UNL     1       0.021   0.766   0.751  1.00  0.00     0.181 C 
HETATM    6  C15 UNL     1      -1.105   0.615  -0.289  1.00  0.00     0.142 C 
ENDROOT
BRANCH   5   7
HETATM    7  O5  UNL     1       1.269   0.830   0.215  1.00  0.00    -0.348 OA
BRANCH   7   8
HETATM    8  C9  UNL     1       2.254   0.035   0.781  1.00  0.00     0.292 C 
HETATM    9  O6  UNL     1       3.255   0.758   1.371  1.00  0.00    -0.348 OA
HETATM   10  C10 UNL     1       4.098   0.040   2.143  1.00  0.00     0.179 C 
HETATM   11  C12 UNL     1       4.952  -0.841   1.263  1.00  0.00     0.180 C 
HETATM   12  C13 UNL     1       4.279  -1.267  -0.000  1.00  0.00     0.183 C 
HETATM   13  C14 UNL     1       2.846  -0.982  -0.124  1.00  0.00     0.204 C 
BRANCH  10  14
HETATM   14  C11 UNL     1       3.467  -0.748   3.273  1.00  0.00     0.198 C 
BRANCH  14  15
HETATM   15  O7  UNL     1       4.436  -1.419   4.020  1.00  0.00    -0.398 OA
ATOM     16  H7  UNL     1       4.040  -1.913   4.728  1.00  0.00     0.209 HD
ENDBRANCH  14  15
ENDBRANCH  10  14
BRANCH  11  17
HETATM   17  O8  UNL     1       6.130  -0.128   0.998  1.00  0.00    -0.390 OA
ATOM     18  H8  UNL     1       6.667  -0.682   0.444  1.00  0.00     0.210 HD
ENDBRANCH  11  17
BRANCH  12  19
HETATM   19  O9  UNL     1       4.584  -2.612  -0.216  1.00  0.00    -0.390 OA
ATOM     20  H9  UNL     1       4.156  -2.883  -1.020  1.00  0.00     0.210 HD
ENDBRANCH  12  19
BRANCH  13  21
HETATM   21  O10 UNL     1       2.138  -2.192   0.063  1.00  0.00    -0.388 OA
ATOM     22  H10 UNL     1       2.517  -2.843  -0.516  1.00  0.00     0.210 HD
ENDBRANCH  13  21
ENDBRANCH   7   8
ENDBRANCH   5   7
BRANCH   4  23
HETATM   23  O4  UNL     1       0.785   2.571   2.156  1.00  0.00    -0.390 OA
ATOM     24  H4  UNL     1       1.603   2.518   1.676  1.00  0.00     0.210 HD
ENDBRANCH   4  23
BRANCH   6  25
HETATM   25  N1  UNL     1      -1.023  -0.703  -0.867  1.00  0.00    -0.408 N 
ATOM     26  H1  UNL     1      -0.329  -1.374  -0.537  1.00  0.00     0.154 HD
BRANCH  25  27
HETATM   27  C16 UNL     1      -1.912  -1.042  -1.887  1.00  0.00     0.077 C 
HETATM   28  C17 UNL     1      -1.753  -0.216  -3.142  1.00  0.00     0.024 C 
HETATM   29  C18 UNL     1      -1.888  -1.065  -4.391  1.00  0.00     0.002 C 
HETATM   30  C19 UNL     1      -3.072  -1.997  -4.226  1.00  0.00     0.000 C 
HETATM   31  C20 UNL     1      -2.732  -3.015  -3.186  1.00  0.00     0.002 C 
HETATM   32  C21 UNL     1      -1.634  -2.500  -2.285  1.00  0.00     0.024 C 
ENDBRANCH  25  27
ENDBRANCH   6  25
BRANCH   3  33
HETATM   33  C6  UNL     1      -1.273   2.323   3.505  1.00  0.00     0.205 C 
HETATM   34  O2  UNL     1      -0.634   3.284   4.001  1.00  0.00    -0.646 OA
HETATM   35  O3  UNL     1      -1.718   1.346   4.351  1.00  0.00    -0.646 OA
ENDBRANCH   3  33
BRANCH   1  36
HETATM   36  C2  UNL     1      -3.171   2.045  -0.098  1.00  0.00    -0.062 C 
HETATM   37  C1  UNL     1      -2.909   2.849  -1.101  1.00  0.00     0.016 C 
HETATM   38  C3  UNL     1      -4.463   2.353   0.633  1.00  0.00     0.045 C 
ENDBRANCH   1  36
TORSDOF 12
