REMARK  6 active torsions:
REMARK  status: ('A' for Active; 'I' for Inactive)
REMARK    1  A    between atoms: C2_2  and  C6_11 
REMARK    2  A    between atoms: C3_3  and  C4_4 
REMARK       I    between atoms: C4_4  and  N1_6 
REMARK       I    between atoms: C6_11  and  N4_13 
REMARK    3  A    between atoms: N4_13  and  N5_15 
REMARK    4  A    between atoms: C7_17  and  C8_18 
REMARK    5  A    between atoms: C9_21  and  N7_22 
REMARK    6  A    between atoms: N9_29  and  N10_30 
ROOT
HETATM    1  N5  UNL     1      -1.787  -0.058   0.223  1.00  0.00    -0.305 N 
ATOM      2  H5  UNL     1      -2.076   0.782  -0.279  1.00  0.00     0.186 HD
HETATM    3  C7  UNL     1      -2.675  -0.888   0.630  1.00  0.00     0.158 C 
ENDROOT
BRANCH   1   4
HETATM    4  N4  UNL     1      -0.405  -0.292   0.462  1.00  0.00    -0.266 N 
HETATM    5  C6  UNL     1       0.516   0.202  -0.458  1.00  0.00     0.265 C 
HETATM    6  O2  UNL     1       0.092   0.839  -1.471  1.00  0.00    -0.266 OA
ATOM      7  H4  UNL     1      -0.096  -0.808   1.286  1.00  0.00     0.190 HD
BRANCH   5   8
HETATM    8  C2  UNL     1       1.947   0.026  -0.322  1.00  0.00     0.013 C 
HETATM    9  C1  UNL     1       2.489  -0.699   0.826  1.00  0.00     0.054 C 
HETATM   10  C3  UNL     1       2.705   0.539  -1.257  1.00  0.00     0.086 C 
BRANCH  10  11
HETATM   11  C4  UNL     1       4.135   0.462  -1.284  1.00  0.00     0.247 C 
HETATM   12  O1  UNL     1       4.750   1.015  -2.269  1.00  0.00    -0.268 OA
HETATM   13  N1  UNL     1       4.901  -0.175  -0.308  1.00  0.00    -0.300 N 
HETATM   14  C5  UNL     1       5.990   0.350   0.120  1.00  0.00     0.203 C 
ATOM     15  H1  UNL     1       4.591  -1.070   0.070  1.00  0.00     0.171 HD
HETATM   16  N2  UNL     1       6.720  -0.343   1.107  1.00  0.00    -0.066 NA
HETATM   17  N3  UNL     1       6.400   1.596  -0.422  1.00  0.00    -0.066 NA
ENDBRANCH  10  11
ENDBRANCH   5   8
ENDBRANCH   1   4
BRANCH   3  18
HETATM   18  C8  UNL     1      -4.085  -0.656   0.390  1.00  0.00     0.163 A 
HETATM   19  N6  UNL     1      -5.042  -1.515   0.809  1.00  0.00    -0.173 N 
HETATM   20  C9  UNL     1      -6.351  -1.310   0.592  1.00  0.00     0.681 A 
ATOM     21  H6  UNL     1      -4.757  -2.355   1.312  1.00  0.00     0.186 HD
HETATM   22  N8  UNL     1      -6.717  -0.195  -0.073  1.00  0.00    -0.140 N 
HETATM   23  C10 UNL     1      -5.765   0.660  -0.491  1.00  0.00     0.361 A 
ATOM     24  H8  UNL     1      -7.702  -0.002  -0.257  1.00  0.00     0.189 HD
HETATM   25  O3  UNL     1      -6.130   1.703  -1.115  1.00  0.00    -0.244 OA
HETATM   26  N9  UNL     1      -4.466   0.438  -0.265  1.00  0.00    -0.193 N 
BRANCH  20  27
HETATM   27  N7  UNL     1      -7.283  -2.101   0.974  1.00  0.00    -0.234 N 
ATOM     28  H72 UNL     1      -7.006  -2.944   1.477  1.00  0.00     0.174 HD
ATOM     29  H71 UNL     1      -8.277  -1.945   0.809  1.00  0.00     0.174 HD
ENDBRANCH  20  27
BRANCH  26  30
HETATM   30  N10 UNL     1      -3.479   1.348  -0.710  1.00  0.00    -0.333 N 
ATOM     31 2H10 UNL     1      -2.488   1.179  -0.538  1.00  0.00     0.177 HD
ATOM     32 1H10 UNL     1      -3.771   2.187  -1.212  1.00  0.00     0.177 HD
ENDBRANCH  26  30
ENDBRANCH   3  18
TORSDOF 6
