REMARK  4 active torsions:
REMARK  status: ('A' for Active; 'I' for Inactive)
REMARK       I    between atoms: C1_2  and  N3_4 
REMARK       I    between atoms: N3_4  and  C2_6 
REMARK    1  A    between atoms: C2_6  and  C3_8 
REMARK    2  A    between atoms: N6_14  and  C5_16 
REMARK    3  A    between atoms: C5_16  and  C6_17 
REMARK    4  A    between atoms: C5_16  and  C7_20 
REMARK       I    between atoms: C7_20  and  N7_22 
REMARK       I    between atoms: N7_22  and  C8_24 
REMARK       I    between atoms: C8_24  and  N8_25 
REMARK       I    between atoms: C8_24  and  N9_29 
ROOT
HETATM    1  C5  UNL     1      -1.160  -0.730  -0.001  1.00  0.00     0.279 C 
ENDROOT
BRANCH   1   2
HETATM    2  N6  UNL     1      -0.280  -1.564  -0.713  1.00  0.00    -0.333 N 
HETATM    3  C4  UNL     1       0.993  -1.437  -0.876  1.00  0.00     0.242 A 
HETATM    4  N5  UNL     1       1.762  -2.288  -1.578  1.00  0.00    -0.263 N 
HETATM    5  O5  UNL     1       1.794  -0.503  -0.422  1.00  0.00    -0.254 OA
HETATM    6  N4  UNL     1       3.016  -1.827  -1.519  1.00  0.00    -0.272 N 
ATOM      7  H5  UNL     1       1.448  -3.128  -2.064  1.00  0.00     0.190 HD
HETATM    8  C3  UNL     1       3.024  -0.699  -0.786  1.00  0.00     0.235 A 
ATOM      9  H4  UNL     1       3.830  -2.258  -1.957  1.00  0.00     0.189 HD
ATOM     10  H6  UNL     1      -0.705  -2.377  -1.160  1.00  0.00     0.164 HD
BRANCH   8  11
HETATM   11  C2  UNL     1       4.214   0.121  -0.484  1.00  0.00     0.300 C 
HETATM   12  N3  UNL     1       4.137   1.292   0.290  1.00  0.00    -0.296 N 
HETATM   13  C1  UNL     1       4.867   2.298  -0.001  1.00  0.00     0.203 C 
ATOM     14  H3  UNL     1       3.498   1.338   1.084  1.00  0.00     0.171 HD
HETATM   15  N1  UNL     1       4.781   3.466   0.777  1.00  0.00    -0.066 NA
HETATM   16  N2  UNL     1       5.744   2.244  -1.092  1.00  0.00    -0.066 NA
HETATM   17  O1  UNL     1       5.333  -0.249  -0.937  1.00  0.00    -0.263 OA
ENDBRANCH   8  11
ENDBRANCH   1   2
BRANCH   1  18
HETATM   18  C6  UNL     1      -1.138   0.654  -0.506  1.00  0.00     0.206 C 
HETATM   19  O2  UNL     1      -1.827   1.567   0.013  1.00  0.00    -0.646 OA
HETATM   20  O3  UNL     1      -0.337   0.976  -1.585  1.00  0.00    -0.646 OA
ENDBRANCH   1  18
BRANCH   1  21
HETATM   21  C7  UNL     1      -2.543  -1.309  -0.098  1.00  0.00     0.254 C 
HETATM   22  O4  UNL     1      -2.725  -2.329  -0.804  1.00  0.00    -0.271 OA
HETATM   23  N7  UNL     1      -3.650  -0.742   0.581  1.00  0.00    -0.309 N 
HETATM   24  C8  UNL     1      -4.949  -1.351   0.436  1.00  0.00     0.482 C 
ATOM     25  H7  UNL     1      -3.530   0.086   1.165  1.00  0.00     0.166 HD
HETATM   26  N8  UNL     1      -5.886  -0.353  -0.001  1.00  0.00    -0.033 N 
HETATM   27  N9  UNL     1      -5.419  -1.970   1.663  1.00  0.00    -0.033 N 
ATOM     28  H83 UNL     1      -5.904   0.460   0.615  1.00  0.00     0.278 HD
ATOM     29  H82 UNL     1      -5.581   0.120  -0.852  1.00  0.00     0.278 HD
ATOM     30  H81 UNL     1      -6.805  -0.784  -0.104  1.00  0.00     0.278 HD
ATOM     31  H93 UNL     1      -4.738  -2.641   2.018  1.00  0.00     0.278 HD
ATOM     32  H92 UNL     1      -5.412  -1.303   2.435  1.00  0.00     0.278 HD
ATOM     33  H91 UNL     1      -6.338  -2.401   1.560  1.00  0.00     0.278 HD
ENDBRANCH   1  21
TORSDOF 4
