REMARK  3 active torsions:
REMARK  status: ('A' for Active; 'I' for Inactive)
REMARK    1  A    between atoms: N2_5  and  C3_6 
REMARK       I    between atoms: N5_12  and  C5_14 
REMARK       I    between atoms: C5_14  and  N7_18 
REMARK    2  A    between atoms: N7_18  and  N8_20 
REMARK    3  A    between atoms: N8_20  and  O1_22 
ROOT
HETATM    1  C3  UNL     1      -0.144  -0.141   0.190  1.00  0.00     0.272 A 
HETATM    2  N3  UNL     1       0.596   0.640   1.006  1.00  0.00    -0.260 N 
ATOM      3  H3  UNL     1       0.233   1.144   1.815  1.00  0.00     0.190 HD
HETATM    4  N4  UNL     1       1.858   0.659   0.609  1.00  0.00    -0.261 N 
ATOM      5  H4  UNL     1       2.632   1.165   1.040  1.00  0.00     0.190 HD
HETATM    6  C4  UNL     1       1.909  -0.128  -0.481  1.00  0.00     0.261 A 
HETATM    7  N5  UNL     1       2.984  -0.381  -1.185  1.00  0.00    -0.152 N 
ATOM      8  H5  UNL     1       2.932  -0.992  -2.000  1.00  0.00     0.188 HD
HETATM    9  C5  UNL     1       4.217   0.198  -0.809  1.00  0.00     0.695 C 
HETATM   10  N6  UNL     1       4.702   1.133  -1.541  1.00  0.00    -0.233 N 
ATOM     11  H61 UNL     1       5.592   1.551  -1.270  1.00  0.00     0.174 HD
ATOM     12  H62 UNL     1       4.194   1.438  -2.371  1.00  0.00     0.174 HD
HETATM   13  N7  UNL     1       4.916  -0.221   0.333  1.00  0.00    -0.113 N 
ATOM     14  H7  UNL     1       4.418  -0.677   1.098  1.00  0.00     0.207 HD
HETATM   15  O2  UNL     1       0.697  -0.589  -0.702  1.00  0.00    -0.242 OA
ENDROOT
BRANCH   1  16
HETATM   16  N2  UNL     1      -1.542  -0.390   0.320  1.00  0.00    -0.165 N 
HETATM   17  N1  UNL     1      -2.440   0.456  -0.159  1.00  0.00    -0.286 N 
HETATM   18  C2  UNL     1      -3.767   0.238  -0.047  1.00  0.00     0.090 A 
ATOM     19  H1  UNL     1      -2.118   1.302  -0.629  1.00  0.00     0.187 HD
HETATM   20  C1  UNL     1      -4.766   1.201  -0.591  1.00  0.00     0.076 C 
HETATM   21  C7  UNL     1      -4.246  -0.893   0.582  1.00  0.00     0.273 A 
HETATM   22  N9  UNL     1      -3.325  -1.748   1.066  1.00  0.00    -0.272 N 
HETATM   23  O4  UNL     1      -5.487  -1.113   0.696  1.00  0.00    -0.266 OA
HETATM   24  C6  UNL     1      -2.013  -1.493   0.932  1.00  0.00     0.351 A 
ATOM     25  H9  UNL     1      -3.627  -2.599   1.540  1.00  0.00     0.174 HD
HETATM   26  O3  UNL     1      -1.127  -2.289   1.383  1.00  0.00    -0.244 OA
ENDBRANCH   1  16
BRANCH  13  27
HETATM   27  N8  UNL     1       6.284  -0.014   0.421  1.00  0.00    -0.196 N 
ATOM     28  H8  UNL     1       6.934  -0.737   0.112  1.00  0.00     0.216 HD
BRANCH  27  29
HETATM   29  O1  UNL     1       6.721   1.080   0.888  1.00  0.00    -0.274 OA
ATOM     30  H1  UNL     1       7.658   1.222   0.948  1.00  0.00     0.246 HD
ENDBRANCH  27  29
ENDBRANCH  13  27
TORSDOF 3
