REMARK  5 active torsions:
REMARK  status: ('A' for Active; 'I' for Inactive)
REMARK       I    between atoms: N2_3  and  C2_4 
REMARK    1  A    between atoms: C2_4  and  O2_6 
REMARK    2  A    between atoms: O2_6  and  C3_7 
REMARK    3  A    between atoms: C3_7  and  C4_9 
REMARK    4  A    between atoms: C5_10  and  O4_11 
REMARK    5  A    between atoms: N4_17  and  N5_18 
ROOT
HETATM    1  N1  UNL     1       6.323   0.192  -1.012  1.00  0.00    -0.156 NA
HETATM    2  C1  UNL     1       5.333  -0.354  -0.846  1.00  0.00     0.273 C 
HETATM    3  N2  UNL     1       4.146  -0.945  -0.661  1.00  0.00    -0.265 NA
HETATM    4  C2  UNL     1       2.947  -1.542  -0.475  1.00  0.00     0.458 C 
HETATM    5  O1  UNL     1       2.505  -2.666  -0.386  1.00  0.00    -0.220 OA
ENDROOT
BRANCH   4   6
HETATM    6  O2  UNL     1       1.830  -0.559  -0.333  1.00  0.00    -0.210 OA
BRANCH   6   7
HETATM    7  C3  UNL     1       0.564  -1.033  -0.123  1.00  0.00     0.312 C 
HETATM    8  O3  UNL     1       0.388  -2.258  -0.026  1.00  0.00    -0.258 OA
BRANCH   7   9
HETATM    9  C4  UNL     1      -0.606  -0.150  -0.006  1.00  0.00     0.160 A 
HETATM   10  C5  UNL     1      -0.423   1.206  -0.110  1.00  0.00     0.164 A 
HETATM   11  N3  UNL     1      -1.444   2.057  -0.041  1.00  0.00    -0.311 N 
HETATM   12  C6  UNL     1      -2.697   1.542   0.130  1.00  0.00     0.202 A 
ATOM     13  H3  UNL     1      -1.295   3.063  -0.114  1.00  0.00     0.170 HD
HETATM   14  S1  UNL     1      -3.902   2.651   0.211  1.00  0.00    -0.038 SA
HETATM   15  N4  UNL     1      -2.911   0.240   0.236  1.00  0.00    -0.199 N 
HETATM   16  C7  UNL     1      -1.872  -0.626   0.170  1.00  0.00     0.289 A 
HETATM   17  O5  UNL     1      -2.013  -1.882   0.261  1.00  0.00    -0.265 OA
BRANCH  10  18
HETATM   18  O4  UNL     1       0.896   1.668  -0.289  1.00  0.00    -0.345 OA
ATOM     19  H4  UNL     1       1.023   2.607  -0.361  1.00  0.00     0.219 HD
ENDBRANCH  10  18
BRANCH  15  20
HETATM   20  N5  UNL     1      -4.192  -0.244   0.414  1.00  0.00    -0.333 N 
ATOM     21  H52 UNL     1      -4.975   0.408   0.464  1.00  0.00     0.177 HD
ATOM     22  H51 UNL     1      -4.357  -1.247   0.496  1.00  0.00     0.177 HD
ENDBRANCH  15  20
ENDBRANCH   7   9
ENDBRANCH   6   7
ENDBRANCH   4   6
TORSDOF 5
