REMARK  3 active torsions:
REMARK  status: ('A' for Active; 'I' for Inactive)
REMARK    1  A    between atoms: N1_1  and  C1_4 
REMARK    2  A    between atoms: C3_13  and  N7_14 
REMARK    3  A    between atoms: C4_17  and  N8_18 
ROOT
HETATM    1  C1  UNL     1      -1.787   0.997   0.174  1.00  0.00     0.145 A 
HETATM    2  N2  UNL     1      -2.995   0.707   0.678  1.00  0.00    -0.172 N 
ATOM      3  H2  UNL     1      -3.450   1.391   1.283  1.00  0.00     0.186 HD
HETATM    4  C2  UNL     1      -3.631  -0.448   0.419  1.00  0.00     0.718 A 
HETATM    5  N3  UNL     1      -4.831  -0.931   0.818  1.00  0.00    -0.116 N 
ATOM      6  H3  UNL     1      -5.511  -0.475   1.427  1.00  0.00     0.202 HD
HETATM    7  N4  UNL     1      -4.935  -2.132   0.245  1.00  0.00     0.007 NA
HETATM    8  N5  UNL     1      -3.858  -2.392  -0.475  1.00  0.00     0.016 NA
HETATM    9  N6  UNL     1      -3.040  -1.357  -0.377  1.00  0.00    -0.046 N 
HETATM   10  C3  UNL     1      -1.809  -1.100  -0.911  1.00  0.00     0.241 A 
HETATM   11  C4  UNL     1      -1.164   0.071  -0.648  1.00  0.00     0.131 A 
ENDROOT
BRANCH  11  12
HETATM   12  N8  UNL     1       0.096   0.330  -1.194  1.00  0.00    -0.339 N 
HETATM   13  C5  UNL     1       1.204   0.251  -0.566  1.00  0.00     0.103 C 
HETATM   14  C6  UNL     1       1.418  -0.120   0.834  1.00  0.00     0.308 C 
HETATM   15  N10 UNL     1       2.416   0.561  -1.293  1.00  0.00    -0.377 N 
HETATM   16  N9  UNL     1       2.201   0.854   1.562  1.00  0.00    -0.067 N 
HETATM   17  C7  UNL     1       3.393   1.255   0.866  1.00  0.00     0.252 C 
ATOM     18  H92 UNL     1       1.634   1.665   1.808  1.00  0.00     0.277 HD
ATOM     19  H91 UNL     1       2.424   0.515   2.498  1.00  0.00     0.277 HD
HETATM   20  C8  UNL     1       3.611   0.581  -0.448  1.00  0.00     0.148 C 
ATOM     21  H10 UNL     1       2.436   0.747  -2.296  1.00  0.00     0.160 HD
ATOM     22  H8  UNL     1       0.133   0.605  -2.176  1.00  0.00     0.167 HD
ENDBRANCH  11  12
BRANCH   1  23
HETATM   23  N1  UNL     1      -1.173   2.108   0.418  1.00  0.00    -0.383 N 
ATOM     24  H12 UNL     1      -1.631   2.789   1.023  1.00  0.00     0.157 HD
ATOM     25  H11 UNL     1      -0.254   2.329   0.035  1.00  0.00     0.157 HD
ENDBRANCH   1  23
BRANCH  10  26
HETATM   26  N7  UNL     1      -1.204  -2.068  -1.751  1.00  0.00    -0.093 N 
HETATM   27  O1  UNL     1      -0.104  -1.940  -2.285  1.00  0.00    -0.530 OA
HETATM   28  O2  UNL     1      -1.909  -3.242  -1.984  1.00  0.00    -0.530 OA
ENDBRANCH  10  26
TORSDOF 3
