REMARK  4 active torsions:
REMARK  status: ('A' for Active; 'I' for Inactive)
REMARK    1  A    between atoms: N1_2  and  C3_4 
REMARK    2  A    between atoms: C4_7  and  O1_8 
REMARK    3  A    between atoms: O1_8  and  C5_9 
REMARK       I    between atoms: C5_9  and  N3_11 
REMARK    4  A    between atoms: N3_11  and  N4_13 
ROOT
HETATM    1  C3  UNL     1      -0.623   0.482   0.248  1.00  0.00     0.137 A 
HETATM    2  N2  UNL     1       0.586   1.033   0.475  1.00  0.00    -0.306 N 
ATOM      3  H2  UNL     1       0.681   2.042   0.357  1.00  0.00     0.171 HD
HETATM    4  C4  UNL     1       1.661   0.346   0.843  1.00  0.00     0.235 A 
HETATM    5  N5  UNL     1       1.530  -0.977   0.997  1.00  0.00    -0.305 N 
ATOM      6  H5  UNL     1       2.346  -1.519   1.280  1.00  0.00     0.171 HD
HETATM    7  C6  UNL     1       0.374  -1.617   0.795  1.00  0.00     0.155 A 
HETATM    8  N6  UNL     1      -0.003  -2.903   0.871  1.00  0.00    -0.174 N 
ATOM      9  H6  UNL     1       0.597  -3.686   1.131  1.00  0.00     0.186 HD
HETATM   10  C7  UNL     1      -1.293  -2.984   0.549  1.00  0.00     0.680 A 
HETATM   11  N7  UNL     1      -2.005  -4.049   0.509  1.00  0.00    -0.234 N 
ATOM     12  H71 UNL     1      -2.993  -4.111   0.262  1.00  0.00     0.174 HD
ATOM     13  H72 UNL     1      -1.641  -4.976   0.728  1.00  0.00     0.174 HD
HETATM   14  N8  UNL     1      -1.781  -1.741   0.255  1.00  0.00    -0.180 N 
HETATM   15  C8  UNL     1      -3.130  -1.437  -0.152  1.00  0.00     0.176 C 
HETATM   16  C9  UNL     1      -0.761  -0.876   0.404  1.00  0.00     0.139 A 
ENDROOT
BRANCH   4  17
HETATM   17  O1  UNL     1       2.897   0.988   1.065  1.00  0.00    -0.227 OA
BRANCH  17  18
HETATM   18  C5  UNL     1       3.751   1.108  -0.023  1.00  0.00     0.386 C 
HETATM   19  O2  UNL     1       3.372   0.640  -1.139  1.00  0.00    -0.236 OA
HETATM   20  N3  UNL     1       5.018   1.729   0.063  1.00  0.00    -0.252 N 
ATOM     21  H3  UNL     1       5.341   2.112   0.951  1.00  0.00     0.191 HD
BRANCH  20  22
HETATM   22  N4  UNL     1       5.821   1.815  -1.068  1.00  0.00    -0.341 N 
ATOM     23  H42 UNL     1       5.483   1.427  -1.949  1.00  0.00     0.177 HD
ATOM     24  H41 UNL     1       6.735   2.263  -1.006  1.00  0.00     0.177 HD
ENDBRANCH  20  22
ENDBRANCH  17  18
ENDBRANCH   4  17
BRANCH   1  25
HETATM   25  N1  UNL     1      -1.711   1.314  -0.102  1.00  0.00    -0.374 N 
HETATM   26  C1  UNL     1      -2.781   1.688   0.788  1.00  0.00     0.150 C 
HETATM   27  C2  UNL     1      -1.737   1.855  -1.453  1.00  0.00     0.150 C 
ENDBRANCH   1  25
TORSDOF 4
