REMARK  3 active torsions:
REMARK  status: ('A' for Active; 'I' for Inactive)
REMARK    1  A    between atoms: C6_13  and  O2_14 
REMARK    2  A    between atoms: C8_18  and  O4_19 
REMARK    3  A    between atoms: O4_19  and  N3_20 
ROOT
HETATM    1  C1  UNL     1      -0.397   1.553   0.914  1.00  0.00     0.057 C 
HETATM    2  C2  UNL     1      -0.142   0.687  -0.297  1.00  0.00     0.145 C 
HETATM    3  O1  UNL     1      -1.158   0.869  -1.242  1.00  0.00    -0.314 OA
HETATM    4  C3  UNL     1      -2.390   0.259  -0.923  1.00  0.00     0.159 C 
HETATM    5  N1  UNL     1      -3.352   0.408  -1.761  1.00  0.00    -0.378 N 
ATOM      6  H11 UNL     1      -4.242  -0.033  -1.530  1.00  0.00     0.158 HD
ATOM      7  H12 UNL     1      -3.249   0.940  -2.625  1.00  0.00     0.158 HD
HETATM    8  C4  UNL     1      -2.538  -0.507   0.321  1.00  0.00     0.057 C 
HETATM    9  N2  UNL     1      -3.703  -0.738   0.783  1.00  0.00    -0.399 N 
ATOM     10  H21 UNL     1      -3.806  -1.270   1.647  1.00  0.00     0.156 HD
ATOM     11  H22 UNL     1      -4.543  -0.403   0.312  1.00  0.00     0.156 HD
HETATM   12  C5  UNL     1      -1.308  -0.997   1.011  1.00  0.00     0.110 C 
HETATM   13  C6  UNL     1      -0.177  -0.806   0.071  1.00  0.00     0.163 C 
HETATM   14  C7  UNL     1       1.164  -0.987   0.617  1.00  0.00     0.202 C 
HETATM   15  O3  UNL     1       1.494  -1.606   1.600  1.00  0.00    -0.291 OA
HETATM   16  C8  UNL     1       2.056  -0.236  -0.306  1.00  0.00     0.279 C 
HETATM   17  C9  UNL     1       1.219   0.895  -0.774  1.00  0.00     0.058 C 
HETATM   18  N4  UNL     1       1.615   1.876  -1.470  1.00  0.00    -0.401 N 
ATOM     19  H41 UNL     1       2.568   2.022  -1.804  1.00  0.00     0.155 HD
ATOM     20  H42 UNL     1       1.039   2.654  -1.792  1.00  0.00     0.155 HD
ENDROOT
BRANCH  16  21
HETATM   21  O4  UNL     1       3.252   0.176   0.306  1.00  0.00    -0.202 OA
BRANCH  21  22
HETATM   22  N3  UNL     1       4.456  -0.260  -0.134  1.00  0.00     0.006 N 
HETATM   23  O5  UNL     1       4.546  -0.953  -1.170  1.00  0.00    -0.511 OA
HETATM   24  O6  UNL     1       5.587   0.058   0.559  1.00  0.00    -0.511 OA
ENDBRANCH  21  22
ENDBRANCH  16  21
BRANCH  13  25
HETATM   25  O2  UNL     1      -0.418  -1.565  -1.070  1.00  0.00    -0.378 OA
ATOM     26  H2  UNL     1      -0.440  -2.487  -0.843  1.00  0.00     0.211 HD
ENDBRANCH  13  25
TORSDOF 3
