REMARK  7 active torsions:
REMARK  status: ('A' for Active; 'I' for Inactive)
REMARK    1  A    between atoms: O1_2  and  C2_3 
REMARK    2  A    between atoms: C2_3  and  O2_4 
REMARK    3  A    between atoms: C2_3  and  C3_6 
REMARK    4  A    between atoms: C3_6  and  O3_7 
REMARK    5  A    between atoms: C5_11  and  O4_12 
REMARK    6  A    between atoms: C5_11  and  O5_14 
REMARK    7  A    between atoms: O5_14  and  C6_15 
ROOT
HETATM    1  C3  UNL     1      -1.139   0.221   0.883  1.00  0.00     0.152 C 
HETATM    2  C4  UNL     1       0.190   0.910   0.701  1.00  0.00     0.130 C 
HETATM    3  S1  UNL     1       0.890   1.019  -0.916  1.00  0.00    -0.088 SA
HETATM    4  C5  UNL     1       2.083  -0.081  -0.126  1.00  0.00     0.251 C 
HETATM    5  C7  UNL     1       1.140  -0.218   1.047  1.00  0.00     0.214 C 
HETATM    6  O6  UNL     1       0.458  -1.392   1.029  1.00  0.00    -0.365 OA
HETATM    7  C8  UNL     1      -0.846  -1.179   0.593  1.00  0.00     0.091 C 
HETATM    8  C9  UNL     1      -1.728  -2.052   1.498  1.00  0.00     0.049 C 
HETATM    9  C10 UNL     1      -0.968  -1.697  -0.781  1.00  0.00     0.049 C 
ENDROOT
BRANCH   4  10
HETATM   10  O4  UNL     1       2.352  -1.259  -0.797  1.00  0.00    -0.355 OA
ATOM     11  H4  UNL     1       2.980  -1.838  -0.381  1.00  0.00     0.214 HD
ENDBRANCH   4  10
BRANCH   4  12
HETATM   12  O5  UNL     1       3.292   0.533   0.268  1.00  0.00    -0.274 OA
BRANCH  12  13
HETATM   13  C6  UNL     1       4.079   1.134  -0.705  1.00  0.00     0.228 C 
HETATM   14  N1  UNL     1       3.465   1.525  -1.772  1.00  0.00    -0.368 N 
ATOM     15  H12 UNL     1       2.462   1.411  -1.916  1.00  0.00     0.159 HD
ATOM     16  H11 UNL     1       4.043   1.967  -2.487  1.00  0.00     0.159 HD
HETATM   17  N2  UNL     1       5.469   1.292  -0.505  1.00  0.00    -0.056 NA
ENDBRANCH  12  13
ENDBRANCH   4  12
BRANCH   1  18
HETATM   18  C2  UNL     1      -2.278   0.895   0.241  1.00  0.00     0.294 C 
BRANCH  18  19
HETATM   19  O1  UNL     1      -2.315   0.929  -1.130  1.00  0.00    -0.363 OA
HETATM   20  C1  UNL     1      -3.562   0.537  -1.642  1.00  0.00     0.204 C 
ENDBRANCH  18  19
BRANCH  18  21
HETATM   21  O2  UNL     1      -2.284   2.249   0.698  1.00  0.00    -0.368 OA
ATOM     22  H2  UNL     1      -2.258   2.225   1.647  1.00  0.00     0.212 HD
ENDBRANCH  18  21
ENDBRANCH   1  18
BRANCH   1  23
HETATM   23  O3  UNL     1      -1.362   0.325   2.288  1.00  0.00    -0.380 OA
ATOM     24  H3  UNL     1      -0.626  -0.110   2.703  1.00  0.00     0.211 HD
ENDBRANCH   1  23
TORSDOF 7
