REMARK  5 active torsions:
REMARK  status: ('A' for Active; 'I' for Inactive)
REMARK    1  A    between atoms: O1_2  and  C2_3 
REMARK    2  A    between atoms: C7_19  and  N8_20 
REMARK    3  A    between atoms: N8_20  and  N9_22 
REMARK    4  A    between atoms: C8_25  and  C9_26 
REMARK    5  A    between atoms: C9_26  and  N10_27 
ROOT
HETATM    1  C2  UNL     1      -1.939   0.197   0.151  1.00  0.00     0.248 C 
HETATM    2  N1  UNL     1      -1.556   1.046  -0.931  1.00  0.00    -0.197 N 
ATOM      3  H1  UNL     1      -2.155   0.969  -1.753  1.00  0.00     0.180 HD
HETATM    4  C3  UNL     1      -0.488   1.983  -1.074  1.00  0.00     0.708 A 
HETATM    5  N2  UNL     1      -0.503   2.834  -2.101  1.00  0.00    -0.117 N 
ATOM      6  H2  UNL     1      -1.226   2.883  -2.819  1.00  0.00     0.202 HD
HETATM    7  N3  UNL     1       0.570   3.603  -2.038  1.00  0.00     0.007 NA
HETATM    8  N4  UNL     1       1.277   3.238  -0.959  1.00  0.00     0.009 NA
HETATM    9  N5  UNL     1       0.631   2.248  -0.370  1.00  0.00    -0.104 N 
HETATM   10  C4  UNL     1       1.163   1.638   0.839  1.00  0.00     0.210 C 
HETATM   11  C5  UNL     1       1.235   0.173   0.567  1.00  0.00     0.033 A 
HETATM   12  C6  UNL     1       0.332  -0.835   0.366  1.00  0.00     0.047 A 
HETATM   13  N6  UNL     1       1.091  -1.944   0.172  1.00  0.00    -0.302 N 
ATOM     14  H6  UNL     1       0.725  -2.879  -0.008  1.00  0.00     0.186 HD
HETATM   15  N7  UNL     1       2.388  -1.630   0.251  1.00  0.00    -0.284 N 
ATOM     16  H7  UNL     1       3.160  -2.288   0.141  1.00  0.00     0.188 HD
HETATM   17  C7  UNL     1       2.519  -0.322   0.496  1.00  0.00     0.144 A 
HETATM   18  C8  UNL     1      -1.109  -1.052   0.304  1.00  0.00     0.112 C 
ENDROOT
BRANCH  17  19
HETATM   19  N8  UNL     1       3.633   0.292   0.627  1.00  0.00    -0.290 N 
ATOM     20  H8  UNL     1       3.619   1.295   0.812  1.00  0.00     0.188 HD
BRANCH  19  21
HETATM   21  N9  UNL     1       4.854  -0.345   0.528  1.00  0.00    -0.344 N 
ATOM     22  H92 UNL     1       4.849  -1.348   0.342  1.00  0.00     0.176 HD
ATOM     23  H91 UNL     1       5.743   0.145   0.632  1.00  0.00     0.176 HD
ENDBRANCH  19  21
ENDBRANCH  17  19
BRANCH  18  24
HETATM   24  C9  UNL     1      -1.535  -2.036  -0.752  1.00  0.00     0.244 C 
BRANCH  24  25
HETATM   25  N10 UNL     1      -1.362  -1.557  -2.086  1.00  0.00    -0.079 N 
ATOM     26 3H10 UNL     1      -1.839  -0.664  -2.213  1.00  0.00     0.274 HD
ATOM     27 2H10 UNL     1      -0.399  -1.259  -2.239  1.00  0.00     0.274 HD
ATOM     28 1H10 UNL     1      -1.651  -2.224  -2.802  1.00  0.00     0.274 HD
ENDBRANCH  24  25
ENDBRANCH  18  24
BRANCH   1  29
HETATM   29  O1  UNL     1      -2.075   0.852   1.370  1.00  0.00    -0.370 OA
HETATM   30  C1  UNL     1      -3.380   0.831   1.853  1.00  0.00     0.204 C 
ENDBRANCH   1  29
TORSDOF 5
