REMARK  9 active torsions:
REMARK  status: ('A' for Active; 'I' for Inactive)
REMARK    1  A    between atoms: C2_2  and  N1_3 
REMARK    2  A    between atoms: N1_3  and  C4_5 
REMARK    3  A    between atoms: C4_5  and  C5_6 
REMARK    4  A    between atoms: C4_5  and  C6_15 
REMARK    5  A    between atoms: C8_19  and  N7_20 
REMARK    6  A    between atoms: N7_20  and  C9_22 
REMARK    7  A    between atoms: C9_22  and  C10_23 
REMARK    8  A    between atoms: C13_31  and  N11_32 
REMARK    9  A    between atoms: N11_32  and  C14_34 
ROOT
HETATM    1  C6  UNL     1       2.550  -0.273   0.424  1.00  0.00     0.133 A 
HETATM    2  N6  UNL     1       1.504   0.552   0.632  1.00  0.00    -0.336 N 
ATOM      3  H6  UNL     1       1.710   1.528   0.844  1.00  0.00     0.168 HD
HETATM    4  C7  UNL     1       0.224   0.193   0.582  1.00  0.00     0.110 A 
HETATM    5  C8  UNL     1      -0.746   1.145   0.811  1.00  0.00     0.146 A 
HETATM    6  N10 UNL     1      -2.016   0.739   0.747  1.00  0.00    -0.175 N 
ATOM      7  H10 UNL     1      -2.770   1.406   0.909  1.00  0.00     0.186 HD
HETATM    8  C13 UNL     1      -2.312  -0.566   0.465  1.00  0.00     0.680 A 
HETATM    9  N12 UNL     1      -1.368  -1.491   0.240  1.00  0.00    -0.186 N 
ATOM     10  H12 UNL     1      -1.626  -2.455   0.031  1.00  0.00     0.184 HD
HETATM   11  C19 UNL     1      -0.080  -1.127   0.295  1.00  0.00     0.123 A 
HETATM   12  C20 UNL     1       0.942  -1.991   0.078  1.00  0.00     0.130 A 
HETATM   13  N13 UNL     1       0.752  -3.226  -0.193  1.00  0.00    -0.384 N 
ATOM     14 1H13 UNL     1       1.521  -3.876  -0.356  1.00  0.00     0.157 HD
ATOM     15 2H13 UNL     1      -0.209  -3.564  -0.246  1.00  0.00     0.157 HD
HETATM   16  N14 UNL     1       2.233  -1.537   0.149  1.00  0.00    -0.325 N 
ATOM     17  H14 UNL     1       2.989  -2.201  -0.017  1.00  0.00     0.169 HD
ENDROOT
BRANCH   1  18
HETATM   18  C4  UNL     1       3.983   0.207   0.522  1.00  0.00     0.102 C 
BRANCH  18  19
HETATM   19  N1  UNL     1       4.550   0.508  -0.760  1.00  0.00    -0.282 NA
HETATM   20  C3  UNL     1       3.405   1.119  -1.519  1.00  0.00     0.117 C 
BRANCH  19  21
HETATM   21  C2  UNL     1       5.105  -0.532  -1.538  1.00  0.00     0.091 C 
HETATM   22  C1  UNL     1       6.466  -1.015  -1.119  1.00  0.00     0.021 C 
ENDBRANCH  19  21
ENDBRANCH  18  19
BRANCH  18  23
HETATM   23  C5  UNL     1       4.741  -0.548   1.495  1.00  0.00     0.162 A 
HETATM   24  N2  UNL     1       5.350  -0.102   2.623  1.00  0.00    -0.267 N 
HETATM   25  N3  UNL     1       5.908  -1.060   3.302  1.00  0.00    -0.227 N 
ATOM     26  H2  UNL     1       5.368   0.878   2.907  1.00  0.00     0.190 HD
HETATM   27  N4  UNL     1       5.679  -2.190   2.627  1.00  0.00    -0.227 N 
ATOM     28  H3  UNL     1       6.421  -0.967   4.179  1.00  0.00     0.210 HD
HETATM   29  N5  UNL     1       4.985  -1.890   1.551  1.00  0.00    -0.267 N 
ATOM     30  H4  UNL     1       5.989  -3.123   2.899  1.00  0.00     0.210 HD
ATOM     31  H5  UNL     1       4.672  -2.566   0.855  1.00  0.00     0.190 HD
ENDBRANCH  18  23
ENDBRANCH   1  18
BRANCH   5  32
HETATM   32  N7  UNL     1      -0.439   2.354   1.065  1.00  0.00    -0.372 N 
ATOM     33  H7  UNL     1       0.556   2.576   1.091  1.00  0.00     0.161 HD
BRANCH  32  34
HETATM   34  C9  UNL     1      -1.346   3.440   1.319  1.00  0.00     0.144 C 
BRANCH  34  35
HETATM   35  C10 UNL     1      -1.773   4.010  -0.027  1.00  0.00     0.121 C 
HETATM   36  C11 UNL     1      -0.568   4.506  -0.797  1.00  0.00     0.070 C 
HETATM   37  C12 UNL     1      -1.012   5.837  -1.287  1.00  0.00     0.078 C 
HETATM   38  N8  UNL     1      -2.105   6.168  -0.702  1.00  0.00    -0.319 N 
HETATM   39  N9  UNL     1      -2.543   5.204   0.200  1.00  0.00    -0.135 NA
ATOM     40  H8  UNL     1      -2.599   7.043  -0.879  1.00  0.00     0.181 HD
ENDBRANCH  34  35
ENDBRANCH  32  34
ENDBRANCH   5  32
BRANCH   8  41
HETATM   41  N11 UNL     1      -3.544  -0.934   0.417  1.00  0.00    -0.221 N 
ATOM     42  H11 UNL     1      -4.253  -0.223   0.593  1.00  0.00     0.178 HD
BRANCH  41  43
HETATM   43  C14 UNL     1      -3.999  -2.261   0.136  1.00  0.00     0.103 C 
HETATM   44  C15 UNL     1      -5.432  -2.410   0.639  1.00  0.00     0.052 C 
HETATM   45  C16 UNL     1      -6.389  -1.812  -0.365  1.00  0.00     0.169 C 
HETATM   46  O1  UNL     1      -6.458  -2.583  -1.524  1.00  0.00    -0.391 OA
HETATM   47  C17 UNL     1      -5.286  -3.314  -1.711  1.00  0.00     0.169 C 
HETATM   48  C18 UNL     1      -4.060  -2.504  -1.365  1.00  0.00     0.052 C 
ENDBRANCH  41  43
ENDBRANCH   8  41
TORSDOF 9
