REMARK  14 active torsions:
REMARK  status: ('A' for Active; 'I' for Inactive)
REMARK    1  A    between atoms: O1_1  and  C1_3 
REMARK    2  A    between atoms: C1_3  and  C2_4 
REMARK    3  A    between atoms: C2_4  and  O2_5 
REMARK    4  A    between atoms: C2_4  and  C3_7 
REMARK    5  A    between atoms: C3_7  and  O3_8 
REMARK    6  A    between atoms: C3_7  and  C4_10 
REMARK    7  A    between atoms: S1_13  and  C7_14 
REMARK    8  A    between atoms: C7_14  and  C8_15 
REMARK    9  A    between atoms: C8_15  and  O4_16 
REMARK   10  A    between atoms: C8_15  and  C9_18 
REMARK   11  A    between atoms: C9_18  and  O5_19 
REMARK   12  A    between atoms: C9_18  and  N1_21 
REMARK   13  A    between atoms: N1_21  and  C10_23 
REMARK   14  A    between atoms: C10_23  and  C11_24 
ROOT
HETATM    1  C4  UNL     1       2.863  -0.765  -0.167  1.00  0.00     0.069 C 
HETATM    2  C5  UNL     1       3.450  -0.513  -1.491  1.00  0.00     0.026 C 
HETATM    3  C6  UNL     1       2.190  -1.222  -2.075  1.00  0.00     0.065 C 
HETATM    4  S1  UNL     1       1.292  -0.267  -0.827  1.00  0.00    -0.210 SA
ENDROOT
BRANCH   4   5
HETATM    5  C7  UNL     1      -0.073  -1.265  -0.275  1.00  0.00     0.100 C 
BRANCH   5   6
HETATM    6  C8  UNL     1      -1.321  -0.677  -0.947  1.00  0.00     0.175 C 
BRANCH   6   7
HETATM    7  O4  UNL     1      -1.480   0.638  -0.558  1.00  0.00    -0.390 OA
ATOM      8  H4  UNL     1      -2.253   1.002  -0.974  1.00  0.00     0.210 HD
ENDBRANCH   6   7
BRANCH   6   9
HETATM    9  C9  UNL     1      -2.541  -1.473  -0.641  1.00  0.00     0.246 C 
BRANCH   9  10
HETATM   10  O5  UNL     1      -2.648  -1.599   0.752  1.00  0.00    -0.374 OA
ATOM     11  H5  UNL     1      -3.427  -2.107   0.947  1.00  0.00     0.212 HD
ENDBRANCH   9  10
BRANCH   9  12
HETATM   12  N1  UNL     1      -3.728  -1.070  -1.265  1.00  0.00    -0.374 N 
ATOM     13  H1  UNL     1      -4.170  -1.700  -1.935  1.00  0.00     0.161 HD
BRANCH  12  14
HETATM   14  C10 UNL     1      -4.330   0.167  -1.002  1.00  0.00     0.062 C 
BRANCH  14  15
HETATM   15  C11 UNL     1      -4.935   0.320   0.369  1.00  0.00     0.024 A 
HETATM   16  C12 UNL     1      -5.583   1.702   0.560  1.00  0.00     0.010 A 
HETATM   17  C13 UNL     1      -4.441   1.231   1.398  1.00  0.00     0.010 A 
ENDBRANCH  14  15
ENDBRANCH  12  14
ENDBRANCH   9  12
ENDBRANCH   6   9
ENDBRANCH   5   6
ENDBRANCH   4   5
BRANCH   1  18
HETATM   18  C3  UNL     1       3.322  -0.199   1.086  1.00  0.00     0.162 C 
BRANCH  18  19
HETATM   19  C2  UNL     1       3.372   1.254   1.326  1.00  0.00     0.171 C 
BRANCH  19  20
HETATM   20  C1  UNL     1       4.722   1.905   1.019  1.00  0.00     0.198 C 
BRANCH  20  21
HETATM   21  O1  UNL     1       5.091   1.923  -0.280  1.00  0.00    -0.398 OA
ATOM     22  H1  UNL     1       5.929   2.327  -0.471  1.00  0.00     0.209 HD
ENDBRANCH  20  21
ENDBRANCH  19  20
BRANCH  19  23
HETATM   23  O2  UNL     1       3.313   1.418   2.761  1.00  0.00    -0.391 OA
ATOM     24  H2  UNL     1       2.475   1.014   2.952  1.00  0.00     0.210 HD
ENDBRANCH  19  23
ENDBRANCH  18  19
BRANCH  18  25
HETATM   25  O3  UNL     1       4.467  -0.799   1.610  1.00  0.00    -0.392 OA
ATOM     26  H3  UNL     1       4.435  -1.736   1.455  1.00  0.00     0.210 HD
ENDBRANCH  18  25
ENDBRANCH   1  18
TORSDOF 14
