REMARK  4 active torsions:
REMARK  status: ('A' for Active; 'I' for Inactive)
REMARK    1  A    between atoms: N1_1  and  N2_4 
REMARK    2  A    between atoms: N2_4  and  C1_6 
REMARK    3  A    between atoms: C2_15  and  N7_16 
REMARK    4  A    between atoms: N7_16  and  N8_18 
ROOT
HETATM    1  C1  UNL     1      -0.896   0.607  -0.353  1.00  0.00     0.183 A 
HETATM    2  N3  UNL     1      -1.188   1.917  -0.527  1.00  0.00    -0.266 N 
ATOM      3  H3  UNL     1      -2.109   2.192  -0.869  1.00  0.00     0.190 HD
HETATM    4  N4  UNL     1      -0.282   2.840  -0.254  1.00  0.00    -0.226 N 
ATOM      5  H4  UNL     1      -0.490   3.830  -0.382  1.00  0.00     0.210 HD
HETATM    6  N5  UNL     1       0.898   2.448   0.188  1.00  0.00    -0.226 N 
ATOM      7  H5  UNL     1       1.594   3.164   0.398  1.00  0.00     0.210 HD
HETATM    8  N6  UNL     1       1.227   1.202   0.372  1.00  0.00    -0.266 N 
ATOM      9  H6  UNL     1       2.159   0.969   0.716  1.00  0.00     0.190 HD
HETATM   10  C2  UNL     1       0.356   0.231   0.114  1.00  0.00     0.183 A 
ENDROOT
BRANCH   1  11
HETATM   11  N2  UNL     1      -1.795  -0.239  -0.628  1.00  0.00    -0.288 N 
ATOM     12  H2  UNL     1      -2.682   0.135  -0.965  1.00  0.00     0.188 HD
BRANCH  11  13
HETATM   13  N1  UNL     1      -1.708  -1.612  -0.523  1.00  0.00    -0.343 N 
ATOM     14  H12 UNL     1      -0.814  -1.967  -0.185  1.00  0.00     0.176 HD
ATOM     15  H11 UNL     1      -2.433  -2.294  -0.745  1.00  0.00     0.176 HD
ENDBRANCH  11  13
ENDBRANCH   1  11
BRANCH  10  16
HETATM   16  N7  UNL     1       0.582  -1.019   0.261  1.00  0.00    -0.288 N 
ATOM     17  H7  UNL     1      -0.180  -1.654   0.022  1.00  0.00     0.188 HD
BRANCH  16  18
HETATM   18  N8  UNL     1       1.740  -1.590   0.705  1.00  0.00    -0.343 N 
ATOM     19  H82 UNL     1       2.490  -0.940   0.939  1.00  0.00     0.176 HD
ATOM     20  H81 UNL     1       1.920  -2.587   0.822  1.00  0.00     0.176 HD
ENDBRANCH  16  18
ENDBRANCH  10  16
TORSDOF 4
