REMARK  1 active torsions:
REMARK  status: ('A' for Active; 'I' for Inactive)
REMARK    1  A    between atoms: N1_1  and  C1_4 
ROOT
HETATM    1  C1  UNL     1      -1.589   0.484   0.034  1.00  0.00     0.172 C 
HETATM    2  N2  UNL     1      -0.494   1.266   0.019  1.00  0.00    -0.302 N 
ATOM      3  H2  UNL     1      -0.668   2.271   0.046  1.00  0.00     0.171 HD
HETATM    4  C2  UNL     1       0.818   0.894  -0.028  1.00  0.00     0.289 C 
HETATM    5  O1  UNL     1       1.630   1.851  -0.084  1.00  0.00    -0.264 OA
HETATM    6  C3  UNL     1       1.394  -0.355  -0.024  1.00  0.00     0.199 C 
HETATM    7  N3  UNL     1       2.816  -0.414   0.125  1.00  0.00    -0.075 NA
HETATM    8  N4  UNL     1       0.752  -1.517  -0.145  1.00  0.00    -0.280 N 
ATOM      9  H4  UNL     1       1.347  -2.344  -0.193  1.00  0.00     0.188 HD
HETATM   10  N5  UNL     1      -0.569  -1.750  -0.213  1.00  0.00    -0.262 N 
ATOM     11  H5  UNL     1      -0.831  -2.717  -0.407  1.00  0.00     0.190 HD
HETATM   12  C4  UNL     1      -1.603  -0.892  -0.062  1.00  0.00     0.303 C 
HETATM   13  O2  UNL     1      -2.758  -1.380   0.005  1.00  0.00    -0.263 OA
ENDROOT
BRANCH   1  14
HETATM   14  N1  UNL     1      -2.755   1.071   0.148  1.00  0.00    -0.381 N 
ATOM     15  H12 UNL     1      -2.745   2.088   0.219  1.00  0.00     0.157 HD
ATOM     16  H11 UNL     1      -3.585   0.478   0.159  1.00  0.00     0.157 HD
ENDBRANCH   1  14
TORSDOF 1
