REMARK  0 active torsions:
REMARK  status: ('A' for Active; 'I' for Inactive)
REMARK       I    between atoms: N1_1  and  C1_4 
ROOT
HETATM    1  N1  UNL     1       2.550   0.224   0.341  1.00  0.00    -0.233 N 
ATOM      2  H11 UNL     1       2.796   1.134   0.730  1.00  0.00     0.174 HD
ATOM      3  H12 UNL     1       3.205  -0.547   0.213  1.00  0.00     0.174 HD
HETATM    4  C1  UNL     1       1.315   0.050  -0.008  1.00  0.00     0.693 C 
HETATM    5  N2  UNL     1       0.986  -1.166  -0.527  1.00  0.00    -0.133 N 
ATOM      6  H2  UNL     1       1.766  -1.707  -0.899  1.00  0.00     0.205 HD
HETATM    7  N3  UNL     1      -0.203  -1.748  -0.618  1.00  0.00    -0.294 N 
ATOM      8  H3  UNL     1      -0.215  -2.635  -1.121  1.00  0.00     0.186 HD
HETATM    9  C2  UNL     1      -1.411  -1.335  -0.138  1.00  0.00     0.168 C 
HETATM   10  C3  UNL     1      -1.752  -0.009   0.045  1.00  0.00     0.256 C 
HETATM   11  O1  UNL     1      -2.981   0.228   0.152  1.00  0.00    -0.281 OA
HETATM   12  C4  UNL     1      -0.908   1.090   0.125  1.00  0.00     0.311 C 
HETATM   13  O2  UNL     1      -1.438   2.233   0.169  1.00  0.00    -0.263 OA
HETATM   14  N4  UNL     1       0.448   1.070   0.161  1.00  0.00    -0.152 N 
ATOM     15  H4  UNL     1       0.883   1.974   0.346  1.00  0.00     0.188 HD
ENDROOT
TORSDOF 0
