REMARK  2 active torsions:
REMARK  status: ('A' for Active; 'I' for Inactive)
REMARK    1  A    between atoms: C2_3  and  N2_4 
REMARK    2  A    between atoms: C3_9  and  N4_10 
ROOT
HETATM    1  C1  UNL     1      -1.694   1.297   0.080  1.00  0.00     0.198 C 
HETATM    2  N1  UNL     1      -0.452   0.539   0.036  1.00  0.00    -0.124 N 
HETATM    3  C2  UNL     1       0.711   1.182   0.132  1.00  0.00     0.694 A 
HETATM    4  N3  UNL     1       1.911   0.549   0.100  1.00  0.00    -0.170 N 
ATOM      5  H3  UNL     1       2.781   1.076   0.177  1.00  0.00     0.186 HD
HETATM    6  C3  UNL     1       1.926  -0.788  -0.036  1.00  0.00     0.185 A 
HETATM    7  C4  UNL     1       0.735  -1.446  -0.135  1.00  0.00     0.306 A 
HETATM    8  O1  UNL     1       0.776  -2.714  -0.263  1.00  0.00    -0.262 OA
HETATM    9  N5  UNL     1      -0.432  -0.779  -0.098  1.00  0.00    -0.243 N 
HETATM   10  C5  UNL     1      -1.688  -1.483  -0.203  1.00  0.00     0.182 C 
ENDROOT
BRANCH   3  11
HETATM   11  N2  UNL     1       0.712   2.461   0.262  1.00  0.00    -0.233 N 
ATOM     12  H22 UNL     1      -0.190   2.937   0.286  1.00  0.00     0.174 HD
ATOM     13  H21 UNL     1       1.602   2.953   0.335  1.00  0.00     0.174 HD
ENDBRANCH   3  11
BRANCH   6  14
HETATM   14  N4  UNL     1       3.037  -1.456  -0.074  1.00  0.00    -0.380 N 
ATOM     15  H42 UNL     1       3.927  -0.964   0.000  1.00  0.00     0.157 HD
ATOM     16  H41 UNL     1       3.048  -2.471  -0.177  1.00  0.00     0.157 HD
ENDBRANCH   6  14
TORSDOF 2
