REMARK  16 active torsions:
REMARK  status: ('A' for Active; 'I' for Inactive)
REMARK    1  A    between atoms: C1_2  and  C2_4 
REMARK    2  A    between atoms: C2_4  and  N2_5 
REMARK    3  A    between atoms: C2_4  and  C3_9 
REMARK    4  A    between atoms: C3_9  and  O3_11 
REMARK    5  A    between atoms: O3_11  and  C4_12 
REMARK    6  A    between atoms: C4_12  and  C5_13 
REMARK    7  A    between atoms: C5_13  and  O4_14 
REMARK    8  A    between atoms: C5_13  and  C6_16 
REMARK    9  A    between atoms: C6_16  and  N3_17 
REMARK   10  A    between atoms: C6_16  and  C7_21 
REMARK   11  A    between atoms: C8_24  and  O6_25 
REMARK   12  A    between atoms: C9_27  and  N5_28 
REMARK   13  A    between atoms: N7_35  and  C12_36 
REMARK   14  A    between atoms: C12_36  and  C13_37 
REMARK   15  A    between atoms: C12_36  and  C19_47 
REMARK       I    between atoms: C13_37  and  N8_39 
REMARK   16  A    between atoms: C17_43  and  C18_44 
ROOT
HETATM    1  C4  UNL     1       2.632   0.348  -0.419  1.00  0.00     0.147 C 
HETATM    2  C8  UNL     1       2.860   1.470   0.582  1.00  0.00     0.190 C 
HETATM    3  C9  UNL     1       1.502   1.879   1.104  1.00  0.00     0.236 C 
HETATM    4  C10 UNL     1       0.585   0.717   0.871  1.00  0.00     0.134 A 
HETATM    5  C11 UNL     1       1.248  -0.186  -0.160  1.00  0.00     0.155 A 
HETATM    6  N6  UNL     1       0.187   0.260  -1.005  1.00  0.00    -0.154 NA
HETATM    7  N7  UNL     1      -0.441   0.995  -0.032  1.00  0.00    -0.209 NA
ENDROOT
BRANCH   1   8
HETATM    8  O3  UNL     1       3.623  -0.622  -0.147  1.00  0.00    -0.301 OA
BRANCH   8   9
HETATM    9  C3  UNL     1       3.724  -1.345   1.005  1.00  0.00     0.299 C 
HETATM   10  O2  UNL     1       2.891  -1.174   1.922  1.00  0.00    -0.262 OA
BRANCH   9  11
HETATM   11  C2  UNL     1       4.800  -2.357   1.241  1.00  0.00     0.370 C 
BRANCH  11  12
HETATM   12  C1  UNL     1       6.083  -1.580   1.277  1.00  0.00     0.271 C 
HETATM   13  N1  UNL     1       6.570  -0.857   0.161  1.00  0.00    -0.060 NA
HETATM   14  O1  UNL     1       6.805  -1.532   2.327  1.00  0.00    -0.274 OA
ENDBRANCH  11  12
BRANCH  11  15
HETATM   15  N2  UNL     1       4.627  -2.954   2.548  1.00  0.00    -0.058 N 
ATOM     16  H23 UNL     1       5.427  -3.516   2.840  1.00  0.00     0.275 HD
ATOM     17  H22 UNL     1       4.661  -2.273   3.307  1.00  0.00     0.275 HD
ATOM     18  H21 UNL     1       3.755  -3.482   2.524  1.00  0.00     0.275 HD
ENDBRANCH  11  15
ENDBRANCH   9  11
ENDBRANCH   8   9
ENDBRANCH   1   8
BRANCH   1  19
HETATM   19  C5  UNL     1       2.810   0.918  -1.776  1.00  0.00     0.197 C 
BRANCH  19  20
HETATM   20  O4  UNL     1       4.082   1.474  -1.894  1.00  0.00    -0.390 OA
ATOM     21  H4  UNL     1       4.196   1.839  -2.764  1.00  0.00     0.210 HD
ENDBRANCH  19  20
BRANCH  19  22
HETATM   22  C6  UNL     1       2.576   0.036  -2.955  1.00  0.00     0.303 C 
BRANCH  22  23
HETATM   23  N3  UNL     1       2.671   0.971  -4.120  1.00  0.00    -0.064 N 
ATOM     24  H33 UNL     1       2.048   1.777  -4.066  1.00  0.00     0.275 HD
ATOM     25  H32 UNL     1       3.537   1.508  -4.160  1.00  0.00     0.275 HD
ATOM     26  H31 UNL     1       2.511   0.368  -4.927  1.00  0.00     0.275 HD
ENDBRANCH  22  23
BRANCH  22  27
HETATM   27  C7  UNL     1       3.623  -0.969  -3.214  1.00  0.00     0.264 C 
HETATM   28  N4  UNL     1       4.592  -0.782  -4.234  1.00  0.00    -0.060 NA
HETATM   29  O5  UNL     1       3.719  -2.030  -2.560  1.00  0.00    -0.274 OA
ENDBRANCH  22  27
ENDBRANCH  19  22
ENDBRANCH   1  19
BRANCH   2  30
HETATM   30  O6  UNL     1       3.551   2.545   0.050  1.00  0.00    -0.390 OA
ATOM     31  H6  UNL     1       3.693   3.246   0.675  1.00  0.00     0.210 HD
ENDBRANCH   2  30
BRANCH   3  32
HETATM   32  N5  UNL     1       1.113   3.069   0.370  1.00  0.00    -0.071 N 
ATOM     33  H53 UNL     1       1.805   3.817   0.420  1.00  0.00     0.274 HD
ATOM     34  H52 UNL     1       1.134   2.942  -0.642  1.00  0.00     0.274 HD
ATOM     35  H51 UNL     1       0.196   3.345   0.722  1.00  0.00     0.274 HD
ENDBRANCH   3  32
BRANCH   7  36
HETATM   36  C12 UNL     1      -1.818   0.847   0.215  1.00  0.00     0.201 C 
BRANCH  36  37
HETATM   37  C13 UNL     1      -2.256  -0.513   0.538  1.00  0.00     0.242 C 
HETATM   38  O7  UNL     1      -1.488  -1.268   1.251  1.00  0.00    -0.271 OA
HETATM   39  N8  UNL     1      -3.465  -1.121   0.144  1.00  0.00    -0.338 N 
HETATM   40  C14 UNL     1      -3.955  -2.459   0.513  1.00  0.00     0.127 C 
HETATM   41  C17 UNL     1      -4.482  -0.618  -0.741  1.00  0.00     0.176 C 
HETATM   42  C15 UNL     1      -5.455  -2.396   0.431  1.00  0.00     0.022 C 
HETATM   43  C16 UNL     1      -5.813  -1.016  -0.084  1.00  0.00     0.036 C 
BRANCH  41  44
HETATM   44  C18 UNL     1      -4.378  -1.291  -2.074  1.00  0.00     0.254 C 
HETATM   45  N9  UNL     1      -5.301  -0.969  -3.105  1.00  0.00    -0.060 NA
HETATM   46  O8  UNL     1      -3.490  -2.138  -2.305  1.00  0.00    -0.275 OA
ENDBRANCH  41  44
ENDBRANCH  36  37
BRANCH  36  47
HETATM   47  C19 UNL     1      -2.258   1.905   1.204  1.00  0.00     0.172 C 
HETATM   48  N10 UNL     1      -3.653   1.869   1.529  1.00  0.00    -0.377 N 
HETATM   49  C20 UNL     1      -4.004   1.483   2.811  1.00  0.00     0.022 C 
ATOM     50  H10 UNL     1      -4.362   2.119   0.840  1.00  0.00     0.160 HD
HETATM   51  C21 UNL     1      -5.249   1.640   3.307  1.00  0.00     0.082 C 
HETATM   52  C22 UNL     1      -2.929   0.882   3.630  1.00  0.00     0.133 C 
HETATM   53  S1  UNL     1      -6.570   2.368   2.345  1.00  0.00    -0.063 SA
HETATM   54  S2  UNL     1      -1.492   1.726   2.837  1.00  0.00    -0.136 SA
ENDBRANCH  36  47
ENDBRANCH   7  36
TORSDOF 16
