REMARK  15 active torsions:
REMARK  status: ('A' for Active; 'I' for Inactive)
REMARK    1  A    between atoms: N1_1  and  N2_4 
REMARK    2  A    between atoms: N2_4  and  N3_6 
REMARK    3  A    between atoms: N3_6  and  C1_8 
REMARK    4  A    between atoms: C4_14  and  C5_15 
REMARK    5  A    between atoms: C5_15  and  N5_16 
REMARK    6  A    between atoms: N5_16  and  C6_18 
REMARK    7  A    between atoms: C9_26  and  N8_27 
REMARK    8  A    between atoms: N10_33  and  N11_34 
REMARK    9  A    between atoms: N12_39  and  C12_40 
REMARK   10  A    between atoms: N14_44  and  C14_45 
REMARK   11  A    between atoms: C14_45  and  C15_46 
REMARK   12  A    between atoms: C15_46  and  N15_47 
REMARK       I    between atoms: N15_47  and  C16_49 
REMARK   13  A    between atoms: C17_52  and  S1_53 
REMARK   14  A    between atoms: S1_53  and  C18_56 
REMARK   15  A    between atoms: N18_58  and  N19_60 
ROOT
HETATM    1  C1  UNL     1      -0.462   3.649  -0.019  1.00  0.00     0.126 C 
HETATM    2  C2  UNL     1       0.658   4.655  -0.139  1.00  0.00     0.310 C 
HETATM    3  N4  UNL     1       1.527   4.046  -1.178  1.00  0.00    -0.066 N 
ATOM      4  H41 UNL     1       2.176   4.714  -1.593  1.00  0.00     0.277 HD
ATOM      5  H42 UNL     1       1.019   3.806  -2.029  1.00  0.00     0.277 HD
HETATM    6  C3  UNL     1       2.178   2.937  -0.596  1.00  0.00     0.263 C 
HETATM    7  C4  UNL     1       1.174   1.859  -0.158  1.00  0.00     0.155 C 
HETATM    8  N12 UNL     1      -0.179   2.293  -0.362  1.00  0.00    -0.319 N 
ENDROOT
BRANCH   7   9
HETATM    9  C5  UNL     1       1.512   1.626   1.309  1.00  0.00     0.090 C 
BRANCH   9  10
HETATM   10  N5  UNL     1       2.853   1.219   1.426  1.00  0.00    -0.349 N 
ATOM     11  H5  UNL     1       3.464   1.960   1.770  1.00  0.00     0.166 HD
BRANCH  10  12
HETATM   12  C6  UNL     1       3.467   0.144   1.201  1.00  0.00     0.177 A 
HETATM   13  N6  UNL     1       2.916  -0.987   0.746  1.00  0.00    -0.330 N 
HETATM   14  C7  UNL     1       3.663  -2.088   0.540  1.00  0.00     0.150 A 
ATOM     15  H6  UNL     1       1.915  -1.016   0.552  1.00  0.00     0.168 HD
HETATM   16  C8  UNL     1       3.112  -3.262   0.068  1.00  0.00     0.290 A 
HETATM   17  C10 UNL     1       5.018  -2.113   0.784  1.00  0.00     0.177 A 
HETATM   18  O1  UNL     1       1.873  -3.262  -0.163  1.00  0.00    -0.265 OA
HETATM   19  N7  UNL     1       3.805  -4.392  -0.158  1.00  0.00    -0.154 N 
HETATM   20  C9  UNL     1       5.137  -4.359   0.100  1.00  0.00     0.680 A 
ATOM     21  H7  UNL     1       3.350  -5.236  -0.507  1.00  0.00     0.187 HD
HETATM   22  N9  UNL     1       5.723  -3.234   0.563  1.00  0.00    -0.172 N 
ATOM     23  H9  UNL     1       6.726  -3.236   0.749  1.00  0.00     0.186 HD
HETATM   24  N10 UNL     1       5.578  -0.973   1.244  1.00  0.00    -0.204 N 
HETATM   25  C11 UNL     1       4.847   0.122   1.450  1.00  0.00     0.312 A 
HETATM   26  O2  UNL     1       5.415   1.182   1.887  1.00  0.00    -0.262 OA
BRANCH  20  27
HETATM   27  N8  UNL     1       5.822  -5.437  -0.110  1.00  0.00    -0.234 N 
ATOM     28  H82 UNL     1       5.379  -6.287  -0.460  1.00  0.00     0.174 HD
ATOM     29  H81 UNL     1       6.823  -5.412   0.084  1.00  0.00     0.174 HD
ENDBRANCH  20  27
BRANCH  24  30
HETATM   30  N11 UNL     1       6.953  -0.980   1.501  1.00  0.00    -0.334 N 
ATOM     31 2H11 UNL     1       7.513  -1.818   1.343  1.00  0.00     0.177 HD
ATOM     32 1H11 UNL     1       7.376  -0.119   1.848  1.00  0.00     0.177 HD
ENDBRANCH  24  30
ENDBRANCH  10  12
ENDBRANCH   9  10
ENDBRANCH   7   9
BRANCH   8  33
HETATM   33  C12 UNL     1      -1.179   1.513  -0.948  1.00  0.00     0.094 A 
HETATM   34  C13 UNL     1      -1.303   1.524  -2.382  1.00  0.00     0.140 A 
HETATM   35  N13 UNL     1      -2.350   0.777  -2.683  1.00  0.00    -0.306 N 
HETATM   36  N14 UNL     1      -2.898   0.296  -1.568  1.00  0.00    -0.278 N 
ATOM     37  H13 UNL     1      -2.688   0.596  -3.628  1.00  0.00     0.186 HD
HETATM   38  C17 UNL     1      -2.194   0.729  -0.479  1.00  0.00     0.181 A 
BRANCH  36  39
HETATM   39  C14 UNL     1      -4.105  -0.492  -1.535  1.00  0.00     0.170 C 
BRANCH  39  40
HETATM   40  C15 UNL     1      -5.338   0.407  -1.593  1.00  0.00     0.145 C 
BRANCH  40  41
HETATM   41  N15 UNL     1      -6.573  -0.320  -1.541  1.00  0.00    -0.344 N 
HETATM   42  C16 UNL     1      -7.009  -1.295  -2.469  1.00  0.00     0.328 C 
HETATM   43  N16 UNL     1      -8.259  -1.958  -2.316  1.00  0.00    -0.040 NA
HETATM   44  O3  UNL     1      -6.286  -1.600  -3.466  1.00  0.00    -0.251 OA
ATOM     45  H15 UNL     1      -7.197  -0.115  -0.760  1.00  0.00     0.163 HD
ENDBRANCH  40  41
ENDBRANCH  39  40
ENDBRANCH  36  39
BRANCH  38  46
HETATM   46  S1  UNL     1      -2.534   0.274   1.138  1.00  0.00     0.256 S 
HETATM   47  O4  UNL     1      -4.036   0.195   1.439  1.00  0.00    -0.213 OA
HETATM   48  O5  UNL     1      -1.998   1.202   2.190  1.00  0.00    -0.213 OA
BRANCH  46  49
HETATM   49  C18 UNL     1      -1.924  -1.314   1.565  1.00  0.00     0.238 C 
HETATM   50  N17 UNL     1      -0.645  -1.527   2.135  1.00  0.00    -0.068 NA
HETATM   51  N18 UNL     1      -2.626  -2.409   1.399  1.00  0.00    -0.217 N 
ATOM     52  H18 UNL     1      -3.563  -2.324   1.005  1.00  0.00     0.195 HD
BRANCH  51  53
HETATM   53  N19 UNL     1      -2.167  -3.677   1.729  1.00  0.00    -0.037 N 
HETATM   54  O6  UNL     1      -2.567  -4.264   2.777  1.00  0.00    -0.516 OA
HETATM   55  O7  UNL     1      -1.269  -4.377   0.971  1.00  0.00    -0.516 OA
ENDBRANCH  51  53
ENDBRANCH  46  49
ENDBRANCH  38  46
ENDBRANCH   8  33
BRANCH   1  56
HETATM   56  N3  UNL     1      -1.602   4.016   0.344  1.00  0.00    -0.273 N 
ATOM     57  H3  UNL     1      -2.356   3.334   0.424  1.00  0.00     0.190 HD
BRANCH  56  58
HETATM   58  N2  UNL     1      -1.840   5.359   0.639  1.00  0.00    -0.248 N 
ATOM     59  H2  UNL     1      -2.321   5.935  -0.052  1.00  0.00     0.207 HD
BRANCH  58  60
HETATM   60  N1  UNL     1      -1.476   5.898   1.747  1.00  0.00    -0.331 N 
ATOM     61  H12 UNL     1      -0.996   5.308   2.426  1.00  0.00     0.178 HD
ATOM     62  H11 UNL     1      -1.650   6.880   1.963  1.00  0.00     0.178 HD
ENDBRANCH  58  60
ENDBRANCH  56  58
ENDBRANCH   1  56
TORSDOF 15
