REMARK  11 active torsions:
REMARK  status: ('A' for Active; 'I' for Inactive)
REMARK    1  A    between atoms: N1_1  and  C1_5 
REMARK    2  A    between atoms: C1_5  and  C2_6 
REMARK    3  A    between atoms: C2_6  and  S1_7 
REMARK    4  A    between atoms: C2_6  and  C19_49 
REMARK    5  A    between atoms: S1_7  and  S2_8 
REMARK    6  A    between atoms: S2_8  and  C3_9 
REMARK    7  A    between atoms: C5_14  and  C6_15 
REMARK    8  A    between atoms: C5_14  and  C7_17 
REMARK    9  A    between atoms: C9_24  and  O6_25 
REMARK   10  A    between atoms: O6_25  and  C10_26 
REMARK   11  A    between atoms: C18_46  and  O11_47 
ROOT
HETATM    1  C3  UNL     1      -1.581  -0.297  -0.387  1.00  0.00     0.188 C 
HETATM    2  C4  UNL     1      -2.479  -1.357  -0.799  1.00  0.00     0.238 C 
HETATM    3  O1  UNL     1      -2.604  -1.522  -2.070  1.00  0.00    -0.272 OA
HETATM    4  N2  UNL     1      -3.274  -2.281  -0.075  1.00  0.00    -0.319 N 
ATOM      5  H2  UNL     1      -4.138  -2.563  -0.538  1.00  0.00     0.166 HD
HETATM    6  C5  UNL     1      -3.050  -2.879   1.205  1.00  0.00     0.254 C 
HETATM    7  N3  UNL     1      -1.622  -3.011   1.416  1.00  0.00    -0.318 N 
ATOM      8  H3  UNL     1      -1.328  -3.833   1.944  1.00  0.00     0.166 HD
HETATM    9  C8  UNL     1      -0.578  -2.151   0.987  1.00  0.00     0.251 C 
HETATM   10  O5  UNL     1       0.527  -2.746   0.879  1.00  0.00    -0.271 OA
HETATM   11  C9  UNL     1      -0.551  -0.729   0.656  1.00  0.00     0.238 C 
ENDROOT
BRANCH  11  12
HETATM   12  O6  UNL     1       0.743  -0.365   0.301  1.00  0.00    -0.356 OA
BRANCH  12  13
HETATM   13  C10 UNL     1       1.362   0.492   1.202  1.00  0.00     0.262 C 
HETATM   14  C11 UNL     1       1.751   1.776   0.561  1.00  0.00     0.251 C 
HETATM   15  O7  UNL     1       1.435   2.860   1.155  1.00  0.00    -0.270 OA
HETATM   16  N4  UNL     1       2.440   1.899  -0.651  1.00  0.00    -0.350 N 
HETATM   17  C12 UNL     1       2.683   0.769  -1.556  1.00  0.00     0.225 C 
ATOM     18  H4  UNL     1       2.790   2.819  -0.919  1.00  0.00     0.163 HD
HETATM   19  C13 UNL     1       3.591   1.144  -2.663  1.00  0.00     0.235 C 
HETATM   20  O8  UNL     1       3.087   1.167  -3.817  1.00  0.00    -0.272 OA
HETATM   21  N5  UNL     1       4.950   1.473  -2.535  1.00  0.00    -0.351 N 
HETATM   22  C14 UNL     1       5.683   1.645  -1.298  1.00  0.00     0.225 C 
ATOM     23  H5  UNL     1       5.474   1.604  -3.400  1.00  0.00     0.163 HD
HETATM   24  C15 UNL     1       6.591   0.513  -0.983  1.00  0.00     0.235 C 
HETATM   25  O9  UNL     1       7.338   0.123  -1.919  1.00  0.00    -0.272 OA
HETATM   26  N6  UNL     1       6.659  -0.134   0.283  1.00  0.00    -0.351 N 
HETATM   27  C16 UNL     1       5.521  -0.510   1.091  1.00  0.00     0.225 C 
ATOM     28  H6  UNL     1       7.586  -0.350   0.650  1.00  0.00     0.163 HD
HETATM   29  C17 UNL     1       4.965   0.592   1.874  1.00  0.00     0.237 C 
HETATM   30  O10 UNL     1       5.752   1.397   2.427  1.00  0.00    -0.272 OA
HETATM   31  N7  UNL     1       3.562   0.837   2.069  1.00  0.00    -0.331 N 
HETATM   32  C18 UNL     1       2.555  -0.153   1.867  1.00  0.00     0.258 C 
ATOM     33  H7  UNL     1       3.271   1.768   2.368  1.00  0.00     0.165 HD
BRANCH  32  34
HETATM   34  O11 UNL     1       2.214  -0.640   3.152  1.00  0.00    -0.374 OA
ATOM     35  H11 UNL     1       2.964  -1.046   3.570  1.00  0.00     0.212 HD
ENDBRANCH  32  34
ENDBRANCH  12  13
ENDBRANCH  11  12
BRANCH   1  36
HETATM   36  S2  UNL     1      -2.272   1.240   0.168  1.00  0.00    -0.079 SA
BRANCH  36  37
HETATM   37  S1  UNL     1      -3.239   2.304  -1.332  1.00  0.00    -0.079 SA
BRANCH  37  38
HETATM   38  C2  UNL     1      -4.976   2.011  -1.391  1.00  0.00     0.184 C 
BRANCH  38  39
HETATM   39  C1  UNL     1      -5.443   0.653  -1.755  1.00  0.00     0.256 C 
BRANCH  39  40
HETATM   40  N1  UNL     1      -6.910   0.651  -1.772  1.00  0.00    -0.078 N 
ATOM     41  H13 UNL     1      -7.311   0.980  -0.894  1.00  0.00     0.274 HD
ATOM     42  H12 UNL     1      -7.295   1.373  -2.381  1.00  0.00     0.274 HD
ATOM     43  H11 UNL     1      -7.232  -0.284  -2.023  1.00  0.00     0.274 HD
ENDBRANCH  39  40
ENDBRANCH  38  39
BRANCH  38  44
HETATM   44  C19 UNL     1      -5.571   2.976  -2.370  1.00  0.00     0.189 C 
HETATM   45  O12 UNL     1      -6.311   2.569  -3.271  1.00  0.00    -0.647 OA
HETATM   46  O13 UNL     1      -5.276   4.307  -2.243  1.00  0.00    -0.647 OA
ENDBRANCH  38  44
ENDBRANCH  37  38
ENDBRANCH  36  37
ENDBRANCH   1  36
BRANCH   6  47
HETATM   47  C6  UNL     1      -3.653  -4.254   1.248  1.00  0.00     0.296 C 
HETATM   48  O2  UNL     1      -4.214  -4.674   0.280  1.00  0.00    -0.302 OA
ENDBRANCH   6  47
BRANCH   6  49
HETATM   49  C7  UNL     1      -3.709  -2.147   2.305  1.00  0.00     0.232 C 
HETATM   50  O3  UNL     1      -4.373  -1.134   2.046  1.00  0.00    -0.644 OA
HETATM   51  O4  UNL     1      -3.584  -2.586   3.596  1.00  0.00    -0.644 OA
ENDBRANCH   6  49
TORSDOF 11
