REMARK  5 active torsions:
REMARK  status: ('A' for Active; 'I' for Inactive)
REMARK    1  A    between atoms: C4_5  and  C5_6 
REMARK    2  A    between atoms: C5_6  and  C6_7 
REMARK    3  A    between atoms: C6_7  and  C7_8 
REMARK       I    between atoms: C7_8  and  N1_10 
REMARK    4  A    between atoms: N1_10  and  C8_12 
REMARK    5  A    between atoms: C8_12  and  C11_15 
ROOT
HETATM    1  C7  UNL     1      -0.218   0.172  -0.534  1.00  0.00     0.297 C 
HETATM    2  O1  UNL     1      -0.417  -0.129  -1.721  1.00  0.00    -0.258 OA
HETATM    3  N1  UNL     1      -1.235   0.632   0.315  1.00  0.00    -0.341 N 
ATOM      4  H1  UNL     1      -0.949   0.865   1.266  1.00  0.00     0.164 HD
ENDROOT
BRANCH   1   5
HETATM    5  C6  UNL     1       1.149   0.030  -0.027  1.00  0.00    -0.000 C 
BRANCH   5   6
HETATM    6  C5  UNL     1       2.269  -0.073   0.404  1.00  0.00    -0.056 C 
BRANCH   6   7
HETATM    7  C4  UNL     1       3.653  -0.187   0.911  1.00  0.00     0.031 A 
HETATM    8  C3  UNL     1       3.865  -0.227   2.263  1.00  0.00     0.071 A 
HETATM    9  S1  UNL     1       5.558  -0.359   2.400  1.00  0.00    -0.105 SA
HETATM   10  C2  UNL     1       5.965  -0.361   0.747  1.00  0.00    -0.014 A 
HETATM   11  C1  UNL     1       7.334  -0.454   0.100  1.00  0.00     0.057 C 
HETATM   12  C15 UNL     1       4.757  -0.258   0.120  1.00  0.00    -0.030 A 
HETATM   13  C16 UNL     1       4.689  -0.226  -1.405  1.00  0.00     0.050 C 
ENDBRANCH   6   7
ENDBRANCH   5   6
ENDBRANCH   1   5
BRANCH   3  14
HETATM   14  C8  UNL     1      -2.624   0.817   0.017  1.00  0.00     0.033 C 
HETATM   15  C9  UNL     1      -3.172   1.610   1.246  1.00  0.00     0.039 C 
HETATM   16  C10 UNL     1      -2.776   1.636  -1.216  1.00  0.00     0.039 C 
BRANCH  14  17
HETATM   17  C11 UNL     1      -3.434  -0.432  -0.037  1.00  0.00    -0.027 C 
HETATM   18  C12 UNL     1      -3.354  -1.176   1.308  1.00  0.00     0.017 C 
HETATM   19  C13 UNL     1      -3.146  -1.377  -1.141  1.00  0.00     0.017 C 
HETATM   20  C14 UNL     1      -4.923   0.004  -0.103  1.00  0.00     0.017 C 
ENDBRANCH  14  17
ENDBRANCH   3  14
TORSDOF 5
