REMARK  3 active torsions:
REMARK  status: ('A' for Active; 'I' for Inactive)
REMARK    1  A    between atoms: N1_1  and  C1_5 
REMARK    2  A    between atoms: C1_5  and  C2_6 
REMARK    3  A    between atoms: C3_7  and  C4_8 
ROOT
HETATM    1  C4  UNL     1      -0.017  -0.583  -1.849  1.00  0.00     0.067 C 
HETATM    2  C5  UNL     1      -1.159  -0.141  -1.365  1.00  0.00    -0.067 C 
HETATM    3  C6  UNL     1      -2.317  -0.193  -2.255  1.00  0.00     0.039 C 
HETATM    4  C7  UNL     1      -3.630  -0.289  -1.491  1.00  0.00    -0.010 C 
HETATM    5  C8  UNL     1      -3.593  -1.378  -0.456  1.00  0.00     0.009 C 
HETATM    6  C9  UNL     1      -3.046  -0.967   0.864  1.00  0.00    -0.013 C 
HETATM    7  C10 UNL     1      -3.696   0.307   1.355  1.00  0.00     0.009 C 
HETATM    8  C11 UNL     1      -3.347   1.390   0.359  1.00  0.00    -0.013 C 
HETATM    9  C12 UNL     1      -4.001   1.055  -0.939  1.00  0.00     0.009 C 
HETATM   10  C13 UNL     1      -1.880   1.611   0.236  1.00  0.00     0.013 C 
HETATM   11  C14 UNL     1      -1.082   0.346   0.031  1.00  0.00     0.016 C 
HETATM   12  C15 UNL     1      -1.567  -0.781   0.915  1.00  0.00     0.013 C 
ENDROOT
BRANCH   1  13
HETATM   13  C3  UNL     1       1.209  -0.599  -1.104  1.00  0.00    -0.076 C 
HETATM   14  C2  UNL     1       2.244  -0.596  -0.483  1.00  0.00    -0.063 C 
BRANCH  14  15
HETATM   15  C1  UNL     1       3.498  -0.567   0.269  1.00  0.00     0.186 C 
HETATM   16  C16 UNL     1       4.684  -0.478  -0.690  1.00  0.00     0.052 C 
HETATM   17  C17 UNL     1       5.695   0.256   0.168  1.00  0.00     0.003 C 
HETATM   18  C18 UNL     1       4.845   1.404   0.699  1.00  0.00     0.003 C 
HETATM   19  C19 UNL     1       3.583   0.702   1.100  1.00  0.00     0.052 C 
BRANCH  15  20
HETATM   20  N1  UNL     1       3.686  -1.752   1.059  1.00  0.00    -0.059 N 
ATOM     21  H13 UNL     1       2.890  -1.914   1.676  1.00  0.00     0.276 HD
ATOM     22  H12 UNL     1       3.620  -2.592   0.485  1.00  0.00     0.276 HD
ATOM     23  H11 UNL     1       4.561  -1.732   1.583  1.00  0.00     0.276 HD
ENDBRANCH  15  20
ENDBRANCH  14  15
ENDBRANCH   1  13
TORSDOF 3
