REMARK  1 active torsions:
REMARK  status: ('A' for Active; 'I' for Inactive)
REMARK    1  A    between atoms: C5_7  and  O3_8 
ROOT
HETATM    1  C1  UNL     1      -1.881   2.652   0.403  1.00  0.00     0.043 C 
HETATM    2  C2  UNL     1      -2.099   1.554  -0.600  1.00  0.00     0.163 C 
HETATM    3  O1  UNL     1      -3.263   0.887  -0.435  1.00  0.00    -0.235 OA
HETATM    4  O2  UNL     1      -3.281  -0.195   0.224  1.00  0.00    -0.233 OA
HETATM    5  C3  UNL     1      -2.309  -1.131  -0.111  1.00  0.00     0.191 C 
HETATM    6  C4  UNL     1      -2.518  -2.395   0.622  1.00  0.00     0.046 C 
HETATM    7  C5  UNL     1      -0.978  -0.435   0.246  1.00  0.00     0.096 C 
HETATM    8  C6  UNL     1       0.185  -1.381   0.271  1.00  0.00     0.023 C 
HETATM    9  C7  UNL     1       0.985  -1.305   1.541  1.00  0.00     0.008 C 
HETATM   10  C8  UNL     1       2.056  -0.350   1.677  1.00  0.00     0.005 C 
HETATM   11  C9  UNL     1       2.299   0.682   0.616  1.00  0.00    -0.014 C 
HETATM   12  C10 UNL     1       2.908  -0.042  -0.552  1.00  0.00     0.009 C 
HETATM   13  C11 UNL     1       1.837  -0.497  -1.465  1.00  0.00    -0.013 C 
HETATM   14  C12 UNL     1       1.203   0.742  -2.014  1.00  0.00     0.010 C 
HETATM   15  C13 UNL     1       0.383   1.384  -0.893  1.00  0.00    -0.004 C 
HETATM   16  C14 UNL     1       1.196   1.600   0.324  1.00  0.00     0.010 C 
HETATM   17  C15 UNL     1      -0.884   0.642  -0.771  1.00  0.00     0.059 C 
HETATM   18  C16 UNL     1       0.934  -1.536  -0.970  1.00  0.00     0.012 C 
ENDROOT
BRANCH   7  19
HETATM   19  O3  UNL     1      -1.246   0.036   1.554  1.00  0.00    -0.386 OA
ATOM     20  H3  UNL     1      -0.427   0.464   1.774  1.00  0.00     0.210 HD
ENDBRANCH   7  19
TORSDOF 1
