REMARK  1 active torsions:
REMARK  status: ('A' for Active; 'I' for Inactive)
REMARK    1  A    between atoms: C3_3  and  O1_4 
ROOT
HETATM    1  C1  UNL     1       3.037   2.234   1.566  1.00  0.00     0.100 C 
HETATM    2  C2  UNL     1       2.990   1.447   0.625  1.00  0.00    -0.140 C 
HETATM    3  C3  UNL     1       2.958   0.495  -0.483  1.00  0.00     0.197 C 
HETATM    4  C4  UNL     1       2.771  -0.872   0.101  1.00  0.00     0.061 C 
HETATM    5  C5  UNL     1       1.972  -1.810  -0.712  1.00  0.00     0.004 C 
HETATM    6  C6  UNL     1       1.048  -2.629   0.199  1.00  0.00     0.000 C 
HETATM    7  C7  UNL     1      -0.269  -2.897  -0.494  1.00  0.00     0.000 C 
HETATM    8  C8  UNL     1      -1.412  -2.731   0.489  1.00  0.00     0.000 C 
HETATM    9  C9  UNL     1      -2.468  -1.789  -0.087  1.00  0.00     0.000 C 
HETATM   10  C10 UNL     1      -3.002  -0.836   0.942  1.00  0.00     0.000 C 
HETATM   11  C11 UNL     1      -2.135   0.422   0.979  1.00  0.00     0.000 C 
HETATM   12  C12 UNL     1      -2.508   1.299  -0.173  1.00  0.00     0.000 C 
HETATM   13  C13 UNL     1      -2.045   2.714  -0.052  1.00  0.00     0.002 C 
HETATM   14  C14 UNL     1      -0.613   2.851   0.372  1.00  0.00     0.027 C 
HETATM   15  C15 UNL     1       0.358   2.725  -0.784  1.00  0.00     0.178 C 
HETATM   16  O2  UNL     1       0.721   1.421  -1.079  1.00  0.00    -0.318 OA
HETATM   17  C16 UNL     1       1.895   0.861  -1.456  1.00  0.00     0.305 C 
HETATM   18  O3  UNL     1       2.231   0.581  -2.671  1.00  0.00    -0.261 OA
ENDROOT
BRANCH   3  19
HETATM   19  O1  UNL     1       4.244   0.574  -1.070  1.00  0.00    -0.369 OA
ATOM     20  H1  UNL     1       4.223  -0.045  -1.790  1.00  0.00     0.212 HD
ENDBRANCH   3  19
TORSDOF 1
