REMARK  1 active torsions:
REMARK  status: ('A' for Active; 'I' for Inactive)
REMARK    1  A    between atoms: C5_6  and  O2_7 
ROOT
HETATM    1  C1  UNL     1      -3.335  -2.115  -0.784  1.00  0.00     0.046 C 
HETATM    2  C2  UNL     1      -2.475  -0.892  -0.386  1.00  0.00     0.060 C 
HETATM    3  C3  UNL     1      -2.576  -0.666   1.053  1.00  0.00     0.072 C 
HETATM    4  C4  UNL     1      -3.208   0.613   0.606  1.00  0.00     0.154 C 
HETATM    5  O1  UNL     1      -3.191   0.232  -0.711  1.00  0.00    -0.372 OA
HETATM    6  C5  UNL     1      -2.417   1.838   0.818  1.00  0.00     0.147 C 
HETATM    7  C6  UNL     1      -0.944   1.706   0.667  1.00  0.00     0.039 C 
HETATM    8  C7  UNL     1      -0.475   1.347  -0.699  1.00  0.00    -0.007 C 
HETATM    9  C8  UNL     1       0.686   2.252  -1.138  1.00  0.00     0.005 C 
HETATM   10  C9  UNL     1       1.976   1.496  -1.078  1.00  0.00     0.005 C 
HETATM   11  C10 UNL     1       2.003   0.639   0.175  1.00  0.00    -0.010 C 
HETATM   12  C11 UNL     1       3.432   0.251   0.383  1.00  0.00     0.005 C 
HETATM   13  C12 UNL     1       3.568  -1.061   1.109  1.00  0.00     0.000 C 
HETATM   14  C13 UNL     1       2.975  -2.110   0.209  1.00  0.00     0.000 C 
HETATM   15  C14 UNL     1       1.601  -1.811  -0.258  1.00  0.00     0.005 C 
HETATM   16  C15 UNL     1       1.023  -0.494   0.138  1.00  0.00    -0.006 C 
HETATM   17  C16 UNL     1      -0.079  -0.105  -0.855  1.00  0.00    -0.003 C 
HETATM   18  C17 UNL     1      -1.159  -1.061  -1.016  1.00  0.00     0.043 C 
ENDROOT
BRANCH   6  19
HETATM   19  O2  UNL     1      -2.663   2.414   2.082  1.00  0.00    -0.393 OA
ATOM     20  H2  UNL     1      -2.153   3.204   2.219  1.00  0.00     0.210 HD
ENDBRANCH   6  19
TORSDOF 1
