REMARK  2 active torsions:
REMARK  status: ('A' for Active; 'I' for Inactive)
REMARK    1  A    between atoms: C8_8  and  C9_9 
REMARK    2  A    between atoms: C9_9  and  O1_10 
ROOT
HETATM    1  C1  UNL     1       3.718   1.467   0.897  1.00  0.00     0.039 C 
HETATM    2  C2  UNL     1       3.210   0.058   1.102  1.00  0.00     0.118 C 
HETATM    3  C3  UNL     1       3.606  -0.774  -0.107  1.00  0.00     0.032 C 
HETATM    4  C4  UNL     1       2.489  -0.744  -1.070  1.00  0.00     0.006 C 
HETATM    5  C5  UNL     1       1.381   0.214  -0.707  1.00  0.00     0.038 C 
HETATM    6  C6  UNL     1       0.869   0.019   0.692  1.00  0.00     0.062 C 
HETATM    7  C7  UNL     1       0.113   1.194   1.218  1.00  0.00     0.045 C 
HETATM    8  C8  UNL     1      -1.297   1.354   0.956  1.00  0.00     0.017 C 
HETATM    9  C10 UNL     1      -2.198   0.213   0.786  1.00  0.00     0.001 C 
HETATM   10  C11 UNL     1      -2.258  -0.780   1.908  1.00  0.00     0.006 C 
HETATM   11  C12 UNL     1      -1.981  -2.156   1.271  1.00  0.00     0.006 C 
HETATM   12  C13 UNL     1      -1.021  -1.650   0.156  1.00  0.00    -0.003 C 
HETATM   13  C14 UNL     1       0.206  -1.306   0.845  1.00  0.00     0.043 C 
HETATM   14  C15 UNL     1      -1.933  -0.653  -0.410  1.00  0.00    -0.033 A 
HETATM   15  C16 UNL     1      -3.245  -1.349  -0.922  1.00  0.00     0.011 A 
HETATM   16  C17 UNL     1      -2.441  -0.455  -1.727  1.00  0.00     0.011 A 
HETATM   17  O2  UNL     1       1.976  -0.082   1.549  1.00  0.00    -0.375 OA
ENDROOT
BRANCH   8  18
HETATM   18  C9  UNL     1      -1.514   2.252  -0.283  1.00  0.00     0.169 C 
BRANCH  18  19
HETATM   19  O1  UNL     1      -0.931   3.486   0.005  1.00  0.00    -0.400 OA
ATOM     20  H1  UNL     1      -1.064   4.038  -0.757  1.00  0.00     0.209 HD
ENDBRANCH  18  19
ENDBRANCH   8  18
TORSDOF 2
