REMARK  1 active torsions:
REMARK  status: ('A' for Active; 'I' for Inactive)
REMARK    1  A    between atoms: N1_7  and  C6_8 
ROOT
HETATM    1  C1  UNL     1       3.795  -2.883   0.647  1.00  0.00     0.056 C 
HETATM    2  C2  UNL     1       2.696  -1.857   0.466  1.00  0.00    -0.018 A 
HETATM    3  C3  UNL     1       2.814  -0.512   0.477  1.00  0.00     0.029 A 
HETATM    4  C4  UNL     1       1.685   0.231   0.293  1.00  0.00     0.015 A 
HETATM    5  C5  UNL     1       0.517  -0.455   0.111  1.00  0.00     0.091 A 
HETATM    6  S1  UNL     1       1.041  -2.101   0.204  1.00  0.00    -0.076 SA
HETATM    7  N1  UNL     1      -0.758   0.187  -0.092  1.00  0.00    -0.308 N 
HETATM    8  C10 UNL     1      -0.798   1.619  -0.102  1.00  0.00     0.181 A 
HETATM    9  S2  UNL     1      -2.196   2.349  -0.318  1.00  0.00    -0.040 SA
HETATM   10  N2  UNL     1       0.410   2.283   0.086  1.00  0.00    -0.337 N 
HETATM   11  C11 UNL     1       0.313   3.759   0.074  1.00  0.00     0.158 C 
HETATM   12  C12 UNL     1       1.685   1.756   0.282  1.00  0.00     0.107 A 
ENDROOT
BRANCH   7  13
HETATM   13  C6  UNL     1      -1.923  -0.575  -0.277  1.00  0.00     0.029 C 
HETATM   14  C7  UNL     1      -2.470  -0.222  -1.681  1.00  0.00     0.038 C 
HETATM   15  C8  UNL     1      -3.064  -0.250   0.652  1.00  0.00     0.038 C 
HETATM   16  C9  UNL     1      -1.771  -2.071  -0.305  1.00  0.00     0.038 C 
ENDBRANCH   7  13
TORSDOF 1
