REMARK  0 active torsions:
REMARK  status: ('A' for Active; 'I' for Inactive)
ROOT
HETATM    1  C1  UNL     1       3.505  -0.069  -0.755  1.00  0.00    -0.031 C 
HETATM    2  C2  UNL     1       3.299  -1.376  -0.768  1.00  0.00    -0.031 C 
HETATM    3  C3  UNL     1       2.938  -2.231   0.361  1.00  0.00     0.027 C 
HETATM    4  C4  UNL     1       1.525  -2.176   0.823  1.00  0.00     0.004 C 
HETATM    5  C5  UNL     1       0.479  -2.489  -0.190  1.00  0.00     0.001 C 
HETATM    6  C6  UNL     1      -0.147  -1.322  -0.872  1.00  0.00     0.009 C 
HETATM    7  C7  UNL     1      -1.543  -1.001  -0.450  1.00  0.00     0.037 C 
HETATM    8  C8  UNL     1      -2.109   0.071  -1.354  1.00  0.00     0.085 C 
HETATM    9  C9  UNL     1      -3.607   0.005  -1.140  1.00  0.00     0.025 C 
HETATM   10  C10 UNL     1      -3.926   0.393   0.255  1.00  0.00     0.004 C 
HETATM   11  C11 UNL     1      -3.052  -0.117   1.324  1.00  0.00     0.032 C 
HETATM   12  C12 UNL     1      -1.637  -0.415   0.939  1.00  0.00     0.130 C 
HETATM   13  O1  UNL     1      -0.820   0.684   0.974  1.00  0.00    -0.361 OA
HETATM   14  C13 UNL     1      -1.115   1.710   0.134  1.00  0.00     0.217 C 
HETATM   15  C14 UNL     1       0.120   2.587  -0.004  1.00  0.00     0.053 C 
HETATM   16  C15 UNL     1       1.274   2.107   0.855  1.00  0.00     0.004 C 
HETATM   17  C16 UNL     1       2.587   2.065   0.116  1.00  0.00     0.004 C 
HETATM   18  C17 UNL     1       3.406   0.813   0.441  1.00  0.00     0.027 C 
HETATM   19  N1  UNL     1      -1.554   1.353  -1.172  1.00  0.00    -0.392 N 
ATOM     20  H1  UNL     1      -1.469   2.005  -1.952  1.00  0.00     0.156 HD
ENDROOT
TORSDOF 0
