REMARK  10 active torsions:
REMARK  status: ('A' for Active; 'I' for Inactive)
REMARK    1  A    between atoms: C2_2  and  C3_3 
REMARK    2  A    between atoms: C3_3  and  C4_4 
REMARK    3  A    between atoms: C4_4  and  C5_5 
REMARK    4  A    between atoms: C8_8  and  O1_9 
REMARK    5  A    between atoms: C9_11  and  C10_12 
REMARK    6  A    between atoms: C12_14  and  C13_15 
REMARK       I    between atoms: C13_15  and  N1_17 
REMARK    7  A    between atoms: N1_17  and  C14_19 
REMARK    8  A    between atoms: C26_31  and  C27_32 
REMARK       I    between atoms: C27_32  and  N2_34 
REMARK    9  A    between atoms: N2_34  and  C29_36 
REMARK   10  A    between atoms: C29_36  and  C30_37 
ROOT
HETATM    1  C5  UNL     1      -3.878  -1.735   0.583  1.00  0.00     0.187 C 
HETATM    2  C6  UNL     1      -3.050  -1.716   1.854  1.00  0.00     0.040 C 
HETATM    3  C7  UNL     1      -1.661  -1.327   1.437  1.00  0.00     0.023 C 
HETATM    4  C8  UNL     1      -0.612  -1.520   2.453  1.00  0.00     0.127 C 
HETATM    5  C9  UNL     1       0.727  -1.438   1.751  1.00  0.00     0.027 C 
HETATM    6  C12 UNL     1       0.831  -0.119   1.098  1.00  0.00     0.085 C 
HETATM    7  C24 UNL     1      -0.335   0.238   0.201  1.00  0.00     0.022 C 
HETATM    8  C25 UNL     1      -1.597   0.148   0.999  1.00  0.00     0.033 C 
HETATM    9  C26 UNL     1      -2.856   0.420   0.303  1.00  0.00     0.282 C 
HETATM   10  N5  UNL     1      -3.297  -0.783  -0.372  1.00  0.00    -0.058 N 
ATOM     11  H51 UNL     1      -3.941  -0.573  -1.134  1.00  0.00     0.278 HD
ATOM     12  H52 UNL     1      -2.546  -1.206  -0.917  1.00  0.00     0.278 HD
ENDROOT
BRANCH   6  13
HETATM   13  C13 UNL     1       2.065   0.183   0.392  1.00  0.00     0.223 C 
HETATM   14  O2  UNL     1       2.017   0.414  -0.844  1.00  0.00    -0.273 OA
HETATM   15  N1  UNL     1       3.356   0.245   0.985  1.00  0.00    -0.351 N 
ATOM     16  H1  UNL     1       3.428   0.061   1.986  1.00  0.00     0.163 HD
BRANCH  15  17
HETATM   17  C14 UNL     1       4.569   0.549   0.271  1.00  0.00     0.034 C 
HETATM   18  C15 UNL     1       4.565   1.905  -0.379  1.00  0.00     0.035 C 
HETATM   19  C16 UNL     1       5.898   2.124  -1.041  1.00  0.00    -0.012 C 
HETATM   20  C17 UNL     1       6.093   1.066  -2.109  1.00  0.00     0.009 C 
HETATM   21  C21 UNL     1       7.015   2.106  -0.050  1.00  0.00     0.009 C 
HETATM   22  C18 UNL     1       6.189  -0.257  -1.412  1.00  0.00    -0.012 C 
HETATM   23  C19 UNL     1       7.292  -0.295  -0.384  1.00  0.00     0.009 C 
HETATM   24  C23 UNL     1       4.900  -0.557  -0.734  1.00  0.00     0.035 C 
HETATM   25  C20 UNL     1       7.032   0.763   0.644  1.00  0.00    -0.012 C 
HETATM   26  C22 UNL     1       5.704   0.560   1.289  1.00  0.00     0.035 C 
ENDBRANCH  15  17
ENDBRANCH   6  13
BRANCH   5  27
HETATM   27  C10 UNL     1       0.995  -2.609   0.850  1.00  0.00     0.003 C 
HETATM   28  C11 UNL     1       1.002  -3.918   1.566  1.00  0.00     0.005 C 
ENDBRANCH   5  27
BRANCH   4  29
HETATM   29  O1  UNL     1      -0.746  -2.637   3.244  1.00  0.00    -0.395 OA
ATOM     30  H1  UNL     1      -0.069  -2.761   3.899  1.00  0.00     0.210 HD
ENDBRANCH   4  29
BRANCH   9  31
HETATM   31  C27 UNL     1      -2.899   1.547  -0.625  1.00  0.00     0.251 C 
HETATM   32  O3  UNL     1      -3.272   1.294  -1.802  1.00  0.00    -0.271 OA
HETATM   33  N2  UNL     1      -2.568   2.881  -0.340  1.00  0.00    -0.349 N 
HETATM   34  C28 UNL     1      -2.127   3.344   0.965  1.00  0.00     0.153 C 
BRANCH  33  35
HETATM   35  C29 UNL     1      -2.664   3.877  -1.386  1.00  0.00     0.183 C 
BRANCH  35  36
HETATM   36  C30 UNL     1      -4.003   4.490  -1.410  1.00  0.00     0.049 A 
HETATM   37  C31 UNL     1      -4.465   5.450  -2.287  1.00  0.00     0.103 A 
HETATM   38  C32 UNL     1      -5.768   5.711  -1.921  1.00  0.00     0.261 A 
HETATM   39  O4  UNL     1      -6.523   6.535  -2.490  1.00  0.00    -0.267 OA
HETATM   40  N3  UNL     1      -6.047   4.927  -0.868  1.00  0.00    -0.266 N 
HETATM   41  N4  UNL     1      -4.992   4.191  -0.555  1.00  0.00    -0.300 N 
ATOM     42  H3  UNL     1      -6.942   4.902  -0.380  1.00  0.00     0.190 HD
ATOM     43  H4  UNL     1      -4.940   3.513   0.205  1.00  0.00     0.186 HD
ENDBRANCH  35  36
ENDBRANCH  33  35
ENDBRANCH   9  31
BRANCH   1  44
HETATM   44  C4  UNL     1      -3.837  -3.081  -0.111  1.00  0.00     0.033 C 
BRANCH  44  45
HETATM   45  C3  UNL     1      -4.707  -2.939  -1.356  1.00  0.00     0.002 C 
BRANCH  45  46
HETATM   46  C2  UNL     1      -4.756  -4.215  -2.147  1.00  0.00    -0.004 C 
HETATM   47  C1  UNL     1      -5.325  -5.349  -1.327  1.00  0.00     0.005 C 
ENDBRANCH  45  46
ENDBRANCH  44  45
ENDBRANCH   1  44
TORSDOF 10
