REMARK  10 active torsions:
REMARK  status: ('A' for Active; 'I' for Inactive)
REMARK    1  A    between atoms: C12_12  and  C13_13 
REMARK    2  A    between atoms: C13_13  and  N1_14 
REMARK    3  A    between atoms: N1_14  and  C14_16 
REMARK    4  A    between atoms: C16_22  and  C17_23 
REMARK       I    between atoms: C17_23  and  N4_25 
REMARK    5  A    between atoms: N4_25  and  C18_27 
REMARK    6  A    between atoms: C18_27  and  C19_28 
REMARK    7  A    between atoms: N5_31  and  C22_32 
REMARK    8  A    between atoms: C22_32  and  C23_33 
REMARK    9  A    between atoms: C23_33  and  N6_34 
REMARK   10  A    between atoms: N6_34  and  C24_36 
ROOT
HETATM    1  C14 UNL     1      -0.326  -0.119  -0.400  1.00  0.00     0.147 A 
HETATM    2  N2  UNL     1       0.291   0.525   0.597  1.00  0.00    -0.283 N 
ATOM      3  H2  UNL     1      -0.023   1.406   1.005  1.00  0.00     0.188 HD
HETATM    4  N3  UNL     1       1.381  -0.154   0.983  1.00  0.00    -0.294 N 
ATOM      5  H3  UNL     1       2.015   0.138   1.727  1.00  0.00     0.187 HD
HETATM    6  C15 UNL     1       1.522  -1.278   0.250  1.00  0.00     0.113 A 
HETATM    7  C16 UNL     1       2.218  -2.409  -0.048  1.00  0.00     0.146 A 
HETATM    8  N7  UNL     1       1.576  -3.052  -1.074  1.00  0.00    -0.293 N 
ATOM      9  H7  UNL     1       1.869  -3.928  -1.507  1.00  0.00     0.187 HD
HETATM   10  N8  UNL     1       0.523  -2.349  -1.402  1.00  0.00    -0.294 N 
ATOM     11  H8  UNL     1      -0.136  -2.598  -2.139  1.00  0.00     0.187 HD
HETATM   12  C27 UNL     1       0.431  -1.250  -0.630  1.00  0.00     0.124 A 
ENDROOT
BRANCH   1  13
HETATM   13  N1  UNL     1      -1.396   0.252  -1.023  1.00  0.00    -0.373 N 
ATOM     14  H1  UNL     1      -1.774  -0.331  -1.770  1.00  0.00     0.161 HD
BRANCH  13  15
HETATM   15  C13 UNL     1      -2.071   1.502  -0.666  1.00  0.00     0.128 C 
BRANCH  15  16
HETATM   16  C12 UNL     1      -3.348   1.687  -1.379  1.00  0.00     0.042 C 
HETATM   17  C10 UNL     1      -4.413   0.666  -1.166  1.00  0.00     0.162 C 
HETATM   18  C9  UNL     1      -4.361   0.157   0.255  1.00  0.00     0.042 C 
HETATM   19  C11 UNL     1      -4.101  -0.513  -2.066  1.00  0.00     0.049 C 
HETATM   20  N9  UNL     1      -5.727   1.147  -1.521  1.00  0.00     0.103 N 
HETATM   21  C8  UNL     1      -5.526  -0.731   0.619  1.00  0.00     0.010 C 
HETATM   22  C7  UNL     1      -6.789  -0.084   0.198  1.00  0.00     0.027 C 
HETATM   23  C2  UNL     1      -7.771   0.243   1.270  1.00  0.00    -0.042 C 
HETATM   24  C6  UNL     1      -6.521   1.325  -0.359  1.00  0.00     0.229 C 
HETATM   25  C1  UNL     1      -7.229   1.128   2.345  1.00  0.00     0.015 C 
HETATM   26  C3  UNL     1      -8.417  -0.970   1.886  1.00  0.00     0.015 C 
HETATM   27  C4  UNL     1      -8.783   1.083   0.476  1.00  0.00     0.011 C 
HETATM   28  C5  UNL     1      -7.927   1.784  -0.590  1.00  0.00     0.037 C 
HETATM   29  C30 UNL     1      -5.777   2.157  -2.509  1.00  0.00     0.274 C 
HETATM   30  C29 UNL     1      -5.052   3.386  -2.097  1.00  0.00     0.031 C 
HETATM   31  C28 UNL     1      -3.884   3.105  -1.224  1.00  0.00     0.010 C 
ENDBRANCH  15  16
ENDBRANCH  13  15
ENDBRANCH   1  13
BRANCH   7  32
HETATM   32  C17 UNL     1       3.425  -2.902   0.581  1.00  0.00     0.272 C 
HETATM   33  O1  UNL     1       4.076  -3.840   0.005  1.00  0.00    -0.266 OA
HETATM   34  N4  UNL     1       3.903  -2.385   1.802  1.00  0.00    -0.355 N 
ATOM     35  H4  UNL     1       3.319  -1.672   2.238  1.00  0.00     0.162 HD
BRANCH  34  36
HETATM   36  C18 UNL     1       5.095  -2.725   2.510  1.00  0.00     0.127 C 
BRANCH  36  37
HETATM   37  C19 UNL     1       6.404  -2.315   1.989  1.00  0.00     0.007 C 
HETATM   38  C20 UNL     1       6.459  -0.793   1.903  1.00  0.00     0.036 C 
HETATM   39  C21 UNL     1       7.769  -0.327   1.316  1.00  0.00     0.273 C 
HETATM   40  N5  UNL     1       8.162  -1.030   0.133  1.00  0.00     0.090 N 
HETATM   41  C25 UNL     1       8.337  -2.429   0.462  1.00  0.00     0.273 C 
HETATM   42  C26 UNL     1       6.899  -2.956   0.776  1.00  0.00     0.036 C 
BRANCH  40  43
HETATM   43  C22 UNL     1       9.367  -0.500  -0.419  1.00  0.00     0.292 C 
BRANCH  43  44
HETATM   44  C23 UNL     1       9.211   0.886  -1.007  1.00  0.00     0.152 C 
BRANCH  44  45
HETATM   45  N6  UNL     1      10.509   1.280  -1.544  1.00  0.00    -0.367 N 
ATOM     46  H6  UNL     1      11.298   0.639  -1.465  1.00  0.00     0.161 HD
BRANCH  45  47
HETATM   47  C24 UNL     1      10.697   2.544  -2.178  1.00  0.00     0.348 C 
HETATM   48  O2  UNL     1       9.709   3.309  -2.260  1.00  0.00    -0.284 OA
ENDBRANCH  45  47
ENDBRANCH  44  45
ENDBRANCH  43  44
ENDBRANCH  40  43
ENDBRANCH  36  37
ENDBRANCH  34  36
ENDBRANCH   7  32
TORSDOF 10
