REMARK  11 active torsions:
REMARK  status: ('A' for Active; 'I' for Inactive)
REMARK    1  A    between atoms: C2_2  and  C3_3 
REMARK    2  A    between atoms: C11_14  and  C12_15 
REMARK    3  A    between atoms: C12_15  and  C13_16 
REMARK    4  A    between atoms: C13_16  and  C14_17 
REMARK    5  A    between atoms: C15_18  and  C16_19 
REMARK    6  A    between atoms: C16_19  and  C17_20 
REMARK    7  A    between atoms: C20_23  and  C21_24 
REMARK    8  A    between atoms: C22_25  and  C23_26 
REMARK    9  A    between atoms: N3_35  and  C27_36 
REMARK   10  A    between atoms: C27_36  and  C28_37 
REMARK   11  A    between atoms: C31_40  and  C32_41 
ROOT
HETATM    1  C14 UNL     1      -0.936   0.873   1.375  1.00  0.00     0.043 A 
HETATM    2  C15 UNL     1      -0.100   0.629   2.433  1.00  0.00     0.041 A 
HETATM    3  N2  UNL     1      -0.171   1.688   3.253  1.00  0.00    -0.310 N 
ATOM      4  H2  UNL     1       0.344   1.793   4.127  1.00  0.00     0.170 HD
HETATM    5  C26 UNL     1      -1.015   2.576   2.750  1.00  0.00     0.327 A 
HETATM    6  O4  UNL     1      -1.274   3.672   3.319  1.00  0.00    -0.246 OA
HETATM    7  N3  UNL     1      -1.487   2.069   1.586  1.00  0.00    -0.297 N 
ENDROOT
BRANCH   1   8
HETATM    8  C13 UNL     1      -1.192  -0.050   0.189  1.00  0.00     0.087 C 
BRANCH   8   9
HETATM    9  C12 UNL     1      -1.956  -1.219   0.605  1.00  0.00    -0.003 C 
BRANCH   9  10
HETATM   10  C11 UNL     1      -2.355  -2.325   0.086  1.00  0.00     0.038 A 
HETATM   11  C3  UNL     1      -2.127  -2.750  -1.196  1.00  0.00     0.042 A 
HETATM   12  N1  UNL     1      -2.544  -3.985  -1.629  1.00  0.00    -0.355 N 
HETATM   13  C4  UNL     1      -3.199  -4.832  -0.811  1.00  0.00     0.046 A 
ATOM     14  H1  UNL     1      -2.354  -4.267  -2.591  1.00  0.00     0.166 HD
HETATM   15  C5  UNL     1      -3.600  -6.070  -1.288  1.00  0.00     0.030 A 
HETATM   16  C9  UNL     1      -3.468  -4.479   0.488  1.00  0.00     0.042 A 
HETATM   17  C6  UNL     1      -4.267  -6.957  -0.483  1.00  0.00     0.002 A 
HETATM   18  C7  UNL     1      -4.527  -6.571   0.832  1.00  0.00     0.001 A 
HETATM   19  C8  UNL     1      -4.140  -5.354   1.324  1.00  0.00     0.018 A 
HETATM   20  C10 UNL     1      -3.051  -3.249   0.917  1.00  0.00     0.196 A 
HETATM   21  O1  UNL     1      -3.299  -2.921   2.115  1.00  0.00    -0.286 OA
BRANCH  11  22
HETATM   22  C2  UNL     1      -1.519  -2.036  -2.124  1.00  0.00    -0.001 C 
HETATM   23  C1  UNL     1      -1.338  -2.603  -3.504  1.00  0.00     0.038 C 
ENDBRANCH  11  22
ENDBRANCH   9  10
ENDBRANCH   8   9
ENDBRANCH   1   8
BRANCH   2  24
HETATM   24  C16 UNL     1       0.733  -0.535   2.713  1.00  0.00     0.097 C 
BRANCH  24  25
HETATM   25  C17 UNL     1       2.011  -0.675   2.045  1.00  0.00    -0.052 A 
HETATM   26  C18 UNL     1       3.171  -0.069   2.518  1.00  0.00     0.008 A 
HETATM   27  C19 UNL     1       4.406  -0.211   1.921  1.00  0.00     0.012 A 
HETATM   28  C20 UNL     1       4.552  -0.985   0.791  1.00  0.00    -0.036 A 
HETATM   29  C24 UNL     1       3.397  -1.602   0.301  1.00  0.00     0.012 A 
HETATM   30  C25 UNL     1       2.179  -1.443   0.917  1.00  0.00     0.008 A 
BRANCH  28  31
HETATM   31  C21 UNL     1       5.827  -1.172   0.130  1.00  0.00     0.018 C 
HETATM   32  C22 UNL     1       6.952  -0.639   0.552  1.00  0.00     0.085 C 
BRANCH  32  33
HETATM   33  C23 UNL     1       8.200  -0.874  -0.170  1.00  0.00     0.198 C 
HETATM   34  O2  UNL     1       8.196  -1.591  -1.207  1.00  0.00    -0.645 OA
HETATM   35  O3  UNL     1       9.411  -0.339   0.233  1.00  0.00    -0.645 OA
ENDBRANCH  32  33
ENDBRANCH  28  31
ENDBRANCH  24  25
ENDBRANCH   2  24
BRANCH   7  36
HETATM   36  C27 UNL     1      -2.425   2.772   0.721  1.00  0.00     0.172 C 
BRANCH  36  37
HETATM   37  C28 UNL     1      -1.797   3.718  -0.204  1.00  0.00    -0.040 A 
HETATM   38  C29 UNL     1      -1.742   5.059   0.183  1.00  0.00     0.010 A 
HETATM   39  C30 UNL     1      -1.174   6.007  -0.628  1.00  0.00     0.015 A 
HETATM   40  C31 UNL     1      -0.638   5.682  -1.848  1.00  0.00     0.004 A 
HETATM   41  C33 UNL     1      -0.675   4.369  -2.263  1.00  0.00     0.015 A 
HETATM   42  C34 UNL     1      -1.256   3.422  -1.423  1.00  0.00     0.010 A 
BRANCH  40  43
HETATM   43  C32 UNL     1      -0.044   6.699  -2.710  1.00  0.00     0.120 C 
HETATM   44  N4  UNL     1       0.470   6.389  -3.850  1.00  0.00    -0.387 N 
ATOM     45  H42 UNL     1       0.476   5.422  -4.174  1.00  0.00     0.157 HD
ATOM     46  H41 UNL     1       0.885   7.100  -4.452  1.00  0.00     0.157 HD
HETATM   47  N5  UNL     1      -0.053   8.047  -2.258  1.00  0.00    -0.082 NA
ENDBRANCH  40  43
ENDBRANCH  36  37
ENDBRANCH   7  36
TORSDOF 11
