REMARK  13 active torsions:
REMARK  status: ('A' for Active; 'I' for Inactive)
REMARK    1  A    between atoms: C2_2  and  C3_3 
REMARK    2  A    between atoms: C8_8  and  C9_9 
REMARK    3  A    between atoms: C9_9  and  C10_10 
REMARK    4  A    between atoms: C19_25  and  C20_26 
REMARK    5  A    between atoms: C20_26  and  C21_27 
REMARK    6  A    between atoms: C21_27  and  C22_28 
REMARK    7  A    between atoms: C22_28  and  C23_29 
REMARK    8  A    between atoms: C23_29  and  C24_30 
REMARK    9  A    between atoms: C24_30  and  C25_31 
REMARK   10  A    between atoms: C25_31  and  O2_32 
REMARK   11  A    between atoms: N4_34  and  O3_36 
REMARK   12  A    between atoms: C26_40  and  O4_41 
REMARK       I    between atoms: N6_44  and  C28_45 
REMARK   13  A    between atoms: C28_45  and  O6_47 
ROOT
HETATM    1  C3  UNL     1      -0.669   3.298   0.534  1.00  0.00     0.115 C 
HETATM    2  C4  UNL     1      -1.801   2.855  -0.328  1.00  0.00     0.056 C 
HETATM    3  C5  UNL     1      -2.546   1.686   0.218  1.00  0.00    -0.028 C 
HETATM    4  C6  UNL     1      -2.677   0.497  -0.268  1.00  0.00    -0.029 C 
HETATM    5  C7  UNL     1      -2.103  -0.059  -1.550  1.00  0.00     0.052 C 
HETATM    6  C8  UNL     1      -1.351  -1.321  -1.275  1.00  0.00     0.092 C 
HETATM    7  N3  UNL     1      -0.105  -1.405  -2.059  1.00  0.00    -0.354 N 
ATOM      8  H3  UNL     1      -0.225  -1.337  -3.070  1.00  0.00     0.162 HD
HETATM    9  C18 UNL     1       1.200  -1.562  -1.635  1.00  0.00     0.240 C 
HETATM   10  O1  UNL     1       1.880  -2.561  -2.013  1.00  0.00    -0.271 OA
HETATM   11  C19 UNL     1       1.999  -0.639  -0.711  1.00  0.00     0.175 C 
HETATM   12  N5  UNL     1       1.305   0.605  -0.578  1.00  0.00    -0.360 N 
ATOM     13  H5  UNL     1       0.509   0.489   0.049  1.00  0.00     0.162 HD
HETATM   14  C26 UNL     1       1.361   1.904  -1.019  1.00  0.00     0.130 C 
HETATM   15  C27 UNL     1       1.696   3.217  -0.403  1.00  0.00     0.212 C 
HETATM   16  N6  UNL     1       0.428   3.954  -0.151  1.00  0.00    -0.312 N 
HETATM   17  C28 UNL     1       0.263   5.294  -0.571  1.00  0.00     0.363 C 
HETATM   18  O5  UNL     1       1.201   5.868  -1.159  1.00  0.00    -0.238 OA
ENDROOT
BRANCH   6  19
HETATM   19  C9  UNL     1      -2.040  -2.629  -1.499  1.00  0.00     0.066 C 
BRANCH  19  20
HETATM   20  C10 UNL     1      -3.231  -2.948  -0.746  1.00  0.00    -0.028 A 
HETATM   21  C11 UNL     1      -3.089  -3.559   0.518  1.00  0.00     0.098 A 
HETATM   22  N1  UNL     1      -4.119  -3.853   1.308  1.00  0.00    -0.369 N 
HETATM   23  C12 UNL     1      -3.909  -4.487   2.611  1.00  0.00     0.154 C 
HETATM   24  C13 UNL     1      -5.371  -3.573   0.922  1.00  0.00     0.103 A 
HETATM   25  C14 UNL     1      -5.604  -2.982  -0.290  1.00  0.00     0.007 A 
HETATM   26  C15 UNL     1      -6.780  -2.609  -0.945  1.00  0.00     0.101 A 
HETATM   27  C17 UNL     1      -4.514  -2.676  -1.114  1.00  0.00    -0.000 A 
HETATM   28  N2  UNL     1      -6.433  -2.091  -2.134  1.00  0.00    -0.373 N 
HETATM   29  C16 UNL     1      -5.096  -2.133  -2.230  1.00  0.00     0.100 A 
ATOM     30  H2  UNL     1      -7.074  -1.729  -2.840  1.00  0.00     0.164 HD
ENDBRANCH  19  20
ENDBRANCH   6  19
BRANCH  11  31
HETATM   31  C20 UNL     1       3.418  -0.638  -1.093  1.00  0.00     0.035 C 
BRANCH  31  32
HETATM   32  C21 UNL     1       4.245   0.221  -0.187  1.00  0.00     0.002 C 
BRANCH  32  33
HETATM   33  C22 UNL     1       4.150  -0.239   1.259  1.00  0.00     0.001 C 
BRANCH  33  34
HETATM   34  C23 UNL     1       4.608  -1.642   1.475  1.00  0.00     0.008 C 
BRANCH  34  35
HETATM   35  C24 UNL     1       6.041  -1.784   1.068  1.00  0.00     0.086 C 
BRANCH  35  36
HETATM   36  C25 UNL     1       6.441  -3.186   1.310  1.00  0.00     0.135 C 
HETATM   37  N4  UNL     1       7.403  -3.443   2.115  1.00  0.00    -0.251 N 
ATOM     38  H4  UNL     1       7.682  -4.409   2.286  1.00  0.00     0.196 HD
BRANCH  36  39
HETATM   39  O2  UNL     1       5.768  -4.195   0.663  1.00  0.00    -0.348 OA
ATOM     40  H2  UNL     1       6.025  -5.096   0.819  1.00  0.00     0.219 HD
ENDBRANCH  36  39
BRANCH  37  41
HETATM   41  O3  UNL     1       8.054  -2.421   2.744  1.00  0.00    -0.288 OA
ATOM     42  H3  UNL     1       8.768  -2.612   3.341  1.00  0.00     0.244 HD
ENDBRANCH  37  41
ENDBRANCH  35  36
ENDBRANCH  34  35
ENDBRANCH  33  34
ENDBRANCH  32  33
ENDBRANCH  31  32
ENDBRANCH  11  31
BRANCH   1  43
HETATM   43  C2  UNL     1      -1.147   4.286   1.561  1.00  0.00    -0.012 C 
HETATM   44  C1  UNL     1      -0.336   4.784   2.478  1.00  0.00     0.009 C 
ENDBRANCH   1  43
BRANCH  14  45
HETATM   45  O4  UNL     1       1.062   2.166  -2.267  1.00  0.00    -0.348 OA
ATOM     46  H4  UNL     1       1.101   3.065  -2.572  1.00  0.00     0.219 HD
ENDBRANCH  14  45
BRANCH  17  47
HETATM   47  O6  UNL     1      -0.917   5.964  -0.338  1.00  0.00    -0.309 OA
HETATM   48  C29 UNL     1      -1.086   7.322  -0.764  1.00  0.00     0.215 C 
ENDBRANCH  17  47
TORSDOF 13
