REMARK  10 active torsions:
REMARK  status: ('A' for Active; 'I' for Inactive)
REMARK    1  A    between atoms: C4_5  and  N2_6 
REMARK    2  A    between atoms: N2_6  and  C5_8 
REMARK    3  A    between atoms: N3_11  and  C8_12 
REMARK    4  A    between atoms: C8_12  and  C9_13 
REMARK    5  A    between atoms: C9_13  and  C10_14 
REMARK    6  A    between atoms: C10_14  and  C11_15 
REMARK    7  A    between atoms: N5_23  and  C17_24 
REMARK    8  A    between atoms: C17_24  and  C18_25 
REMARK    9  A    between atoms: C20_28  and  N6_29 
REMARK   10  A    between atoms: C27_42  and  C28_43 
ROOT
HETATM    1  C11 UNL     1      -1.669  -0.825   0.811  1.00  0.00    -0.057 A 
HETATM    2  C12 UNL     1      -1.635  -1.526  -0.368  1.00  0.00     0.009 A 
HETATM    3  C13 UNL     1      -2.824  -1.774  -1.021  1.00  0.00     0.031 A 
HETATM    4  C14 UNL     1      -4.039  -1.329  -0.508  1.00  0.00     0.043 A 
HETATM    5  N4  UNL     1      -5.197  -1.593  -1.181  1.00  0.00    -0.353 N 
ATOM      6  H4  UNL     1      -5.148  -2.117  -2.055  1.00  0.00     0.166 HD
HETATM    7  C15 UNL     1      -6.396  -1.190  -0.737  1.00  0.00     0.078 A 
HETATM    8  C16 UNL     1      -7.712  -1.276  -1.141  1.00  0.00     0.142 A 
HETATM    9  N5  UNL     1      -8.496  -0.644  -0.227  1.00  0.00    -0.295 N 
HETATM   10  N8  UNL     1      -7.728  -0.163   0.737  1.00  0.00    -0.296 N 
ATOM     11  H8  UNL     1      -8.075   0.355   1.544  1.00  0.00     0.187 HD
HETATM   12  C21 UNL     1      -6.435  -0.443   0.518  1.00  0.00     0.077 A 
HETATM   13  C22 UNL     1      -5.240  -0.197   1.169  1.00  0.00     0.047 A 
HETATM   14  C23 UNL     1      -4.017  -0.628   0.681  1.00  0.00    -0.007 A 
HETATM   15  C24 UNL     1      -2.833  -0.371   1.350  1.00  0.00     0.021 A 
ENDROOT
BRANCH   1  16
HETATM   16  C10 UNL     1      -0.393  -0.552   1.522  1.00  0.00     0.040 C 
BRANCH  16  17
HETATM   17  C9  UNL     1      -0.050  -1.644   2.497  1.00  0.00     0.025 C 
BRANCH  17  18
HETATM   18  C8  UNL     1       1.238  -1.381   3.227  1.00  0.00     0.128 C 
BRANCH  18  19
HETATM   19  N3  UNL     1       2.389  -1.266   2.346  1.00  0.00    -0.366 N 
HETATM   20  C7  UNL     1       3.130  -2.334   1.997  1.00  0.00     0.092 A 
HETATM   21  C6  UNL     1       4.227  -2.291   1.173  1.00  0.00     0.046 A 
HETATM   22  C5  UNL     1       4.621  -1.075   0.650  1.00  0.00     0.035 A 
HETATM   23  C26 UNL     1       3.877   0.023   0.996  1.00  0.00     0.046 A 
HETATM   24  C25 UNL     1       2.789  -0.092   1.827  1.00  0.00     0.092 A 
BRANCH  22  25
HETATM   25  N2  UNL     1       5.718  -0.984  -0.267  1.00  0.00    -0.355 N 
ATOM     26  H2  UNL     1       5.850  -1.713  -0.969  1.00  0.00     0.166 HD
BRANCH  25  27
HETATM   27  C4  UNL     1       6.612   0.093  -0.212  1.00  0.00     0.052 A 
HETATM   28  C3  UNL     1       6.772   0.846   0.971  1.00  0.00     0.048 A 
HETATM   29  C2  UNL     1       7.712   1.828   1.022  1.00  0.00     0.094 A 
HETATM   30  N1  UNL     1       8.517   2.137   0.004  1.00  0.00    -0.349 N 
HETATM   31  C1  UNL     1       9.506   3.209   0.136  1.00  0.00     0.156 C 
HETATM   32  C29 UNL     1       8.386   1.437  -1.129  1.00  0.00     0.135 A 
HETATM   33  C27 UNL     1       7.436   0.407  -1.262  1.00  0.00     0.097 A 
HETATM   34  N10 UNL     1       9.231   1.746  -2.228  1.00  0.00    -0.081 NA
BRANCH  33  35
HETATM   35  C28 UNL     1       7.354  -0.241  -2.539  1.00  0.00     0.270 C 
HETATM   36  N9  UNL     1       8.243   0.078  -3.618  1.00  0.00    -0.057 NA
HETATM   37  O1  UNL     1       6.522  -1.118  -2.817  1.00  0.00    -0.271 OA
ENDBRANCH  33  35
ENDBRANCH  25  27
ENDBRANCH  22  25
ENDBRANCH  18  19
ENDBRANCH  17  18
ENDBRANCH  16  17
ENDBRANCH   1  16
BRANCH   9  38
HETATM   38  C17 UNL     1      -9.937  -0.554  -0.360  1.00  0.00     0.205 C 
BRANCH  38  39
HETATM   39  C18 UNL     1     -10.240   0.728  -1.144  1.00  0.00     0.037 A 
HETATM   40  C19 UNL     1     -10.319   0.721  -2.516  1.00  0.00     0.080 A 
HETATM   41  S1  UNL     1     -10.668   2.351  -2.864  1.00  0.00    -0.064 SA
HETATM   42  C20 UNL     1     -10.696   2.949  -1.274  1.00  0.00     0.142 A 
HETATM   43  N7  UNL     1     -10.436   1.874  -0.536  1.00  0.00    -0.338 N 
ATOM     44  H7  UNL     1     -10.390   1.939   0.481  1.00  0.00     0.168 HD
BRANCH  42  45
HETATM   45  N6  UNL     1     -10.920   4.176  -0.856  1.00  0.00    -0.380 N 
ATOM     46  H62 UNL     1     -11.119   5.001  -1.422  1.00  0.00     0.158 HD
ATOM     47  H61 UNL     1     -10.937   4.535   0.099  1.00  0.00     0.158 HD
ENDBRANCH  42  45
ENDBRANCH  38  39
ENDBRANCH   9  38
TORSDOF 10
