REMARK  5 active torsions:
REMARK  status: ('A' for Active; 'I' for Inactive)
REMARK    1  A    between atoms: N1_1  and  N2_4 
REMARK    2  A    between atoms: N2_4  and  N3_6 
REMARK    3  A    between atoms: C1_8  and  C2_9 
REMARK    4  A    between atoms: C3_12  and  N5_13 
REMARK    5  A    between atoms: N7_18  and  O1_19 
ROOT
HETATM    1  C2  UNL     1       0.071  -0.667  -0.130  1.00  0.00     0.184 A 
HETATM    2  N4  UNL     1      -0.354   0.565   0.177  1.00  0.00    -0.170 N 
ATOM      3  H4  UNL     1       0.232   1.396   0.253  1.00  0.00     0.186 HD
HETATM    4  C3  UNL     1      -1.694   0.520   0.369  1.00  0.00     0.694 A 
HETATM    5  N6  UNL     1      -2.076  -0.748   0.176  1.00  0.00    -0.104 N 
ATOM      6  H6  UNL     1      -3.033  -1.091   0.251  1.00  0.00     0.208 HD
HETATM    7  N7  UNL     1      -1.028  -1.484  -0.126  1.00  0.00    -0.130 N 
ENDROOT
BRANCH   1   8
HETATM    8  C1  UNL     1       1.410  -1.128  -0.423  1.00  0.00     0.161 C 
HETATM    9  N3  UNL     1       2.437  -0.405  -0.434  1.00  0.00    -0.294 N 
ATOM     10  H3  UNL     1       3.295  -0.907  -0.662  1.00  0.00     0.187 HD
BRANCH   9  11
HETATM   11  N2  UNL     1       2.620   0.934  -0.197  1.00  0.00    -0.250 N 
ATOM     12  H2  UNL     1       2.536   1.274   0.761  1.00  0.00     0.207 HD
BRANCH  11  13
HETATM   13  N1  UNL     1       2.893   1.783  -1.129  1.00  0.00    -0.331 N 
ATOM     14  H12 UNL     1       2.973   1.426  -2.081  1.00  0.00     0.178 HD
ATOM     15  H11 UNL     1       3.029   2.778  -0.953  1.00  0.00     0.178 HD
ENDBRANCH  11  13
ENDBRANCH   9  11
ENDBRANCH   1   8
BRANCH   7  16
HETATM   16  O1  UNL     1      -1.008  -2.844  -0.398  1.00  0.00    -0.266 OA
ATOM     17  H1  UNL     1      -1.770  -3.411  -0.395  1.00  0.00     0.247 HD
ENDBRANCH   7  16
BRANCH   4  18
HETATM   18  N5  UNL     1      -2.471   1.524   0.684  1.00  0.00    -0.233 N 
ATOM     19  H52 UNL     1      -2.180   2.490   0.831  1.00  0.00     0.174 HD
ATOM     20  H51 UNL     1      -3.480   1.490   0.829  1.00  0.00     0.174 HD
ENDBRANCH   4  18
TORSDOF 5
