REMARK  1 active torsions:
REMARK  status: ('A' for Active; 'I' for Inactive)
REMARK    1  A    between atoms: C2_3  and  N2_4 
ROOT
HETATM    1  N2  UNL     1      -0.464  -0.264   0.126  1.00  0.00    -0.212 N 
HETATM    2  N3  UNL     1      -0.927   0.974   0.169  1.00  0.00    -0.241 N 
ATOM      3  H3  UNL     1      -0.362   1.823   0.190  1.00  0.00     0.192 HD
HETATM    4  C3  UNL     1      -2.289   0.921   0.181  1.00  0.00     0.343 A 
HETATM    5  O1  UNL     1      -2.995   1.948   0.220  1.00  0.00    -0.245 OA
HETATM    6  N4  UNL     1      -2.648  -0.376   0.144  1.00  0.00    -0.258 N 
ATOM      7  H4  UNL     1      -3.603  -0.734   0.142  1.00  0.00     0.175 HD
HETATM    8  C4  UNL     1      -1.530  -1.113   0.110  1.00  0.00     0.349 A 
HETATM    9  O2  UNL     1      -1.464  -2.365   0.070  1.00  0.00    -0.245 OA
ENDROOT
BRANCH   1  10
HETATM   10  C2  UNL     1       0.908  -0.630   0.101  1.00  0.00     0.136 C 
HETATM   11  C1  UNL     1       1.834   0.309   0.122  1.00  0.00     0.119 C 
HETATM   12  N1  UNL     1       3.233  -0.014   0.098  1.00  0.00    -0.114 NA
ENDBRANCH   1  10
TORSDOF 1
