REMARK  1 active torsions:
REMARK  status: ('A' for Active; 'I' for Inactive)
REMARK       I    between atoms: C1_2  and  N2_4 
REMARK       I    between atoms: N2_4  and  C2_6 
REMARK    1  A    between atoms: N4_8  and  N5_10 
ROOT
HETATM    1  N1  UNL     1       3.553   1.481   0.195  1.00  0.00    -0.040 NA
HETATM    2  C1  UNL     1       2.813   0.286  -0.086  1.00  0.00     0.335 C 
HETATM    3  O1  UNL     1       3.399  -0.801  -0.267  1.00  0.00    -0.251 OA
HETATM    4  N2  UNL     1       1.404   0.339  -0.160  1.00  0.00    -0.284 N 
ATOM      5  H2  UNL     1       0.911   1.220  -0.015  1.00  0.00     0.172 HD
HETATM    6  C2  UNL     1       0.683  -0.852  -0.439  1.00  0.00     0.210 C 
HETATM    7  N3  UNL     1       1.321  -2.100  -0.648  1.00  0.00    -0.062 NA
HETATM    8  N4  UNL     1      -0.618  -0.852  -0.517  1.00  0.00    -0.271 N 
ATOM      9  H4  UNL     1      -1.100  -1.728  -0.719  1.00  0.00     0.189 HD
ENDROOT
BRANCH   8  10
HETATM   10  N5  UNL     1      -1.372   0.306  -0.333  1.00  0.00    -0.274 N 
HETATM   11  C3  UNL     1      -2.563   0.302   0.160  1.00  0.00     0.215 C 
HETATM   12  N6  UNL     1      -3.217  -0.891   0.564  1.00  0.00    -0.065 NA
HETATM   13  N7  UNL     1      -3.219   1.548   0.294  1.00  0.00    -0.065 NA
ATOM     14  H5  UNL     1      -0.961   1.200  -0.602  1.00  0.00     0.189 HD
ENDBRANCH   8  10
TORSDOF 1
