REMARK  5 active torsions:
REMARK  status: ('A' for Active; 'I' for Inactive)
REMARK    1  A    between atoms: O1_1  and  C1_3 
REMARK    2  A    between atoms: C1_3  and  C2_4 
REMARK    3  A    between atoms: C3_5  and  C4_6 
REMARK    4  A    between atoms: C4_6  and  C5_7 
REMARK    5  A    between atoms: C5_7  and  N1_8 
ROOT
HETATM    1  C2  UNL     1       1.698  -0.895  -0.354  1.00  0.00    -0.066 C 
HETATM    2  C3  UNL     1       0.627  -1.359  -0.680  1.00  0.00    -0.102 C 
ENDROOT
BRANCH   2   3
HETATM    3  C4  UNL     1      -0.661  -1.941  -1.061  1.00  0.00     0.124 C 
BRANCH   3   4
HETATM    4  C5  UNL     1      -1.730  -1.700  -0.055  1.00  0.00     0.285 C 
BRANCH   4   5
HETATM    5  N1  UNL     1      -2.013  -0.318   0.195  1.00  0.00     0.098 N 
HETATM    6  C6  UNL     1      -3.059  -0.123   1.181  1.00  0.00     0.223 C 
HETATM    7  C7  UNL     1      -3.228   1.384   1.120  1.00  0.00     0.038 C 
HETATM    8  C11 UNL     1      -4.250  -0.723   0.478  1.00  0.00     0.038 C 
HETATM    9  C8  UNL     1      -2.847   1.741  -0.324  1.00  0.00     0.038 C 
HETATM   10  C9  UNL     1      -2.637   0.359  -0.924  1.00  0.00     0.223 C 
HETATM   11  C10 UNL     1      -3.987  -0.308  -0.966  1.00  0.00     0.038 C 
ENDBRANCH   4   5
ENDBRANCH   3   4
ENDBRANCH   2   3
BRANCH   1  12
HETATM   12  C1  UNL     1       3.008  -0.354   0.051  1.00  0.00     0.142 C 
HETATM   13  C12 UNL     1       2.821   1.087   0.373  1.00  0.00     0.056 C 
HETATM   14  C13 UNL     1       4.081   1.899   0.304  1.00  0.00     0.030 C 
HETATM   15  C14 UNL     1       5.260   1.005  -0.009  1.00  0.00     0.168 C 
HETATM   16  O2  UNL     1       4.970   0.328  -1.177  1.00  0.00    -0.387 OA
HETATM   17  C15 UNL     1       3.994  -0.630  -1.038  1.00  0.00     0.219 C 
BRANCH  12  18
HETATM   18  O1  UNL     1       3.433  -1.055   1.202  1.00  0.00    -0.375 OA
ATOM     19  H1  UNL     1       4.277  -0.706   1.463  1.00  0.00     0.211 HD
ENDBRANCH  12  18
ENDBRANCH   1  12
TORSDOF 5
