REMARK  3 active torsions:
REMARK  status: ('A' for Active; 'I' for Inactive)
REMARK    1  A    between atoms: C1_2  and  C2_3 
REMARK       I    between atoms: C1_2  and  N1_10 
REMARK    2  A    between atoms: C2_3  and  C3_4 
REMARK    3  A    between atoms: N1_10  and  C9_12 
ROOT
HETATM    1  O1  UNL     1      -0.620  -1.353   1.275  1.00  0.00    -0.274 OA
HETATM    2  C1  UNL     1      -0.398  -0.894   0.136  1.00  0.00     0.220 C 
HETATM    3  N1  UNL     1       0.927  -0.643  -0.307  1.00  0.00    -0.332 N 
ATOM      4  H1  UNL     1       1.073  -0.269  -1.244  1.00  0.00     0.165 HD
ENDROOT
BRANCH   3   5
HETATM    5  C9  UNL     1       2.077  -0.903   0.533  1.00  0.00     0.255 C 
HETATM    6  O2  UNL     1       3.093  -1.632  -0.081  1.00  0.00    -0.356 OA
HETATM    7  C10 UNL     1       4.014  -0.859   0.630  1.00  0.00     0.157 C 
HETATM    8  C11 UNL     1       5.310  -0.616  -0.046  1.00  0.00     0.037 C 
HETATM    9  C14 UNL     1       3.053   0.273   0.609  1.00  0.00     0.199 C 
HETATM   10  C12 UNL     1       5.308   0.442  -1.088  1.00  0.00     0.029 C 
HETATM   11  C13 UNL     1       4.260   1.489  -0.928  1.00  0.00     0.168 C 
HETATM   12  O3  UNL     1       3.018   0.977  -0.568  1.00  0.00    -0.379 OA
ENDBRANCH   3   5
BRANCH   2  13
HETATM   13  C2  UNL     1      -1.535  -0.609  -0.768  1.00  0.00     0.107 C 
BRANCH  13  14
HETATM   14  C3  UNL     1      -2.868  -0.911  -0.124  1.00  0.00    -0.006 C 
HETATM   15  C4  UNL     1      -3.976  -0.606  -1.099  1.00  0.00     0.005 C 
HETATM   16  C5  UNL     1      -4.187   0.886  -1.110  1.00  0.00     0.000 C 
HETATM   17  C6  UNL     1      -4.800   1.292   0.195  1.00  0.00     0.000 C 
HETATM   18  C7  UNL     1      -4.283   0.542   1.372  1.00  0.00     0.000 C 
HETATM   19  C8  UNL     1      -2.973  -0.161   1.152  1.00  0.00     0.005 C 
ENDBRANCH  13  14
ENDBRANCH   2  13
TORSDOF 3
