REMARK  5 active torsions:
REMARK  status: ('A' for Active; 'I' for Inactive)
REMARK    1  A    between atoms: C6_6  and  C7_7 
REMARK    2  A    between atoms: C7_7  and  O1_8 
REMARK    3  A    between atoms: N2_18  and  C15_19 
REMARK    4  A    between atoms: C15_19  and  C16_20 
REMARK    5  A    between atoms: C16_20  and  N3_21 
ROOT
HETATM    1  C1  UNL     1       0.681   2.659  -0.753  1.00  0.00     0.021 C 
HETATM    2  C2  UNL     1       0.302   1.203  -0.367  1.00  0.00    -0.010 C 
HETATM    3  C3  UNL     1      -0.021   0.521  -1.644  1.00  0.00     0.020 C 
HETATM    4  C4  UNL     1      -1.120  -0.468  -1.541  1.00  0.00    -0.003 C 
HETATM    5  C5  UNL     1      -2.360   0.431  -1.287  1.00  0.00     0.018 C 
HETATM    6  C6  UNL     1      -2.119   0.652   0.214  1.00  0.00    -0.001 C 
HETATM    7  C8  UNL     1      -0.878   1.354   0.555  1.00  0.00     0.027 C 
HETATM    8  C9  UNL     1      -2.169  -0.806   0.625  1.00  0.00     0.112 C 
HETATM    9  C10 UNL     1      -1.842  -1.055   1.980  1.00  0.00     0.065 C 
HETATM   10  N1  UNL     1      -1.596  -1.255   3.087  1.00  0.00    -0.197 NA
HETATM   11  C11 UNL     1      -1.218  -1.398  -0.412  1.00  0.00    -0.019 C 
HETATM   12  C12 UNL     1      -1.966  -2.638  -0.951  1.00  0.00     0.017 C 
HETATM   13  C13 UNL     1      -0.020  -1.872   0.264  1.00  0.00     0.056 C 
HETATM   14  C14 UNL     1       1.279  -1.727  -0.484  1.00  0.00     0.069 C 
HETATM   15  N2  UNL     1       2.026  -0.600  -0.125  1.00  0.00    -0.352 N 
HETATM   16  C17 UNL     1       1.494   0.588   0.316  1.00  0.00     0.077 C 
ENDROOT
BRANCH   6  17
HETATM   17  C7  UNL     1      -3.336   1.331   0.814  1.00  0.00     0.175 C 
BRANCH  17  18
HETATM   18  O1  UNL     1      -3.582   2.557   0.221  1.00  0.00    -0.400 OA
ATOM     19  H1  UNL     1      -4.344   2.982   0.597  1.00  0.00     0.209 HD
ENDBRANCH  17  18
ENDBRANCH   6  17
BRANCH  15  20
HETATM   20  C15 UNL     1       3.414  -0.821  -0.197  1.00  0.00     0.095 C 
BRANCH  20  21
HETATM   21  C16 UNL     1       4.292   0.190   0.509  1.00  0.00     0.274 C 
BRANCH  21  22
HETATM   22  N3  UNL     1       4.044   0.236   1.910  1.00  0.00    -0.075 N 
ATOM     23  H33 UNL     1       3.057   0.406   2.104  1.00  0.00     0.274 HD
ATOM     24  H32 UNL     1       4.135  -0.689   2.331  1.00  0.00     0.274 HD
ATOM     25  H31 UNL     1       4.636   0.917   2.386  1.00  0.00     0.274 HD
ENDBRANCH  21  22
ENDBRANCH  20  21
ENDBRANCH  15  20
TORSDOF 5
