REMARK  3 active torsions:
REMARK  status: ('A' for Active; 'I' for Inactive)
REMARK    1  A    between atoms: N1_2  and  C2_4 
REMARK    2  A    between atoms: C2_4  and  C3_8 
REMARK    3  A    between atoms: N3_18  and  C12_19 
ROOT
HETATM    1  C3  UNL     1       2.692   0.207  -0.259  1.00  0.00     0.055 C 
HETATM    2  C4  UNL     1       2.203   0.973   0.954  1.00  0.00     0.014 C 
HETATM    3  C5  UNL     1       0.676   1.086   0.780  1.00  0.00     0.039 C 
HETATM    4  C6  UNL     1       0.171  -0.205   0.287  1.00  0.00     0.252 C 
HETATM    5  C7  UNL     1       0.490  -0.311  -1.192  1.00  0.00     0.156 C 
HETATM    6  C8  UNL     1       1.790   0.422  -1.454  1.00  0.00     0.046 C 
HETATM    7  O1  UNL     1       0.652  -1.650  -1.485  1.00  0.00    -0.377 OA
HETATM    8  C9  UNL     1       0.003  -2.491  -0.615  1.00  0.00     0.146 C 
HETATM    9  C10 UNL     1      -0.417  -3.712  -1.457  1.00  0.00     0.041 C 
HETATM   10  C11 UNL     1      -1.282  -1.947  -0.049  1.00  0.00     0.305 C 
HETATM   11  N3  UNL     1      -1.141  -0.602   0.524  1.00  0.00     0.102 N 
ENDROOT
BRANCH   1  12
HETATM   12  C2  UNL     1       4.108   0.538  -0.582  1.00  0.00     0.074 C 
HETATM   13  N2  UNL     1       4.355   1.064  -1.738  1.00  0.00    -0.389 N 
ATOM     14  H22 UNL     1       5.325   1.291  -1.959  1.00  0.00     0.157 HD
ATOM     15  H21 UNL     1       3.600   1.242  -2.400  1.00  0.00     0.157 HD
BRANCH  12  16
HETATM   16  N1  UNL     1       5.159   0.291   0.339  1.00  0.00    -0.384 N 
HETATM   17  C1  UNL     1       6.151   1.312   0.547  1.00  0.00     0.147 C 
ATOM     18  H1  UNL     1       5.210  -0.594   0.844  1.00  0.00     0.160 HD
ENDBRANCH  12  16
ENDBRANCH   1  12
BRANCH  11  19
HETATM   19  C12 UNL     1      -2.253   0.145   0.129  1.00  0.00     0.223 C 
HETATM   20  C13 UNL     1      -2.460   1.504   0.698  1.00  0.00     0.036 C 
HETATM   21  C14 UNL     1      -3.718   2.088   0.033  1.00  0.00     0.002 C 
HETATM   22  C15 UNL     1      -4.943   1.332   0.402  1.00  0.00     0.000 C 
HETATM   23  C16 UNL     1      -4.742  -0.107  -0.052  1.00  0.00     0.002 C 
HETATM   24  C17 UNL     1      -3.505  -0.618   0.599  1.00  0.00     0.036 C 
ENDBRANCH  11  19
TORSDOF 3
