REMARK  4 active torsions:
REMARK  status: ('A' for Active; 'I' for Inactive)
REMARK    1  A    between atoms: C5_5  and  C6_6 
REMARK    2  A    between atoms: C16_17  and  O2_18 
REMARK    3  A    between atoms: C16_17  and  C17_20 
REMARK    4  A    between atoms: C17_20  and  O3_21 
ROOT
HETATM    1  C1  UNL     1      -2.526   2.520   0.113  1.00  0.00     0.010 C 
HETATM    2  C2  UNL     1      -1.896   1.374  -0.657  1.00  0.00    -0.014 C 
HETATM    3  C3  UNL     1      -3.037   0.491  -1.158  1.00  0.00     0.005 C 
HETATM    4  C4  UNL     1      -3.705  -0.069   0.089  1.00  0.00     0.012 C 
HETATM    5  C5  UNL     1      -2.767  -1.037   0.727  1.00  0.00     0.051 C 
HETATM    6  C7  UNL     1      -1.332  -0.870   0.259  1.00  0.00     0.001 C 
HETATM    7  C8  UNL     1      -0.454  -1.638   1.197  1.00  0.00     0.007 C 
HETATM    8  C9  UNL     1       0.960  -1.245   1.249  1.00  0.00     0.013 C 
HETATM    9  C10 UNL     1       1.321   0.120   0.809  1.00  0.00    -0.007 C 
HETATM   10  C11 UNL     1       1.461   1.019   2.047  1.00  0.00     0.019 C 
HETATM   11  C12 UNL     1       0.426   0.778  -0.171  1.00  0.00     0.001 C 
HETATM   12  C13 UNL     1       0.668   0.409  -1.608  1.00  0.00     0.006 C 
HETATM   13  C14 UNL     1       1.533  -0.802  -1.796  1.00  0.00     0.004 C 
HETATM   14  C15 UNL     1       2.808  -0.753  -0.997  1.00  0.00     0.041 C 
HETATM   15  C16 UNL     1       2.731   0.138   0.196  1.00  0.00     0.086 C 
HETATM   16  C18 UNL     1      -0.995   0.602   0.253  1.00  0.00    -0.001 C 
ENDROOT
BRANCH  15  17
HETATM   17  O2  UNL     1       2.976   1.449  -0.206  1.00  0.00    -0.387 OA
ATOM     18  H2  UNL     1       3.847   1.460  -0.585  1.00  0.00     0.210 HD
ENDBRANCH  15  17
BRANCH  15  19
HETATM   19  C17 UNL     1       3.776  -0.252   1.224  1.00  0.00     0.202 C 
BRANCH  19  20
HETATM   20  O3  UNL     1       5.014  -0.126   0.552  1.00  0.00    -0.398 OA
ATOM     21  H3  UNL     1       5.668  -0.370   1.196  1.00  0.00     0.209 HD
ENDBRANCH  19  20
ENDBRANCH  15  19
BRANCH   5  22
HETATM   22  C6  UNL     1      -3.269  -2.402   0.555  1.00  0.00     0.236 C 
HETATM   23  O1  UNL     1      -4.226  -2.641  -0.160  1.00  0.00    -0.306 OA
ENDBRANCH   5  22
TORSDOF 4
