REMARK  20 active torsions:
REMARK  status: ('A' for Active; 'I' for Inactive)
REMARK    1  A    between atoms: C2_2  and  C3_3 
REMARK    2  A    between atoms: C3_3  and  C5_5 
REMARK    3  A    between atoms: C6_6  and  N1_7 
REMARK    4  A    between atoms: C6_6  and  C24_37 
REMARK    5  A    between atoms: N1_7  and  C7_9 
REMARK    6  A    between atoms: C7_9  and  O1_10 
REMARK    7  A    between atoms: C7_9  and  C8_12 
REMARK       I    between atoms: N2_16  and  C12_17 
REMARK    8  A    between atoms: C12_17  and  C13_19 
REMARK    9  A    between atoms: C13_19  and  N3_20 
REMARK   10  A    between atoms: C13_19  and  C21_34 
REMARK   11  A    between atoms: N3_20  and  C14_22 
REMARK   12  A    between atoms: C14_22  and  O3_23 
REMARK   13  A    between atoms: C14_22  and  C15_25 
REMARK   14  A    between atoms: C15_25  and  N5_28 
REMARK   15  A    between atoms: N5_28  and  C17_30 
REMARK       I    between atoms: C24_37  and  N6_39 
REMARK   16  A    between atoms: N6_39  and  C25_41 
REMARK   17  A    between atoms: C25_41  and  C26_42 
REMARK   18  A    between atoms: C25_41  and  C28_47 
REMARK   19  A    between atoms: C26_42  and  C27_44 
REMARK   20  A    between atoms: C27_44  and  O6_45 
ROOT
HETATM    1  C15 UNL     1       6.463  -1.379  -0.038  1.00  0.00     0.261 C 
HETATM    2  C16 UNL     1       6.062  -2.777   0.361  1.00  0.00     0.092 C 
HETATM    3  N4  UNL     1       5.749  -3.844   0.667  1.00  0.00    -0.195 NA
ENDROOT
BRANCH   1   4
HETATM    4  C14 UNL     1       5.397  -0.446   0.303  1.00  0.00     0.149 C 
BRANCH   4   5
HETATM    5  N3  UNL     1       4.120  -0.296  -0.269  1.00  0.00    -0.358 N 
ATOM      6  H3  UNL     1       3.809  -0.882  -1.044  1.00  0.00     0.162 HD
BRANCH   5   7
HETATM    7  C13 UNL     1       3.275   0.722   0.290  1.00  0.00     0.179 C 
BRANCH   7   8
HETATM    8  C12 UNL     1       1.851   0.699   0.103  1.00  0.00     0.243 C 
HETATM    9  N2  UNL     1       0.968   1.013   1.236  1.00  0.00    -0.338 N 
HETATM   10  C8  UNL     1      -0.378   1.404   1.177  1.00  0.00     0.162 C 
HETATM   11  C11 UNL     1       1.418   0.856   2.609  1.00  0.00     0.127 C 
HETATM   12  C9  UNL     1      -0.484   2.268   2.466  1.00  0.00     0.035 C 
HETATM   13  C10 UNL     1       0.372   1.532   3.467  1.00  0.00     0.022 C 
HETATM   14  O2  UNL     1       1.259   0.449  -0.966  1.00  0.00    -0.271 OA
BRANCH  10  15
HETATM   15  C7  UNL     1      -1.505   0.558   1.014  1.00  0.00     0.139 C 
BRANCH  15  16
HETATM   16  N1  UNL     1      -1.846  -0.594   0.315  1.00  0.00    -0.335 N 
ATOM     17  H1  UNL     1      -1.161  -1.067  -0.275  1.00  0.00     0.168 HD
BRANCH  16  18
HETATM   18  C6  UNL     1      -3.236  -1.125   0.445  1.00  0.00     0.099 C 
HETATM   19  C5  UNL     1      -3.420  -2.517   0.179  1.00  0.00     0.013 C 
BRANCH  19  20
HETATM   20  C3  UNL     1      -3.071  -3.121  -1.127  1.00  0.00     0.006 C 
HETATM   21  C4  UNL     1      -3.197  -4.622  -1.061  1.00  0.00     0.014 C 
BRANCH  20  22
HETATM   22  C2  UNL     1      -3.836  -2.642  -2.329  1.00  0.00     0.003 C 
HETATM   23  C1  UNL     1      -5.282  -3.097  -2.175  1.00  0.00     0.006 C 
ENDBRANCH  20  22
ENDBRANCH  19  20
BRANCH  18  24
HETATM   24  C24 UNL     1      -4.161  -0.073   0.012  1.00  0.00     0.268 C 
HETATM   25  O4  UNL     1      -3.692   0.794  -0.814  1.00  0.00    -0.266 OA
HETATM   26  N6  UNL     1      -5.486   0.126   0.400  1.00  0.00    -0.344 N 
ATOM     27  H6  UNL     1      -5.906  -0.576   1.010  1.00  0.00     0.163 HD
BRANCH  26  28
HETATM   28  C25 UNL     1      -6.311   1.242   0.010  1.00  0.00     0.160 C 
BRANCH  28  29
HETATM   29  C26 UNL     1      -6.700   2.054   1.192  1.00  0.00     0.172 C 
HETATM   30  O5  UNL     1      -6.905   1.512   2.269  1.00  0.00    -0.293 OA
BRANCH  29  31
HETATM   31  C27 UNL     1      -6.846   3.525   1.125  1.00  0.00     0.244 C 
BRANCH  31  32
HETATM   32  O6  UNL     1      -7.146   4.064   2.397  1.00  0.00    -0.394 OA
ATOM     33  H6  UNL     1      -7.240   5.008   2.354  1.00  0.00     0.209 HD
ENDBRANCH  31  32
ENDBRANCH  29  31
ENDBRANCH  28  29
BRANCH  28  34
HETATM   34  C28 UNL     1      -7.389   0.866  -0.906  1.00  0.00     0.008 C 
HETATM   35  C29 UNL     1      -8.312   2.029  -1.271  1.00  0.00     0.012 C 
HETATM   36  C30 UNL     1      -6.713   0.559  -2.271  1.00  0.00     0.012 C 
ENDBRANCH  28  34
ENDBRANCH  26  28
ENDBRANCH  18  24
ENDBRANCH  16  18
ENDBRANCH  15  16
BRANCH  15  37
HETATM   37  O1  UNL     1      -2.547   1.030   1.748  1.00  0.00    -0.348 OA
ATOM     38  H1  UNL     1      -2.314   1.817   2.226  1.00  0.00     0.219 HD
ENDBRANCH  15  37
ENDBRANCH  10  15
ENDBRANCH   7   8
BRANCH   7  39
HETATM   39  C21 UNL     1       3.788   2.019  -0.482  1.00  0.00     0.009 C 
HETATM   40  C22 UNL     1       3.152   3.242   0.101  1.00  0.00     0.012 C 
HETATM   41  C23 UNL     1       3.375   1.885  -1.919  1.00  0.00     0.012 C 
ENDBRANCH   7  39
ENDBRANCH   5   7
ENDBRANCH   4   5
BRANCH   4  42
HETATM   42  O3  UNL     1       5.688   0.372   1.296  1.00  0.00    -0.347 OA
ATOM     43  H3  UNL     1       6.550   0.271   1.682  1.00  0.00     0.219 HD
ENDBRANCH   4  42
ENDBRANCH   1   4
BRANCH   1  44
HETATM   44  N5  UNL     1       7.677  -1.045   0.718  1.00  0.00    -0.392 N 
ATOM     45  H5  UNL     1       7.621  -0.664   1.663  1.00  0.00     0.155 HD
BRANCH  44  46
HETATM   46  C17 UNL     1       8.920  -1.267   0.097  1.00  0.00     0.016 C 
HETATM   47  C18 UNL     1       9.854  -0.138   0.576  1.00  0.00     0.037 C 
HETATM   48  C19 UNL     1       8.891  -1.202  -1.395  1.00  0.00     0.037 C 
HETATM   49  C20 UNL     1       9.590  -2.556   0.561  1.00  0.00     0.037 C 
ENDBRANCH  44  46
ENDBRANCH   1  44
TORSDOF 20
