REMARK  3 active torsions:
REMARK  status: ('A' for Active; 'I' for Inactive)
REMARK    1  A    between atoms: C2_2  and  C3_3 
REMARK    2  A    between atoms: C17_17  and  C19_19 
REMARK    3  A    between atoms: N1_20  and  N2_22 
ROOT
HETATM    1  C3  UNL     1      -3.731   0.642  -0.153  1.00  0.00    -0.013 C 
HETATM    2  C4  UNL     1      -4.004   0.860  -1.595  1.00  0.00     0.018 C 
HETATM    3  C5  UNL     1      -4.293  -0.667   0.418  1.00  0.00     0.015 C 
HETATM    4  C6  UNL     1      -3.052  -0.672   1.323  1.00  0.00     0.040 C 
HETATM    5  C7  UNL     1      -2.359   0.111   0.213  1.00  0.00     0.073 C 
HETATM    6  C8  UNL     1      -1.497   1.220   0.705  1.00  0.00     0.066 C 
HETATM    7  C9  UNL     1      -0.069   0.752   0.854  1.00  0.00    -0.017 C 
HETATM    8  C10 UNL     1       0.368  -0.242   0.105  1.00  0.00    -0.036 C 
HETATM    9  C11 UNL     1      -0.523  -0.879  -0.855  1.00  0.00     0.083 C 
HETATM   10  C12 UNL     1      -0.200  -0.500  -2.299  1.00  0.00     0.051 C 
HETATM   11  C13 UNL     1      -0.205  -2.380  -0.745  1.00  0.00     0.043 C 
HETATM   12  C14 UNL     1       1.178  -2.553  -1.294  1.00  0.00     0.009 C 
HETATM   13  C15 UNL     1       2.229  -1.741  -0.641  1.00  0.00    -0.001 C 
HETATM   14  C16 UNL     1       3.200  -2.723   0.040  1.00  0.00     0.011 C 
HETATM   15  C17 UNL     1       1.781  -0.675   0.282  1.00  0.00     0.019 C 
HETATM   16  C18 UNL     1       2.026  -1.040   1.753  1.00  0.00     0.026 C 
HETATM   17  O1  UNL     1      -1.841  -0.715  -0.709  1.00  0.00    -0.364 OA
ENDROOT
BRANCH  15  18
HETATM   18  C19 UNL     1       2.608   0.540   0.043  1.00  0.00     0.094 C 
HETATM   19  N1  UNL     1       3.458   0.999   0.860  1.00  0.00    -0.313 N 
ATOM     20  H1  UNL     1       3.604   0.521   1.749  1.00  0.00     0.185 HD
BRANCH  19  21
HETATM   21  N2  UNL     1       4.201   2.146   0.572  1.00  0.00    -0.277 N 
HETATM   22  C20 UNL     1       5.471   2.060   0.414  1.00  0.00     0.215 C 
HETATM   23  N3  UNL     1       6.210   3.242   0.121  1.00  0.00    -0.065 NA
HETATM   24  N4  UNL     1       6.167   0.830   0.522  1.00  0.00    -0.065 NA
ATOM     25  H2  UNL     1       3.735   3.049   0.488  1.00  0.00     0.189 HD
ENDBRANCH  19  21
ENDBRANCH  15  18
BRANCH   1  26
HETATM   26  C2  UNL     1      -4.177   1.818   0.691  1.00  0.00     0.007 C 
HETATM   27  C1  UNL     1      -5.656   2.053   0.540  1.00  0.00     0.006 C 
ENDBRANCH   1  26
TORSDOF 3
