REMARK  4 active torsions:
REMARK  status: ('A' for Active; 'I' for Inactive)
REMARK    1  A    between atoms: C2_2  and  C5_5 
REMARK    2  A    between atoms: C8_8  and  N1_9 
REMARK    3  A    between atoms: C8_8  and  C9_13 
REMARK    4  A    between atoms: C12_16  and  C14_18 
ROOT
HETATM    1  C9  UNL     1       0.443  -0.165  -0.676  1.00  0.00     0.116 C 
HETATM    2  C10 UNL     1       0.343  -1.634  -0.888  1.00  0.00     0.051 C 
HETATM    3  C11 UNL     1       1.529   0.115   0.346  1.00  0.00     0.072 C 
HETATM    4  C12 UNL     1       2.771   0.342  -0.489  1.00  0.00     0.068 C 
HETATM    5  C13 UNL     1       3.225   1.789  -0.419  1.00  0.00     0.037 C 
HETATM    6  N3  UNL     1       2.299   0.105  -1.814  1.00  0.00    -0.089 NA
HETATM    7  O2  UNL     1       0.998   0.403  -1.822  1.00  0.00    -0.272 OA
ENDROOT
BRANCH   1   8
HETATM    8  C8  UNL     1      -0.857   0.498  -0.323  1.00  0.00     0.156 C 
HETATM    9  C7  UNL     1      -1.553  -0.080   0.849  1.00  0.00     0.042 C 
HETATM   10  C6  UNL     1      -2.638  -1.096   0.489  1.00  0.00     0.008 C 
HETATM   11  C5  UNL     1      -3.723  -0.513  -0.348  1.00  0.00    -0.007 C 
HETATM   12  C20 UNL     1      -3.250   0.743  -1.002  1.00  0.00     0.008 C 
HETATM   13  C19 UNL     1      -1.828   0.466  -1.507  1.00  0.00     0.042 C 
BRANCH  11  14
HETATM   14  C2  UNL     1      -5.007  -0.259   0.384  1.00  0.00    -0.048 C 
HETATM   15  C1  UNL     1      -6.006   0.330  -0.591  1.00  0.00     0.015 C 
HETATM   16  C3  UNL     1      -4.860   0.699   1.525  1.00  0.00     0.015 C 
HETATM   17  C4  UNL     1      -5.624  -1.529   0.927  1.00  0.00     0.015 C 
ENDBRANCH  11  14
BRANCH   8  18
HETATM   18  N1  UNL     1      -0.616   1.911  -0.077  1.00  0.00    -0.067 N 
ATOM     19  H13 UNL     1      -1.470   2.417   0.157  1.00  0.00     0.275 HD
ATOM     20  H12 UNL     1      -0.112   2.074   0.795  1.00  0.00     0.275 HD
ATOM     21  H11 UNL     1      -0.137   2.309  -0.884  1.00  0.00     0.275 HD
ENDBRANCH   8  18
ENDBRANCH   1   8
BRANCH   4  22
HETATM   22  C14 UNL     1       3.942  -0.501  -0.072  1.00  0.00     0.104 C 
HETATM   23  C15 UNL     1       5.081  -0.210  -1.039  1.00  0.00     0.018 C 
HETATM   24  C16 UNL     1       6.391  -0.739  -0.439  1.00  0.00     0.020 C 
HETATM   25  C17 UNL     1       6.719   0.157   0.735  1.00  0.00     0.122 C 
HETATM   26  N2  UNL     1       5.687  -0.045   1.731  1.00  0.00    -0.361 N 
HETATM   27  C18 UNL     1       4.335  -0.090   1.309  1.00  0.00     0.223 C 
ATOM     28  H2  UNL     1       5.929  -0.153   2.716  1.00  0.00     0.162 HD
HETATM   29  O1  UNL     1       3.447   0.225   2.121  1.00  0.00    -0.273 OA
ENDBRANCH   4  22
TORSDOF 4
