REMARK  5 active torsions:
REMARK  status: ('A' for Active; 'I' for Inactive)
REMARK    1  A    between atoms: C4_4  and  C5_5 
REMARK    2  A    between atoms: C5_5  and  C6_6 
REMARK    3  A    between atoms: C6_6  and  C7_7 
REMARK    4  A    between atoms: C7_7  and  C8_8 
REMARK    5  A    between atoms: C7_7  and  C14_14 
ROOT
HETATM    1  C7  UNL     1      -0.504  -0.057   0.232  1.00  0.00     0.059 C 
ENDROOT
BRANCH   1   2
HETATM    2  C6  UNL     1       0.190   0.707   1.307  1.00  0.00     0.019 C 
BRANCH   2   3
HETATM    3  C5  UNL     1       1.362   1.520   0.870  1.00  0.00     0.039 C 
BRANCH   3   4
HETATM    4  C4  UNL     1       2.470   0.758   0.271  1.00  0.00    -0.058 A 
HETATM    5  C3  UNL     1       3.457   0.237   1.114  1.00  0.00     0.007 A 
HETATM    6  C2  UNL     1       4.522  -0.478   0.595  1.00  0.00     0.001 A 
HETATM    7  C1  UNL     1       4.635  -0.695  -0.763  1.00  0.00     0.000 A 
HETATM    8  C19 UNL     1       3.667  -0.185  -1.606  1.00  0.00     0.001 A 
HETATM    9  C18 UNL     1       2.608   0.530  -1.061  1.00  0.00     0.007 A 
ENDBRANCH   3   4
ENDBRANCH   2   3
ENDBRANCH   1   2
BRANCH   1  10
HETATM   10  C8  UNL     1      -1.642  -0.861   0.723  1.00  0.00    -0.049 A 
HETATM   11  C9  UNL     1      -2.434  -0.408   1.746  1.00  0.00     0.008 A 
HETATM   12  C10 UNL     1      -3.509  -1.182   2.200  1.00  0.00     0.001 A 
HETATM   13  C11 UNL     1      -3.787  -2.398   1.634  1.00  0.00     0.000 A 
HETATM   14  C12 UNL     1      -2.994  -2.859   0.605  1.00  0.00     0.001 A 
HETATM   15  C13 UNL     1      -1.953  -2.092   0.176  1.00  0.00     0.008 A 
ENDBRANCH   1  10
BRANCH   1  16
HETATM   16  C14 UNL     1      -1.071   0.873  -0.813  1.00  0.00    -0.009 A 
HETATM   17  C15 UNL     1      -1.210   0.621  -2.150  1.00  0.00     0.016 A 
HETATM   18  C16 UNL     1      -1.744   1.601  -2.899  1.00  0.00     0.008 A 
HETATM   19  C17 UNL     1      -2.101   2.760  -2.267  1.00  0.00     0.050 A 
HETATM   20  S1  UNL     1      -1.681   2.449  -0.643  1.00  0.00    -0.106 SA
ENDBRANCH   1  16
TORSDOF 5
