REMARK  3 active torsions:
REMARK  status: ('A' for Active; 'I' for Inactive)
REMARK    1  A    between atoms: C3_8  and  C4_9 
REMARK       I    between atoms: C4_9  and  N4_11 
REMARK    2  A    between atoms: C10_18  and  C11_19 
REMARK    3  A    between atoms: C11_19  and  C12_20 
ROOT
HETATM    1  N1  UNL     1       2.441   4.280  -1.453  1.00  0.00    -0.172 NA
HETATM    2  C1  UNL     1       1.720   3.383  -1.527  1.00  0.00     0.183 C 
HETATM    3  N2  UNL     1       0.849   2.329  -1.632  1.00  0.00    -0.283 N 
ATOM      4  H2  UNL     1       0.413   2.243  -2.550  1.00  0.00     0.179 HD
HETATM    5  C2  UNL     1       0.485   1.448  -0.812  1.00  0.00     0.092 C 
HETATM    6  N3  UNL     1      -0.483   0.479  -1.314  1.00  0.00    -0.357 N 
ATOM      7  H3  UNL     1      -0.448   0.135  -2.274  1.00  0.00     0.162 HD
HETATM    8  C3  UNL     1      -1.504   0.027  -0.373  1.00  0.00     0.238 C 
HETATM    9  S1  UNL     1      -1.783   1.311   0.899  1.00  0.00    -0.134 SA
HETATM   10  C9  UNL     1      -0.181   2.075   1.391  1.00  0.00     0.089 C 
HETATM   11  C10 UNL     1       0.852   1.264   0.592  1.00  0.00     0.067 C 
ENDROOT
BRANCH  11  12
HETATM   12  C11 UNL     1       2.247   1.423   1.017  1.00  0.00     0.050 C 
BRANCH  12  13
HETATM   13  C12 UNL     1       3.189   0.454   0.390  1.00  0.00    -0.044 C 
HETATM   14  C13 UNL     1       4.218   0.873  -0.324  1.00  0.00    -0.021 C 
HETATM   15  C14 UNL     1       5.212  -0.020  -0.989  1.00  0.00     0.033 C 
HETATM   16  C15 UNL     1       5.320  -1.246  -0.072  1.00  0.00     0.086 C 
HETATM   17  C16 UNL     1       3.946  -1.880  -0.102  1.00  0.00     0.278 C 
HETATM   18  F1  UNL     1       4.066  -3.133   0.470  1.00  0.00    -0.203 F 
HETATM   19  F2  UNL     1       3.600  -2.009  -1.439  1.00  0.00    -0.203 F 
HETATM   20  C17 UNL     1       2.943  -1.025   0.587  1.00  0.00     0.271 C 
HETATM   21  F3  UNL     1       2.885  -1.340   1.914  1.00  0.00    -0.238 F 
ENDBRANCH  12  13
ENDBRANCH  11  12
BRANCH   8  22
HETATM   22  C4  UNL     1      -2.752  -0.172  -1.146  1.00  0.00     0.252 C 
HETATM   23  O1  UNL     1      -2.797   0.079  -2.383  1.00  0.00    -0.270 OA
HETATM   24  N4  UNL     1      -3.928  -0.650  -0.511  1.00  0.00    -0.350 N 
HETATM   25  C5  UNL     1      -5.186  -0.880  -1.142  1.00  0.00     0.126 C 
HETATM   26  C8  UNL     1      -4.011  -0.987   0.895  1.00  0.00     0.126 C 
HETATM   27  C6  UNL     1      -6.170  -0.990  -0.010  1.00  0.00     0.021 C 
HETATM   28  C7  UNL     1      -5.333  -1.726   1.049  1.00  0.00     0.021 C 
ENDBRANCH   8  22
TORSDOF 3
