REMARK  5 active torsions:
REMARK  status: ('A' for Active; 'I' for Inactive)
REMARK    1  A    between atoms: O1_2  and  C2_3 
REMARK    2  A    between atoms: C5_6  and  C6_7 
REMARK    3  A    between atoms: N1_8  and  N2_10 
REMARK    4  A    between atoms: N2_10  and  C7_12 
REMARK    5  A    between atoms: C7_12  and  N3_14 
ROOT
HETATM    1  C6  UNL     1       1.829   0.557   0.102  1.00  0.00     0.120 C 
HETATM    2  N1  UNL     1       0.852  -0.181   0.480  1.00  0.00    -0.309 N 
ATOM      3  H1  UNL     1       1.046  -1.124   0.818  1.00  0.00     0.186 HD
ENDROOT
BRANCH   2   4
HETATM    4  N2  UNL     1      -0.463   0.265   0.443  1.00  0.00    -0.277 N 
ATOM      5  H2  UNL     1      -0.722   1.046   1.046  1.00  0.00     0.189 HD
BRANCH   4   6
HETATM    6  C7  UNL     1      -1.469  -0.301  -0.385  1.00  0.00     0.188 C 
HETATM    7  S1  UNL     1      -1.021  -1.551  -1.339  1.00  0.00    -0.039 SA
BRANCH   6   8
HETATM    8  N3  UNL     1      -2.794   0.152  -0.419  1.00  0.00    -0.354 N 
HETATM    9  C8  UNL     1      -3.754  -0.485  -1.294  1.00  0.00     0.129 C 
HETATM   10  C9  UNL     1      -5.153  -0.437  -0.749  1.00  0.00     0.002 C 
HETATM   11  C10 UNL     1      -5.214  -1.352   0.469  1.00  0.00     0.011 C 
HETATM   12  C11 UNL     1      -5.594   0.945  -0.351  1.00  0.00     0.044 C 
HETATM   13  C12 UNL     1      -4.463   1.914  -0.196  1.00  0.00     0.188 C 
HETATM   14  F1  UNL     1      -4.126   2.555  -1.373  1.00  0.00    -0.248 F 
HETATM   15  C13 UNL     1      -3.236   1.267   0.418  1.00  0.00     0.162 C 
ENDBRANCH   6   8
ENDBRANCH   4   6
ENDBRANCH   2   4
BRANCH   1  16
HETATM   16  C5  UNL     1       3.188   0.063   0.153  1.00  0.00     0.004 A 
HETATM   17  C4  UNL     1       4.236   0.888  -0.265  1.00  0.00     0.017 A 
HETATM   18  C3  UNL     1       5.543   0.452  -0.230  1.00  0.00     0.039 A 
HETATM   19  C2  UNL     1       5.860  -0.813   0.217  1.00  0.00     0.091 A 
HETATM   20  C15 UNL     1       4.822  -1.625   0.629  1.00  0.00     0.089 A 
HETATM   21  C14 UNL     1       3.511  -1.204   0.601  1.00  0.00     0.070 A 
HETATM   22 CL2  UNL     1       5.232  -3.235   1.198  1.00  0.00    -0.080 Cl
HETATM   23 CL1  UNL     1       2.202  -2.238   1.124  1.00  0.00    -0.081 Cl
BRANCH  19  24
HETATM   24  O1  UNL     1       7.183  -1.229   0.242  1.00  0.00    -0.354 OA
HETATM   25  C1  UNL     1       8.219  -0.368  -0.188  1.00  0.00     0.210 C 
ENDBRANCH  19  24
ENDBRANCH   1  16
TORSDOF 5
