REMARK  4 active torsions:
REMARK  status: ('A' for Active; 'I' for Inactive)
REMARK    1  A    between atoms: C2_2  and  C3_5 
REMARK    2  A    between atoms: C6_8  and  C7_9 
REMARK    3  A    between atoms: C7_9  and  N1_10 
REMARK    4  A    between atoms: C16_21  and  C17_22 
ROOT
HETATM    1  C3  UNL     1      -3.111   0.665   0.140  1.00  0.00     0.007 C 
HETATM    2  C4  UNL     1      -3.728   0.894   1.463  1.00  0.00     0.020 C 
HETATM    3  C5  UNL     1      -1.581   0.713   0.124  1.00  0.00     0.020 C 
HETATM    4  C6  UNL     1      -1.119  -0.132   1.245  1.00  0.00     0.015 C 
HETATM    5  C15 UNL     1      -1.807  -1.445   1.424  1.00  0.00     0.022 C 
HETATM    6  C16 UNL     1      -2.919  -1.804   0.531  1.00  0.00     0.088 C 
HETATM    7  C18 UNL     1      -3.437  -0.726  -0.366  1.00  0.00     0.029 C 
ENDROOT
BRANCH   4   8
HETATM    8  C7  UNL     1       0.374  -0.242   1.393  1.00  0.00     0.277 C 
BRANCH   8   9
HETATM    9  N1  UNL     1       1.100  -0.768   0.274  1.00  0.00     0.089 N 
HETATM   10  C8  UNL     1       2.397  -1.181   0.851  1.00  0.00     0.277 C 
HETATM   11  C9  UNL     1       3.303   0.012   0.993  1.00  0.00     0.099 C 
HETATM   12  C10 UNL     1       3.959   0.146  -0.396  1.00  0.00     0.167 C 
HETATM   13  C11 UNL     1       2.821  -0.023  -1.363  1.00  0.00     0.099 C 
HETATM   14  O1  UNL     1       4.644   1.313  -0.560  1.00  0.00    -0.353 OA
HETATM   15  O2  UNL     1       4.863  -0.909  -0.474  1.00  0.00    -0.353 OA
HETATM   16  C12 UNL     1       1.466   0.249  -0.707  1.00  0.00     0.277 C 
HETATM   17  C13 UNL     1       5.988   1.039  -0.698  1.00  0.00     0.197 C 
HETATM   18  C14 UNL     1       6.103  -0.376  -0.190  1.00  0.00     0.197 C 
ENDBRANCH   8   9
ENDBRANCH   4   8
BRANCH   1  19
HETATM   19  C2  UNL     1      -3.609   1.655  -0.906  1.00  0.00     0.182 C 
HETATM   20  C1  UNL     1      -3.324   3.080  -0.559  1.00  0.00     0.071 C 
HETATM   21  F1  UNL     1      -3.105   1.337  -2.155  1.00  0.00    -0.225 F 
HETATM   22 CL1  UNL     1      -5.395   1.483  -1.029  1.00  0.00    -0.082 Cl
ENDBRANCH   1  19
BRANCH   6  23
HETATM   23  C17 UNL     1      -2.585  -2.976  -0.310  1.00  0.00     0.177 C 
HETATM   24  O3  UNL     1      -1.458  -3.493  -0.215  1.00  0.00    -0.648 OA
HETATM   25  O4  UNL     1      -3.509  -3.481  -1.180  1.00  0.00    -0.648 OA
ENDBRANCH   6  23
TORSDOF 4
