REMARK  8 active torsions:
REMARK  status: ('A' for Active; 'I' for Inactive)
REMARK    1  A    between atoms: C3_3  and  C4_4 
REMARK    2  A    between atoms: C4_4  and  N2_8 
REMARK    3  A    between atoms: C15_26  and  C16_27 
REMARK    4  A    between atoms: C18_34  and  C19_35 
REMARK    5  A    between atoms: C19_35  and  C20_36 
REMARK    6  A    between atoms: C20_36  and  C21_37 
REMARK    7  A    between atoms: C21_37  and  N6_38 
REMARK    8  A    between atoms: C22_44  and  O7_45 
ROOT
HETATM    1  C1  UNL     1      -2.410  -6.549   2.090  1.00  0.00     0.097 C 
HETATM    2  C2  UNL     1      -2.765  -5.620   1.371  1.00  0.00    -0.180 C 
HETATM    3  C3  UNL     1      -3.205  -4.529   0.496  1.00  0.00     0.155 C 
ENDROOT
BRANCH   3   4
HETATM    4  C4  UNL     1      -2.494  -3.305   0.850  1.00  0.00     0.094 C 
HETATM    5  N1  UNL     1      -1.698  -3.265   1.857  1.00  0.00    -0.388 N 
ATOM      6  H12 UNL     1      -1.584  -4.140   2.368  1.00  0.00     0.157 HD
ATOM      7  H11 UNL     1      -1.201  -2.409   2.104  1.00  0.00     0.157 HD
BRANCH   4   8
HETATM    8  N2  UNL     1      -2.655  -2.067   0.127  1.00  0.00    -0.272 N 
HETATM    9  C5  UNL     1      -2.278  -2.003  -1.230  1.00  0.00     0.175 C 
HETATM   10  C6  UNL     1      -1.152  -2.798  -1.699  1.00  0.00     0.257 C 
HETATM   11  O1  UNL     1      -1.429  -3.700  -2.544  1.00  0.00    -0.267 OA
HETATM   12  N3  UNL     1       0.212  -2.711  -1.351  1.00  0.00    -0.354 N 
HETATM   13  C7  UNL     1       0.842  -1.754  -0.465  1.00  0.00     0.149 C 
ATOM     14  H3  UNL     1       0.828  -3.405  -1.774  1.00  0.00     0.162 HD
HETATM   15  C8  UNL     1       1.700  -0.841  -1.316  1.00  0.00     0.188 C 
HETATM   16  O2  UNL     1       2.826  -1.556  -1.711  1.00  0.00    -0.380 OA
HETATM   17  C9  UNL     1       3.676  -1.685  -0.628  1.00  0.00     0.270 C 
HETATM   18  C10 UNL     1       5.043  -1.280  -1.063  1.00  0.00     0.241 C 
HETATM   19  O3  UNL     1       5.670  -2.109  -1.801  1.00  0.00    -0.271 OA
HETATM   20  N4  UNL     1       5.623  -0.061  -0.693  1.00  0.00    -0.359 N 
HETATM   21  C11 UNL     1       4.956   1.217  -0.635  1.00  0.00     0.122 C 
ATOM     22  H4  UNL     1       6.611  -0.078  -0.440  1.00  0.00     0.162 HD
HETATM   23  C12 UNL     1       4.567   1.624   0.752  1.00  0.00     0.020 C 
HETATM   24  C13 UNL     1       3.365   2.530   0.777  1.00  0.00     0.004 C 
HETATM   25  C14 UNL     1       2.305   2.005   1.691  1.00  0.00     0.036 C 
HETATM   26  C15 UNL     1       0.923   2.530   1.397  1.00  0.00     0.185 C 
HETATM   27  N5  UNL     1      -0.044   1.745   2.132  1.00  0.00    -0.345 N 
HETATM   28  C17 UNL     1      -1.404   1.578   1.823  1.00  0.00     0.241 C 
ATOM     29  H5  UNL     1       0.298   1.262   2.963  1.00  0.00     0.163 HD
HETATM   30  O6  UNL     1      -2.292   1.762   2.694  1.00  0.00    -0.271 OA
HETATM   31  C18 UNL     1      -1.926   1.172   0.450  1.00  0.00     0.177 C 
HETATM   32  N7  UNL     1      -3.133   0.372   0.657  1.00  0.00    -0.343 N 
HETATM   33  C22 UNL     1      -3.207  -1.007   0.891  1.00  0.00     0.225 C 
ATOM     34  H7  UNL     1      -4.020   0.875   0.628  1.00  0.00     0.164 HD
BRANCH  26  35
HETATM   35  C16 UNL     1       0.889   3.957   1.853  1.00  0.00     0.196 C 
HETATM   36  O4  UNL     1       0.079   4.241   2.769  1.00  0.00    -0.646 OA
HETATM   37  O5  UNL     1       1.701   4.908   1.299  1.00  0.00    -0.646 OA
ENDBRANCH  26  35
BRANCH  31  38
HETATM   38  C19 UNL     1      -2.289   2.470  -0.209  1.00  0.00     0.036 C 
BRANCH  38  39
HETATM   39  C20 UNL     1      -2.802   2.446  -1.590  1.00  0.00     0.030 C 
BRANCH  39  40
HETATM   40  C21 UNL     1      -4.058   1.710  -1.871  1.00  0.00     0.230 C 
BRANCH  40  41
HETATM   41  N6  UNL     1      -4.438   1.843  -3.298  1.00  0.00    -0.079 N 
ATOM     42  H63 UNL     1      -4.502   2.821  -3.582  1.00  0.00     0.274 HD
ATOM     43  H62 UNL     1      -3.683   1.551  -3.918  1.00  0.00     0.274 HD
ATOM     44  H61 UNL     1      -5.302   1.337  -3.491  1.00  0.00     0.274 HD
ENDBRANCH  40  41
ENDBRANCH  39  40
ENDBRANCH  38  39
ENDBRANCH  31  38
BRANCH  33  45
HETATM   45  O7  UNL     1      -3.888  -1.313   1.968  1.00  0.00    -0.332 OA
ATOM     46  H7  UNL     1      -4.258  -0.603   2.480  1.00  0.00     0.221 HD
ENDBRANCH  33  45
ENDBRANCH   4   8
ENDBRANCH   3   4
TORSDOF 8
