REMARK  9 active torsions:
REMARK  status: ('A' for Active; 'I' for Inactive)
REMARK    1  A    between atoms: C1_2  and  C2_4 
REMARK    2  A    between atoms: C5_9  and  N2_10 
REMARK    3  A    between atoms: C7_17  and  C8_18 
REMARK    4  A    between atoms: C8_18  and  N4_19 
REMARK       I    between atoms: N4_19  and  C9_21 
REMARK       I    between atoms: C9_21  and  N6_31 
REMARK       I    between atoms: N5_22  and  C10_24 
REMARK    5  A    between atoms: C10_24  and  C11_26 
REMARK    6  A    between atoms: C12_27  and  C13_28 
REMARK       I    between atoms: N6_31  and  C16_33 
REMARK    7  A    between atoms: N8_35  and  C17_37 
REMARK    8  A    between atoms: C17_37  and  C18_38 
REMARK    9  A    between atoms: C18_38  and  O3_39 
ROOT
HETATM    1  C8  UNL     1      -0.957   0.174  -0.014  1.00  0.00     0.172 C 
ENDROOT
BRANCH   1   2
HETATM    2  C7  UNL     1      -1.627   0.053  -1.371  1.00  0.00     0.191 C 
HETATM    3  N3  UNL     1      -1.811  -1.304  -1.776  1.00  0.00    -0.386 N 
HETATM    4  C6  UNL     1      -3.098  -1.863  -1.655  1.00  0.00     0.089 C 
ATOM      5  H3  UNL     1      -1.033  -1.852  -2.142  1.00  0.00     0.159 HD
HETATM    6  C5  UNL     1      -3.177  -3.130  -0.853  1.00  0.00     0.231 C 
HETATM    7  C4  UNL     1      -4.298  -2.933   0.145  1.00  0.00     0.124 C 
HETATM    8  S2  UNL     1      -5.670  -1.993  -0.504  1.00  0.00    -0.095 SA
HETATM    9  S1  UNL     1      -5.937  -0.101   0.321  1.00  0.00    -0.095 SA
HETATM   10  C3  UNL     1      -4.607   0.507   1.341  1.00  0.00     0.120 C 
HETATM   11  C2  UNL     1      -3.825   1.653   0.677  1.00  0.00     0.183 C 
HETATM   12  N9  UNL     1      -3.792   1.335  -0.722  1.00  0.00    -0.346 N 
HETATM   13  C19 UNL     1      -2.765   0.961  -1.572  1.00  0.00     0.242 C 
ATOM     14  H9  UNL     1      -4.702   1.396  -1.179  1.00  0.00     0.163 HD
HETATM   15  O4  UNL     1      -2.832   1.513  -2.743  1.00  0.00    -0.271 OA
BRANCH   6  16
HETATM   16  N2  UNL     1      -1.956  -3.321  -0.086  1.00  0.00    -0.070 N 
ATOM     17  H23 UNL     1      -1.776  -2.566   0.576  1.00  0.00     0.275 HD
ATOM     18  H22 UNL     1      -2.024  -4.077   0.595  1.00  0.00     0.275 HD
ATOM     19  H21 UNL     1      -1.201  -3.454  -0.758  1.00  0.00     0.275 HD
ENDBRANCH   6  16
BRANCH  11  20
HETATM   20  C1  UNL     1      -4.500   2.946   0.926  1.00  0.00     0.254 C 
HETATM   21  N1  UNL     1      -4.636   3.446   2.230  1.00  0.00    -0.060 NA
HETATM   22  O1  UNL     1      -4.944   3.583  -0.043  1.00  0.00    -0.275 OA
ENDBRANCH  11  20
ENDBRANCH   1   2
BRANCH   1  23
HETATM   23  N4  UNL     1       0.352  -0.440  -0.005  1.00  0.00    -0.223 N 
HETATM   24  C9  UNL     1       1.467   0.066  -0.717  1.00  0.00     0.683 C 
HETATM   25  N5  UNL     1       2.390  -0.714  -1.124  1.00  0.00    -0.149 N 
HETATM   26  N6  UNL     1       1.631   1.450  -1.014  1.00  0.00    -0.164 N 
HETATM   27  C10 UNL     1       2.450  -2.106  -0.944  1.00  0.00     0.314 C 
ATOM     28  H5  UNL     1       3.163  -0.284  -1.632  1.00  0.00     0.188 HD
HETATM   29  O2  UNL     1       1.617  -2.891  -1.457  1.00  0.00    -0.257 OA
HETATM   30  C16 UNL     1       2.515   2.306  -0.308  1.00  0.00     0.202 C 
ATOM     31  H6  UNL     1       1.082   1.847  -1.777  1.00  0.00     0.187 HD
HETATM   32  N7  UNL     1       2.806   2.080   1.045  1.00  0.00    -0.063 NA
HETATM   33  N8  UNL     1       3.057   3.303  -0.921  1.00  0.00    -0.362 N 
ATOM     34  H8  UNL     1       2.825   3.438  -1.905  1.00  0.00     0.162 HD
ATOM     35  H4  UNL     1       0.480  -1.288   0.547  1.00  0.00     0.177 HD
BRANCH  27  36
HETATM   36  C11 UNL     1       3.485  -2.747  -0.149  1.00  0.00    -0.004 C 
HETATM   37  C12 UNL     1       4.359  -3.274   0.496  1.00  0.00    -0.092 C 
BRANCH  37  38
HETATM   38  C13 UNL     1       5.437  -3.901   1.265  1.00  0.00     0.065 A 
HETATM   39  C14 UNL     1       6.125  -5.086   0.595  1.00  0.00     0.018 A 
HETATM   40  C15 UNL     1       6.846  -3.796   0.682  1.00  0.00     0.018 A 
ENDBRANCH  37  38
ENDBRANCH  27  36
BRANCH  33  41
HETATM   41  C17 UNL     1       3.959   4.231  -0.318  1.00  0.00     0.148 C 
BRANCH  41  42
HETATM   42  C18 UNL     1       3.559   5.680  -0.524  1.00  0.00     0.183 C 
BRANCH  42  43
HETATM   43  O3  UNL     1       2.310   5.853   0.040  1.00  0.00    -0.399 OA
ATOM     44  H3  UNL     1       2.060   6.760  -0.089  1.00  0.00     0.209 HD
ENDBRANCH  42  43
ENDBRANCH  41  42
ENDBRANCH  33  41
ENDBRANCH   1  23
TORSDOF 9
