REMARK  7 active torsions:
REMARK  status: ('A' for Active; 'I' for Inactive)
REMARK    1  A    between atoms: C2_2  and  C4_16 
REMARK    2  A    between atoms: N1_3  and  N2_5 
REMARK       I    between atoms: N2_5  and  C3_7 
REMARK       I    between atoms: C3_7  and  N4_11 
REMARK    3  A    between atoms: N4_11  and  N5_13 
REMARK       I    between atoms: C4_16  and  N6_18 
REMARK       I    between atoms: C5_20  and  N8_22 
REMARK    4  A    between atoms: N8_22  and  N9_24 
REMARK       I    between atoms: N9_24  and  C6_26 
REMARK       I    between atoms: C6_26  and  N10_28 
REMARK    5  A    between atoms: N11_31  and  C9_32 
REMARK    6  A    between atoms: C9_32  and  N12_34 
REMARK    7  A    between atoms: N12_34  and  C10_36 
ROOT
HETATM    1  C4  UNL     1       5.177  -1.361   0.487  1.00  0.00     0.271 C 
HETATM    2  O3  UNL     1       4.464  -2.333   0.910  1.00  0.00    -0.266 OA
HETATM    3  N6  UNL     1       4.615  -0.105   0.243  1.00  0.00    -0.295 N 
ATOM      4  H6  UNL     1       5.165   0.531  -0.335  1.00  0.00     0.171 HD
HETATM    5  C5  UNL     1       3.502   0.335   0.657  1.00  0.00     0.210 C 
HETATM    6  N7  UNL     1       3.110   1.653   0.295  1.00  0.00    -0.062 NA
HETATM    7  N8  UNL     1       2.621  -0.417   1.461  1.00  0.00    -0.269 N 
ATOM      8  H8  UNL     1       2.959  -1.017   2.213  1.00  0.00     0.190 HD
ENDROOT
BRANCH   7   9
HETATM    9  N9  UNL     1       1.234  -0.293   1.166  1.00  0.00    -0.249 N 
HETATM   10  C6  UNL     1       0.770  -0.982   0.030  1.00  0.00     0.337 C 
HETATM   11  O4  UNL     1       1.526  -1.678  -0.692  1.00  0.00    -0.245 OA
HETATM   12  N10 UNL     1      -0.642  -0.870  -0.307  1.00  0.00    -0.330 N 
HETATM   13  C7  UNL     1      -1.080  -1.629  -1.438  1.00  0.00     0.147 C 
HETATM   14  C16 UNL     1      -1.482  -0.016   0.483  1.00  0.00     0.147 C 
HETATM   15  C8  UNL     1      -2.458  -1.420  -1.877  1.00  0.00     0.145 C 
HETATM   16  N11 UNL     1      -3.244  -0.629  -0.972  1.00  0.00    -0.355 N 
HETATM   17  C15 UNL     1      -2.657   0.506  -0.341  1.00  0.00     0.145 C 
ATOM     18  H9  UNL     1       0.609   0.266   1.747  1.00  0.00     0.192 HD
BRANCH  16  19
HETATM   19  C9  UNL     1      -4.596  -1.008  -0.745  1.00  0.00     0.170 C 
HETATM   20  S1  UNL     1      -5.127  -2.369  -1.510  1.00  0.00    -0.041 SA
BRANCH  19  21
HETATM   21  N12 UNL     1      -5.443  -0.288   0.121  1.00  0.00    -0.354 N 
ATOM     22  H12 UNL     1      -5.067   0.522   0.615  1.00  0.00     0.162 HD
BRANCH  21  23
HETATM   23  C10 UNL     1      -6.825  -0.655   0.335  1.00  0.00     0.176 C 
HETATM   24  C11 UNL     1      -7.279   0.037   1.624  1.00  0.00     0.036 C 
HETATM   25  C12 UNL     1      -7.737   1.451   1.256  1.00  0.00     0.022 C 
HETATM   26  C13 UNL     1      -9.116   1.273   0.603  1.00  0.00     0.122 C 
HETATM   27  N13 UNL     1      -8.860   0.541  -0.616  1.00  0.00    -0.359 N 
HETATM   28  C14 UNL     1      -7.609  -0.084  -0.806  1.00  0.00     0.240 C 
ATOM     29  H13 UNL     1      -9.580   0.476  -1.336  1.00  0.00     0.162 HD
HETATM   30  O5  UNL     1      -7.138  -0.164  -1.954  1.00  0.00    -0.271 OA
ENDBRANCH  21  23
ENDBRANCH  19  21
ENDBRANCH  16  19
ENDBRANCH   7   9
BRANCH   1  31
HETATM   31  C2  UNL     1       6.596  -1.579   0.258  1.00  0.00     0.090 C 
HETATM   32  C1  UNL     1       7.131  -2.968   0.565  1.00  0.00     0.076 C 
HETATM   33  N1  UNL     1       7.448  -0.761  -0.156  1.00  0.00    -0.285 N 
ATOM     34  H1  UNL     1       8.384  -1.161  -0.225  1.00  0.00     0.187 HD
BRANCH  33  35
HETATM   35  N2  UNL     1       7.398   0.547  -0.535  1.00  0.00    -0.131 N 
HETATM   36  C3  UNL     1       8.555   1.382  -0.408  1.00  0.00     0.709 C 
HETATM   37  N3  UNL     1       9.634   1.121  -1.043  1.00  0.00    -0.232 N 
HETATM   38  N4  UNL     1       8.493   2.511   0.435  1.00  0.00    -0.071 N 
ATOM     39  H32 UNL     1       9.679   0.304  -1.653  1.00  0.00     0.174 HD
ATOM     40  H31 UNL     1      10.458   1.716  -0.953  1.00  0.00     0.174 HD
ATOM     41  H4  UNL     1       7.805   2.564   1.186  1.00  0.00     0.212 HD
ATOM     42  H2  UNL     1       6.532   0.933  -0.911  1.00  0.00     0.205 HD
BRANCH  38  43
HETATM   43  N5  UNL     1       9.390   3.548   0.219  1.00  0.00    -0.024 N 
HETATM   44  O1  UNL     1      10.598   3.306   0.140  1.00  0.00    -0.516 OA
HETATM   45  O2  UNL     1       8.935   4.825   0.095  1.00  0.00    -0.516 OA
ENDBRANCH  38  43
ENDBRANCH  33  35
ENDBRANCH   1  31
TORSDOF 7
