REMARK  6 active torsions:
REMARK  status: ('A' for Active; 'I' for Inactive)
REMARK       I    between atoms: C1_2  and  N1_3 
REMARK       I    between atoms: C1_2  and  N4_24 
REMARK    1  A    between atoms: N1_3  and  N2_5 
REMARK    2  A    between atoms: C2_7  and  C3_8 
REMARK    3  A    between atoms: C6_11  and  C7_12 
REMARK    4  A    between atoms: N3_13  and  C8_15 
REMARK    5  A    between atoms: N4_24  and  C16_26 
REMARK    6  A    between atoms: C21_31  and  C22_32 
ROOT
HETATM    1  O1  UNL     1      -1.747  -2.170  -1.034  1.00  0.00    -0.245 OA
HETATM    2  C1  UNL     1      -2.383  -1.207  -0.574  1.00  0.00     0.339 C 
HETATM    3  N1  UNL     1      -1.506  -0.078  -0.240  1.00  0.00    -0.252 N 
ATOM      4  H1  UNL     1      -1.948   0.759   0.141  1.00  0.00     0.191 HD
HETATM    5  N4  UNL     1      -3.772  -1.094  -0.350  1.00  0.00    -0.307 N 
ATOM      6  H4  UNL     1      -4.102  -0.212   0.041  1.00  0.00     0.170 HD
ENDROOT
BRANCH   3   7
HETATM    7  N2  UNL     1      -0.174  -0.052  -0.393  1.00  0.00    -0.307 N 
HETATM    8  C2  UNL     1       0.677  -0.370  -1.239  1.00  0.00     0.118 C 
ATOM      9  H2  UNL     1       0.273   0.348   0.432  1.00  0.00     0.186 HD
BRANCH   8  10
HETATM   10  C3  UNL     1       2.093  -0.129  -0.935  1.00  0.00    -0.019 A 
HETATM   11  C4  UNL     1       2.408   0.486   0.259  1.00  0.00     0.014 A 
HETATM   12  C5  UNL     1       3.715   0.727   0.581  1.00  0.00     0.013 A 
HETATM   13  C6  UNL     1       4.750   0.359  -0.286  1.00  0.00    -0.021 A 
HETATM   14  C14 UNL     1       4.426  -0.254  -1.475  1.00  0.00     0.013 A 
HETATM   15  C15 UNL     1       3.095  -0.494  -1.794  1.00  0.00     0.014 A 
BRANCH  13  16
HETATM   16  C7  UNL     1       6.097   0.679   0.160  1.00  0.00     0.099 C 
HETATM   17  N3  UNL     1       7.154   0.372  -0.524  1.00  0.00    -0.364 N 
ATOM     18  H3  UNL     1       7.069  -0.114  -1.417  1.00  0.00     0.165 HD
BRANCH  17  19
HETATM   19  C8  UNL     1       8.436   0.723  -0.011  1.00  0.00     0.049 A 
HETATM   20  C9  UNL     1       8.587   2.031   0.458  1.00  0.00     0.031 A 
HETATM   21  C10 UNL     1       9.795   2.447   0.972  1.00  0.00     0.002 A 
HETATM   22  C11 UNL     1      10.814   1.501   0.985  1.00  0.00     0.002 A 
HETATM   23  C12 UNL     1      10.670   0.214   0.523  1.00  0.00     0.021 A 
HETATM   24  C13 UNL     1       9.453  -0.184   0.013  1.00  0.00     0.038 A 
HETATM   25  S1  UNL     1       9.226  -1.850  -0.590  1.00  0.00    -0.050 SA
ENDBRANCH  17  19
ENDBRANCH  13  16
ENDBRANCH   8  10
ENDBRANCH   3   7
BRANCH   5  26
HETATM   26  C16 UNL     1      -4.745  -2.071  -0.610  1.00  0.00     0.049 A 
HETATM   27  C17 UNL     1      -4.386  -3.281  -1.234  1.00  0.00     0.030 A 
HETATM   28  C18 UNL     1      -5.306  -4.281  -1.514  1.00  0.00     0.002 A 
HETATM   29  C19 UNL     1      -6.621  -4.081  -1.170  1.00  0.00     0.001 A 
HETATM   30  C20 UNL     1      -6.971  -2.897  -0.561  1.00  0.00     0.016 A 
HETATM   31  C21 UNL     1      -6.049  -1.886  -0.276  1.00  0.00     0.025 A 
BRANCH  31  32
HETATM   32  C22 UNL     1      -6.553  -0.663   0.370  1.00  0.00     0.087 A 
HETATM   33  N5  UNL     1      -6.105   0.470   0.739  1.00  0.00    -0.349 N 
HETATM   34  C23 UNL     1      -6.779   1.412   1.289  1.00  0.00     0.050 A 
ATOM     35  H5  UNL     1      -5.113   0.646   0.582  1.00  0.00     0.166 HD
HETATM   36  C24 UNL     1      -6.347   2.670   1.708  1.00  0.00     0.031 A 
HETATM   37  C28 UNL     1      -8.115   1.139   1.486  1.00  0.00     0.033 A 
HETATM   38  C25 UNL     1      -7.184   3.565   2.272  1.00  0.00     0.002 A 
HETATM   39  C26 UNL     1      -8.523   3.306   2.476  1.00  0.00     0.002 A 
HETATM   40  C27 UNL     1      -8.986   2.077   2.076  1.00  0.00     0.021 A 
HETATM   41  S2  UNL     1      -8.239  -0.442   0.856  1.00  0.00    -0.069 SA
ENDBRANCH  31  32
ENDBRANCH   5  26
TORSDOF 6
