REMARK  7 active torsions:
REMARK  status: ('A' for Active; 'I' for Inactive)
REMARK    1  A    between atoms: C1_2  and  C2_7 
REMARK    2  A    between atoms: N2_3  and  O1_5 
REMARK    3  A    between atoms: C5_10  and  C6_11 
REMARK    4  A    between atoms: C10_17  and  C11_18 
REMARK    5  A    between atoms: C12_21  and  C13_22 
REMARK    6  A    between atoms: C16_25  and  O2_26 
REMARK    7  A    between atoms: O2_26  and  C17_27 
ROOT
HETATM    1  C6  UNL     1      -5.074  -0.468  -0.070  1.00  0.00     0.116 A 
HETATM    2  N3  UNL     1      -4.305  -1.502  -0.427  1.00  0.00    -0.340 N 
ATOM      3  H3  UNL     1      -4.660  -2.405  -0.741  1.00  0.00     0.167 HD
HETATM    4  C7  UNL     1      -2.988  -1.189  -0.315  1.00  0.00     0.060 A 
HETATM    5  C8  UNL     1      -1.821  -1.896  -0.557  1.00  0.00     0.033 A 
HETATM    6  C9  UNL     1      -0.606  -1.270  -0.336  1.00  0.00     0.017 A 
HETATM    7  C10 UNL     1      -0.585   0.024   0.113  1.00  0.00    -0.000 A 
HETATM    8  C26 UNL     1      -1.729   0.707   0.347  1.00  0.00     0.046 A 
HETATM    9  C27 UNL     1      -2.960   0.118   0.139  1.00  0.00     0.061 A 
HETATM   10  N5  UNL     1      -4.237   0.524   0.277  1.00  0.00    -0.340 N 
ATOM     11  H5  UNL     1      -4.526   1.448   0.598  1.00  0.00     0.167 HD
ENDROOT
BRANCH   7  12
HETATM   12  C11 UNL     1       0.747   0.635   0.329  1.00  0.00     0.085 A 
HETATM   13  N4  UNL     1       1.936   0.108   0.149  1.00  0.00    -0.349 N 
HETATM   14  C12 UNL     1       3.002   0.798   0.392  1.00  0.00     0.050 A 
ATOM     15  H4  UNL     1       2.019  -0.852  -0.185  1.00  0.00     0.166 HD
HETATM   16  C25 UNL     1       2.823   2.092   0.841  1.00  0.00     0.082 A 
HETATM   17  S1  UNL     1       1.123   2.215   0.879  1.00  0.00    -0.081 SA
BRANCH  14  18
HETATM   18  C13 UNL     1       4.368   0.269   0.212  1.00  0.00    -0.009 A 
HETATM   19  C14 UNL     1       4.520  -1.014  -0.233  1.00  0.00     0.016 A 
HETATM   20  C15 UNL     1       5.787  -1.565  -0.421  1.00  0.00     0.038 A 
HETATM   21  C16 UNL     1       6.919  -0.808  -0.155  1.00  0.00     0.076 A 
HETATM   22  C23 UNL     1       6.770   0.475   0.290  1.00  0.00     0.038 A 
HETATM   23  C24 UNL     1       5.486   1.005   0.471  1.00  0.00     0.016 A 
BRANCH  21  24
HETATM   24  O2  UNL     1       8.177  -1.357  -0.343  1.00  0.00    -0.311 OA
BRANCH  24  25
HETATM   25  C17 UNL     1       9.293  -0.597  -0.075  1.00  0.00     0.076 A 
HETATM   26  C18 UNL     1       9.845   0.169  -1.071  1.00  0.00     0.037 A 
HETATM   27  C19 UNL     1      10.967   0.952  -0.857  1.00  0.00     0.003 A 
HETATM   28  C20 UNL     1      11.544   0.962   0.392  1.00  0.00     0.000 A 
HETATM   29  C21 UNL     1      10.990   0.190   1.404  1.00  0.00     0.003 A 
HETATM   30  C22 UNL     1       9.870  -0.585   1.169  1.00  0.00     0.037 A 
ENDBRANCH  24  25
ENDBRANCH  21  24
ENDBRANCH  14  18
ENDBRANCH   7  12
BRANCH   1  31
HETATM   31  C5  UNL     1      -6.544  -0.386  -0.046  1.00  0.00     0.008 A 
HETATM   32  C4  UNL     1      -7.172   0.772   0.355  1.00  0.00     0.016 A 
HETATM   33  C3  UNL     1      -8.545   0.858   0.381  1.00  0.00     0.016 A 
HETATM   34  C2  UNL     1      -9.336  -0.192   0.014  1.00  0.00     0.007 A 
HETATM   35  C29 UNL     1      -8.701  -1.357  -0.389  1.00  0.00     0.016 A 
HETATM   36  C28 UNL     1      -7.326  -1.455  -0.419  1.00  0.00     0.016 A 
BRANCH  34  37
HETATM   37  C1  UNL     1     -10.779  -0.066   0.053  1.00  0.00     0.146 C 
HETATM   38  N1  UNL     1     -11.377   1.143   0.472  1.00  0.00    -0.080 NA
HETATM   39  N2  UNL     1     -11.515  -1.056  -0.292  1.00  0.00    -0.255 N 
ATOM     40  H2  UNL     1     -11.082  -1.929  -0.593  1.00  0.00     0.195 HD
BRANCH  39  41
HETATM   41  O1  UNL     1     -12.869  -0.950  -0.259  1.00  0.00    -0.288 OA
ATOM     42  H1  UNL     1     -13.415  -1.684  -0.515  1.00  0.00     0.244 HD
ENDBRANCH  39  41
ENDBRANCH  34  37
ENDBRANCH   1  31
TORSDOF 7
