REMARK  1 active torsions:
REMARK  status: ('A' for Active; 'I' for Inactive)
REMARK    1  A    between atoms: N1_3  and  C3_5 
ROOT
HETATM    1  C1  UNL     1       4.351   0.679   0.412  1.00  0.00     0.037 C 
HETATM    2  C2  UNL     1       3.321   0.101   0.128  1.00  0.00    -0.000 C 
HETATM    3  N1  UNL     1       2.123  -0.544  -0.202  1.00  0.00    -0.312 N 
ATOM      4  H1  UNL     1       1.997  -0.941  -1.133  1.00  0.00     0.177 HD
ENDROOT
BRANCH   3   5
HETATM    5  C3  UNL     1       1.082  -0.645   0.763  1.00  0.00     0.186 C 
HETATM    6  N2  UNL     1      -0.126  -0.441   0.424  1.00  0.00    -0.377 N 
HETATM    7  C4  UNL     1      -0.577  -0.102  -0.902  1.00  0.00     0.123 C 
HETATM    8  C7  UNL     1      -1.294  -0.510   1.304  1.00  0.00     0.123 C 
HETATM    9  C5  UNL     1      -1.803   0.776  -0.689  1.00  0.00     0.021 C 
HETATM   10  C6  UNL     1      -2.369   0.313   0.628  1.00  0.00     0.021 C 
ENDBRANCH   3   5
TORSDOF 1
