REMARK  0 active torsions:
REMARK  status: ('A' for Active; 'I' for Inactive)
ROOT
HETATM    1  C1  UNL     1      -0.301   1.894  -0.555  1.00  0.00     0.275 C 
HETATM    2  N1  UNL     1       0.049   0.666   0.099  1.00  0.00    -0.040 N 
HETATM    3  C2  UNL     1      -0.938   0.065   0.939  1.00  0.00     0.267 C 
HETATM    4  C3  UNL     1      -1.257  -1.295   0.343  1.00  0.00     0.262 C 
HETATM    5  N2  UNL     1      -0.624  -1.293  -0.962  1.00  0.00    -0.044 N 
ATOM      6  H21 UNL     1      -1.243  -1.046  -1.734  1.00  0.00     0.279 HD
ATOM      7  H22 UNL     1      -0.379  -2.217  -1.317  1.00  0.00     0.279 HD
HETATM    8  C4  UNL     1       0.487  -0.410  -0.782  1.00  0.00     0.388 C 
HETATM    9  C5  UNL     1       1.488  -0.785   0.270  1.00  0.00     0.091 C 
HETATM   10  C6  UNL     1       1.402   0.702   0.617  1.00  0.00     0.243 C 
ENDROOT
TORSDOF 0
