REMARK  1 active torsions:
REMARK  status: ('A' for Active; 'I' for Inactive)
REMARK    1  A    between atoms: N2_4  and  C1_6 
ROOT
HETATM    1  C1  UNL     1       1.011  -0.086   0.479  1.00  0.00     0.192 C 
HETATM    2  C2  UNL     1       0.355   1.197   0.018  1.00  0.00     0.048 C 
HETATM    3  C3  UNL     1      -1.124   1.067   0.323  1.00  0.00     0.005 C 
HETATM    4  C4  UNL     1      -1.637  -0.043  -0.596  1.00  0.00     0.019 C 
HETATM    5  C5  UNL     1      -0.969  -1.319  -0.128  1.00  0.00     0.115 C 
HETATM    6  N3  UNL     1       0.453  -1.259  -0.134  1.00  0.00    -0.401 N 
ATOM      7  H3  UNL     1       1.032  -1.993  -0.542  1.00  0.00     0.155 HD
ENDROOT
BRANCH   1   8
HETATM    8  N2  UNL     1       2.415  -0.085   0.249  1.00  0.00    -0.320 N 
HETATM    9  N1  UNL     1       2.903   0.570  -0.668  1.00  0.00    -0.348 N 
ATOM     10  H12 UNL     1       2.280   1.115  -1.263  1.00  0.00     0.176 HD
ATOM     11  H11 UNL     1       3.910   0.571  -0.833  1.00  0.00     0.176 HD
ATOM     12  H2  UNL     1       3.024  -0.636   0.854  1.00  0.00     0.182 HD
ENDBRANCH   1   8
TORSDOF 1
