REMARK  11 active torsions:
REMARK  status: ('A' for Active; 'I' for Inactive)
REMARK       I    between atoms: C2_2  and  N1_4 
REMARK    1  A    between atoms: N1_4  and  C3_6 
REMARK    2  A    between atoms: C3_6  and  C4_7 
REMARK    3  A    between atoms: C5_9  and  O3_10 
REMARK    4  A    between atoms: O3_10  and  C6_11 
REMARK    5  A    between atoms: C7_12  and  O4_13 
REMARK    6  A    between atoms: C8_15  and  C9_16 
REMARK    7  A    between atoms: C9_16  and  O5_17 
REMARK    8  A    between atoms: C10_20  and  N2_21 
REMARK       I    between atoms: N2_21  and  C11_23 
REMARK    9  A    between atoms: C11_23  and  C12_25 
REMARK   10  A    between atoms: C18_31  and  O8_32 
REMARK   11  A    between atoms: C20_36  and  N3_37 
ROOT
HETATM    1  C6  UNL     1      -0.590   1.179   0.796  1.00  0.00     0.191 C 
HETATM    2  C7  UNL     1      -0.675   2.502   0.102  1.00  0.00     0.181 C 
HETATM    3  C8  UNL     1       0.161   2.690  -1.105  1.00  0.00     0.179 C 
HETATM    4  O6  UNL     1       1.056   1.697  -1.407  1.00  0.00    -0.354 OA
HETATM    5  C10 UNL     1       1.682   1.285  -0.252  1.00  0.00     0.255 C 
HETATM    6  C18 UNL     1       0.680   0.423   0.483  1.00  0.00     0.198 C 
ENDROOT
BRANCH   1   7
HETATM    7  O3  UNL     1      -1.631   0.318   0.574  1.00  0.00    -0.328 OA
BRANCH   7   8
HETATM    8  C5  UNL     1      -2.332  -0.063   1.694  1.00  0.00     0.413 C 
HETATM    9  O2  UNL     1      -3.646   0.297   1.700  1.00  0.00    -0.330 OA
HETATM   10  C4  UNL     1      -4.393  -0.330   0.689  1.00  0.00     0.177 C 
HETATM   11  C20 UNL     1      -3.942  -1.742   0.506  1.00  0.00     0.237 C 
HETATM   12  C19 UNL     1      -3.283  -2.152   1.836  1.00  0.00     0.209 C 
HETATM   13  O9  UNL     1      -2.103  -1.414   1.893  1.00  0.00    -0.337 OA
BRANCH  10  14
HETATM   14  C3  UNL     1      -5.867  -0.161   0.950  1.00  0.00     0.156 C 
BRANCH  14  15
HETATM   15  N1  UNL     1      -6.647  -0.768  -0.077  1.00  0.00    -0.359 N 
HETATM   16  C2  UNL     1      -6.640  -0.428  -1.452  1.00  0.00     0.213 C 
HETATM   17  C1  UNL     1      -7.492  -1.121  -2.464  1.00  0.00     0.117 C 
HETATM   18  O1  UNL     1      -5.903   0.485  -1.873  1.00  0.00    -0.274 OA
ATOM     19  H1  UNL     1      -7.272  -1.522   0.206  1.00  0.00     0.162 HD
ENDBRANCH  14  15
ENDBRANCH  10  14
BRANCH  11  20
HETATM   20  N3  UNL     1      -4.980  -2.649   0.172  1.00  0.00    -0.070 N 
ATOM     21  H33 UNL     1      -5.730  -2.601   0.862  1.00  0.00     0.274 HD
ATOM     22  H32 UNL     1      -5.483  -2.326  -0.655  1.00  0.00     0.274 HD
ATOM     23  H31 UNL     1      -4.672  -3.613   0.047  1.00  0.00     0.274 HD
ENDBRANCH  11  20
ENDBRANCH   7   8
ENDBRANCH   1   7
BRANCH   2  24
HETATM   24  O4  UNL     1      -0.380   3.566   0.981  1.00  0.00    -0.390 OA
ATOM     25  H4  UNL     1      -0.434   4.406   0.540  1.00  0.00     0.210 HD
ENDBRANCH   2  24
BRANCH   6  26
HETATM   26  O8  UNL     1       0.388  -0.645  -0.374  1.00  0.00    -0.388 OA
ATOM     27  H8  UNL     1       1.187  -1.120  -0.571  1.00  0.00     0.210 HD
ENDBRANCH   6  26
BRANCH   3  28
HETATM   28  C9  UNL     1       0.838   4.069  -1.095  1.00  0.00     0.198 C 
BRANCH  28  29
HETATM   29  O5  UNL     1      -0.080   5.074  -0.803  1.00  0.00    -0.398 OA
ATOM     30  H5  UNL     1       0.339   5.927  -0.797  1.00  0.00     0.209 HD
ENDBRANCH  28  29
ENDBRANCH   3  28
BRANCH   5  31
HETATM   31  N2  UNL     1       2.784   0.395  -0.624  1.00  0.00    -0.332 N 
HETATM   32  C11 UNL     1       4.088   0.569  -0.097  1.00  0.00     0.223 C 
HETATM   33  O7  UNL     1       4.281   1.511   0.705  1.00  0.00    -0.273 OA
ATOM     34  H2  UNL     1       2.609  -0.368  -1.278  1.00  0.00     0.165 HD
BRANCH  32  35
HETATM   35  C12 UNL     1       5.227  -0.305  -0.449  1.00  0.00     0.078 C 
HETATM   36  C13 UNL     1       4.877  -1.728  -0.063  1.00  0.00     0.014 C 
HETATM   37  C14 UNL     1       6.039  -2.650  -0.267  1.00  0.00     0.001 C 
HETATM   38  C15 UNL     1       7.232  -1.953  -0.899  1.00  0.00     0.000 C 
HETATM   39  C16 UNL     1       7.634  -0.795  -0.025  1.00  0.00     0.001 C 
HETATM   40  C17 UNL     1       6.472   0.077   0.327  1.00  0.00     0.014 C 
ENDBRANCH  32  35
ENDBRANCH   5  31
TORSDOF 11
