REMARK  10 active torsions:
REMARK  status: ('A' for Active; 'I' for Inactive)
REMARK    1  A    between atoms: C2_2  and  C3_4 
REMARK    2  A    between atoms: C3_4  and  C4_5 
REMARK    3  A    between atoms: C4_5  and  C5_6 
REMARK    4  A    between atoms: C5_6  and  N1_7 
REMARK    5  A    between atoms: C11_18  and  C12_19 
REMARK    6  A    between atoms: C12_19  and  S3_27 
REMARK    7  A    between atoms: N2_20  and  N3_22 
REMARK    8  A    between atoms: S3_27  and  N6_30 
REMARK    9  A    between atoms: N6_30  and  C14_32 
REMARK   10  A    between atoms: N7_33  and  N8_35 
ROOT
HETATM    1  C5  UNL     1      -1.368  -0.221  -0.942  1.00  0.00     0.142 C 
HETATM    2  C6  UNL     1      -1.478   0.627  -2.212  1.00  0.00     0.114 C 
HETATM    3  S1  UNL     1      -1.203   2.356  -1.523  1.00  0.00    -0.150 SA
HETATM    4  C7  UNL     1      -1.957   1.845   0.061  1.00  0.00     0.119 C 
HETATM    5  S2  UNL     1      -1.813   2.941   1.441  1.00  0.00    -0.149 SA
HETATM    6  C8  UNL     1      -1.160   1.712   2.723  1.00  0.00     0.109 C 
HETATM    7  C9  UNL     1       0.172   1.436   2.024  1.00  0.00    -0.065 C 
HETATM    8  C10 UNL     1       1.294   2.083   2.728  1.00  0.00     0.045 C 
HETATM    9  C11 UNL     1       0.220   0.887   0.799  1.00  0.00    -0.005 C 
HETATM   10  C15 UNL     1      -1.116   0.554   0.228  1.00  0.00     0.082 C 
ENDROOT
BRANCH   9  11
HETATM   11  C12 UNL     1       1.517   0.659   0.238  1.00  0.00     0.171 C 
HETATM   12  N2  UNL     1       1.604   0.466  -1.097  1.00  0.00    -0.286 N 
ATOM     13  H2  UNL     1       0.748   0.487  -1.651  1.00  0.00     0.188 HD
BRANCH  12  14
HETATM   14  N3  UNL     1       2.806   0.241  -1.742  1.00  0.00    -0.275 N 
HETATM   15  C13 UNL     1       3.433   1.188  -2.354  1.00  0.00     0.215 C 
HETATM   16  N4  UNL     1       4.673   0.905  -3.006  1.00  0.00    -0.065 NA
HETATM   17  N5  UNL     1       2.864   2.492  -2.360  1.00  0.00    -0.065 NA
ATOM     18  H3  UNL     1       3.207  -0.697  -1.734  1.00  0.00     0.189 HD
ENDBRANCH  12  14
BRANCH  11  19
HETATM   19  S3  UNL     1       3.041   0.200   0.951  1.00  0.00     0.281 S 
HETATM   20  O2  UNL     1       2.952  -0.125   2.430  1.00  0.00    -0.199 OA
HETATM   21  O3  UNL     1       4.159   1.112   0.719  1.00  0.00    -0.199 OA
BRANCH  19  22
HETATM   22  N6  UNL     1       3.543  -1.378   0.242  1.00  0.00    -0.274 N 
ATOM     23  H6  UNL     1       4.396  -1.486  -0.307  1.00  0.00     0.179 HD
BRANCH  22  24
HETATM   24  C14 UNL     1       2.671  -2.449   0.503  1.00  0.00     0.207 C 
HETATM   25  N7  UNL     1       2.903  -3.195   1.553  1.00  0.00    -0.302 N 
ATOM     26  H7  UNL     1       2.284  -3.978   1.765  1.00  0.00     0.187 HD
BRANCH  25  27
HETATM   27  N8  UNL     1       3.984  -2.929   2.380  1.00  0.00    -0.344 N 
ATOM     28  H82 UNL     1       4.593  -2.143   2.154  1.00  0.00     0.176 HD
ATOM     29  H81 UNL     1       4.165  -3.510   3.198  1.00  0.00     0.176 HD
ENDBRANCH  25  27
ENDBRANCH  22  24
ENDBRANCH  19  22
ENDBRANCH  11  19
ENDBRANCH   9  11
BRANCH   1  30
HETATM   30  C4  UNL     1      -2.582  -1.143  -0.773  1.00  0.00     0.047 C 
BRANCH  30  31
HETATM   31  C3  UNL     1      -3.875  -0.686  -0.362  1.00  0.00     0.080 C 
BRANCH  31  32
HETATM   32  C2  UNL     1      -4.809  -1.898  -0.345  1.00  0.00     0.123 C 
HETATM   33  C1  UNL     1      -6.221  -1.752   0.039  1.00  0.00     0.091 C 
HETATM   34  O1  UNL     1      -4.383  -2.986  -0.651  1.00  0.00    -0.298 OA
ENDBRANCH  31  32
ENDBRANCH  30  31
ENDBRANCH   1  30
BRANCH   1  35
HETATM   35  N1  UNL     1      -0.383  -1.240  -1.355  1.00  0.00    -0.069 N 
ATOM     36  H13 UNL     1      -0.265  -2.039  -0.732  1.00  0.00     0.275 HD
ATOM     37  H12 UNL     1      -0.633  -1.816  -2.159  1.00  0.00     0.275 HD
ATOM     38  H11 UNL     1       0.424  -0.627  -1.467  1.00  0.00     0.275 HD
ENDBRANCH   1  35
TORSDOF 10
