REMARK  15 active torsions:
REMARK  status: ('A' for Active; 'I' for Inactive)
REMARK    1  A    between atoms: N1_2  and  C2_4 
REMARK    2  A    between atoms: N3_9  and  C4_10 
REMARK    3  A    between atoms: C4_10  and  C9_22 
REMARK    4  A    between atoms: N4_11  and  O2_13 
REMARK    5  A    between atoms: O2_13  and  C5_14 
REMARK    6  A    between atoms: C5_14  and  C8_17 
REMARK    7  A    between atoms: C8_17  and  O3_18 
REMARK    8  A    between atoms: C8_17  and  O4_20 
REMARK       I    between atoms: C9_22  and  N5_24 
REMARK    9  A    between atoms: C12_30  and  C13_31 
REMARK   10  A    between atoms: C14_34  and  C15_35 
REMARK   11  A    between atoms: C15_35  and  O9_36 
REMARK   12  A    between atoms: O9_36  and  C16_37 
REMARK   13  A    between atoms: C19_41  and  O11_42 
REMARK   14  A    between atoms: C21_44  and  O12_45 
REMARK   15  A    between atoms: N7_47  and  O13_48 
ROOT
HETATM    1  C9  UNL     1      -4.152   0.873   0.654  1.00  0.00     0.293 C 
HETATM    2  O5  UNL     1      -4.155   2.107   0.427  1.00  0.00    -0.264 OA
HETATM    3  N5  UNL     1      -3.255   0.309   1.620  1.00  0.00    -0.317 N 
ATOM      4  H5  UNL     1      -3.580  -0.475   2.186  1.00  0.00     0.169 HD
HETATM    5  C10 UNL     1      -2.078   0.739   1.803  1.00  0.00     0.115 C 
HETATM    6  C11 UNL     1      -1.242   1.793   1.240  1.00  0.00     0.275 C 
HETATM    7  O6  UNL     1      -1.384   2.863   0.594  1.00  0.00    -0.266 OA
HETATM    8  N6  UNL     1      -0.112   1.050   1.766  1.00  0.00    -0.286 N 
HETATM    9  C12 UNL     1       1.315   0.829   1.657  1.00  0.00     0.125 C 
HETATM   10  C14 UNL     1       1.787  -0.389   1.451  1.00  0.00     0.007 C 
HETATM   11  C23 UNL     1       0.692  -1.498   1.278  1.00  0.00     0.119 C 
HETATM   12  S1  UNL     1      -0.476  -1.390   2.657  1.00  0.00    -0.132 SA
HETATM   13  C24 UNL     1      -0.962   0.333   2.731  1.00  0.00     0.211 C 
ENDROOT
BRANCH   1  14
HETATM   14  C4  UNL     1      -5.072   0.017  -0.077  1.00  0.00     0.221 C 
HETATM   15  N4  UNL     1      -5.867   0.547  -0.942  1.00  0.00    -0.243 N 
ATOM     16  H4  UNL     1      -6.510  -0.062  -1.449  1.00  0.00     0.196 HD
BRANCH  14  17
HETATM   17  N3  UNL     1      -5.117  -1.377   0.139  1.00  0.00    -0.167 N 
HETATM   18  C3  UNL     1      -5.349  -2.038   1.283  1.00  0.00     0.362 A 
HETATM   19  N2  UNL     1      -5.303  -3.356   1.050  1.00  0.00    -0.138 N 
HETATM   20  O1  UNL     1      -5.571  -1.473   2.386  1.00  0.00    -0.244 OA
HETATM   21  C2  UNL     1      -5.041  -3.535  -0.247  1.00  0.00     0.697 A 
ATOM     22  H2  UNL     1      -5.443  -4.093   1.741  1.00  0.00     0.189 HD
HETATM   23  N8  UNL     1      -4.931  -2.309  -0.787  1.00  0.00    -0.119 N 
ATOM     24  H8  UNL     1      -4.733  -2.122  -1.770  1.00  0.00     0.206 HD
BRANCH  21  25
HETATM   25  N1  UNL     1      -4.900  -4.760  -0.954  1.00  0.00    -0.229 N 
HETATM   26  C1  UNL     1      -5.046  -6.003  -0.237  1.00  0.00     0.165 C 
ATOM     27  H1  UNL     1      -4.698  -4.760  -1.954  1.00  0.00     0.177 HD
ENDBRANCH  21  25
ENDBRANCH  14  17
BRANCH  15  28
HETATM   28  O2  UNL     1      -5.889   1.891  -1.212  1.00  0.00    -0.263 OA
BRANCH  28  29
HETATM   29  C5  UNL     1      -7.047   2.652  -1.432  1.00  0.00     0.131 C 
HETATM   30  C6  UNL     1      -7.834   2.139  -2.623  1.00  0.00     0.053 C 
HETATM   31  C7  UNL     1      -6.656   4.076  -1.701  1.00  0.00     0.053 C 
BRANCH  29  32
HETATM   32  C8  UNL     1      -7.995   2.582  -0.230  1.00  0.00     0.290 C 
BRANCH  32  33
HETATM   33  O3  UNL     1      -7.400   3.062   0.924  1.00  0.00    -0.368 OA
ATOM     34  H3  UNL     1      -7.988   3.019   1.669  1.00  0.00     0.212 HD
ENDBRANCH  32  33
BRANCH  32  35
HETATM   35  O4  UNL     1      -8.531   1.316  -0.091  1.00  0.00    -0.368 OA
ATOM     36  H4  UNL     1      -9.119   1.273   0.654  1.00  0.00     0.212 HD
ENDBRANCH  32  35
ENDBRANCH  29  32
ENDBRANCH  28  29
ENDBRANCH  15  28
ENDBRANCH   1  14
BRANCH   9  37
HETATM   37  C13 UNL     1       2.152   1.970   1.981  1.00  0.00     0.227 C 
HETATM   38  O7  UNL     1       3.342   1.959   2.213  1.00  0.00    -0.643 OA
HETATM   39  O8  UNL     1       1.548   3.246   2.033  1.00  0.00    -0.643 OA
ENDBRANCH   9  37
BRANCH  10  40
HETATM   40  C15 UNL     1       3.089  -0.892   1.290  1.00  0.00     0.149 C 
BRANCH  40  41
HETATM   41  O9  UNL     1       4.327  -0.444   1.225  1.00  0.00    -0.316 OA
BRANCH  41  42
HETATM   42  C16 UNL     1       4.739  -0.023  -0.059  1.00  0.00     0.375 C 
HETATM   43  O10 UNL     1       5.304   1.181  -0.085  1.00  0.00    -0.339 OA
HETATM   44  C17 UNL     1       6.607   1.334   0.281  1.00  0.00     0.154 C 
HETATM   45  C18 UNL     1       6.885   1.259   1.752  1.00  0.00     0.042 C 
HETATM   46  C19 UNL     1       7.484   0.379  -0.512  1.00  0.00     0.195 C 
HETATM   47  C21 UNL     1       6.953  -1.006  -0.200  1.00  0.00     0.256 C 
HETATM   48  N7  UNL     1       5.595  -1.081  -0.639  1.00  0.00    -0.114 NA
BRANCH  46  49
HETATM   49  O11 UNL     1       8.814   0.522  -0.201  1.00  0.00    -0.384 OA
HETATM   50  C20 UNL     1       9.520   0.906  -1.346  1.00  0.00     0.202 C 
ENDBRANCH  46  49
BRANCH  47  51
HETATM   51  O12 UNL     1       7.690  -1.896  -0.973  1.00  0.00    -0.371 OA
HETATM   52  C22 UNL     1       8.321  -2.791  -0.121  1.00  0.00     0.204 C 
ENDBRANCH  47  51
BRANCH  48  53
HETATM   53  O13 UNL     1       5.448  -1.121  -1.962  1.00  0.00    -0.306 OA
ATOM     54  H13 UNL     1       5.998  -1.800  -2.334  1.00  0.00     0.237 HD
ENDBRANCH  48  53
ENDBRANCH  41  42
ENDBRANCH  40  41
ENDBRANCH  10  40
TORSDOF 15
