REMARK  16 active torsions:
REMARK  status: ('A' for Active; 'I' for Inactive)
REMARK    1  A    between atoms: C2_2  and  O2_4 
REMARK    2  A    between atoms: O2_4  and  C3_5 
REMARK    3  A    between atoms: C4_8  and  C5_9 
REMARK    4  A    between atoms: C5_9  and  S3_10 
REMARK    5  A    between atoms: S3_10  and  C6_13 
REMARK    6  A    between atoms: C6_13  and  C7_14 
REMARK    7  A    between atoms: C6_13  and  C8_17 
REMARK    8  A    between atoms: C8_17  and  O7_18 
REMARK    9  A    between atoms: C8_17  and  O8_20 
REMARK   10  A    between atoms: C9_22  and  C10_23 
REMARK   11  A    between atoms: C12_29  and  N2_30 
REMARK       I    between atoms: N2_30  and  C13_32 
REMARK   12  A    between atoms: C13_32  and  C14_34 
REMARK   13  A    between atoms: C14_34  and  C15_35 
REMARK   14  A    between atoms: C16_36  and  O13_37 
REMARK   15  A    between atoms: N5_43  and  C17_44 
REMARK   16  A    between atoms: C21_48  and  O14_49 
ROOT
HETATM    1  C3  UNL     1      -0.594  -1.303  -0.873  1.00  0.00     0.242 C 
HETATM    2  S1  UNL     1      -1.451  -1.571  -2.492  1.00  0.00    -0.028 SA
HETATM    3  S2  UNL     1      -3.461  -1.144  -1.986  1.00  0.00    -0.054 SA
HETATM    4  C4  UNL     1      -3.377  -0.082  -0.504  1.00  0.00     0.037 C 
HETATM    5  C9  UNL     1      -2.272   0.393   0.016  1.00  0.00     0.132 C 
HETATM    6  N1  UNL     1      -0.959   0.068  -0.521  1.00  0.00    -0.263 N 
HETATM    7  C11 UNL     1       0.121   0.933  -0.787  1.00  0.00     0.253 C 
HETATM    8  O11 UNL     1       0.087   2.212  -0.812  1.00  0.00    -0.270 OA
HETATM    9  C12 UNL     1       1.352   0.171  -1.048  1.00  0.00     0.211 C 
HETATM   10  C21 UNL     1       0.859  -1.269  -1.027  1.00  0.00     0.219 C 
ENDROOT
BRANCH   9  11
HETATM   11  N2  UNL     1       2.361   0.386  -0.035  1.00  0.00    -0.345 N 
HETATM   12  C13 UNL     1       3.728   0.462  -0.350  1.00  0.00     0.224 C 
HETATM   13  O12 UNL     1       4.064   0.325  -1.537  1.00  0.00    -0.273 OA
ATOM     14  H2  UNL     1       2.072   0.486   0.938  1.00  0.00     0.163 HD
BRANCH  12  15
HETATM   15  C14 UNL     1       4.782   0.698   0.690  1.00  0.00     0.166 C 
BRANCH  15  16
HETATM   16  C15 UNL     1       5.574  -0.499   0.997  1.00  0.00     0.091 A 
HETATM   17  C16 UNL     1       4.997  -1.536   1.746  1.00  0.00     0.181 A 
HETATM   18  N3  UNL     1       5.940  -2.474   1.883  1.00  0.00    -0.264 N 
HETATM   19  N4  UNL     1       7.002  -2.050   1.271  1.00  0.00    -0.238 N 
ATOM     20  H3  UNL     1       5.842  -3.360   2.378  1.00  0.00     0.190 HD
HETATM   21  N5  UNL     1       6.813  -0.830   0.711  1.00  0.00    -0.273 N 
ATOM     22  H4  UNL     1       7.876  -2.573   1.217  1.00  0.00     0.208 HD
BRANCH  17  23
HETATM   23  O13 UNL     1       3.691  -1.588   2.255  1.00  0.00    -0.344 OA
ATOM     24  H13 UNL     1       3.300  -2.290   2.762  1.00  0.00     0.219 HD
ENDBRANCH  17  23
BRANCH  21  25
HETATM   25  C17 UNL     1       7.834  -0.139  -0.003  1.00  0.00     0.109 A 
HETATM   26  C18 UNL     1       7.717   0.078  -1.467  1.00  0.00     0.027 A 
HETATM   27  C19 UNL     1       8.009   1.553  -1.221  1.00  0.00     0.004 A 
HETATM   28  C20 UNL     1       8.144   1.279   0.276  1.00  0.00     0.027 A 
ENDBRANCH  21  25
ENDBRANCH  15  16
ENDBRANCH  12  15
ENDBRANCH   9  11
BRANCH  10  29
HETATM   29  O14 UNL     1       1.317  -1.951  -2.168  1.00  0.00    -0.387 OA
ATOM     30  H14 UNL     1       2.261  -1.929  -2.268  1.00  0.00     0.210 HD
ENDBRANCH  10  29
BRANCH   1  31
HETATM   31  O2  UNL     1      -1.110  -2.278  -0.029  1.00  0.00    -0.275 OA
BRANCH  31  32
HETATM   32  C2  UNL     1      -0.799  -2.483   1.292  1.00  0.00     0.257 C 
HETATM   33  C1  UNL     1      -1.502  -3.619   1.970  1.00  0.00     0.126 C 
HETATM   34  O1  UNL     1       0.031  -1.734   1.848  1.00  0.00    -0.266 OA
ENDBRANCH  31  32
ENDBRANCH   1  31
BRANCH   5  35
HETATM   35  C10 UNL     1      -2.266   1.257   1.201  1.00  0.00     0.228 C 
HETATM   36  O9  UNL     1      -1.130   1.660   1.651  1.00  0.00    -0.643 OA
HETATM   37  O10 UNL     1      -3.324   1.713   1.920  1.00  0.00    -0.643 OA
ENDBRANCH   5  35
BRANCH   4  38
HETATM   38  C5  UNL     1      -4.704   0.124   0.133  1.00  0.00     0.190 C 
BRANCH  38  39
HETATM   39  S3  UNL     1      -5.792   1.089  -0.897  1.00  0.00     0.167 S 
HETATM   40  O3  UNL     1      -6.019   0.472  -2.230  1.00  0.00    -0.226 OA
HETATM   41  O4  UNL     1      -5.249   2.476  -1.047  1.00  0.00    -0.226 OA
BRANCH  39  42
HETATM   42  C6  UNL     1      -7.330   1.232   0.016  1.00  0.00     0.263 C 
BRANCH  42  43
HETATM   43  C7  UNL     1      -8.008  -0.068   0.182  1.00  0.00     0.197 C 
HETATM   44  O5  UNL     1      -8.209  -0.498   1.371  1.00  0.00    -0.647 OA
HETATM   45  O6  UNL     1      -8.415  -0.799  -0.912  1.00  0.00    -0.647 OA
ENDBRANCH  42  43
BRANCH  42  46
HETATM   46  C8  UNL     1      -8.281   2.138  -0.777  1.00  0.00     0.282 C 
BRANCH  46  47
HETATM   47  O7  UNL     1      -8.536   1.613  -2.020  1.00  0.00    -0.370 OA
ATOM     48  H7  UNL     1      -9.125   2.174  -2.511  1.00  0.00     0.212 HD
ENDBRANCH  46  47
BRANCH  46  49
HETATM   49  O8  UNL     1      -7.736   3.400  -0.768  1.00  0.00    -0.370 OA
ATOM     50  H8  UNL     1      -8.325   3.961  -1.259  1.00  0.00     0.212 HD
ENDBRANCH  46  49
ENDBRANCH  42  46
ENDBRANCH  39  42
ENDBRANCH  38  39
ENDBRANCH   4  38
TORSDOF 16
