REMARK  4 active torsions:
REMARK  status: ('A' for Active; 'I' for Inactive)
REMARK    1  A    between atoms: C2_2  and  N1_3 
REMARK       I    between atoms: N1_3  and  C3_5 
REMARK       I    between atoms: C3_5  and  N5_21 
REMARK       I    between atoms: N2_6  and  C4_8 
REMARK       I    between atoms: C4_8  and  N4_18 
REMARK    2  A    between atoms: N3_9  and  C5_11 
REMARK    3  A    between atoms: C5_11  and  C6_12 
REMARK    4  A    between atoms: C8_14  and  O1_16 
ROOT
HETATM    1  N1  UNL     1      -2.442  -2.273   0.332  1.00  0.00    -0.226 N 
ATOM      2  H1  UNL     1      -3.415  -2.052   0.544  1.00  0.00     0.177 HD
HETATM    3  C3  UNL     1      -1.472  -1.216   0.295  1.00  0.00     0.690 C 
HETATM    4  N2  UNL     1      -0.286  -1.517   0.638  1.00  0.00    -0.023 N 
ATOM      5  H2  UNL     1      -0.102  -2.481   0.915  1.00  0.00     0.203 HD
HETATM    6  C4  UNL     1       0.809  -0.595   0.662  1.00  0.00     0.692 C 
HETATM    7  N3  UNL     1       1.754  -0.834  -0.153  1.00  0.00    -0.193 N 
ATOM      8  H3  UNL     1       1.654  -1.655  -0.751  1.00  0.00     0.184 HD
HETATM    9  N4  UNL     1       0.719   0.462   1.585  1.00  0.00    -0.230 N 
ATOM     10  H4  UNL     1       0.466   0.224   2.544  1.00  0.00     0.177 HD
HETATM   11  C10 UNL     1       0.953   1.849   1.290  1.00  0.00     0.165 C 
HETATM   12  N5  UNL     1      -1.932   0.051  -0.117  1.00  0.00    -0.217 N 
HETATM   13  C11 UNL     1      -2.758   0.798   0.771  1.00  0.00     0.141 C 
HETATM   14  C12 UNL     1      -2.886   2.248   0.444  1.00  0.00     0.020 C 
HETATM   15  C13 UNL     1      -2.875   2.618  -0.982  1.00  0.00     0.003 C 
HETATM   16  C14 UNL     1      -2.416   1.606  -1.957  1.00  0.00     0.020 C 
HETATM   17  C15 UNL     1      -1.550   0.522  -1.406  1.00  0.00     0.141 C 
ENDROOT
BRANCH   1  18
HETATM   18  C2  UNL     1      -2.063  -3.653   0.073  1.00  0.00     0.133 C 
HETATM   19  C1  UNL     1      -3.248  -4.570   0.170  1.00  0.00     0.027 C 
ENDBRANCH   1  18
BRANCH   7  20
HETATM   20  C5  UNL     1       2.944  -0.058  -0.309  1.00  0.00     0.054 C 
HETATM   21  C8  UNL     1       3.897  -0.168   0.575  1.00  0.00     0.062 C 
HETATM   22  C9  UNL     1       3.724  -1.112   1.742  1.00  0.00     0.078 C 
BRANCH  20  23
HETATM   23  C6  UNL     1       3.010   0.816  -1.475  1.00  0.00     0.056 C 
HETATM   24  C7  UNL     1       4.244   1.633  -1.646  1.00  0.00     0.011 C 
ENDBRANCH  20  23
BRANCH  21  25
HETATM   25  O1  UNL     1       5.104   0.507   0.573  1.00  0.00    -0.363 OA
ATOM     26  H1  UNL     1       5.798   0.427   1.217  1.00  0.00     0.217 HD
ENDBRANCH  21  25
ENDBRANCH   7  20
TORSDOF 4
