REMARK  6 active torsions:
REMARK  status: ('A' for Active; 'I' for Inactive)
REMARK    1  A    between atoms: C2_2  and  C3_3 
REMARK    2  A    between atoms: C7_7  and  N1_8 
REMARK       I    between atoms: N1_8  and  C8_10 
REMARK    3  A    between atoms: N3_12  and  C9_14 
REMARK    4  A    between atoms: N4_16  and  C11_18 
REMARK    5  A    between atoms: C11_18  and  N5_20 
REMARK    6  A    between atoms: N5_20  and  C12_22 
ROOT
HETATM    1  N1  UNL     1      -1.186   0.505   1.379  1.00  0.00    -0.360 N 
ATOM      2  H1  UNL     1      -1.368   1.223   2.080  1.00  0.00     0.162 HD
HETATM    3  C8  UNL     1       0.136   0.340   0.916  1.00  0.00     0.189 C 
HETATM    4  N2  UNL     1       0.760   1.422   0.248  1.00  0.00    -0.063 NA
HETATM    5  N3  UNL     1       0.738  -0.758   1.102  1.00  0.00    -0.321 N 
ATOM      6  H3  UNL     1       0.225  -1.491   1.591  1.00  0.00     0.169 HD
ENDROOT
BRANCH   1   7
HETATM    7  C7  UNL     1      -2.298  -0.296   0.907  1.00  0.00     0.084 C 
HETATM    8  C6  UNL     1      -3.526   0.164   1.633  1.00  0.00     0.025 C 
HETATM    9  C5  UNL     1      -4.793  -0.467   1.143  1.00  0.00     0.003 C 
HETATM   10  C4  UNL     1      -4.831  -0.753  -0.304  1.00  0.00     0.009 C 
HETATM   11  C3  UNL     1      -3.759  -0.150  -1.143  1.00  0.00     0.009 C 
HETATM   12  C14 UNL     1      -2.385  -0.180  -0.580  1.00  0.00     0.033 C 
BRANCH  11  13
HETATM   13  C2  UNL     1      -4.093   1.227  -1.647  1.00  0.00    -0.032 C 
HETATM   14  C1  UNL     1      -5.080   1.956  -1.216  1.00  0.00     0.007 C 
ENDBRANCH  11  13
ENDBRANCH   1   7
BRANCH   5  15
HETATM   15  C9  UNL     1       2.054  -1.059   0.694  1.00  0.00     0.081 C 
HETATM   16  C10 UNL     1       2.683  -2.305   1.171  1.00  0.00     0.089 C 
HETATM   17  N4  UNL     1       2.684  -0.273  -0.067  1.00  0.00    -0.323 N 
ATOM     18  H4  UNL     1       2.193   0.571  -0.362  1.00  0.00     0.169 HD
BRANCH  17  19
HETATM   19  C11 UNL     1       3.989  -0.443  -0.548  1.00  0.00     0.172 C 
HETATM   20  S1  UNL     1       4.351  -1.309  -1.880  1.00  0.00    -0.041 SA
BRANCH  19  21
HETATM   21  N5  UNL     1       5.068   0.166   0.155  1.00  0.00    -0.367 N 
ATOM     22  H5  UNL     1       4.860   0.711   0.992  1.00  0.00     0.161 HD
BRANCH  21  23
HETATM   23  C12 UNL     1       6.437   0.045  -0.266  1.00  0.00     0.117 C 
HETATM   24  C13 UNL     1       6.752   0.763  -1.554  1.00  0.00     0.026 C 
ENDBRANCH  21  23
ENDBRANCH  19  21
ENDBRANCH  17  19
ENDBRANCH   5  15
TORSDOF 6
