REMARK  4 active torsions:
REMARK  status: ('A' for Active; 'I' for Inactive)
REMARK    1  A    between atoms: C2_2  and  N7_24 
REMARK       I    between atoms: N1_3  and  C3_5 
REMARK       I    between atoms: C3_5  and  N3_9 
REMARK       I    between atoms: C4_11  and  N5_13 
REMARK    2  A    between atoms: N5_13  and  C5_15 
REMARK    3  A    between atoms: C5_15  and  C6_16 
REMARK    4  A    between atoms: C6_16  and  N6_17 
ROOT
HETATM    1  C1  UNL     1       4.131  -2.095   0.720  1.00  0.00     0.089 C 
HETATM    2  C2  UNL     1       4.086  -0.782   0.064  1.00  0.00     0.091 C 
HETATM    3  N1  UNL     1       3.312  -0.619  -0.963  1.00  0.00    -0.181 N 
ATOM      4  H1  UNL     1       3.290   0.299  -1.408  1.00  0.00     0.185 HD
HETATM    5  C3  UNL     1       2.508  -1.625  -1.494  1.00  0.00     0.679 C 
HETATM    6  N2  UNL     1       2.824  -2.197  -2.599  1.00  0.00    -0.234 N 
ATOM      7  H21 UNL     1       2.235  -2.934  -2.988  1.00  0.00     0.174 HD
ATOM      8  H22 UNL     1       3.675  -1.902  -3.078  1.00  0.00     0.174 HD
HETATM    9  N3  UNL     1       1.327  -2.034  -0.829  1.00  0.00    -0.164 N 
ATOM     10  H3  UNL     1       1.085  -3.024  -0.858  1.00  0.00     0.187 HD
HETATM   11  C4  UNL     1       0.532  -1.238  -0.186  1.00  0.00     0.202 C 
HETATM   12  N4  UNL     1       0.865   0.135  -0.146  1.00  0.00    -0.063 NA
HETATM   13  N5  UNL     1      -0.618  -1.736   0.463  1.00  0.00    -0.362 N 
ATOM     14  H5  UNL     1      -0.483  -2.316   1.291  1.00  0.00     0.162 HD
ENDROOT
BRANCH  13  15
HETATM   15  C5  UNL     1      -1.953  -1.483   0.040  1.00  0.00     0.150 C 
BRANCH  15  16
HETATM   16  C6  UNL     1      -2.323  -0.049   0.253  1.00  0.00     0.256 C 
BRANCH  16  17
HETATM   17  N6  UNL     1      -3.688   0.270  -0.128  1.00  0.00    -0.069 N 
HETATM   18  C7  UNL     1      -3.719   0.937  -1.406  1.00  0.00     0.272 C 
HETATM   19  C8  UNL     1      -4.482  -0.924  -0.092  1.00  0.00     0.237 C 
HETATM   20  C9  UNL     1      -5.897  -0.637  -0.553  1.00  0.00     0.028 C 
HETATM   21  C10 UNL     1      -6.564   0.415   0.280  1.00  0.00     0.003 C 
HETATM   22  C11 UNL     1      -5.656   1.538   0.675  1.00  0.00     0.028 C 
HETATM   23  C12 UNL     1      -4.232   1.164   0.893  1.00  0.00     0.237 C 
ENDBRANCH  16  17
ENDBRANCH  15  16
ENDBRANCH  13  15
BRANCH   2  24
HETATM   24  N7  UNL     1       4.860   0.318   0.517  1.00  0.00    -0.371 N 
HETATM   25  C13 UNL     1       6.088   0.240   1.277  1.00  0.00     0.124 C 
HETATM   26  C14 UNL     1       6.901   1.456   0.858  1.00  0.00     0.021 C 
HETATM   27  C15 UNL     1       6.003   2.185  -0.136  1.00  0.00     0.021 C 
HETATM   28  C16 UNL     1       4.622   1.735   0.336  1.00  0.00     0.124 C 
ENDBRANCH   2  24
TORSDOF 4
