REMARK  5 active torsions:
REMARK  status: ('A' for Active; 'I' for Inactive)
REMARK    1  A    between atoms: C2_2  and  C3_3 
REMARK    2  A    between atoms: C3_3  and  N1_4 
REMARK       I    between atoms: C4_6  and  N3_8 
REMARK       I    between atoms: N3_8  and  C5_10 
REMARK       I    between atoms: C5_10  and  N5_14 
REMARK    3  A    between atoms: N5_14  and  C7_16 
REMARK    4  A    between atoms: C7_16  and  C8_17 
REMARK    5  A    between atoms: C8_17  and  N6_18 
ROOT
HETATM    1  N1  UNL     1       4.802  -1.353  -0.353  1.00  0.00    -0.364 N 
ATOM      2  H1  UNL     1       5.400  -2.025  -0.833  1.00  0.00     0.162 HD
HETATM    3  C4  UNL     1       3.622  -1.147  -0.828  1.00  0.00     0.202 C 
HETATM    4  N2  UNL     1       3.249  -1.877  -1.988  1.00  0.00    -0.063 NA
HETATM    5  N3  UNL     1       2.764  -0.214  -0.181  1.00  0.00    -0.164 N 
ATOM      6  H3  UNL     1       2.821  -0.129   0.834  1.00  0.00     0.187 HD
HETATM    7  C5  UNL     1       1.841   0.598  -0.868  1.00  0.00     0.675 C 
HETATM    8  N4  UNL     1       2.218   1.585  -1.607  1.00  0.00    -0.231 N 
ATOM      9  H4  UNL     1       1.512   2.144  -2.085  1.00  0.00     0.177 HD
HETATM   10  C6  UNL     1       3.625   1.924  -1.778  1.00  0.00     0.165 C 
HETATM   11  N5  UNL     1       0.429   0.372  -0.785  1.00  0.00    -0.225 N 
ATOM     12  H5  UNL     1      -0.240   1.068  -1.115  1.00  0.00     0.177 HD
ENDROOT
BRANCH  11  13
HETATM   13  C7  UNL     1      -0.011  -0.885  -0.213  1.00  0.00     0.166 C 
BRANCH  13  14
HETATM   14  C8  UNL     1      -1.503  -1.011  -0.172  1.00  0.00     0.257 C 
BRANCH  14  15
HETATM   15  N6  UNL     1      -2.177  -0.018   0.592  1.00  0.00    -0.066 N 
HETATM   16  C9  UNL     1      -1.359   0.642   1.587  1.00  0.00     0.272 C 
HETATM   17  C10 UNL     1      -3.222  -0.723   1.355  1.00  0.00     0.265 C 
HETATM   18  C11 UNL     1      -4.347  -0.997   0.379  1.00  0.00     0.264 C 
HETATM   19  N7  UNL     1      -5.140   0.221   0.313  1.00  0.00    -0.071 N 
HETATM   20  C12 UNL     1      -5.997   0.199  -0.855  1.00  0.00     0.272 C 
HETATM   21  C13 UNL     1      -6.015   0.215   1.494  1.00  0.00     0.272 C 
HETATM   22  C14 UNL     1      -4.231   1.328   0.330  1.00  0.00     0.264 C 
HETATM   23  C15 UNL     1      -2.848   0.982  -0.187  1.00  0.00     0.265 C 
ENDBRANCH  14  15
ENDBRANCH  13  14
ENDBRANCH  11  13
BRANCH   1  24
HETATM   24  C3  UNL     1       5.325  -0.698   0.805  1.00  0.00     0.122 C 
BRANCH  24  25
HETATM   25  C2  UNL     1       6.810  -0.432   0.532  1.00  0.00     0.015 C 
HETATM   26  C1  UNL     1       7.468   0.263   1.700  1.00  0.00     0.006 C 
ENDBRANCH  24  25
ENDBRANCH   1  24
TORSDOF 5
