REMARK  2 active torsions:
REMARK  status: ('A' for Active; 'I' for Inactive)
REMARK    1  A    between atoms: C6_8  and  N2_9 
REMARK    2  A    between atoms: N2_9  and  C7_12 
ROOT
HETATM    1  C1  UNL     1      -3.157  -1.166  -0.180  1.00  0.00     0.039 C 
HETATM    2  C2  UNL     1      -3.727   0.190  -0.184  1.00  0.00     0.122 C 
HETATM    3  N1  UNL     1      -2.833   1.287   0.042  1.00  0.00    -0.380 N 
ATOM      4  H1  UNL     1      -3.242   2.221   0.067  1.00  0.00     0.160 HD
HETATM    5  C3  UNL     1      -1.579   1.201   0.214  1.00  0.00     0.076 C 
HETATM    6  C4  UNL     1      -0.534   2.228   0.450  1.00  0.00     0.080 C 
HETATM    7  C5  UNL     1       0.669   1.439  -0.186  1.00  0.00     0.062 C 
HETATM    8  C6  UNL     1       0.431   0.143   0.519  1.00  0.00     0.288 C 
HETATM    9  N3  UNL     1      -0.979  -0.086   0.181  1.00  0.00    -0.343 N 
HETATM   10  C10 UNL     1      -1.671  -1.283  -0.132  1.00  0.00     0.128 C 
ENDROOT
BRANCH   8  11
HETATM   11  N2  UNL     1       1.237  -0.965   0.226  1.00  0.00    -0.050 N 
ATOM     12  H22 UNL     1       0.898  -1.800   0.704  1.00  0.00     0.280 HD
ATOM     13  H21 UNL     1       1.110  -1.265  -0.741  1.00  0.00     0.280 HD
BRANCH  11  14
HETATM   14  C7  UNL     1       2.621  -0.734   0.514  1.00  0.00     0.188 A 
HETATM   15  C8  UNL     1       3.380   0.253  -0.355  1.00  0.00     0.035 A 
HETATM   16  C9  UNL     1       3.752  -1.247  -0.256  1.00  0.00     0.035 A 
ENDBRANCH  11  14
ENDBRANCH   8  11
TORSDOF 2
