REMARK  7 active torsions:
REMARK  status: ('A' for Active; 'I' for Inactive)
REMARK    1  A    between atoms: N1_2  and  C4_5 
REMARK    2  A    between atoms: C4_5  and  C5_6 
REMARK    3  A    between atoms: C6_7  and  O1_8 
REMARK    4  A    between atoms: C7_10  and  N2_11 
REMARK    5  A    between atoms: C8_15  and  O2_16 
REMARK    6  A    between atoms: C9_18  and  C10_19 
REMARK    7  A    between atoms: C10_19  and  N3_20 
ROOT
HETATM    1  C5  UNL     1      -2.493  -0.129   1.313  1.00  0.00     0.057 C 
HETATM    2  C6  UNL     1      -2.727  -1.286   0.384  1.00  0.00     0.158 C 
HETATM    3  C7  UNL     1      -1.809  -1.320  -0.808  1.00  0.00     0.241 C 
HETATM    4  C8  UNL     1      -0.354  -1.282  -0.389  1.00  0.00     0.158 C 
HETATM    5  C9  UNL     1      -0.066  -0.217   0.610  1.00  0.00     0.057 C 
HETATM    6  C18 UNL     1      -1.055  -0.260   1.783  1.00  0.00     0.074 C 
HETATM    7 BR1  UNL     1      -0.556   1.094   3.033  1.00  0.00    -0.090 Br
ENDROOT
BRANCH   5   8
HETATM    8  C10 UNL     1       1.279  -0.333   1.200  1.00  0.00     0.245 C 
BRANCH   8   9
HETATM    9  N3  UNL     1       2.428  -0.255   0.388  1.00  0.00    -0.062 N 
HETATM   10  C11 UNL     1       2.433   0.766  -0.619  1.00  0.00     0.265 C 
HETATM   11  C12 UNL     1       3.647   0.506  -1.523  1.00  0.00     0.265 C 
HETATM   12  N4  UNL     1       4.729  -0.055  -0.735  1.00  0.00    -0.066 N 
HETATM   13  C13 UNL     1       5.991   0.163  -1.364  1.00  0.00     0.272 C 
HETATM   14  C14 UNL     1       4.418  -1.420  -0.438  1.00  0.00     0.265 C 
HETATM   15  C16 UNL     1       4.714   0.668   0.533  1.00  0.00     0.265 C 
HETATM   16  C15 UNL     1       2.905  -1.512  -0.164  1.00  0.00     0.265 C 
HETATM   17  C17 UNL     1       3.530   0.141   1.312  1.00  0.00     0.265 C 
ENDBRANCH   8   9
ENDBRANCH   5   8
BRANCH   4  18
HETATM   18  O2  UNL     1      -0.040  -2.573   0.051  1.00  0.00    -0.393 OA
ATOM     19  H2  UNL     1       0.873  -2.549   0.314  1.00  0.00     0.210 HD
ENDBRANCH   4  18
BRANCH   3  20
HETATM   20  N2  UNL     1      -2.028  -2.625  -1.454  1.00  0.00    -0.070 N 
ATOM     21  H23 UNL     1      -1.904  -3.417  -0.823  1.00  0.00     0.274 HD
ATOM     22  H22 UNL     1      -3.005  -2.804  -1.688  1.00  0.00     0.274 HD
ATOM     23  H21 UNL     1      -1.406  -2.648  -2.262  1.00  0.00     0.274 HD
ENDBRANCH   3  20
BRANCH   1  24
HETATM   24  C4  UNL     1      -2.831   1.211   0.836  1.00  0.00     0.244 C 
BRANCH  24  25
HETATM   25  N1  UNL     1      -4.136   1.576   0.469  1.00  0.00    -0.078 N 
HETATM   26  C1  UNL     1      -4.444   1.423  -0.953  1.00  0.00     0.271 C 
HETATM   27  C2  UNL     1      -5.230   1.021   1.186  1.00  0.00     0.271 C 
HETATM   28  C3  UNL     1      -4.203   3.051   0.685  1.00  0.00     0.271 C 
ENDBRANCH  24  25
ENDBRANCH   1  24
BRANCH   2  29
HETATM   29  O1  UNL     1      -4.019  -1.534   0.033  1.00  0.00    -0.393 OA
ATOM     30  H1  UNL     1      -4.167  -2.266  -0.555  1.00  0.00     0.210 HD
ENDBRANCH   2  29
TORSDOF 7
