REMARK  5 active torsions:
REMARK  status: ('A' for Active; 'I' for Inactive)
REMARK    1  A    between atoms: C2_2  and  N1_3 
REMARK    2  A    between atoms: N1_3  and  C3_4 
REMARK    3  A    between atoms: C3_4  and  C4_5 
REMARK    4  A    between atoms: C11_16  and  C12_17 
REMARK    5  A    between atoms: C12_17  and  N3_18 
ROOT
HETATM    1  C4  UNL     1      -4.140  -1.340   1.603  1.00  0.00    -0.066 C 
HETATM    2  C5  UNL     1      -4.851  -2.301   1.673  1.00  0.00    -0.022 C 
HETATM    3 BR1  UNL     1      -5.980  -3.801   1.756  1.00  0.00     0.010 Br
ENDROOT
BRANCH   1   4
HETATM    4  C3  UNL     1      -3.289  -0.163   1.538  1.00  0.00     0.335 C 
BRANCH   4   5
HETATM    5  N1  UNL     1      -2.576   0.002   0.318  1.00  0.00    -0.014 N 
HETATM    6  C6  UNL     1      -3.204  -0.556  -0.836  1.00  0.00     0.242 C 
HETATM    7  C7  UNL     1      -4.198   0.316  -1.524  1.00  0.00     0.028 C 
HETATM    8  C8  UNL     1      -4.807   1.377  -0.670  1.00  0.00     0.003 C 
HETATM    9  C9  UNL     1      -3.717   2.168  -0.030  1.00  0.00     0.028 C 
HETATM   10  C10 UNL     1      -2.415   1.449   0.107  1.00  0.00     0.242 C 
BRANCH   5  11
HETATM   11  C2  UNL     1      -1.194  -0.496   0.450  1.00  0.00     0.368 C 
HETATM   12  C1  UNL     1      -1.287  -1.912   1.015  1.00  0.00     0.091 C 
HETATM   13  N2  UNL     1      -0.516  -0.581  -0.802  1.00  0.00    -0.009 N 
HETATM   14  C11 UNL     1       0.664   0.212  -0.788  1.00  0.00     0.316 C 
ATOM     15  H22 UNL     1      -0.319  -1.548  -1.061  1.00  0.00     0.283 HD
ATOM     16  H21 UNL     1      -1.127  -0.336  -1.581  1.00  0.00     0.283 HD
HETATM   17  N5  UNL     1       0.475   1.099   0.347  1.00  0.00    -0.328 N 
HETATM   18  C18 UNL     1      -0.343   0.374   1.266  1.00  0.00     0.284 C 
ATOM     19  H5  UNL     1       0.848   2.041   0.463  1.00  0.00     0.164 HD
HETATM   20  O1  UNL     1      -0.269   0.527   2.528  1.00  0.00    -0.269 OA
BRANCH  14  21
HETATM   21  C12 UNL     1       1.874  -0.620  -0.514  1.00  0.00     0.296 C 
BRANCH  21  22
HETATM   22  N3  UNL     1       3.091   0.031  -0.474  1.00  0.00    -0.013 N 
HETATM   23  C13 UNL     1       3.331   1.205  -1.283  1.00  0.00     0.269 C 
HETATM   24  C14 UNL     1       4.781   1.475  -0.825  1.00  0.00     0.269 C 
HETATM   25  N4  UNL     1       4.967   0.313  -0.008  1.00  0.00    -0.021 N 
HETATM   26  C15 UNL     1       6.168   0.038   0.610  1.00  0.00     0.276 C 
HETATM   27  C16 UNL     1       3.735   0.312   0.797  1.00  0.00     0.476 C 
HETATM   28  C17 UNL     1       4.302  -0.750  -0.780  1.00  0.00     0.476 C 
ENDBRANCH  21  22
ENDBRANCH  14  21
ENDBRANCH   5  11
ENDBRANCH   4   5
ENDBRANCH   1   4
TORSDOF 5
