REMARK  6 active torsions:
REMARK  status: ('A' for Active; 'I' for Inactive)
REMARK    1  A    between atoms: C3_3  and  C4_4 
REMARK    2  A    between atoms: C4_4  and  C5_5 
REMARK    3  A    between atoms: C5_5  and  C6_6 
REMARK    4  A    between atoms: N1_11  and  N2_12 
REMARK       I    between atoms: N2_12  and  C10_14 
REMARK    5  A    between atoms: C12_19  and  N5_20 
REMARK    6  A    between atoms: N5_20  and  C15_23 
ROOT
HETATM    1  C1  UNL     1       4.984   3.106   0.823  1.00  0.00     0.112 C 
HETATM    2  C2  UNL     1       4.172   1.899   0.711  1.00  0.00    -0.111 C 
HETATM    3  C3  UNL     1       3.479   0.902   0.604  1.00  0.00    -0.104 C 
ENDROOT
BRANCH   3   4
HETATM    4  C4  UNL     1       2.671  -0.272   0.548  1.00  0.00     0.136 C 
BRANCH   4   5
HETATM    5  C5  UNL     1       1.432  -0.321  -0.299  1.00  0.00     0.172 C 
HETATM    6  C9  UNL     1       0.507   0.880  -0.041  1.00  0.00     0.160 C 
HETATM    7  N1  UNL     1      -0.825   0.342   0.179  1.00  0.00    -0.172 NA
HETATM    8  C12 UNL     1      -0.782  -1.070  -0.048  1.00  0.00     0.487 C 
HETATM    9  N6  UNL     1       0.582  -1.314   0.318  1.00  0.00    -0.018 N 
HETATM   10  C17 UNL     1       0.577  -1.023   1.766  1.00  0.00     0.277 C 
HETATM   11  C18 UNL     1       1.097  -2.598   0.136  1.00  0.00     0.277 C 
BRANCH   5  12
HETATM   12  C6  UNL     1       1.785  -0.240  -1.679  1.00  0.00     0.047 C 
HETATM   13  C7  UNL     1       2.667  -1.307  -2.295  1.00  0.00     0.030 C 
HETATM   14  C8  UNL     1       2.578   1.010  -2.000  1.00  0.00     0.030 C 
HETATM   15 BR1  UNL     1       0.362  -0.007  -3.017  1.00  0.00    -0.084 Br
ENDBRANCH   5  12
BRANCH   7  16
HETATM   16  N2  UNL     1      -1.782   1.027  -0.592  1.00  0.00    -0.289 N 
HETATM   17  C10 UNL     1      -1.922   2.419  -0.329  1.00  0.00     0.198 C 
HETATM   18  N3  UNL     1      -2.192   3.310  -1.393  1.00  0.00    -0.063 NA
HETATM   19  N4  UNL     1      -1.808   2.892   0.876  1.00  0.00    -0.368 N 
HETATM   20  C11 UNL     1      -1.953   4.310   1.129  1.00  0.00     0.148 C 
ATOM     21  H4  UNL     1      -1.614   2.258   1.651  1.00  0.00     0.161 HD
ATOM     22  H2  UNL     1      -2.344   0.553  -1.299  1.00  0.00     0.183 HD
ENDBRANCH   7  16
BRANCH   8  23
HETATM   23  N5  UNL     1      -1.861  -1.831   0.414  1.00  0.00    -0.031 N 
HETATM   24  C13 UNL     1      -2.691  -2.210  -0.768  1.00  0.00     0.276 C 
HETATM   25  C14 UNL     1      -1.621  -3.139   0.989  1.00  0.00     0.276 C 
BRANCH  23  26
HETATM   26  C15 UNL     1      -2.831  -1.236   1.300  1.00  0.00     0.236 C 
HETATM   27  C16 UNL     1      -4.274  -1.612   0.997  1.00  0.00     0.035 C 
ENDBRANCH  23  26
ENDBRANCH   8  23
ENDBRANCH   4   5
ENDBRANCH   3   4
TORSDOF 6
