REMARK  5 active torsions:
REMARK  status: ('A' for Active; 'I' for Inactive)
REMARK    1  A    between atoms: N2_4  and  N3_6 
REMARK    2  A    between atoms: N3_6  and  C1_8 
REMARK    3  A    between atoms: C1_8  and  C6_17 
REMARK       I    between atoms: N4_9  and  C2_11 
REMARK       I    between atoms: C2_11  and  N5_13 
REMARK    4  A    between atoms: C6_17  and  N6_18 
REMARK       I    between atoms: N6_18  and  C7_20 
REMARK    5  A    between atoms: C7_20  and  C8_22 
ROOT
HETATM    1  C1  UNL     1       0.158  -1.145   0.854  1.00  0.00     0.131 C 
HETATM    2  N4  UNL     1       1.058  -0.232   0.911  1.00  0.00    -0.295 N 
ATOM      3  H4  UNL     1       0.985   0.550   0.260  1.00  0.00     0.172 HD
HETATM    4  C2  UNL     1       2.146  -0.238   1.819  1.00  0.00     0.323 C 
HETATM    5  O1  UNL     1       1.977  -0.742   2.952  1.00  0.00    -0.247 OA
HETATM    6  N5  UNL     1       3.400   0.311   1.460  1.00  0.00    -0.334 N 
HETATM    7  C3  UNL     1       3.921   0.947   0.281  1.00  0.00     0.129 C 
HETATM    8  C4  UNL     1       5.104   1.451   1.070  1.00  0.00     0.040 C 
HETATM    9  C5  UNL     1       4.668   0.465   2.111  1.00  0.00     0.129 C 
ENDROOT
BRANCH   1  10
HETATM   10  N3  UNL     1       0.227  -2.253   1.746  1.00  0.00    -0.273 N 
ATOM     11  H3  UNL     1      -0.303  -2.239   2.618  1.00  0.00     0.190 HD
BRANCH  10  12
HETATM   12  N2  UNL     1       1.017  -3.355   1.429  1.00  0.00    -0.248 N 
HETATM   13  N1  UNL     1       0.666  -4.528   1.754  1.00  0.00    -0.331 N 
ATOM     14  H12 UNL     1      -0.213  -4.650   2.256  1.00  0.00     0.178 HD
ATOM     15  H11 UNL     1       1.245  -5.335   1.522  1.00  0.00     0.178 HD
ATOM     16  H2  UNL     1       1.894  -3.215   0.926  1.00  0.00     0.207 HD
ENDBRANCH  10  12
ENDBRANCH   1  10
BRANCH   1  17
HETATM   17  C6  UNL     1      -0.914  -0.997  -0.153  1.00  0.00     0.118 C 
HETATM   18  C9  UNL     1      -2.274  -0.883   0.449  1.00  0.00     0.069 C 
HETATM   19  C10 UNL     1      -2.820   0.440   0.081  1.00  0.00     0.240 C 
HETATM   20  N7  UNL     1      -1.737   1.186  -0.465  1.00  0.00    -0.064 N 
HETATM   21  C11 UNL     1      -1.299   2.127   0.560  1.00  0.00     0.237 C 
HETATM   22  C14 UNL     1      -2.120   1.984  -1.613  1.00  0.00     0.237 C 
HETATM   23  C15 UNL     1      -0.715   0.289  -0.906  1.00  0.00     0.276 C 
HETATM   24  C12 UNL     1      -2.236   3.321   0.291  1.00  0.00     0.029 C 
HETATM   25  C13 UNL     1      -1.981   3.430  -1.211  1.00  0.00     0.029 C 
BRANCH  17  26
HETATM   26  N6  UNL     1      -0.812  -2.153  -1.049  1.00  0.00    -0.342 N 
HETATM   27  C7  UNL     1      -1.671  -2.360  -2.144  1.00  0.00     0.228 C 
HETATM   28  O2  UNL     1      -2.574  -1.545  -2.400  1.00  0.00    -0.273 OA
ATOM     29  H6  UNL     1      -0.082  -2.842  -0.870  1.00  0.00     0.163 HD
BRANCH  27  30
HETATM   30  C8  UNL     1      -1.518  -3.540  -3.008  1.00  0.00     0.187 C 
HETATM   31 BR1  UNL     1      -0.063  -4.675  -2.445  1.00  0.00    -0.087 Br
ENDBRANCH  27  30
ENDBRANCH  17  26
ENDBRANCH   1  17
TORSDOF 5
