REMARK  8 active torsions:
REMARK  status: ('A' for Active; 'I' for Inactive)
REMARK    1  A    between atoms: C2_2  and  O1_3 
REMARK    2  A    between atoms: C2_2  and  C3_5 
REMARK    3  A    between atoms: C2_2  and  C4_8 
REMARK    4  A    between atoms: C4_8  and  O4_9 
REMARK    5  A    between atoms: C4_8  and  N1_11 
REMARK    6  A    between atoms: N1_11  and  C5_13 
REMARK    7  A    between atoms: N3_19  and  O6_20 
REMARK    8  A    between atoms: N4_24  and  C10_25 
ROOT
HETATM    1  C5  UNL     1      -0.465   0.977  -0.253  1.00  0.00     0.137 A 
HETATM    2  C6  UNL     1      -0.514   2.322  -0.516  1.00  0.00     0.158 A 
HETATM    3  C7  UNL     1       0.682   3.128  -0.580  1.00  0.00     0.109 C 
HETATM    4  N2  UNL     1       1.611   3.829  -0.646  1.00  0.00    -0.191 NA
HETATM    5  C8  UNL     1      -1.717   3.029  -0.746  1.00  0.00     0.300 A 
HETATM    6  O5  UNL     1      -1.676   4.259  -0.980  1.00  0.00    -0.264 OA
HETATM    7  N3  UNL     1      -2.824   2.314  -0.693  1.00  0.00    -0.132 N 
HETATM    8  C9  UNL     1      -2.810   0.991  -0.437  1.00  0.00     0.359 A 
HETATM    9  O7  UNL     1      -3.976   0.520  -0.435  1.00  0.00    -0.244 OA
HETATM   10  N4  UNL     1      -1.664   0.296  -0.215  1.00  0.00    -0.260 N 
ENDROOT
BRANCH   1  11
HETATM   11  N1  UNL     1       0.723   0.328  -0.039  1.00  0.00    -0.345 N 
ATOM     12  H1  UNL     1       0.586  -0.662   0.165  1.00  0.00     0.163 HD
BRANCH  11  13
HETATM   13  C4  UNL     1       2.095   0.686  -0.030  1.00  0.00     0.264 C 
BRANCH  13  14
HETATM   14  C2  UNL     1       3.074  -0.522  -0.001  1.00  0.00     0.185 C 
HETATM   15  C1  UNL     1       3.044  -1.293  -1.292  1.00  0.00     0.063 C 
BRANCH  14  16
HETATM   16  O1  UNL     1       4.364   0.142  -0.017  1.00  0.00    -0.375 OA
ATOM     17  H1  UNL     1       4.383   0.629   0.798  1.00  0.00     0.211 HD
ENDBRANCH  14  16
BRANCH  14  18
HETATM   18  C3  UNL     1       3.003  -1.341   1.182  1.00  0.00     0.213 C 
HETATM   19  O2  UNL     1       3.882  -1.237   2.107  1.00  0.00    -0.646 OA
HETATM   20  O3  UNL     1       2.026  -2.275   1.413  1.00  0.00    -0.646 OA
ENDBRANCH  14  18
ENDBRANCH  13  14
BRANCH  13  21
HETATM   21  O4  UNL     1       2.420   1.214   1.254  1.00  0.00    -0.373 OA
ATOM     22  H4  UNL     1       1.822   1.952   1.236  1.00  0.00     0.212 HD
ENDBRANCH  13  21
ENDBRANCH  11  13
ENDBRANCH   1  11
BRANCH  10  23
HETATM   23  C10 UNL     1      -1.761  -1.067   0.040  1.00  0.00     0.125 C 
HETATM   24  C11 UNL     1      -1.604  -1.348   1.521  1.00  0.00     0.055 C 
HETATM   25  C12 UNL     1      -3.220  -1.592  -0.214  1.00  0.00     0.055 C 
HETATM   26  C13 UNL     1      -1.008  -1.992  -0.794  1.00  0.00     0.090 C 
HETATM   27  N5  UNL     1      -0.435  -2.743  -1.475  1.00  0.00    -0.195 NA
ENDBRANCH  10  23
BRANCH   7  28
HETATM   28  O6  UNL     1      -4.014   3.011  -0.920  1.00  0.00    -0.276 OA
ATOM     29  H6  UNL     1      -4.811   2.496  -0.882  1.00  0.00     0.245 HD
ENDBRANCH   7  28
TORSDOF 8
