REMARK  8 active torsions:
REMARK  status: ('A' for Active; 'I' for Inactive)
REMARK    1  A    between atoms: C2_2  and  C7_23 
REMARK    2  A    between atoms: N1_3  and  N2_5 
REMARK    3  A    between atoms: N2_5  and  C3_7 
REMARK    4  A    between atoms: C4_12  and  N5_13 
REMARK    5  A    between atoms: N5_13  and  N7_16 
REMARK    6  A    between atoms: N7_16  and  N8_17 
REMARK    7  A    between atoms: C8_26  and  N11_27 
REMARK    8  A    between atoms: C10_34  and  N13_35 
ROOT
HETATM    1  N5  UNL     1       4.711   0.432   1.460  1.00  0.00    -0.155 N 
HETATM    2  C5  UNL     1       5.158   1.753   1.646  1.00  0.00     0.205 C 
HETATM    3  N6  UNL     1       5.526   2.837   1.803  1.00  0.00    -0.170 NA
ENDROOT
BRANCH   1   4
HETATM    4  C4  UNL     1       3.610   0.131   0.605  1.00  0.00     0.167 A 
HETATM    5  N4  UNL     1       2.377   0.064   1.127  1.00  0.00    -0.268 N 
HETATM    6  N3  UNL     1       1.329  -0.205   0.376  1.00  0.00    -0.129 N 
ATOM      7  H4  UNL     1       2.248   0.225   2.126  1.00  0.00     0.189 HD
HETATM    8  C3  UNL     1       1.470  -0.420  -0.942  1.00  0.00     0.711 A 
ATOM      9  H3  UNL     1       0.402  -0.250   0.799  1.00  0.00     0.205 HD
HETATM   10  N9  UNL     1       2.695  -0.357  -1.484  1.00  0.00    -0.196 N 
HETATM   11  C6  UNL     1       3.774  -0.086  -0.744  1.00  0.00     0.158 A 
ATOM     12  H9  UNL     1       2.806  -0.520  -2.485  1.00  0.00     0.183 HD
BRANCH   8  13
HETATM   13  N2  UNL     1       0.452  -0.685  -1.694  1.00  0.00    -0.131 N 
ATOM     14  H2  UNL     1       0.568  -0.846  -2.695  1.00  0.00     0.205 HD
BRANCH  13  15
HETATM   15  N1  UNL     1      -0.795  -0.744  -1.106  1.00  0.00    -0.289 N 
HETATM   16  C2  UNL     1      -1.771   0.116  -1.414  1.00  0.00     0.052 C 
HETATM   17  C1  UNL     1      -1.432   1.117  -2.407  1.00  0.00     0.072 C 
ATOM     18  H1  UNL     1      -0.978  -1.469  -0.412  1.00  0.00     0.187 HD
BRANCH  16  19
HETATM   19  C7  UNL     1      -2.994  -0.108  -0.685  1.00  0.00     0.111 A 
HETATM   20  N10 UNL     1      -3.071  -1.115   0.251  1.00  0.00    -0.187 N 
HETATM   21  C8  UNL     1      -4.130  -1.398   0.981  1.00  0.00     0.679 A 
ATOM     22  H10 UNL     1      -2.239  -1.689   0.390  1.00  0.00     0.184 HD
HETATM   23  N12 UNL     1      -5.230  -0.649   0.806  1.00  0.00    -0.154 N 
HETATM   24  C9  UNL     1      -5.279   0.356  -0.072  1.00  0.00     0.295 A 
ATOM     25  H12 UNL     1      -6.059  -0.855   1.364  1.00  0.00     0.187 HD
HETATM   26  O1  UNL     1      -6.280   1.077  -0.265  1.00  0.00    -0.265 OA
HETATM   27  C10 UNL     1      -4.117   0.638  -0.848  1.00  0.00     0.200 A 
BRANCH  21  28
HETATM   28  N11 UNL     1      -4.120  -2.380   1.850  1.00  0.00    -0.234 N 
ATOM     29 2H11 UNL     1      -3.284  -2.949   1.983  1.00  0.00     0.174 HD
ATOM     30 1H11 UNL     1      -4.940  -2.599   2.415  1.00  0.00     0.174 HD
ENDBRANCH  21  28
BRANCH  27  31
HETATM   31  N13 UNL     1      -4.208   1.701  -1.767  1.00  0.00    -0.107 N 
HETATM   32  O2  UNL     1      -4.370   1.520  -2.977  1.00  0.00    -0.531 OA
HETATM   33  O3  UNL     1      -4.167   2.986  -1.292  1.00  0.00    -0.531 OA
ENDBRANCH  27  31
ENDBRANCH  16  19
ENDBRANCH  13  15
ENDBRANCH   8  13
ENDBRANCH   1   4
BRANCH   1  34
HETATM   34  N7  UNL     1       5.379  -0.575   2.146  1.00  0.00    -0.011 NA
BRANCH  34  35
HETATM   35  N8  UNL     1       6.302  -1.196   1.303  1.00  0.00    -0.328 N 
ATOM     36  H82 UNL     1       6.452  -0.937   0.328  1.00  0.00     0.174 HD
ATOM     37  H81 UNL     1       6.792  -1.935   1.807  1.00  0.00     0.174 HD
ENDBRANCH  34  35
ENDBRANCH   1  34
TORSDOF 8
