REMARK  9 active torsions:
REMARK  status: ('A' for Active; 'I' for Inactive)
REMARK    1  A    between atoms: O1_2  and  C2_3 
REMARK    2  A    between atoms: C2_3  and  C3_5 
REMARK    3  A    between atoms: C3_5  and  O3_6 
REMARK    4  A    between atoms: N1_8  and  N2_10 
REMARK    5  A    between atoms: N2_10  and  C4_12 
REMARK    6  A    between atoms: C6_14  and  S1_15 
REMARK    7  A    between atoms: S1_15  and  N3_16 
REMARK    8  A    between atoms: C7_21  and  S2_22 
REMARK    9  A    between atoms: S2_22  and  N4_23 
ROOT
HETATM    1  C4  UNL     1       0.115   1.346   0.329  1.00  0.00     0.093 A 
HETATM    2  C5  UNL     1      -0.592   0.271   0.818  1.00  0.00     0.063 A 
HETATM    3  C6  UNL     1      -1.855  -0.104   0.333  1.00  0.00     0.121 A 
HETATM    4  C7  UNL     1      -2.363   0.677  -0.682  1.00  0.00     0.174 A 
HETATM    5  N5  UNL     1      -1.637   1.732  -1.141  1.00  0.00    -0.329 N 
ATOM      6  H5  UNL     1      -2.042   2.290  -1.893  1.00  0.00     0.168 HD
HETATM    7  C8  UNL     1      -0.435   2.093  -0.683  1.00  0.00     0.128 A 
HETATM    8  N6  UNL     1       0.141   3.122  -1.216  1.00  0.00    -0.384 N 
ATOM      9  H61 UNL     1      -0.268   3.677  -1.968  1.00  0.00     0.157 HD
ATOM     10  H62 UNL     1       1.059   3.398  -0.866  1.00  0.00     0.157 HD
ENDROOT
BRANCH   1  11
HETATM   11  N2  UNL     1       1.391   1.708   0.834  1.00  0.00    -0.295 N 
ATOM     12  H2  UNL     1       1.905   2.507   0.463  1.00  0.00     0.187 HD
BRANCH  11  13
HETATM   13  N1  UNL     1       1.918   0.908   1.878  1.00  0.00    -0.275 N 
HETATM   14  C3  UNL     1       2.908   0.110   1.690  1.00  0.00     0.232 C 
ATOM     15  H1  UNL     1       1.499   0.967   2.806  1.00  0.00     0.189 HD
BRANCH  14  16
HETATM   16  C2  UNL     1       3.569  -0.041   0.399  1.00  0.00     0.335 C 
HETATM   17  O2  UNL     1       3.154   0.643  -0.592  1.00  0.00    -0.255 OA
BRANCH  16  18
HETATM   18  O1  UNL     1       4.632  -0.903   0.213  1.00  0.00    -0.320 OA
HETATM   19  C1  UNL     1       5.279  -1.056  -1.038  1.00  0.00     0.213 C 
ENDBRANCH  16  18
ENDBRANCH  14  16
BRANCH  14  20
HETATM   20  O3  UNL     1       3.351  -0.629   2.773  1.00  0.00    -0.341 OA
ATOM     21  H3  UNL     1       2.920  -0.531   3.614  1.00  0.00     0.219 HD
ENDBRANCH  14  20
ENDBRANCH  11  13
ENDBRANCH   1  11
BRANCH   3  22
HETATM   22  S1  UNL     1      -2.691  -1.454   0.993  1.00  0.00     0.259 S 
HETATM   23  O4  UNL     1      -3.898  -1.063   1.841  1.00  0.00    -0.201 OA
HETATM   24  O5  UNL     1      -1.762  -2.088   2.044  1.00  0.00    -0.201 OA
BRANCH  22  25
HETATM   25  N3  UNL     1      -3.035  -2.719  -0.088  1.00  0.00    -0.324 N 
ATOM     26  H32 UNL     1      -2.755  -2.665  -1.067  1.00  0.00     0.169 HD
ATOM     27  H31 UNL     1      -3.531  -3.520   0.303  1.00  0.00     0.169 HD
ENDBRANCH  22  25
ENDBRANCH   3  22
BRANCH   4  28
HETATM   28  S2  UNL     1      -3.903   0.332  -1.385  1.00  0.00     0.274 S 
HETATM   29  O6  UNL     1      -3.909  -0.937  -2.224  1.00  0.00    -0.199 OA
HETATM   30  O7  UNL     1      -4.229   1.539  -2.560  1.00  0.00    -0.199 OA
BRANCH  28  31
HETATM   31  N4  UNL     1      -5.099   0.406  -0.433  1.00  0.00    -0.323 N 
ATOM     32  H42 UNL     1      -4.978   0.645   0.551  1.00  0.00     0.169 HD
ATOM     33  H41 UNL     1      -6.008   0.202  -0.848  1.00  0.00     0.169 HD
ENDBRANCH  28  31
ENDBRANCH   4  28
TORSDOF 9
