REMARK  6 active torsions:
REMARK  status: ('A' for Active; 'I' for Inactive)
REMARK    1  A    between atoms: N1_1  and  C1_4 
REMARK    2  A    between atoms: N4_10  and  C3_11 
REMARK    3  A    between atoms: C3_11  and  C4_12 
REMARK    4  A    between atoms: C4_12  and  O1_13 
REMARK    5  A    between atoms: O1_13  and  C5_14 
REMARK    6  A    between atoms: C5_14  and  C6_15 
ROOT
HETATM    1  C1  UNL     1      -3.446  -0.185  -0.208  1.00  0.00     0.693 A 
HETATM    2  N2  UNL     1      -4.105   1.009  -0.237  1.00  0.00    -0.131 N 
ATOM      3  H2  UNL     1      -5.053   1.170  -0.576  1.00  0.00     0.205 HD
HETATM    4  N3  UNL     1      -3.286   1.916   0.256  1.00  0.00    -0.281 N 
ATOM      5  H3  UNL     1      -3.496   2.908   0.364  1.00  0.00     0.188 HD
HETATM    6  C2  UNL     1      -2.131   1.323   0.592  1.00  0.00     0.218 A 
HETATM    7  N4  UNL     1      -2.210  -0.007   0.307  1.00  0.00    -0.175 N 
ENDROOT
BRANCH   7   8
HETATM    8  C3  UNL     1      -1.216  -1.043   0.496  1.00  0.00     0.174 C 
BRANCH   8   9
HETATM    9  C4  UNL     1      -0.384  -1.128  -0.752  1.00  0.00     0.189 C 
BRANCH   9  10
HETATM   10  O1  UNL     1       0.607  -2.054  -0.750  1.00  0.00    -0.383 OA
BRANCH  10  11
HETATM   11  C5  UNL     1       1.598  -1.943   0.177  1.00  0.00     0.232 C 
BRANCH  11  12
HETATM   12  C6  UNL     1       2.372  -0.662   0.054  1.00  0.00     0.076 A 
HETATM   13  C7  UNL     1       2.133   0.446   0.831  1.00  0.00     0.035 A 
HETATM   14  C8  UNL     1       2.857   1.611   0.698  1.00  0.00     0.004 A 
HETATM   15  C9  UNL     1       3.855   1.666  -0.245  1.00  0.00     0.025 A 
HETATM   16  C10 UNL     1       4.046   0.516  -0.995  1.00  0.00     0.142 A 
HETATM   17  O2  UNL     1       3.339  -0.570  -0.841  1.00  0.00    -0.325 OA
ENDBRANCH  11  12
ENDBRANCH  10  11
ENDBRANCH   9  10
ENDBRANCH   8   9
ENDBRANCH   7   8
BRANCH   1  18
HETATM   18  N1  UNL     1      -3.940  -1.305  -0.615  1.00  0.00    -0.233 N 
ATOM     19  H12 UNL     1      -4.873  -1.439  -1.004  1.00  0.00     0.174 HD
ATOM     20  H11 UNL     1      -3.447  -2.198  -0.593  1.00  0.00     0.174 HD
ENDBRANCH   1  18
TORSDOF 6
