REMARK  3 active torsions:
REMARK  status: ('A' for Active; 'I' for Inactive)
REMARK    1  A    between atoms: N1_5  and  C5_6 
REMARK    2  A    between atoms: C5_6  and  C6_7 
REMARK    3  A    between atoms: C6_7  and  N2_8 
ROOT
HETATM    1  C6  UNL     1      -0.741   0.461  -0.444  1.00  0.00     0.151 C 
ENDROOT
BRANCH   1   2
HETATM    2  C5  UNL     1      -0.031  -0.689   0.236  1.00  0.00     0.148 C 
BRANCH   2   3
HETATM    3  N1  UNL     1       1.400  -0.578   0.131  1.00  0.00    -0.365 N 
HETATM    4  C4  UNL     1       2.053   0.093   1.109  1.00  0.00     0.091 A 
HETATM    5  C3  UNL     1       3.420   0.264   1.116  1.00  0.00     0.024 A 
HETATM    6  C2  UNL     1       4.150  -0.267   0.089  1.00  0.00    -0.059 A 
HETATM    7  C1  UNL     1       5.627  -0.090   0.084  1.00  0.00     0.048 C 
HETATM    8  C11 UNL     1       3.478  -0.950  -0.904  1.00  0.00     0.024 A 
HETATM    9  C10 UNL     1       2.109  -1.107  -0.888  1.00  0.00     0.091 A 
ENDBRANCH   2   3
ENDBRANCH   1   2
BRANCH   1  10
HETATM   10  N2  UNL     1      -2.163   0.371  -0.351  1.00  0.00    -0.327 N 
HETATM   11  C7  UNL     1      -3.045  -0.227  -1.189  1.00  0.00     0.138 A 
HETATM   12  C8  UNL     1      -4.320  -0.074  -0.718  1.00  0.00     0.134 A 
HETATM   13  N3  UNL     1      -5.542  -0.542  -1.282  1.00  0.00    -0.081 NA
HETATM   14  N4  UNL     1      -4.222   0.627   0.425  1.00  0.00    -0.318 N 
HETATM   15  C9  UNL     1      -2.909   0.891   0.635  1.00  0.00     0.196 A 
ATOM     16  H4  UNL     1      -4.996   0.909   1.026  1.00  0.00     0.169 HD
HETATM   17  N5  UNL     1      -2.466   1.623   1.771  1.00  0.00    -0.063 NA
ENDBRANCH   1  10
TORSDOF 3
