REMARK  5 active torsions:
REMARK  status: ('A' for Active; 'I' for Inactive)
REMARK    1  A    between atoms: S1_2  and  C1_4 
REMARK    2  A    between atoms: C1_4  and  C2_5 
REMARK    3  A    between atoms: C4_7  and  O3_8 
REMARK    4  A    between atoms: C5_10  and  C6_11 
REMARK    5  A    between atoms: C6_11  and  O4_12 
ROOT
HETATM    1  C2  UNL     1       1.111  -0.496   0.347  1.00  0.00     0.204 C 
HETATM    2  C3  UNL     1       0.285  -1.524  -0.353  1.00  0.00     0.068 C 
HETATM    3  C4  UNL     1      -1.135  -1.011  -0.139  1.00  0.00     0.153 C 
HETATM    4  C5  UNL     1      -0.880   0.486  -0.085  1.00  0.00     0.238 C 
HETATM    5  N1  UNL     1       0.235   0.535   0.833  1.00  0.00    -0.061 N 
ATOM      6  H11 UNL     1       0.670   1.453   0.922  1.00  0.00     0.278 HD
ATOM      7  H12 UNL     1      -0.022   0.444   1.816  1.00  0.00     0.278 HD
ENDROOT
BRANCH   1   8
HETATM    8  C1  UNL     1       2.139   0.162  -0.557  1.00  0.00     0.190 C 
BRANCH   8   9
HETATM    9  S1  UNL     1       3.015   1.348   0.462  1.00  0.00     0.252 S 
HETATM   10  O1  UNL     1       3.770   0.614   1.743  1.00  0.00    -0.212 OA
HETATM   11  O2  UNL     1       4.011   2.308  -0.452  1.00  0.00    -0.212 OA
ENDBRANCH   8   9
ENDBRANCH   1   8
BRANCH   3  12
HETATM   12  O3  UNL     1      -1.984  -1.350  -1.162  1.00  0.00    -0.393 OA
ATOM     13  H3  UNL     1      -2.869  -1.030  -1.029  1.00  0.00     0.210 HD
ENDBRANCH   3  12
BRANCH   4  14
HETATM   14  C6  UNL     1      -2.076   1.248   0.425  1.00  0.00     0.199 C 
BRANCH  14  15
HETATM   15  O4  UNL     1      -3.093   1.148  -0.513  1.00  0.00    -0.399 OA
ATOM     16  H4  UNL     1      -3.847   1.628  -0.192  1.00  0.00     0.209 HD
ENDBRANCH  14  15
ENDBRANCH   4  14
TORSDOF 5
