REMARK  4 active torsions:
REMARK  status: ('A' for Active; 'I' for Inactive)
REMARK    1  A    between atoms: N1_1  and  C1_5 
REMARK    2  A    between atoms: C4_8  and  N2_9 
REMARK    3  A    between atoms: N2_9  and  S1_11 
REMARK    4  A    between atoms: S1_11  and  N3_12 
ROOT
HETATM    1  C1  UNL     1      -2.200  -0.189   0.389  1.00  0.00     0.185 C 
HETATM    2  C2  UNL     1      -1.726   1.260   0.358  1.00  0.00     0.035 C 
HETATM    3  C3  UNL     1      -0.432   1.105  -0.451  1.00  0.00     0.028 C 
HETATM    4  C4  UNL     1       0.218  -0.028   0.278  1.00  0.00     0.096 C 
HETATM    5  C5  UNL     1      -0.939  -0.988   0.499  1.00  0.00     0.058 C 
ENDROOT
BRANCH   4   6
HETATM    6  N2  UNL     1       1.219  -0.716  -0.470  1.00  0.00    -0.298 N 
ATOM      7  H2  UNL     1       1.034  -1.137  -1.380  1.00  0.00     0.174 HD
BRANCH   6   8
HETATM    8  S1  UNL     1       2.750  -0.779   0.279  1.00  0.00     0.313 S 
HETATM    9  O1  UNL     1       3.447  -2.035  -0.222  1.00  0.00    -0.183 OA
HETATM   10  O2  UNL     1       2.666  -0.882   1.780  1.00  0.00    -0.183 OA
BRANCH   8  11
HETATM   11  N3  UNL     1       3.761   0.544  -0.126  1.00  0.00    -0.312 N 
ATOM     12  H32 UNL     1       3.462   1.289  -0.755  1.00  0.00     0.170 HD
ATOM     13  H31 UNL     1       4.677   0.506   0.322  1.00  0.00     0.170 HD
ENDBRANCH   8  11
ENDBRANCH   6   8
ENDBRANCH   4   6
BRANCH   1  14
HETATM   14  N1  UNL     1      -2.881  -0.456  -0.878  1.00  0.00    -0.075 N 
ATOM     15  H13 UNL     1      -3.634   0.205  -1.072  1.00  0.00     0.274 HD
ATOM     16  H12 UNL     1      -2.304  -0.244  -1.692  1.00  0.00     0.274 HD
ATOM     17  H11 UNL     1      -3.198  -1.425  -0.857  1.00  0.00     0.274 HD
ENDBRANCH   1  14
TORSDOF 4
