REMARK  4 active torsions:
REMARK  status: ('A' for Active; 'I' for Inactive)
REMARK    1  A    between atoms: O1_1  and  C1_3 
REMARK    2  A    between atoms: C4_9  and  O2_10 
REMARK    3  A    between atoms: O2_10  and  C5_11 
REMARK    4  A    between atoms: C5_11  and  N2_12 
ROOT
HETATM    1  C1  UNL     1      -2.069  -0.837   0.896  1.00  0.00     0.174 C 
HETATM    2  C2  UNL     1      -3.496  -0.429   0.629  1.00  0.00     0.266 C 
HETATM    3  N1  UNL     1      -3.504   0.380  -0.555  1.00  0.00    -0.070 N 
ATOM      4  H11 UNL     1      -3.724   1.360  -0.377  1.00  0.00     0.277 HD
ATOM      5  H12 UNL     1      -4.291   0.188  -1.174  1.00  0.00     0.277 HD
HETATM    6  C3  UNL     1      -2.192   0.178  -1.192  1.00  0.00     0.266 C 
HETATM    7  C4  UNL     1      -1.311   0.187   0.043  1.00  0.00     0.179 C 
ENDROOT
BRANCH   7   8
HETATM    8  O2  UNL     1      -0.020  -0.228  -0.215  1.00  0.00    -0.362 OA
BRANCH   8   9
HETATM    9  C5  UNL     1       0.837   0.782   0.222  1.00  0.00     0.299 C 
BRANCH   9  10
HETATM   10  N2  UNL     1       2.226   0.444  -0.004  1.00  0.00    -0.330 N 
HETATM   11  C6  UNL     1       2.992   0.689  -1.070  1.00  0.00     0.111 A 
HETATM   12  C7  UNL     1       4.273   0.180  -0.849  1.00  0.00     0.106 A 
HETATM   13  N3  UNL     1       4.247  -0.374   0.381  1.00  0.00    -0.361 N 
HETATM   14  C8  UNL     1       3.020  -0.211   0.874  1.00  0.00     0.184 A 
ATOM     15  H3  UNL     1       5.027  -0.835   0.850  1.00  0.00     0.166 HD
ENDBRANCH   9  10
ENDBRANCH   8   9
ENDBRANCH   7   8
BRANCH   1  16
HETATM   16  O1  UNL     1      -1.865  -2.080   0.283  1.00  0.00    -0.391 OA
ATOM     17  H1  UNL     1      -0.966  -2.337   0.451  1.00  0.00     0.210 HD
ENDBRANCH   1  16
TORSDOF 4
