REMARK  5 active torsions:
REMARK  status: ('A' for Active; 'I' for Inactive)
REMARK       I    between atoms: C1_2  and  N1_3 
REMARK    1  A    between atoms: C1_2  and  C6_17 
REMARK    2  A    between atoms: N1_3  and  N2_5 
REMARK    3  A    between atoms: N2_5  and  C2_7 
REMARK    4  A    between atoms: C2_7  and  N3_9 
REMARK    5  A    between atoms: N3_9  and  C3_11 
ROOT
HETATM    1  N2  UNL     1       1.001  -1.423  -1.463  1.00  0.00    -0.274 N 
ATOM      2  H2  UNL     1       0.742  -2.002  -2.262  1.00  0.00     0.189 HD
ENDROOT
BRANCH   1   3
HETATM    3  N1  UNL     1      -0.000  -0.802  -0.693  1.00  0.00    -0.268 N 
HETATM    4  C1  UNL     1      -1.294  -0.804  -1.206  1.00  0.00     0.240 C 
HETATM    5  O1  UNL     1      -1.497  -1.357  -2.357  1.00  0.00    -0.271 OA
ATOM      6  H1  UNL     1       0.214  -0.368   0.205  1.00  0.00     0.190 HD
BRANCH   4   7
HETATM    7  C6  UNL     1      -2.446  -0.229  -0.547  1.00  0.00     0.079 C 
HETATM    8  C7  UNL     1      -2.205   1.130   0.075  1.00  0.00     0.014 C 
HETATM    9  C8  UNL     1      -3.476   1.606   0.765  1.00  0.00     0.001 C 
HETATM   10  C9  UNL     1      -4.666   0.722   0.405  1.00  0.00     0.000 C 
HETATM   11  C10 UNL     1      -4.470  -0.724   0.688  1.00  0.00     0.001 C 
HETATM   12  C11 UNL     1      -2.996  -1.100   0.574  1.00  0.00     0.014 C 
ENDBRANCH   4   7
ENDBRANCH   1   3
BRANCH   1  13
HETATM   13  C2  UNL     1       2.348  -1.250  -1.137  1.00  0.00     0.186 C 
HETATM   14  S1  UNL     1       3.428  -2.090  -2.082  1.00  0.00    -0.040 SA
BRANCH  13  15
HETATM   15  N3  UNL     1       2.870  -0.476  -0.088  1.00  0.00    -0.358 N 
ATOM     16  H3  UNL     1       2.238   0.024   0.537  1.00  0.00     0.162 HD
BRANCH  15  17
HETATM   17  C3  UNL     1       4.289  -0.385   0.109  1.00  0.00     0.135 C 
HETATM   18  C4  UNL     1       4.951   0.324  -1.043  1.00  0.00     0.259 C 
HETATM   19  N4  UNL     1       4.756   1.579  -0.289  1.00  0.00    -0.071 N 
HETATM   20  C5  UNL     1       4.807   0.778   0.916  1.00  0.00     0.259 C 
ATOM     21  H42 UNL     1       5.377   2.377  -0.420  1.00  0.00     0.277 HD
ATOM     22  H41 UNL     1       3.966   2.195  -0.482  1.00  0.00     0.277 HD
ENDBRANCH  15  17
ENDBRANCH  13  15
ENDBRANCH   1  13
TORSDOF 5
