REMARK  3 active torsions:
REMARK  status: ('A' for Active; 'I' for Inactive)
REMARK    1  A    between atoms: C4_4  and  C5_5 
REMARK    2  A    between atoms: C5_5  and  N1_6 
REMARK       I    between atoms: N1_6  and  C6_8 
REMARK       I    between atoms: C6_8  and  N3_12 
REMARK    3  A    between atoms: N3_12  and  N4_14 
REMARK       I    between atoms: N4_14  and  C7_16 
REMARK       I    between atoms: C7_16  and  N5_18 
ROOT
HETATM    1  N1  UNL     1       2.281   0.712   0.232  1.00  0.00    -0.225 N 
ATOM      2  H1  UNL     1       2.506   0.925  -0.740  1.00  0.00     0.177 HD
HETATM    3  C6  UNL     1       1.119   1.260   0.884  1.00  0.00     0.686 C 
HETATM    4  N2  UNL     1       0.939   2.531   0.924  1.00  0.00    -0.234 N 
ATOM      5  H21 UNL     1       0.116   2.919   1.386  1.00  0.00     0.174 HD
ATOM      6  H22 UNL     1       1.637   3.128   0.480  1.00  0.00     0.174 HD
HETATM    7  N3  UNL     1       0.147   0.429   1.503  1.00  0.00    -0.129 N 
ATOM      8  H3  UNL     1       0.217   0.225   2.500  1.00  0.00     0.205 HD
ENDROOT
BRANCH   7   9
HETATM    9  N4  UNL     1      -0.894  -0.106   0.766  1.00  0.00    -0.237 N 
HETATM   10  C7  UNL     1      -1.961   0.707   0.323  1.00  0.00     0.337 C 
HETATM   11  O1  UNL     1      -1.949   1.947   0.611  1.00  0.00    -0.245 OA
HETATM   12  N5  UNL     1      -3.054   0.199  -0.432  1.00  0.00    -0.333 N 
HETATM   13  C8  UNL     1      -4.109   1.067  -0.891  1.00  0.00     0.127 C 
HETATM   14  C12 UNL     1      -3.162  -1.197  -0.763  1.00  0.00     0.127 C 
HETATM   15  C9  UNL     1      -5.453   0.623  -0.363  1.00  0.00     0.020 C 
HETATM   16  C10 UNL     1      -5.630  -0.849  -0.358  1.00  0.00     0.003 C 
HETATM   17  C11 UNL     1      -4.568  -1.648  -1.039  1.00  0.00     0.020 C 
ATOM     18  H4  UNL     1      -0.891  -1.101   0.539  1.00  0.00     0.192 HD
ENDBRANCH   7   9
BRANCH   1  19
HETATM   19  C5  UNL     1       3.115  -0.163   1.041  1.00  0.00     0.143 C 
BRANCH  19  20
HETATM   20  C4  UNL     1       4.295  -0.682   0.289  1.00  0.00     0.008 A 
HETATM   21  C2  UNL     1       5.311   0.239  -0.283  1.00  0.00    -0.013 A 
HETATM   22  C1  UNL     1       5.923  -0.184  -1.608  1.00  0.00     0.010 C 
HETATM   23  C3  UNL     1       5.639  -0.476   0.965  1.00  0.00     0.011 A 
ENDBRANCH  19  20
ENDBRANCH   1  19
TORSDOF 3
