REMARK  19 active torsions:
REMARK  status: ('A' for Active; 'I' for Inactive)
REMARK    1  A    between atoms: O1_2  and  C2_3 
REMARK    2  A    between atoms: C2_3  and  C3_4 
REMARK    3  A    between atoms: C3_4  and  O2_5 
REMARK    4  A    between atoms: O2_5  and  C4_6 
REMARK    5  A    between atoms: C4_6  and  C5_7 
REMARK    6  A    between atoms: C5_7  and  O3_8 
REMARK    7  A    between atoms: O3_8  and  C6_9 
REMARK    8  A    between atoms: C6_9  and  C7_10 
REMARK    9  A    between atoms: C7_10  and  O4_11 
REMARK   10  A    between atoms: O4_11  and  C8_12 
REMARK   11  A    between atoms: C8_12  and  C9_13 
REMARK   12  A    between atoms: C9_13  and  O5_14 
REMARK   13  A    between atoms: O5_14  and  C10_15 
REMARK   14  A    between atoms: C10_15  and  C11_16 
REMARK   15  A    between atoms: C11_16  and  O6_17 
REMARK   16  A    between atoms: O6_17  and  C12_18 
REMARK   17  A    between atoms: C15_21  and  C16_22 
REMARK   18  A    between atoms: C23_29  and  O7_30 
REMARK   19  A    between atoms: O7_30  and  C24_31 
ROOT
HETATM    1  C11 UNL     1      -0.425  -1.392   0.595  1.00  0.00     0.201 C 
ENDROOT
BRANCH   1   2
HETATM    2  C10 UNL     1       0.770  -2.286   0.423  1.00  0.00     0.194 C 
BRANCH   2   3
HETATM    3  O5  UNL     1       0.901  -2.793  -0.833  1.00  0.00    -0.387 OA
BRANCH   3   4
HETATM    4  C9  UNL     1       0.983  -1.847  -1.816  1.00  0.00     0.193 C 
BRANCH   4   5
HETATM    5  C8  UNL     1       2.177  -0.940  -1.574  1.00  0.00     0.193 C 
BRANCH   5   6
HETATM    6  O4  UNL     1       2.293   0.015  -2.552  1.00  0.00    -0.387 OA
BRANCH   6   7
HETATM    7  C7  UNL     1       3.324   0.891  -2.346  1.00  0.00     0.193 C 
BRANCH   7   8
HETATM    8  C6  UNL     1       4.645   0.213  -2.320  1.00  0.00     0.193 C 
BRANCH   8   9
HETATM    9  O3  UNL     1       5.709   1.096  -2.121  1.00  0.00    -0.387 OA
BRANCH   9  10
HETATM   10  C5  UNL     1       5.658   1.803  -0.944  1.00  0.00     0.193 C 
BRANCH  10  11
HETATM   11  C4  UNL     1       5.654   0.948   0.280  1.00  0.00     0.193 C 
BRANCH  11  12
HETATM   12  O2  UNL     1       6.742   0.134   0.448  1.00  0.00    -0.387 OA
BRANCH  12  13
HETATM   13  C3  UNL     1       7.963   0.797   0.544  1.00  0.00     0.193 C 
BRANCH  13  14
HETATM   14  C2  UNL     1       9.012  -0.271   0.733  1.00  0.00     0.193 C 
BRANCH  14  15
HETATM   15  O1  UNL     1      10.295   0.180   0.852  1.00  0.00    -0.394 OA
HETATM   16  C1  UNL     1      10.696   0.871  -0.265  1.00  0.00     0.201 C 
ENDBRANCH  14  15
ENDBRANCH  13  14
ENDBRANCH  12  13
ENDBRANCH  11  12
ENDBRANCH  10  11
ENDBRANCH   9  10
ENDBRANCH   8   9
ENDBRANCH   7   8
ENDBRANCH   6   7
ENDBRANCH   5   6
ENDBRANCH   4   5
ENDBRANCH   3   4
ENDBRANCH   2   3
ENDBRANCH   1   2
BRANCH   1  17
HETATM   17  O6  UNL     1      -1.641  -2.038   0.336  1.00  0.00    -0.346 OA
BRANCH  17  18
HETATM   18  C12 UNL     1      -2.818  -1.323   0.459  1.00  0.00     0.102 A 
HETATM   19  C13 UNL     1      -2.791   0.017   0.831  1.00  0.00     0.040 A 
HETATM   20  C14 UNL     1      -3.952   0.708   0.949  1.00  0.00     0.010 A 
HETATM   21  C15 UNL     1      -5.204   0.163   0.719  1.00  0.00    -0.051 A 
HETATM   22  C22 UNL     1      -5.217  -1.166   0.351  1.00  0.00     0.047 A 
HETATM   23  C23 UNL     1      -4.061  -1.904   0.220  1.00  0.00     0.112 A 
BRANCH  21  24
HETATM   24  C16 UNL     1      -6.443   0.968   0.860  1.00  0.00     0.018 C 
HETATM   25  C17 UNL     1      -7.204   0.398   2.041  1.00  0.00     0.009 C 
HETATM   26  C18 UNL     1      -8.553   1.035   2.091  1.00  0.00     0.001 C 
HETATM   27  C19 UNL     1      -8.650   2.265   1.227  1.00  0.00     0.000 C 
HETATM   28  C20 UNL     1      -8.354   2.030  -0.217  1.00  0.00     0.001 C 
HETATM   29  C21 UNL     1      -7.268   0.987  -0.385  1.00  0.00     0.009 C 
ENDBRANCH  21  24
BRANCH  23  30
HETATM   30  O7  UNL     1      -4.085  -3.249  -0.153  1.00  0.00    -0.283 OA
BRANCH  30  31
HETATM   31  C24 UNL     1      -4.158  -4.281   0.787  1.00  0.00     0.403 C 
HETATM   32  O8  UNL     1      -4.202  -3.947   1.999  1.00  0.00    -0.276 OA
ENDBRANCH  30  31
ENDBRANCH  23  30
ENDBRANCH  17  18
ENDBRANCH   1  17
TORSDOF 19
