REMARK  9 active torsions:
REMARK  status: ('A' for Active; 'I' for Inactive)
REMARK    1  A    between atoms: N1_2  and  N2_4 
REMARK    2  A    between atoms: C2_5  and  C3_6 
REMARK    3  A    between atoms: N3_7  and  N4_9 
REMARK       I    between atoms: N4_9  and  C4_11 
REMARK    4  A    between atoms: C4_11  and  C5_13 
REMARK    5  A    between atoms: C5_13  and  O2_14 
REMARK    6  A    between atoms: O2_14  and  C6_15 
REMARK    7  A    between atoms: N6_17  and  O3_19 
REMARK    8  A    between atoms: C7_21  and  C8_22 
REMARK    9  A    between atoms: N9_29  and  C11_30 
ROOT
HETATM    1  C8  UNL     1      -1.762   3.148   0.474  1.00  0.00     0.119 C 
HETATM    2  N7  UNL     1      -0.638   3.702   0.462  1.00  0.00    -0.303 N 
ATOM      3  H7  UNL     1       0.171   3.090   0.357  1.00  0.00     0.177 HD
HETATM    4  C9  UNL     1      -0.380   5.049   0.576  1.00  0.00     0.181 C 
HETATM    5  N8  UNL     1      -0.173   6.183   0.658  1.00  0.00    -0.172 NA
ENDROOT
BRANCH   1   6
HETATM    6  C7  UNL     1      -2.044   1.739   0.355  1.00  0.00     0.082 A 
HETATM    7  C2  UNL     1      -1.155   0.678   0.202  1.00  0.00     0.109 A 
HETATM    8  N2  UNL     1      -1.904  -0.489   0.134  1.00  0.00    -0.189 N 
HETATM    9  N9  UNL     1      -3.178  -0.203   0.235  1.00  0.00    -0.197 N 
HETATM   10  C10 UNL     1      -3.299   1.157   0.373  1.00  0.00     0.282 A 
HETATM   11  O4  UNL     1      -4.379   1.798   0.497  1.00  0.00    -0.265 OA
BRANCH   7  12
HETATM   12  C3  UNL     1       0.283   0.805   0.129  1.00  0.00     0.141 C 
HETATM   13  N3  UNL     1       1.115  -0.137  -0.011  1.00  0.00    -0.307 N 
ATOM     14  H3  UNL     1       0.755  -1.089  -0.081  1.00  0.00     0.186 HD
BRANCH  13  15
HETATM   15  N4  UNL     1       2.478   0.046  -0.074  1.00  0.00    -0.269 N 
HETATM   16  C4  UNL     1       3.416  -0.959   0.257  1.00  0.00     0.260 C 
HETATM   17  O1  UNL     1       3.002  -2.066   0.624  1.00  0.00    -0.269 OA
ATOM     18  H4  UNL     1       2.830   0.955  -0.375  1.00  0.00     0.190 HD
BRANCH  16  19
HETATM   19  C5  UNL     1       4.910  -0.714   0.173  1.00  0.00     0.283 C 
BRANCH  19  20
HETATM   20  O2  UNL     1       5.066   0.579  -0.255  1.00  0.00    -0.314 OA
BRANCH  20  21
HETATM   21  C6  UNL     1       6.239   1.255  -0.484  1.00  0.00     0.252 C 
HETATM   22  N5  UNL     1       6.211   2.599  -1.022  1.00  0.00    -0.054 NA
HETATM   23  N6  UNL     1       7.360   0.696  -0.222  1.00  0.00    -0.235 N 
ATOM     24  H6  UNL     1       8.221   1.213  -0.399  1.00  0.00     0.197 HD
BRANCH  23  25
HETATM   25  O3  UNL     1       7.441  -0.553   0.280  1.00  0.00    -0.287 OA
ATOM     26  H3  UNL     1       8.273  -0.968   0.474  1.00  0.00     0.244 HD
ENDBRANCH  23  25
ENDBRANCH  20  21
ENDBRANCH  19  20
ENDBRANCH  16  19
ENDBRANCH  13  15
ENDBRANCH   7  12
BRANCH   8  27
HETATM   27  N1  UNL     1      -1.354  -1.767  -0.015  1.00  0.00    -0.319 N 
HETATM   28  C1  UNL     1      -2.061  -3.001  -0.104  1.00  0.00     0.169 C 
ATOM     29  H1  UNL     1      -0.337  -1.821  -0.065  1.00  0.00     0.181 HD
ENDBRANCH   8  27
BRANCH   9  30
HETATM   30  C11 UNL     1      -4.336  -1.034   0.224  1.00  0.00     0.078 A 
HETATM   31  C12 UNL     1      -5.221  -1.188  -0.859  1.00  0.00     0.050 A 
HETATM   32  C13 UNL     1      -6.249  -2.020  -0.503  1.00  0.00     0.090 A 
HETATM   33  N10 UNL     1      -6.028  -2.387   0.769  1.00  0.00    -0.373 N 
HETATM   34  C14 UNL     1      -4.898  -1.810   1.214  1.00  0.00     0.119 A 
ATOM     35  H10 UNL     1      -6.626  -3.008   1.314  1.00  0.00     0.164 HD
ENDBRANCH   9  30
ENDBRANCH   1   6
TORSDOF 9
