REMARK  10 active torsions:
REMARK  status: ('A' for Active; 'I' for Inactive)
REMARK    1  A    between atoms: O1_2  and  S1_3 
REMARK    2  A    between atoms: S1_3  and  O4_6 
REMARK    3  A    between atoms: O4_6  and  C2_7 
REMARK    4  A    between atoms: C3_8  and  O5_9 
REMARK    5  A    between atoms: C7_14  and  C8_15 
REMARK    6  A    between atoms: C8_15  and  O6_16 
REMARK    7  A    between atoms: O6_16  and  N1_17 
REMARK    8  A    between atoms: C9_19  and  C10_20 
REMARK    9  A    between atoms: C12_25  and  N4_26 
REMARK   10  A    between atoms: C13_31  and  N6_32 
ROOT
HETATM    1  N1  UNL     1       1.250   1.058  -0.610  1.00  0.00    -0.275 N 
ATOM      2  H1  UNL     1       1.954   1.784  -0.479  1.00  0.00     0.193 HD
HETATM    3  C9  UNL     1       1.574  -0.182  -0.331  1.00  0.00     0.148 C 
ENDROOT
BRANCH   1   4
HETATM    4  O6  UNL     1       0.029   1.421  -1.062  1.00  0.00    -0.276 OA
BRANCH   4   5
HETATM    5  C8  UNL     1      -1.058   0.560  -0.914  1.00  0.00     0.242 C 
BRANCH   5   6
HETATM    6  C7  UNL     1      -2.315   1.134  -1.472  1.00  0.00     0.005 A 
HETATM    7  C2  UNL     1      -3.514   0.457  -1.435  1.00  0.00     0.133 A 
HETATM    8  C3  UNL     1      -4.671   0.991  -1.952  1.00  0.00     0.101 A 
HETATM    9  C4  UNL     1      -4.628   2.245  -2.525  1.00  0.00     0.039 A 
HETATM   10  C5  UNL     1      -3.446   2.953  -2.581  1.00  0.00     0.003 A 
HETATM   11  C6  UNL     1      -2.284   2.387  -2.048  1.00  0.00     0.012 A 
BRANCH   7  12
HETATM   12  O4  UNL     1      -3.582  -0.804  -0.864  1.00  0.00    -0.208 OA
BRANCH  12  13
HETATM   13  S1  UNL     1      -3.915  -1.085   0.757  1.00  0.00     0.406 S 
HETATM   14  O2  UNL     1      -4.169   0.264   1.415  1.00  0.00    -0.168 OA
HETATM   15  O3  UNL     1      -5.150  -1.960   0.908  1.00  0.00    -0.168 OA
BRANCH  13  16
HETATM   16  O1  UNL     1      -2.679  -1.817   1.584  1.00  0.00    -0.259 OA
HETATM   17  C1  UNL     1      -2.534  -1.341   2.885  1.00  0.00     0.228 C 
ENDBRANCH  13  16
ENDBRANCH  12  13
ENDBRANCH   7  12
BRANCH   8  18
HETATM   18  O5  UNL     1      -5.892   0.321  -1.924  1.00  0.00    -0.358 OA
ATOM     19  H5  UNL     1      -6.691   0.690  -2.281  1.00  0.00     0.217 HD
ENDBRANCH   8  18
ENDBRANCH   5   6
ENDBRANCH   4   5
ENDBRANCH   1   4
BRANCH   3  20
HETATM   20  C10 UNL     1       2.902  -0.503   0.150  1.00  0.00     0.110 A 
HETATM   21  N2  UNL     1       3.834   0.484   0.319  1.00  0.00    -0.280 N 
HETATM   22  N3  UNL     1       5.050   0.228   0.755  1.00  0.00    -0.128 N 
ATOM     23  H2  UNL     1       3.579   1.447   0.101  1.00  0.00     0.188 HD
HETATM   24  C11 UNL     1       6.040   1.283   0.933  1.00  0.00     0.197 C 
HETATM   25  C12 UNL     1       5.378  -1.028   1.038  1.00  0.00     0.694 A 
HETATM   26  N5  UNL     1       4.518  -2.031   0.894  1.00  0.00    -0.174 N 
HETATM   27  C13 UNL     1       3.242  -1.802   0.443  1.00  0.00     0.144 A 
ATOM     28  H5  UNL     1       4.809  -2.982   1.121  1.00  0.00     0.186 HD
BRANCH  25  29
HETATM   29  N4  UNL     1       6.589  -1.258   1.467  1.00  0.00    -0.233 N 
ATOM     30  H42 UNL     1       7.249  -0.488   1.578  1.00  0.00     0.174 HD
ATOM     31  H41 UNL     1       6.841  -2.222   1.684  1.00  0.00     0.174 HD
ENDBRANCH  25  29
BRANCH  27  32
HETATM   32  N6  UNL     1       2.436  -2.801   0.318  1.00  0.00    -0.383 N 
ATOM     33  H62 UNL     1       1.488  -2.631  -0.017  1.00  0.00     0.157 HD
ATOM     34  H61 UNL     1       2.688  -3.765   0.535  1.00  0.00     0.157 HD
ENDBRANCH  27  32
ENDBRANCH   3  20
TORSDOF 10
