REMARK  13 active torsions:
REMARK  status: ('A' for Active; 'I' for Inactive)
REMARK    1  A    between atoms: N1_1  and  C1_5 
REMARK    2  A    between atoms: C1_5  and  C2_6 
REMARK       I    between atoms: C2_6  and  N2_8 
REMARK    3  A    between atoms: N2_8  and  N3_10 
REMARK    4  A    between atoms: C3_12  and  C4_13 
REMARK    5  A    between atoms: C3_12  and  O4_28 
REMARK    6  A    between atoms: C4_13  and  C5_14 
REMARK    7  A    between atoms: C5_14  and  N4_15 
REMARK    8  A    between atoms: N4_15  and  N5_16 
REMARK    9  A    between atoms: N5_16  and  C6_18 
REMARK   10  A    between atoms: C6_18  and  S2_20 
REMARK   11  A    between atoms: S2_20  and  S3_21 
REMARK   12  A    between atoms: S3_21  and  C7_22 
REMARK   13  A    between atoms: O4_28  and  N6_29 
ROOT
HETATM    1  N3  UNL     1      -3.785   0.428   0.139  1.00  0.00    -0.279 N 
ATOM      2  H3  UNL     1      -3.609   1.392   0.422  1.00  0.00     0.189 HD
HETATM    3  C3  UNL     1      -2.926  -0.012  -0.624  1.00  0.00     0.161 C 
ENDROOT
BRANCH   3   4
HETATM    4  C4  UNL     1      -1.781   0.892  -1.012  1.00  0.00     0.106 C 
BRANCH   4   5
HETATM    5  C5  UNL     1      -0.869   1.001   0.228  1.00  0.00     0.143 C 
BRANCH   5   6
HETATM    6  N4  UNL     1       0.299   1.804  -0.191  1.00  0.00    -0.140 NA
BRANCH   6   7
HETATM    7  N5  UNL     1       1.381   0.941   0.106  1.00  0.00    -0.288 N 
ATOM      8  H5  UNL     1       2.043   0.719  -0.638  1.00  0.00     0.184 HD
BRANCH   7   9
HETATM    9  C6  UNL     1       1.584   0.385   1.352  1.00  0.00     0.160 C 
HETATM   10  S1  UNL     1       0.737   0.765   2.669  1.00  0.00    -0.051 SA
BRANCH   9  11
HETATM   11  S2  UNL     1       2.944  -0.817   1.540  1.00  0.00    -0.024 SA
BRANCH  11  12
HETATM   12  S3  UNL     1       4.004  -0.797  -0.352  1.00  0.00    -0.058 SA
BRANCH  12  13
HETATM   13  C7  UNL     1       5.391   0.362  -0.039  1.00  0.00     0.198 C 
HETATM   14  C8  UNL     1       6.293  -0.408   0.950  1.00  0.00     0.070 C 
HETATM   15  C9  UNL     1       7.712  -0.274   0.515  1.00  0.00     0.173 C 
HETATM   16  O2  UNL     1       7.833  -0.639  -0.812  1.00  0.00    -0.367 OA
HETATM   17  C10 UNL     1       6.911  -0.094  -1.661  1.00  0.00     0.339 C 
HETATM   18  O3  UNL     1       6.054   0.807  -1.124  1.00  0.00    -0.351 OA
ENDBRANCH  12  13
ENDBRANCH  11  12
ENDBRANCH   9  11
ENDBRANCH   7   9
ENDBRANCH   6   7
ENDBRANCH   5   6
ENDBRANCH   4   5
ENDBRANCH   3   4
BRANCH   3  19
HETATM   19  O4  UNL     1      -2.980  -1.268  -1.124  1.00  0.00    -0.230 OA
BRANCH  19  20
HETATM   20  N6  UNL     1      -4.070  -2.019  -1.318  1.00  0.00    -0.304 N 
ATOM     21  H62 UNL     1      -4.952  -1.580  -1.054  1.00  0.00     0.184 HD
ATOM     22  H61 UNL     1      -4.111  -2.966  -1.695  1.00  0.00     0.184 HD
ENDBRANCH  19  20
ENDBRANCH   3  19
BRANCH   1  23
HETATM   23  N2  UNL     1      -4.920  -0.089   0.690  1.00  0.00    -0.267 N 
HETATM   24  C2  UNL     1      -6.158   0.071   0.074  1.00  0.00     0.261 C 
HETATM   25  O1  UNL     1      -6.265   0.689  -1.015  1.00  0.00    -0.270 OA
ATOM     26  H2  UNL     1      -4.861  -0.602   1.569  1.00  0.00     0.190 HD
BRANCH  24  27
HETATM   27  C1  UNL     1      -7.384  -0.484   0.701  1.00  0.00     0.333 C 
BRANCH  27  28
HETATM   28  N1  UNL     1      -8.483  -0.153  -0.169  1.00  0.00    -0.071 N 
ATOM     29  H13 UNL     1      -8.550   0.845  -0.369  1.00  0.00     0.274 HD
ATOM     30  H12 UNL     1      -8.345  -0.468  -1.129  1.00  0.00     0.274 HD
ATOM     31  H11 UNL     1      -9.325  -0.534   0.262  1.00  0.00     0.274 HD
ENDBRANCH  27  28
ENDBRANCH  24  27
ENDBRANCH   1  23
TORSDOF 13
