REMARK  3 active torsions:
REMARK  status: ('A' for Active; 'I' for Inactive)
REMARK    1  A    between atoms: C2_2  and  C3_6 
REMARK    2  A    between atoms: C3_6  and  N2_8 
REMARK    3  A    between atoms: N2_8  and  N3_10 
ROOT
HETATM    1  N2  UNL     1       0.310  -1.208  -0.055  1.00  0.00    -0.304 N 
ATOM      2  H2  UNL     1       0.092  -2.177   0.179  1.00  0.00     0.183 HD
ENDROOT
BRANCH   1   3
HETATM    3  C3  UNL     1      -0.727  -0.381  -0.582  1.00  0.00     0.142 C 
HETATM    4  C4  UNL     1      -1.916  -1.231  -0.959  1.00  0.00     0.040 C 
BRANCH   3   5
HETATM    5  C2  UNL     1      -1.130   0.677   0.398  1.00  0.00    -0.000 C 
HETATM    6  C1  UNL     1      -2.115   1.718   0.023  1.00  0.00     0.065 C 
HETATM    7  N1  UNL     1      -0.609   0.636   1.560  1.00  0.00    -0.404 N 
ATOM      8  H12 UNL     1      -0.884   1.357   2.228  1.00  0.00     0.155 HD
ATOM      9  H11 UNL     1       0.069  -0.081   1.818  1.00  0.00     0.155 HD
ENDBRANCH   3   5
ENDBRANCH   1   3
BRANCH   1  10
HETATM   10  N3  UNL     1       1.652  -0.729   0.159  1.00  0.00    -0.181 N 
HETATM   11  N4  UNL     1       2.017   0.460  -0.161  1.00  0.00    -0.262 N 
HETATM   12  C5  UNL     1       3.275   0.838   0.081  1.00  0.00     0.161 A 
ATOM     13  H4  UNL     1       1.356   1.106  -0.593  1.00  0.00     0.190 HD
HETATM   14  S1  UNL     1       3.968   2.310  -0.242  1.00  0.00    -0.051 SA
HETATM   15  S2  UNL     1       3.948  -0.557   0.787  1.00  0.00    -0.026 SA
HETATM   16  C6  UNL     1       2.557  -1.536   0.722  1.00  0.00     0.184 A 
HETATM   17  S3  UNL     1       2.357  -3.097   1.226  1.00  0.00    -0.049 SA
ENDBRANCH   1  10
TORSDOF 3
