REMARK  5 active torsions:
REMARK  status: ('A' for Active; 'I' for Inactive)
REMARK    1  A    between atoms: C3_10  and  C4_11 
REMARK    2  A    between atoms: C4_11  and  C5_12 
REMARK    3  A    between atoms: C5_12  and  C6_13 
REMARK    4  A    between atoms: C6_13  and  N4_14 
REMARK    5  A    between atoms: C8_20  and  N6_21 
ROOT
HETATM    1  N1  UNL     1       4.528   0.914   2.209  1.00  0.00    -0.385 N 
ATOM      2  H11 UNL     1       4.920   0.315   2.936  1.00  0.00     0.157 HD
ATOM      3  H12 UNL     1       5.145   1.724   2.269  1.00  0.00     0.157 HD
HETATM    4  C1  UNL     1       3.594   0.870   1.411  1.00  0.00     0.107 A 
HETATM    5  N2  UNL     1       3.031   1.731   0.367  1.00  0.00    -0.331 N 
ATOM      6  H2  UNL     1       3.392   2.649   0.109  1.00  0.00     0.168 HD
HETATM    7  C2  UNL     1       2.093   1.203  -0.134  1.00  0.00     0.107 A 
HETATM    8  N3  UNL     1       0.932   1.119  -1.045  1.00  0.00    -0.360 N 
ATOM      9  H3  UNL     1       0.815   1.448  -2.003  1.00  0.00     0.162 HD
HETATM   10  C3  UNL     1      -0.115   0.335  -0.049  1.00  0.00     0.170 C 
HETATM   11  N5  UNL     1       0.334  -0.451   1.024  1.00  0.00    -0.216 NA
HETATM   12  C7  UNL     1       2.010  -1.392   1.379  1.00  0.00     0.144 A 
HETATM   13  C8  UNL     1       1.539  -2.412   1.609  1.00  0.00     0.078 A 
HETATM   14  S1  UNL     1       0.710  -1.822   0.102  1.00  0.00    -0.093 SA
HETATM   15  C9  UNL     1       1.875  -0.118   0.393  1.00  0.00     0.138 A 
HETATM   16  C10 UNL     1       2.658  -0.358   1.320  1.00  0.00     0.033 A 
ENDROOT
BRANCH  10  17
HETATM   17  C4  UNL     1      -1.262  -0.014  -0.872  1.00  0.00     0.043 C 
BRANCH  17  18
HETATM   18  C5  UNL     1      -1.865   1.312  -1.392  1.00  0.00     0.030 C 
BRANCH  18  19
HETATM   19  C6  UNL     1      -3.046   0.980  -2.249  1.00  0.00     0.230 C 
BRANCH  19  20
HETATM   20  N4  UNL     1      -4.064   0.246  -1.500  1.00  0.00    -0.079 N 
ATOM     21  H43 UNL     1      -3.675  -0.589  -1.062  1.00  0.00     0.274 HD
ATOM     22  H42 UNL     1      -4.344   0.750  -0.659  1.00  0.00     0.274 HD
ATOM     23  H41 UNL     1      -4.869   0.020  -2.084  1.00  0.00     0.274 HD
ENDBRANCH  19  20
ENDBRANCH  18  19
ENDBRANCH  17  18
ENDBRANCH  10  17
BRANCH  13  24
HETATM   24  N6  UNL     1       1.208  -3.580   2.240  1.00  0.00    -0.395 N 
ATOM     25  H62 UNL     1       1.673  -3.911   3.085  1.00  0.00     0.156 HD
ATOM     26  H61 UNL     1       0.789  -4.487   2.445  1.00  0.00     0.156 HD
ENDBRANCH  13  24
TORSDOF 5
