REMARK  3 active torsions:
REMARK  status: ('A' for Active; 'I' for Inactive)
REMARK       I    between atoms: C1_4  and  N3_6 
REMARK    1  A    between atoms: N3_6  and  N4_8 
REMARK    2  A    between atoms: N5_10  and  C2_12 
REMARK    3  A    between atoms: C4_15  and  S2_16 
ROOT
HETATM    1  N4  UNL     1      -1.219  -0.673   0.601  1.00  0.00    -0.239 N 
ATOM      2  H4  UNL     1      -1.276  -1.577   0.132  1.00  0.00     0.208 HD
HETATM    3  N5  UNL     1      -0.095  -0.161   0.895  1.00  0.00    -0.270 N 
ATOM      4  H5  UNL     1      -0.045   0.743   1.364  1.00  0.00     0.190 HD
ENDROOT
BRANCH   3   5
HETATM    5  C2  UNL     1       1.118  -0.883   0.553  1.00  0.00     0.129 A 
HETATM    6  C3  UNL     1       1.178  -2.237   0.777  1.00  0.00     0.102 A 
HETATM    7  S1  UNL     1       2.764  -2.601   0.224  1.00  0.00    -0.072 SA
HETATM    8  C4  UNL     1       3.231  -1.026  -0.246  1.00  0.00     0.125 A 
HETATM    9  N6  UNL     1       2.165  -0.318   0.041  1.00  0.00    -0.329 N 
ATOM     10  H6  UNL     1       2.160   0.686  -0.140  1.00  0.00     0.168 HD
BRANCH   8  11
HETATM   11  S2  UNL     1       4.808  -0.488  -0.961  1.00  0.00    -0.020 SA
HETATM   12  S3  UNL     1       4.778   1.594  -1.330  1.00  0.00    -0.006 SA
ENDBRANCH   8  11
ENDBRANCH   3   5
BRANCH   1  13
HETATM   13  N3  UNL     1      -2.376   0.035   0.937  1.00  0.00    -0.259 N 
HETATM   14  C1  UNL     1      -3.037   0.724  -0.117  1.00  0.00     0.201 C 
HETATM   15  N1  UNL     1      -3.797   0.071  -0.924  1.00  0.00    -0.372 N 
HETATM   16  N2  UNL     1      -2.850   2.112  -0.261  1.00  0.00    -0.062 NA
ATOM     17  H12 UNL     1      -4.271   0.565  -1.680  1.00  0.00     0.158 HD
ATOM     18  H11 UNL     1      -3.932  -0.935  -0.820  1.00  0.00     0.158 HD
ATOM     19  H3  UNL     1      -2.730   0.057   1.893  1.00  0.00     0.191 HD
ENDBRANCH   1  13
TORSDOF 3
