REMARK  5 active torsions:
REMARK  status: ('A' for Active; 'I' for Inactive)
REMARK    1  A    between atoms: N1_1  and  N2_4 
REMARK    2  A    between atoms: C1_5  and  C2_6 
REMARK    3  A    between atoms: C3_7  and  C4_8 
REMARK    4  A    between atoms: C4_8  and  C5_9 
REMARK    5  A    between atoms: C5_9  and  S1_10 
ROOT
HETATM    1  N2  UNL     1      -1.418  -1.462  -0.152  1.00  0.00    -0.218 N 
HETATM    2  C1  UNL     1      -0.505  -1.546   0.818  1.00  0.00     0.143 A 
HETATM    3  N3  UNL     1      -0.693  -2.803   1.353  1.00  0.00    -0.282 N 
ATOM      4  H3  UNL     1      -0.152  -3.196   2.124  1.00  0.00     0.188 HD
HETATM    5  N4  UNL     1      -1.666  -3.421   0.729  1.00  0.00    -0.273 N 
ATOM      6  H4  UNL     1      -2.003  -4.362   0.933  1.00  0.00     0.189 HD
HETATM    7  C6  UNL     1      -2.141  -2.610  -0.218  1.00  0.00     0.213 A 
HETATM    8  S3  UNL     1      -3.341  -2.846  -1.293  1.00  0.00    -0.037 SA
ENDROOT
BRANCH   2   9
HETATM    9  C2  UNL     1       0.486  -0.590   1.265  1.00  0.00     0.052 C 
HETATM   10  C3  UNL     1       0.711   0.610   0.799  1.00  0.00     0.004 C 
BRANCH  10  11
HETATM   11  C4  UNL     1       1.750   1.467   1.352  1.00  0.00     0.008 C 
BRANCH  11  12
HETATM   12  C5  UNL     1       1.956   2.672   0.864  1.00  0.00     0.057 C 
BRANCH  12  13
HETATM   13  S1  UNL     1       0.951   3.246  -0.481  1.00  0.00    -0.057 SA
HETATM   14  S2  UNL     1       1.974   3.133  -2.320  1.00  0.00    -0.008 SA
ENDBRANCH  12  13
ENDBRANCH  11  12
ENDBRANCH  10  11
ENDBRANCH   2   9
BRANCH   1  15
HETATM   15  N1  UNL     1      -1.627  -0.363  -0.997  1.00  0.00    -0.335 N 
ATOM     16  H12 UNL     1      -1.084   0.499  -0.947  1.00  0.00     0.177 HD
ATOM     17  H11 UNL     1      -2.325  -0.299  -1.738  1.00  0.00     0.177 HD
ENDBRANCH   1  15
TORSDOF 5
