REMARK  3 active torsions:
REMARK  status: ('A' for Active; 'I' for Inactive)
REMARK    1  A    between atoms: N2_4  and  N3_6 
REMARK    2  A    between atoms: C1_8  and  C2_9 
REMARK    3  A    between atoms: C3_13  and  C4_14 
ROOT
HETATM    1  C2  UNL     1       0.733  -1.441  -0.521  1.00  0.00     0.078 A 
HETATM    2  N4  UNL     1       0.767  -2.710  -0.951  1.00  0.00    -0.323 N 
ATOM      3  H4  UNL     1       1.509  -3.409  -0.907  1.00  0.00     0.174 HD
HETATM    4  S1  UNL     1      -0.772  -2.796  -1.578  1.00  0.00    -0.008 SA
HETATM    5  C3  UNL     1      -0.575  -1.234  -0.956  1.00  0.00     0.103 A 
ENDROOT
BRANCH   1   6
HETATM    6  C1  UNL     1       1.737  -0.630   0.153  1.00  0.00     0.140 C 
HETATM    7  N3  UNL     1       1.558   0.592   0.511  1.00  0.00    -0.296 N 
ATOM      8  H3  UNL     1       0.655   1.022   0.311  1.00  0.00     0.187 HD
BRANCH   7   9
HETATM    9  N2  UNL     1       2.516   1.359   1.151  1.00  0.00    -0.250 N 
HETATM   10  N1  UNL     1       3.291   0.863   2.046  1.00  0.00    -0.331 N 
ATOM     11  H12 UNL     1       3.185  -0.124   2.280  1.00  0.00     0.178 HD
ATOM     12  H11 UNL     1       3.997   1.428   2.518  1.00  0.00     0.178 HD
ATOM     13  H2  UNL     1       2.609   2.345   0.905  1.00  0.00     0.207 HD
ENDBRANCH   7   9
ENDBRANCH   1   6
BRANCH   5  14
HETATM   14  C4  UNL     1      -1.474  -0.075  -0.899  1.00  0.00     0.186 A 
HETATM   15  N5  UNL     1      -2.730  -0.007  -1.362  1.00  0.00    -0.276 N 
HETATM   16  N6  UNL     1      -3.214   1.202  -1.128  1.00  0.00    -0.268 N 
ATOM     17  H5  UNL     1      -3.233  -0.766  -1.822  1.00  0.00     0.189 HD
HETATM   18  C5  UNL     1      -2.248   1.896  -0.510  1.00  0.00     0.235 A 
ATOM     19  H6  UNL     1      -4.145   1.541  -1.371  1.00  0.00     0.190 HD
HETATM   20  S2  UNL     1      -2.358   3.437  -0.014  1.00  0.00    -0.031 SA
HETATM   21  O1  UNL     1      -1.217   1.095  -0.390  1.00  0.00    -0.263 OA
ENDBRANCH   5  14
TORSDOF 3
