REMARK  3 active torsions:
REMARK  status: ('A' for Active; 'I' for Inactive)
REMARK    1  A    between atoms: N1_1  and  N2_4 
REMARK    2  A    between atoms: N2_4  and  N3_6 
REMARK    3  A    between atoms: N4_8  and  N5_10 
ROOT
HETATM    1  N3  UNL     1      -1.107   0.303   0.265  1.00  0.00    -0.214 N 
ATOM      2  H3  UNL     1      -0.694  -0.030  -0.606  1.00  0.00     0.211 HD
HETATM    3  N4  UNL     1      -0.330   0.510   1.244  1.00  0.00    -0.225 N 
ATOM      4  H4  UNL     1      -0.739   0.843   2.117  1.00  0.00     0.210 HD
ENDROOT
BRANCH   1   5
HETATM    5  N2  UNL     1      -2.466   0.495   0.295  1.00  0.00    -0.234 N 
ATOM      6  H2  UNL     1      -2.864   1.388   0.585  1.00  0.00     0.209 HD
BRANCH   5   7
HETATM    7  N1  UNL     1      -3.223  -0.485  -0.053  1.00  0.00    -0.330 N 
ATOM      8  H12 UNL     1      -2.810  -1.372  -0.340  1.00  0.00     0.178 HD
ATOM      9  H11 UNL     1      -4.233  -0.342  -0.031  1.00  0.00     0.178 HD
ENDBRANCH   5   7
ENDBRANCH   1   5
BRANCH   3  10
HETATM   10  N5  UNL     1       1.034   0.313   1.202  1.00  0.00    -0.266 N 
HETATM   11  C1  UNL     1       1.726   0.475   0.137  1.00  0.00     0.159 A 
HETATM   12  C2  UNL     1       2.909   0.492  -0.649  1.00  0.00     0.262 A 
HETATM   13  O1  UNL     1       1.645   0.845  -1.294  1.00  0.00    -0.328 OA
ATOM     14  H5  UNL     1       1.512   0.026   2.056  1.00  0.00     0.190 HD
ENDBRANCH   3  10
TORSDOF 3
