REMARK  3 active torsions:
REMARK  status: ('A' for Active; 'I' for Inactive)
REMARK    1  A    between atoms: C4_4  and  C5_5 
REMARK    2  A    between atoms: C6_8  and  N2_9 
REMARK    3  A    between atoms: C7_13  and  C8_14 
ROOT
HETATM    1  C5  UNL     1      -1.178  -0.055   0.461  1.00  0.00     0.055 A 
HETATM    2  N1  UNL     1      -1.434  -0.779   1.529  1.00  0.00    -0.336 N 
ATOM      3  H1  UNL     1      -0.690  -1.315   1.975  1.00  0.00     0.168 HD
HETATM    4  C6  UNL     1      -2.665  -0.808   2.023  1.00  0.00     0.143 A 
HETATM    5  S1  UNL     1      -3.522   0.216   0.963  1.00  0.00    -0.051 SA
HETATM    6  C7  UNL     1      -2.246   0.637  -0.067  1.00  0.00     0.077 A 
ENDROOT
BRANCH   1   7
HETATM    7  C4  UNL     1       0.129  -0.036  -0.314  1.00  0.00    -0.050 C 
HETATM    8  C3  UNL     1       1.117   0.965   0.162  1.00  0.00     0.051 C 
HETATM    9  C2  UNL     1       2.547   0.611  -0.050  1.00  0.00     0.047 C 
HETATM   10  C1  UNL     1       3.137  -0.156   1.121  1.00  0.00     0.021 C 
HETATM   11  S2  UNL     1       2.783  -0.212  -1.604  1.00  0.00    -0.164 SA
HETATM   12  C10 UNL     1       1.377  -1.285  -1.972  1.00  0.00     0.078 C 
HETATM   13  C9  UNL     1       0.074  -0.471  -1.710  1.00  0.00     0.046 C 
ENDBRANCH   1   7
BRANCH   6  14
HETATM   14  C8  UNL     1      -2.344   1.598  -1.185  1.00  0.00     0.395 C 
HETATM   15  F1  UNL     1      -3.398   1.298  -1.985  1.00  0.00    -0.208 F 
HETATM   16  F2  UNL     1      -2.658   2.853  -0.595  1.00  0.00    -0.208 F 
ENDBRANCH   6  14
BRANCH   4  17
HETATM   17  N2  UNL     1      -3.100  -1.478   3.078  1.00  0.00    -0.380 N 
ATOM     18  H22 UNL     1      -2.587  -2.091   3.712  1.00  0.00     0.158 HD
ATOM     19  H21 UNL     1      -4.046  -1.500   3.458  1.00  0.00     0.158 HD
ENDBRANCH   4  17
TORSDOF 3
