REMARK  2 active torsions:
REMARK  status: ('A' for Active; 'I' for Inactive)
REMARK    1  A    between atoms: C2_2  and  C3_3 
REMARK    2  A    between atoms: C6_6  and  C7_7 
ROOT
HETATM    1  C1  UNL     1      -1.193  -1.491  -1.656  1.00  0.00     0.044 C 
HETATM    2  C2  UNL     1      -1.039  -0.420  -0.563  1.00  0.00     0.063 C 
HETATM    3  C8  UNL     1      -1.897  -0.850   0.560  1.00  0.00     0.047 C 
HETATM    4  C9  UNL     1      -3.035   0.048   0.941  1.00  0.00     0.085 C 
HETATM    5  S2  UNL     1      -2.435   1.779   1.136  1.00  0.00    -0.095 SA
HETATM    6  C10 UNL     1      -1.527   2.027  -0.396  1.00  0.00     0.134 C 
HETATM    7  N1  UNL     1      -1.088   3.172  -0.778  1.00  0.00    -0.380 N 
ATOM      8  H11 UNL     1      -0.573   3.313  -1.647  1.00  0.00     0.158 HD
ATOM      9  H12 UNL     1      -1.239   4.017  -0.227  1.00  0.00     0.158 HD
HETATM   10  N2  UNL     1      -1.319   0.859  -1.157  1.00  0.00    -0.357 N 
ATOM     11  H2  UNL     1      -1.369   0.924  -2.174  1.00  0.00     0.162 HD
ENDROOT
BRANCH   2  12
HETATM   12  C3  UNL     1       0.416  -0.340  -0.138  1.00  0.00     0.011 A 
HETATM   13  C4  UNL     1       1.205  -1.338   0.353  1.00  0.00     0.018 A 
HETATM   14  C5  UNL     1       2.473  -1.031   0.673  1.00  0.00     0.021 A 
HETATM   15  C6  UNL     1       2.867   0.263   0.479  1.00  0.00     0.047 A 
HETATM   16  S1  UNL     1       1.464   1.005  -0.143  1.00  0.00    -0.091 SA
BRANCH  15  17
HETATM   17  C7  UNL     1       4.200   0.873   0.749  1.00  0.00     0.393 C 
HETATM   18  F1  UNL     1       4.477   0.882   2.097  1.00  0.00    -0.208 F 
HETATM   19  F2  UNL     1       5.214   0.208   0.106  1.00  0.00    -0.208 F 
ENDBRANCH  15  17
ENDBRANCH   2  12
TORSDOF 2
