REMARK  3 active torsions:
REMARK  status: ('A' for Active; 'I' for Inactive)
REMARK    1  A    between atoms: N3_9  and  N4_11 
REMARK    2  A    between atoms: N4_11  and  C6_12 
REMARK    3  A    between atoms: C11_17  and  C12_18 
ROOT
HETATM    1  N1  UNL     1       1.737  -0.738  -1.290  1.00  0.00    -0.098 NA
HETATM    2  C1  UNL     1       2.736  -0.087  -0.525  1.00  0.00     0.092 A 
HETATM    3  C2  UNL     1       4.062  -0.176  -0.943  1.00  0.00     0.032 A 
HETATM    4  C3  UNL     1       5.024   0.461  -0.191  1.00  0.00     0.019 A 
HETATM    5  C4  UNL     1       4.684   1.166   0.942  1.00  0.00     0.090 A 
HETATM    6  N2  UNL     1       3.401   1.225   1.306  1.00  0.00    -0.349 N 
ATOM      7  H2  UNL     1       3.156   1.748   2.146  1.00  0.00     0.167 HD
HETATM    8  C5  UNL     1       2.400   0.614   0.601  1.00  0.00     0.155 A 
HETATM    9  N3  UNL     1       1.202   0.702   0.991  1.00  0.00    -0.217 N 
ATOM     10  H3  UNL     1       1.164   1.263   1.842  1.00  0.00     0.203 HD
ENDROOT
BRANCH   9  11
HETATM   11  N4  UNL     1       0.039   0.331   0.684  1.00  0.00    -0.333 NA
BRANCH  11  12
HETATM   12  C6  UNL     1      -1.063  -0.075   0.405  1.00  0.00     0.096 C 
HETATM   13  C7  UNL     1      -1.381  -1.543   0.626  1.00  0.00     0.071 C 
HETATM   14  C8  UNL     1      -2.725  -1.533   1.351  1.00  0.00     0.007 C 
HETATM   15  C9  UNL     1      -3.711  -1.105   0.284  1.00  0.00     0.001 C 
HETATM   16  C10 UNL     1      -3.486   0.285  -0.184  1.00  0.00     0.017 C 
HETATM   17  C11 UNL     1      -2.117   0.824  -0.137  1.00  0.00     0.113 C 
BRANCH  17  18
HETATM   18  C12 UNL     1      -1.661   1.349  -1.482  1.00  0.00     0.363 C 
HETATM   19  F1  UNL     1      -0.488   2.045  -1.327  1.00  0.00    -0.214 F 
HETATM   20  F2  UNL     1      -1.474   0.347  -2.408  1.00  0.00    -0.214 F 
ENDBRANCH  17  18
ENDBRANCH  11  12
ENDBRANCH   9  11
TORSDOF 3
