REMARK  3 active torsions:
REMARK  status: ('A' for Active; 'I' for Inactive)
REMARK    1  A    between atoms: C3_3  and  C4_4 
REMARK    2  A    between atoms: N1_5  and  O1_7 
REMARK    3  A    between atoms: C12_17  and  O2_18 
ROOT
HETATM    1  C1  UNL     1       1.366  -1.644   1.293  1.00  0.00     0.014 C 
HETATM    2  C2  UNL     1       1.282  -1.101  -0.094  1.00  0.00     0.023 C 
HETATM    3  C3  UNL     1       1.493   0.392  -0.043  1.00  0.00     0.054 C 
HETATM    4  C5  UNL     1       0.736   1.091  -1.115  1.00  0.00    -0.019 C 
HETATM    5  C6  UNL     1      -0.414   1.716  -0.903  1.00  0.00    -0.010 C 
HETATM    6  C7  UNL     1      -1.114   1.816   0.400  1.00  0.00     0.104 C 
HETATM    7 CL1  UNL     1      -0.897   3.514   0.959  1.00  0.00    -0.121 Cl
HETATM    8  C8  UNL     1      -2.600   1.545   0.164  1.00  0.00     0.024 C 
HETATM    9  C9  UNL     1      -2.957   0.120   0.514  1.00  0.00     0.002 C 
HETATM   10  C10 UNL     1      -2.389  -0.876  -0.449  1.00  0.00     0.002 C 
HETATM   11  C11 UNL     1      -1.176  -1.607   0.120  1.00  0.00     0.032 C 
HETATM   12  C12 UNL     1       0.006  -1.495  -0.789  1.00  0.00     0.122 C 
ENDROOT
BRANCH   3  13
HETATM   13  C4  UNL     1       2.927   0.671  -0.262  1.00  0.00     0.095 C 
HETATM   14  N1  UNL     1       3.509   1.659   0.304  1.00  0.00    -0.284 N 
ATOM     15  H1  UNL     1       2.957   2.259   0.917  1.00  0.00     0.192 HD
BRANCH  14  16
HETATM   16  O1  UNL     1       4.836   1.954   0.129  1.00  0.00    -0.291 OA
ATOM     17  H1  UNL     1       5.268   2.688   0.549  1.00  0.00     0.244 HD
ENDBRANCH  14  16
ENDBRANCH   3  13
BRANCH  12  18
HETATM   18  O2  UNL     1       0.223  -2.783  -1.333  1.00  0.00    -0.395 OA
ATOM     19  H2  UNL     1      -0.582  -3.032  -1.772  1.00  0.00     0.210 HD
ENDBRANCH  12  18
TORSDOF 3
