REMARK  5 active torsions:
REMARK  status: ('A' for Active; 'I' for Inactive)
REMARK    1  A    between atoms: N1_1  and  C1_5 
REMARK    2  A    between atoms: C1_5  and  N2_6 
REMARK    3  A    between atoms: C1_5  and  C2_10 
REMARK    4  A    between atoms: C2_10  and  N3_11 
REMARK    5  A    between atoms: N3_11  and  C3_13 
ROOT
HETATM    1  C2  UNL     1      -1.747  -0.417  -0.787  1.00  0.00     0.200 C 
ENDROOT
BRANCH   1   2
HETATM    2  C1  UNL     1      -2.243  -0.016   0.594  1.00  0.00     0.396 C 
BRANCH   2   3
HETATM    3  N1  UNL     1      -3.440  -0.780   0.881  1.00  0.00    -0.049 N 
ATOM      4  H13 UNL     1      -3.936  -0.469   1.716  1.00  0.00     0.276 HD
ATOM      5  H12 UNL     1      -4.201  -0.615   0.222  1.00  0.00     0.276 HD
ATOM      6  H11 UNL     1      -3.135  -1.753   0.923  1.00  0.00     0.276 HD
ENDBRANCH   2   3
BRANCH   2   7
HETATM    7  N2  UNL     1      -2.683   1.389   0.534  1.00  0.00    -0.049 N 
ATOM      8  H23 UNL     1      -3.444   1.554  -0.125  1.00  0.00     0.276 HD
ATOM      9  H22 UNL     1      -3.179   1.700   1.369  1.00  0.00     0.276 HD
ATOM     10  H21 UNL     1      -1.840   1.927   0.332  1.00  0.00     0.276 HD
ENDBRANCH   2   7
ENDBRANCH   1   2
BRANCH   1  11
HETATM   11  N3  UNL     1      -0.555   0.294  -1.148  1.00  0.00    -0.223 N 
ATOM     12  H3  UNL     1      -0.590   0.985  -1.898  1.00  0.00     0.177 HD
BRANCH  11  13
HETATM   13  C3  UNL     1       0.681   0.050  -0.474  1.00  0.00     0.669 C 
HETATM   14  N4  UNL     1       0.996  -1.103  -0.013  1.00  0.00    -0.227 N 
HETATM   15  C4  UNL     1       2.230  -1.370   0.668  1.00  0.00     0.139 C 
ATOM     16  H4  UNL     1       0.336  -1.870  -0.136  1.00  0.00     0.177 HD
HETATM   17  C5  UNL     1       3.197  -0.237   0.725  1.00  0.00     0.040 C 
HETATM   18  C6  UNL     1       2.545   1.109   0.732  1.00  0.00     0.139 C 
HETATM   19  N5  UNL     1       1.564   1.153  -0.325  1.00  0.00    -0.227 N 
ATOM     20  H5  UNL     1       1.506   1.957  -0.950  1.00  0.00     0.177 HD
ENDBRANCH  11  13
ENDBRANCH   1  11
TORSDOF 5
