REMARK  5 active torsions:
REMARK  status: ('A' for Active; 'I' for Inactive)
REMARK    1  A    between atoms: C2_2  and  C3_3 
REMARK    2  A    between atoms: C3_3  and  N1_4 
REMARK    3  A    between atoms: N1_4  and  C4_6 
REMARK    4  A    between atoms: C6_9  and  C7_10 
REMARK    5  A    between atoms: C8_13  and  N3_14 
ROOT
HETATM    1  C4  UNL     1       0.541  -0.336  -0.391  1.00  0.00     0.102 C 
HETATM    2  C5  UNL     1      -0.035   0.884  -1.022  1.00  0.00     0.193 C 
HETATM    3  O1  UNL     1      -1.212   1.325  -0.495  1.00  0.00    -0.373 OA
HETATM    4  C6  UNL     1      -2.199   0.391  -0.316  1.00  0.00     0.240 C 
HETATM    5  C8  UNL     1      -1.740  -0.954   0.094  1.00  0.00     0.223 C 
HETATM    6  C9  UNL     1      -0.369  -0.846   0.725  1.00  0.00     0.062 C 
ENDROOT
BRANCH   1   7
HETATM    7  N1  UNL     1       1.831  -0.173   0.188  1.00  0.00    -0.412 N 
ATOM      8  H1  UNL     1       1.984  -0.304   1.188  1.00  0.00     0.153 HD
BRANCH   7   9
HETATM    9  C3  UNL     1       2.896   0.179  -0.681  1.00  0.00     0.141 C 
BRANCH   9  10
HETATM   10  C2  UNL     1       4.140   0.292   0.135  1.00  0.00    -0.018 C 
HETATM   11  C1  UNL     1       4.840   1.400   0.226  1.00  0.00     0.008 C 
ENDBRANCH   9  10
ENDBRANCH   7   9
ENDBRANCH   1   7
BRANCH   5  12
HETATM   12  N3  UNL     1      -2.638  -1.689   0.937  1.00  0.00    -0.072 N 
ATOM     13  H33 UNL     1      -2.873  -1.136   1.761  1.00  0.00     0.274 HD
ATOM     14  H32 UNL     1      -3.555  -1.754   0.495  1.00  0.00     0.274 HD
ATOM     15  H31 UNL     1      -2.321  -2.617   1.220  1.00  0.00     0.274 HD
ENDBRANCH   5  12
BRANCH   4  16
HETATM   16  C7  UNL     1      -3.154   0.900   0.687  1.00  0.00     0.262 C 
HETATM   17  N2  UNL     1      -4.322   0.199   1.078  1.00  0.00    -0.060 NA
HETATM   18  O2  UNL     1      -2.937   2.007   1.231  1.00  0.00    -0.274 OA
ENDBRANCH   4  16
TORSDOF 5
