REMARK  15 active torsions:
REMARK  status: ('A' for Active; 'I' for Inactive)
REMARK    1  A    between atoms: C4_5  and  O2_6 
REMARK    2  A    between atoms: O2_6  and  C5_7 
REMARK    3  A    between atoms: C6_8  and  O3_9 
REMARK    4  A    between atoms: O3_9  and  C7_10 
REMARK    5  A    between atoms: C9_13  and  O5_14 
REMARK    6  A    between atoms: C10_16  and  O6_17 
REMARK    7  A    between atoms: C11_19  and  O7_20 
REMARK    8  A    between atoms: C13_24  and  O9_25 
REMARK    9  A    between atoms: O9_25  and  C14_26 
REMARK   10  A    between atoms: C14_26  and  O10_27 
REMARK   11  A    between atoms: O10_27  and  C15_28 
REMARK   12  A    between atoms: C15_28  and  C16_29 
REMARK   13  A    between atoms: C16_29  and  O11_30 
REMARK   14  A    between atoms: C17_32  and  O12_33 
REMARK   15  A    between atoms: C19_37  and  O14_38 
ROOT
HETATM    1  C5  UNL     1       0.296  -0.186   0.316  1.00  0.00     0.189 C 
HETATM    2  C6  UNL     1       0.106   1.117  -0.477  1.00  0.00     0.180 C 
HETATM    3  C12 UNL     1       1.409   1.863  -0.546  1.00  0.00     0.205 C 
HETATM    4  O8  UNL     1       2.430   0.932  -0.768  1.00  0.00    -0.356 OA
HETATM    5  C13 UNL     1       2.701   0.225   0.397  1.00  0.00     0.293 C 
HETATM    6  C17 UNL     1       1.456   0.049   1.244  1.00  0.00     0.205 C 
ENDROOT
BRANCH   2   7
HETATM    7  O3  UNL     1      -0.930   1.800   0.064  1.00  0.00    -0.348 OA
BRANCH   7   8
HETATM    8  C7  UNL     1      -2.019   2.011  -0.762  1.00  0.00     0.291 C 
HETATM    9  O4  UNL     1      -2.083   3.382  -1.014  1.00  0.00    -0.356 OA
HETATM   10  C8  UNL     1      -2.582   4.107   0.048  1.00  0.00     0.205 C 
HETATM   11  C9  UNL     1      -4.074   3.752   0.117  1.00  0.00     0.173 C 
HETATM   12  C10 UNL     1      -4.075   2.317   0.656  1.00  0.00     0.182 C 
HETATM   13  C11 UNL     1      -3.297   1.434  -0.251  1.00  0.00     0.204 C 
BRANCH  11  14
HETATM   14  O5  UNL     1      -4.770   4.603   0.935  1.00  0.00    -0.391 OA
ATOM     15  H5  UNL     1      -5.693   4.383   0.978  1.00  0.00     0.210 HD
ENDBRANCH  11  14
BRANCH  12  16
HETATM   16  O6  UNL     1      -5.381   1.918   0.778  1.00  0.00    -0.390 OA
ATOM     17  H6  UNL     1      -5.382   1.029   1.112  1.00  0.00     0.210 HD
ENDBRANCH  12  16
BRANCH  13  18
HETATM   18  O7  UNL     1      -4.153   1.037  -1.297  1.00  0.00    -0.388 OA
ATOM     19  H7  UNL     1      -4.967   0.670  -0.972  1.00  0.00     0.210 HD
ENDBRANCH  13  18
ENDBRANCH   7   8
ENDBRANCH   2   7
BRANCH   1  20
HETATM   20  O2  UNL     1       0.481  -1.206  -0.577  1.00  0.00    -0.348 OA
BRANCH  20  21
HETATM   21  C4  UNL     1      -0.480  -2.182  -0.563  1.00  0.00     0.285 C 
HETATM   22  O1  UNL     1      -1.129  -2.349  -1.771  1.00  0.00    -0.344 OA
HETATM   23  C2  UNL     1      -1.887  -3.459  -1.895  1.00  0.00     0.106 C 
HETATM   24  C1  UNL     1      -2.067  -3.796  -3.366  1.00  0.00     0.051 C 
HETATM   25  C3  UNL     1      -3.293  -3.113  -1.379  1.00  0.00     0.051 C 
HETATM   26  C19 UNL     1      -1.448  -4.659  -1.120  1.00  0.00     0.290 C 
HETATM   27  O13 UNL     1      -0.844  -4.393   0.074  1.00  0.00    -0.354 OA
HETATM   28  C18 UNL     1       0.184  -3.478  -0.145  1.00  0.00     0.232 C 
BRANCH  26  29
HETATM   29  O14 UNL     1      -2.533  -5.526  -0.854  1.00  0.00    -0.368 OA
ATOM     30  H14 UNL     1      -2.254  -6.289  -0.361  1.00  0.00     0.212 HD
ENDBRANCH  26  29
ENDBRANCH  20  21
ENDBRANCH   1  20
BRANCH   6  31
HETATM   31  O12 UNL     1       1.690  -0.990   2.118  1.00  0.00    -0.388 OA
ATOM     32  H12 UNL     1       2.423  -0.842   2.704  1.00  0.00     0.210 HD
ENDBRANCH   6  31
BRANCH   5  33
HETATM   33  O9  UNL     1       3.642   0.874   1.193  1.00  0.00    -0.335 OA
BRANCH  33  34
HETATM   34  C14 UNL     1       4.749   0.042   1.360  1.00  0.00     0.341 C 
BRANCH  34  35
HETATM   35  O10 UNL     1       5.725   0.620   2.139  1.00  0.00    -0.365 OA
BRANCH  35  36
HETATM   36  C15 UNL     1       6.229   1.797   1.641  1.00  0.00     0.196 C 
BRANCH  36  37
HETATM   37  C16 UNL     1       7.290   2.284   2.632  1.00  0.00     0.190 C 
BRANCH  37  38
HETATM   38  O11 UNL     1       8.258   1.299   2.705  1.00  0.00    -0.399 OA
ATOM     39  H11 UNL     1       8.916   1.601   3.320  1.00  0.00     0.209 HD
ENDBRANCH  37  38
ENDBRANCH  36  37
ENDBRANCH  35  36
ENDBRANCH  34  35
ENDBRANCH  33  34
ENDBRANCH   5  33
TORSDOF 15
