REMARK  18 active torsions:
REMARK  status: ('A' for Active; 'I' for Inactive)
REMARK    1  A    between atoms: C2_2  and  N1_3 
REMARK    2  A    between atoms: C2_2  and  C3_7 
REMARK    3  A    between atoms: C3_7  and  O1_8 
REMARK    4  A    between atoms: O1_8  and  N2_9 
REMARK    5  A    between atoms: C4_11  and  N3_12 
REMARK    6  A    between atoms: C4_11  and  O6_33 
REMARK       I    between atoms: N3_12  and  C5_14 
REMARK       I    between atoms: C5_14  and  N4_16 
REMARK    7  A    between atoms: N4_16  and  N5_17 
REMARK    8  A    between atoms: N4_16  and  C6_21 
REMARK    9  A    between atoms: N5_17  and  O3_19 
REMARK   10  A    between atoms: C6_21  and  O4_22 
REMARK   11  A    between atoms: C6_21  and  N6_24 
REMARK   12  A    between atoms: C11_29  and  C12_30 
REMARK   13  A    between atoms: O6_33  and  C13_34 
REMARK   14  A    between atoms: C13_34  and  O7_35 
REMARK   15  A    between atoms: O7_35  and  C14_36 
REMARK   16  A    between atoms: C14_36  and  C15_38 
REMARK   17  A    between atoms: C15_38  and  O9_39 
REMARK   18  A    between atoms: C15_38  and  C16_41 
ROOT
HETATM    1  N2  UNL     1      -3.009  -1.159  -0.964  1.00  0.00    -0.230 N 
ATOM      2  H2  UNL     1      -3.974  -0.828  -0.985  1.00  0.00     0.198 HD
HETATM    3  C4  UNL     1      -2.072  -0.321  -0.662  1.00  0.00     0.249 C 
ENDROOT
BRANCH   3   4
HETATM    4  N3  UNL     1      -0.737  -0.783  -0.635  1.00  0.00    -0.271 N 
HETATM    5  C5  UNL     1       0.347   0.106  -0.306  1.00  0.00     0.353 C 
HETATM    6  O2  UNL     1       0.122   1.314  -0.037  1.00  0.00    -0.244 OA
HETATM    7  N4  UNL     1       1.689  -0.358  -0.278  1.00  0.00    -0.147 N 
ATOM      8  H3  UNL     1      -0.538  -1.760  -0.852  1.00  0.00     0.174 HD
BRANCH   7   9
HETATM    9  N5  UNL     1       1.895  -1.687  -0.572  1.00  0.00    -0.196 N 
ATOM     10  H5  UNL     1       2.353  -1.926  -1.452  1.00  0.00     0.216 HD
BRANCH   9  11
HETATM   11  O3  UNL     1       1.544  -2.619   0.195  1.00  0.00    -0.274 OA
ATOM     12  H3  UNL     1       1.686  -3.536  -0.008  1.00  0.00     0.246 HD
ENDBRANCH   9  11
ENDBRANCH   7   9
BRANCH   7  13
HETATM   13  C6  UNL     1       2.726   0.528   0.033  1.00  0.00     0.247 C 
BRANCH  13  14
HETATM   14  O4  UNL     1       2.373   1.772   0.299  1.00  0.00    -0.331 OA
ATOM     15  H4  UNL     1       3.077   2.374   0.510  1.00  0.00     0.221 HD
ENDBRANCH  13  14
BRANCH  13  16
HETATM   16  N6  UNL     1       4.112   0.322   0.112  1.00  0.00    -0.333 N 
HETATM   17  C7  UNL     1       4.822  -0.882  -0.114  1.00  0.00     0.127 C 
HETATM   18  C8  UNL     1       5.724  -1.261   1.058  1.00  0.00     0.020 C 
HETATM   19  C9  UNL     1       6.597  -0.097   1.467  1.00  0.00     0.004 C 
HETATM   20  C10 UNL     1       5.778   1.138   1.639  1.00  0.00     0.035 C 
HETATM   21  C11 UNL     1       4.935   1.495   0.472  1.00  0.00     0.177 C 
BRANCH  21  22
HETATM   22  C12 UNL     1       5.729   1.991  -0.657  1.00  0.00     0.254 C 
HETATM   23  N7  UNL     1       6.621   3.111  -0.489  1.00  0.00    -0.060 NA
HETATM   24  O5  UNL     1       5.713   1.516  -1.824  1.00  0.00    -0.275 OA
ENDBRANCH  21  22
ENDBRANCH  13  16
ENDBRANCH   7  13
ENDBRANCH   3   4
BRANCH   3  25
HETATM   25  O6  UNL     1      -2.448   0.973  -0.387  1.00  0.00    -0.294 OA
BRANCH  25  26
HETATM   26  C13 UNL     1      -3.825   1.366  -0.413  1.00  0.00     0.358 C 
BRANCH  26  27
HETATM   27  O7  UNL     1      -3.982   2.719  -0.105  1.00  0.00    -0.293 OA
BRANCH  27  28
HETATM   28  C14 UNL     1      -5.268   3.236  -0.094  1.00  0.00     0.300 C 
HETATM   29  O8  UNL     1      -6.253   2.472  -0.362  1.00  0.00    -0.262 OA
BRANCH  28  30
HETATM   30  C15 UNL     1      -5.511   4.686   0.230  1.00  0.00     0.319 C 
BRANCH  30  31
HETATM   31  O9  UNL     1      -6.867   4.931   0.171  1.00  0.00    -0.376 OA
ATOM     32  H9  UNL     1      -7.020   5.846   0.375  1.00  0.00     0.211 HD
ENDBRANCH  30  31
BRANCH  30  33
HETATM   33  C16 UNL     1      -4.939   4.922   1.564  1.00  0.00     0.213 C 
HETATM   34  O10 UNL     1      -3.721   4.740   1.764  1.00  0.00    -0.646 OA
HETATM   35  O11 UNL     1      -5.746   5.345   2.591  1.00  0.00    -0.646 OA
ENDBRANCH  30  33
ENDBRANCH  28  30
ENDBRANCH  27  28
ENDBRANCH  26  27
ENDBRANCH  25  26
ENDBRANCH   3  25
BRANCH   1  36
HETATM   36  O1  UNL     1      -2.759  -2.471  -1.256  1.00  0.00    -0.275 OA
BRANCH  36  37
HETATM   37  C3  UNL     1      -3.611  -3.442  -0.685  1.00  0.00     0.233 C 
BRANCH  37  38
HETATM   38  C2  UNL     1      -3.197  -4.847  -1.110  1.00  0.00     0.205 C 
HETATM   39  C1  UNL     1      -4.221  -5.794  -0.507  1.00  0.00     0.042 C 
BRANCH  38  40
HETATM   40  N1  UNL     1      -1.861  -5.148  -0.699  1.00  0.00    -0.073 N 
ATOM     41  H13 UNL     1      -1.786  -5.169   0.318  1.00  0.00     0.274 HD
ATOM     42  H12 UNL     1      -1.625  -6.120  -0.901  1.00  0.00     0.274 HD
ATOM     43  H11 UNL     1      -1.174  -4.512  -1.104  1.00  0.00     0.274 HD
ENDBRANCH  38  40
ENDBRANCH  37  38
ENDBRANCH  36  37
ENDBRANCH   1  36
TORSDOF 18
