REMARK  13 active torsions:
REMARK  status: ('A' for Active; 'I' for Inactive)
REMARK    1  A    between atoms: C2_2  and  C3_3 
REMARK    2  A    between atoms: N1_5  and  C5_6 
REMARK    3  A    between atoms: C7_10  and  C8_11 
REMARK    4  A    between atoms: C8_11  and  O1_12 
REMARK    5  A    between atoms: N3_16  and  C10_17 
REMARK    6  A    between atoms: C10_17  and  C11_18 
REMARK       I    between atoms: C11_18  and  N4_20 
REMARK    7  A    between atoms: N4_20  and  C12_21 
REMARK    8  A    between atoms: C12_21  and  C13_22 
REMARK    9  A    between atoms: C13_22  and  O4_23 
REMARK   10  A    between atoms: C13_22  and  N5_25 
REMARK   11  A    between atoms: N5_25  and  C14_27 
REMARK   12  A    between atoms: C14_27  and  C15_28 
REMARK   13  A    between atoms: C17_40  and  N11_41 
ROOT
HETATM    1  C5  UNL     1       4.050   0.204  -0.320  1.00  0.00     0.706 A 
HETATM    2  N2  UNL     1       2.804   0.498  -0.588  1.00  0.00    -0.187 N 
ATOM      3  H2  UNL     1       2.550   1.386  -1.021  1.00  0.00     0.184 HD
HETATM    4  C6  UNL     1       1.863  -0.424  -0.268  1.00  0.00     0.095 A 
HETATM    5  C7  UNL     1       0.558  -0.198  -0.586  1.00  0.00     0.064 A 
HETATM    6  C9  UNL     1      -0.384  -1.151  -0.273  1.00  0.00     0.273 A 
HETATM    7  O2  UNL     1      -1.554  -0.836  -0.595  1.00  0.00    -0.266 OA
HETATM    8  N3  UNL     1      -0.109  -2.334   0.327  1.00  0.00    -0.246 N 
HETATM    9  N10 UNL     1       1.181  -2.556   0.608  1.00  0.00    -0.290 N 
ATOM     10  H10 UNL     1       1.445  -3.438   1.047  1.00  0.00     0.187 HD
HETATM   11  C16 UNL     1       2.130  -1.666   0.334  1.00  0.00     0.120 A 
HETATM   12  C17 UNL     1       3.489  -1.912   0.590  1.00  0.00     0.145 A 
HETATM   13  N12 UNL     1       4.412  -0.993   0.259  1.00  0.00    -0.173 N 
ATOM     14  H12 UNL     1       5.397  -1.185   0.439  1.00  0.00     0.186 HD
ENDROOT
BRANCH   8  15
HETATM   15  C10 UNL     1      -1.165  -3.148   0.871  1.00  0.00     0.271 C 
BRANCH  15  16
HETATM   16  C11 UNL     1      -2.357  -3.135  -0.070  1.00  0.00     0.311 C 
HETATM   17  O3  UNL     1      -2.146  -3.444  -1.208  1.00  0.00    -0.255 OA
HETATM   18  N4  UNL     1      -3.591  -2.732   0.489  1.00  0.00    -0.378 NA
BRANCH  18  19
HETATM   19  C12 UNL     1      -4.797  -2.338   1.032  1.00  0.00     0.241 C 
BRANCH  19  20
HETATM   20  C13 UNL     1      -5.343  -1.164   0.347  1.00  0.00     0.165 C 
BRANCH  20  21
HETATM   21  O4  UNL     1      -4.560  -0.664  -0.624  1.00  0.00    -0.344 OA
ATOM     22  H4  UNL     1      -4.914   0.097  -1.068  1.00  0.00     0.219 HD
ENDBRANCH  20  21
BRANCH  20  23
HETATM   23  N5  UNL     1      -6.510  -0.429   0.466  1.00  0.00    -0.362 N 
ATOM     24  H5  UNL     1      -7.228  -0.646   1.158  1.00  0.00     0.162 HD
BRANCH  23  25
HETATM   25  C14 UNL     1      -6.631   0.648  -0.447  1.00  0.00     0.201 C 
BRANCH  25  26
HETATM   26  C15 UNL     1      -7.705   1.626  -0.260  1.00  0.00     0.131 A 
HETATM   27  N6  UNL     1      -7.580   2.899  -0.761  1.00  0.00    -0.271 N 
HETATM   28  N7  UNL     1      -8.671   3.492  -0.484  1.00  0.00    -0.227 N 
ATOM     29  H6  UNL     1      -6.777   3.289  -1.254  1.00  0.00     0.190 HD
HETATM   30  N8  UNL     1      -9.497   2.717   0.159  1.00  0.00    -0.227 N 
ATOM     31  H7  UNL     1      -8.875   4.459  -0.736  1.00  0.00     0.210 HD
HETATM   32  N9  UNL     1      -8.896   1.529   0.307  1.00  0.00    -0.271 N 
ATOM     33  H8  UNL     1     -10.429   2.968   0.489  1.00  0.00     0.210 HD
ATOM     34  H9  UNL     1      -9.283   0.706   0.769  1.00  0.00     0.190 HD
ENDBRANCH  25  26
ENDBRANCH  23  25
ENDBRANCH  20  23
ENDBRANCH  19  20
ENDBRANCH  18  19
ENDBRANCH  15  16
ENDBRANCH   8  15
BRANCH   5  35
HETATM   35  C8  UNL     1       0.111   1.138  -1.125  1.00  0.00     0.211 C 
BRANCH  35  36
HETATM   36  O1  UNL     1      -0.699   0.791  -2.227  1.00  0.00    -0.396 OA
ATOM     37  H1  UNL     1      -0.981   1.632  -2.566  1.00  0.00     0.209 HD
ENDBRANCH  35  36
ENDBRANCH   5  35
BRANCH  12  38
HETATM   38  N11 UNL     1       3.843  -3.019   1.097  1.00  0.00    -0.383 N 
ATOM     39 2H11 UNL     1       3.142  -3.717   1.348  1.00  0.00     0.157 HD
ATOM     40 1H11 UNL     1       4.830  -3.198   1.283  1.00  0.00     0.157 HD
ENDBRANCH  12  38
BRANCH   1  41
HETATM   41  N1  UNL     1       5.143   1.091  -0.611  1.00  0.00    -0.081 N 
HETATM   42  C4  UNL     1       5.916   1.646   0.350  1.00  0.00     0.163 A 
HETATM   43  C3  UNL     1       6.937   2.353  -0.262  1.00  0.00     0.045 A 
HETATM   44  N14 UNL     1       6.725   2.200  -1.588  1.00  0.00    -0.288 N 
HETATM   45  N13 UNL     1       5.664   1.451  -1.790  1.00  0.00    -0.222 N 
ATOM     46  H14 UNL     1       7.303   2.606  -2.324  1.00  0.00     0.188 HD
ATOM     47  H13 UNL     1       5.295   1.185  -2.703  1.00  0.00     0.209 HD
BRANCH  43  48
HETATM   48  C2  UNL     1       8.020   3.055   0.471  1.00  0.00     0.055 C 
HETATM   49  C1  UNL     1       9.118   2.016   0.836  1.00  0.00     0.011 C 
ENDBRANCH  43  48
ENDBRANCH   1  41
TORSDOF 13
