REMARK  12 active torsions:
REMARK  status: ('A' for Active; 'I' for Inactive)
REMARK    1  A    between atoms: N1_1  and  N2_4 
REMARK    2  A    between atoms: N2_4  and  C1_5 
REMARK    3  A    between atoms: C2_9  and  N4_10 
REMARK    4  A    between atoms: N4_10  and  C3_12 
REMARK    5  A    between atoms: C4_13  and  O1_14 
REMARK    6  A    between atoms: N5_16  and  C5_17 
REMARK    7  A    between atoms: C5_17  and  C6_18 
REMARK    8  A    between atoms: C6_18  and  N6_19 
REMARK    9  A    between atoms: N6_19  and  N7_20 
REMARK   10  A    between atoms: N6_19  and  C7_23 
REMARK   11  A    between atoms: C7_23  and  C8_24 
REMARK   12  A    between atoms: C8_24  and  O2_25 
ROOT
HETATM    1  C3  UNL     1       0.952  -0.152   0.196  1.00  0.00     0.152 A 
HETATM    2  C4  UNL     1      -0.055  -0.168   1.031  1.00  0.00     0.178 A 
HETATM    3  N5  UNL     1      -0.565   1.036   0.476  1.00  0.00    -0.286 N 
HETATM    4  C9  UNL     1       0.537   1.060  -0.443  1.00  0.00     0.281 A 
HETATM    5  O3  UNL     1       0.969   1.776  -1.376  1.00  0.00    -0.265 OA
ENDROOT
BRANCH   1   6
HETATM    6  N4  UNL     1       2.050  -1.078   0.051  1.00  0.00    -0.333 N 
ATOM      7  H4  UNL     1       2.080  -1.948   0.582  1.00  0.00     0.164 HD
BRANCH   6   8
HETATM    8  C2  UNL     1       3.109  -0.729  -0.876  1.00  0.00     0.436 C 
HETATM    9  N3  UNL     1       4.225  -1.633  -0.869  1.00  0.00     0.012 N 
HETATM   10  C1  UNL     1       4.803  -0.703   0.073  1.00  0.00     0.445 C 
ATOM     11  H32 UNL     1       4.706  -1.913  -1.724  1.00  0.00     0.287 HD
ATOM     12  H31 UNL     1       4.121  -2.626  -0.661  1.00  0.00     0.287 HD
HETATM   13  O4  UNL     1       3.931   0.266  -0.362  1.00  0.00    -0.296 OA
BRANCH  10  14
HETATM   14  N2  UNL     1       6.202  -0.451  -0.231  1.00  0.00    -0.087 NA
BRANCH  14  15
HETATM   15  N1  UNL     1       6.691   0.488   0.705  1.00  0.00    -0.344 N 
ATOM     16  H12 UNL     1       6.145   0.907   1.458  1.00  0.00     0.172 HD
ATOM     17  H11 UNL     1       7.673   0.665   0.492  1.00  0.00     0.172 HD
ENDBRANCH  14  15
ENDBRANCH  10  14
ENDBRANCH   6   8
ENDBRANCH   1   6
BRANCH   2  18
HETATM   18  O1  UNL     1      -0.509  -0.999   2.072  1.00  0.00    -0.344 OA
ATOM     19  H1  UNL     1      -1.240  -1.011   2.678  1.00  0.00     0.219 HD
ENDBRANCH   2  18
BRANCH   3  20
HETATM   20  C5  UNL     1      -1.607   2.013   0.636  1.00  0.00     0.180 C 
BRANCH  20  21
HETATM   21  C6  UNL     1      -2.795   1.917  -0.230  1.00  0.00     0.102 C 
BRANCH  21  22
HETATM   22  N6  UNL     1      -3.611   0.820  -0.153  1.00  0.00    -0.310 N 
BRANCH  22  23
HETATM   23  N7  UNL     1      -4.904   1.040   0.343  1.00  0.00    -0.344 N 
ATOM     24  H72 UNL     1      -5.101   1.994   0.644  1.00  0.00     0.177 HD
ATOM     25  H71 UNL     1      -5.512   0.223   0.400  1.00  0.00     0.177 HD
ENDBRANCH  22  23
BRANCH  22  26
HETATM   26  C7  UNL     1      -3.344  -0.473  -0.561  1.00  0.00     0.173 C 
BRANCH  26  27
HETATM   27  C8  UNL     1      -4.698  -1.247  -0.437  1.00  0.00     0.185 C 
BRANCH  27  28
HETATM   28  O2  UNL     1      -4.448  -2.531  -0.839  1.00  0.00    -0.399 OA
ATOM     29  H2  UNL     1      -5.270  -3.001  -0.764  1.00  0.00     0.209 HD
ENDBRANCH  27  28
ENDBRANCH  26  27
ENDBRANCH  22  26
ENDBRANCH  21  22
ENDBRANCH  20  21
ENDBRANCH   3  20
TORSDOF 12
