REMARK  11 active torsions:
REMARK  status: ('A' for Active; 'I' for Inactive)
REMARK    1  A    between atoms: C2_2  and  C7_14 
REMARK    2  A    between atoms: N1_3  and  O1_5 
REMARK    3  A    between atoms: O1_5  and  C3_6 
REMARK    4  A    between atoms: C3_6  and  C4_7 
REMARK    5  A    between atoms: C4_7  and  C5_8 
REMARK    6  A    between atoms: C5_8  and  C6_9 
REMARK    7  A    between atoms: C6_9  and  N2_10 
REMARK    8  A    between atoms: C7_14  and  N4_18 
REMARK    9  A    between atoms: N4_18  and  N5_20 
REMARK   10  A    between atoms: N5_20  and  C8_21 
REMARK   11  A    between atoms: C9_25  and  O2_26 
ROOT
HETATM    1  C7  UNL     1      -0.881   0.168  -0.518  1.00  0.00     0.135 C 
HETATM    2  N3  UNL     1      -0.675   1.046  -1.452  1.00  0.00    -0.383 N 
ATOM      3  H31 UNL     1      -1.359   1.347  -2.146  1.00  0.00     0.157 HD
ATOM      4  H32 UNL     1       0.234   1.509  -1.444  1.00  0.00     0.157 HD
ENDROOT
BRANCH   1   5
HETATM    5  C2  UNL     1       0.091  -0.260   0.467  1.00  0.00     0.072 C 
HETATM    6  C1  UNL     1      -0.467  -1.120   1.626  1.00  0.00     0.074 C 
HETATM    7  N1  UNL     1       1.279   0.014   0.555  1.00  0.00    -0.268 N 
ATOM      8  H1  UNL     1       1.699  -0.364   1.404  1.00  0.00     0.194 HD
BRANCH   7   9
HETATM    9  O1  UNL     1       2.158   0.684  -0.184  1.00  0.00    -0.280 OA
BRANCH   9  10
HETATM   10  C3  UNL     1       3.544   0.547   0.346  1.00  0.00     0.201 C 
BRANCH  10  11
HETATM   11  C4  UNL     1       4.232  -0.359  -0.631  1.00  0.00     0.030 C 
BRANCH  11  12
HETATM   12  C5  UNL     1       5.606  -0.741  -0.376  1.00  0.00     0.029 C 
BRANCH  12  13
HETATM   13  C6  UNL     1       6.703   0.232  -0.490  1.00  0.00     0.230 C 
BRANCH  13  14
HETATM   14  N2  UNL     1       6.738   1.374   0.354  1.00  0.00    -0.079 N 
ATOM     15  H23 UNL     1       5.854   1.874   0.255  1.00  0.00     0.274 HD
ATOM     16  H22 UNL     1       6.688   1.059   1.323  1.00  0.00     0.274 HD
ATOM     17  H21 UNL     1       7.499   2.049   0.275  1.00  0.00     0.274 HD
ENDBRANCH  13  14
ENDBRANCH  12  13
ENDBRANCH  11  12
ENDBRANCH  10  11
ENDBRANCH   9  10
ENDBRANCH   7   9
ENDBRANCH   1   5
BRANCH   1  18
HETATM   18  N4  UNL     1      -2.187  -0.498  -0.530  1.00  0.00    -0.284 N 
ATOM     19  H4  UNL     1      -2.258  -1.448  -0.165  1.00  0.00     0.184 HD
BRANCH  18  20
HETATM   20  N5  UNL     1      -3.308   0.105  -1.011  1.00  0.00    -0.088 NA
BRANCH  20  21
HETATM   21  C8  UNL     1      -4.118   0.720   0.026  1.00  0.00     0.352 C 
HETATM   22  N6  UNL     1      -5.331   1.265  -0.526  1.00  0.00    -0.079 NA
HETATM   23  N7  UNL     1      -6.026   0.298  -1.247  1.00  0.00    -0.032 NA
HETATM   24  N8  UNL     1      -5.640  -0.956  -0.778  1.00  0.00    -0.071 NA
HETATM   25  C9  UNL     1      -5.510  -0.980   0.652  1.00  0.00     0.378 C 
HETATM   26  O3  UNL     1      -4.365  -0.244   0.987  1.00  0.00    -0.307 OA
BRANCH  25  27
HETATM   27  O2  UNL     1      -6.642  -0.469   1.282  1.00  0.00    -0.357 OA
ATOM     28  H2  UNL     1      -6.556  -0.485   2.228  1.00  0.00     0.214 HD
ENDBRANCH  25  27
ENDBRANCH  20  21
ENDBRANCH  18  20
ENDBRANCH   1  18
TORSDOF 11
