REMARK  7 active torsions:
REMARK  status: ('A' for Active; 'I' for Inactive)
REMARK    1  A    between atoms: C2_5  and  N3_6 
REMARK    2  A    between atoms: C4_12  and  C5_13 
REMARK    3  A    between atoms: C5_13  and  C6_14 
REMARK    4  A    between atoms: C6_14  and  N5_15 
REMARK    5  A    between atoms: C6_14  and  C7_19 
REMARK    6  A    between atoms: C7_19  and  N6_20 
REMARK    7  A    between atoms: N7_24  and  N8_25 
ROOT
HETATM    1  C1  UNL     1      -3.723   0.627   1.422  1.00  0.00     0.179 C 
HETATM    2  N1  UNL     1      -3.081   0.190   0.191  1.00  0.00    -0.276 N 
HETATM    3  N2  UNL     1      -3.630   0.089  -1.030  1.00  0.00    -0.280 N 
ATOM      4  H2  UNL     1      -4.599   0.313  -1.258  1.00  0.00     0.189 HD
HETATM    5  C2  UNL     1      -2.720  -0.347  -1.900  1.00  0.00     0.145 A 
HETATM    6  C3  UNL     1      -1.554  -0.525  -1.190  1.00  0.00     0.127 A 
HETATM    7  N4  UNL     1      -0.263  -0.896  -1.238  1.00  0.00    -0.338 N 
ATOM      8  H4  UNL     1       0.233  -1.209  -2.073  1.00  0.00     0.167 HD
HETATM    9  C4  UNL     1       0.270  -0.788  -0.007  1.00  0.00     0.107 A 
HETATM   10  N7  UNL     1      -0.655  -0.347   0.865  1.00  0.00    -0.230 N 
HETATM   11  C8  UNL     1      -1.780  -0.183   0.146  1.00  0.00     0.175 A 
ENDROOT
BRANCH   9  12
HETATM   12  C5  UNL     1       1.668  -1.102   0.363  1.00  0.00     0.113 C 
BRANCH  12  13
HETATM   13  C6  UNL     1       2.594   0.089   0.237  1.00  0.00     0.215 C 
BRANCH  13  14
HETATM   14  N5  UNL     1       3.920  -0.386   0.635  1.00  0.00    -0.073 N 
ATOM     15  H53 UNL     1       3.937  -0.818   1.559  1.00  0.00     0.274 HD
ATOM     16  H52 UNL     1       4.234  -1.203   0.110  1.00  0.00     0.274 HD
ATOM     17  H51 UNL     1       4.544   0.416   0.550  1.00  0.00     0.274 HD
ENDBRANCH  13  14
BRANCH  13  18
HETATM   18  C7  UNL     1       2.714   0.520  -1.203  1.00  0.00     0.262 C 
BRANCH  18  19
HETATM   19  N6  UNL     1       3.590   1.649  -1.337  1.00  0.00    -0.077 N 
ATOM     20  H63 UNL     1       3.300   2.422  -0.738  1.00  0.00     0.274 HD
ATOM     21  H62 UNL     1       4.504   1.465  -0.924  1.00  0.00     0.274 HD
ATOM     22  H61 UNL     1       3.671   1.941  -2.311  1.00  0.00     0.274 HD
ENDBRANCH  18  19
ENDBRANCH  13  18
ENDBRANCH  12  13
ENDBRANCH   9  12
BRANCH  10  23
HETATM   23  N8  UNL     1      -0.504  -0.103   2.241  1.00  0.00    -0.335 N 
ATOM     24  H82 UNL     1       0.349  -0.227   2.786  1.00  0.00     0.177 HD
ATOM     25  H81 UNL     1      -1.205   0.231   2.902  1.00  0.00     0.177 HD
ENDBRANCH  10  23
BRANCH   5  26
HETATM   26  N3  UNL     1      -2.942  -0.546  -3.150  1.00  0.00    -0.382 N 
ATOM     27  H32 UNL     1      -3.806  -0.414  -3.676  1.00  0.00     0.157 HD
ATOM     28  H31 UNL     1      -2.245  -0.880  -3.816  1.00  0.00     0.157 HD
ENDBRANCH   5  26
TORSDOF 7
