REMARK  5 active torsions:
REMARK  status: ('A' for Active; 'I' for Inactive)
REMARK    1  A    between atoms: C2_2  and  C3_3 
REMARK    2  A    between atoms: C3_3  and  N1_4 
REMARK    3  A    between atoms: C5_9  and  C6_10 
REMARK       I    between atoms: C6_10  and  N3_12 
REMARK    4  A    between atoms: N3_12  and  N4_14 
REMARK    5  A    between atoms: N4_14  and  N5_15 
ROOT
HETATM    1  N1  UNL     1      -1.458  -0.808  -0.094  1.00  0.00    -0.133 N 
HETATM    2  C4  UNL     1      -0.929  -1.409   0.992  1.00  0.00     0.342 A 
HETATM    3  O1  UNL     1      -1.708  -2.129   1.696  1.00  0.00    -0.246 OA
HETATM    4  N2  UNL     1       0.353  -1.274   1.341  1.00  0.00    -0.289 N 
ATOM      5  H2  UNL     1       0.703  -1.751   2.172  1.00  0.00     0.172 HD
HETATM    6  C5  UNL     1       1.193  -0.511   0.603  1.00  0.00     0.194 A 
HETATM    7  N6  UNL     1       0.705   0.098  -0.478  1.00  0.00    -0.171 N 
ATOM      8  H6  UNL     1       1.314   0.679  -1.054  1.00  0.00     0.186 HD
HETATM    9  C7  UNL     1      -0.611  -0.056  -0.815  1.00  0.00     0.683 A 
HETATM   10  N7  UNL     1      -1.060   0.527  -1.863  1.00  0.00    -0.234 N 
ATOM     11  H71 UNL     1      -0.417   1.098  -2.411  1.00  0.00     0.174 HD
ATOM     12  H72 UNL     1      -2.042   0.412  -2.114  1.00  0.00     0.174 HD
ENDROOT
BRANCH   6  13
HETATM   13  C6  UNL     1       2.585  -0.354   0.976  1.00  0.00     0.303 C 
HETATM   14  O2  UNL     1       2.997  -0.954   1.999  1.00  0.00    -0.263 OA
HETATM   15  N3  UNL     1       3.462   0.436   0.236  1.00  0.00    -0.247 N 
ATOM     16  H3  UNL     1       3.134   0.925  -0.597  1.00  0.00     0.187 HD
BRANCH  15  17
HETATM   17  N4  UNL     1       4.809   0.555   0.646  1.00  0.00    -0.027 NA
BRANCH  17  18
HETATM   18  N5  UNL     1       5.572   0.086  -0.443  1.00  0.00    -0.329 N 
ATOM     19  H52 UNL     1       5.213  -0.262  -1.332  1.00  0.00     0.174 HD
ATOM     20  H51 UNL     1       6.544   0.172  -0.147  1.00  0.00     0.174 HD
ENDBRANCH  17  18
ENDBRANCH  15  17
ENDBRANCH   6  13
BRANCH   1  21
HETATM   21  C3  UNL     1      -2.845  -1.017  -0.391  1.00  0.00     0.152 C 
BRANCH  21  22
HETATM   22  C2  UNL     1      -3.794  -0.073   0.256  1.00  0.00     0.016 C 
HETATM   23  C1  UNL     1      -3.620   1.369  -0.067  1.00  0.00     0.006 C 
ENDBRANCH  21  22
ENDBRANCH   1  21
TORSDOF 5
