REMARK  3 active torsions:
REMARK  status: ('A' for Active; 'I' for Inactive)
REMARK    1  A    between atoms: C4_13  and  C5_14 
REMARK    2  A    between atoms: C5_14  and  N4_15 
REMARK    3  A    between atoms: C5_14  and  N5_19 
ROOT
HETATM    1  N1  UNL     1      -0.043   2.142   0.231  1.00  0.00    -0.393 N 
ATOM      2  H11 UNL     1      -1.051   2.189   0.082  1.00  0.00     0.156 HD
ATOM      3  H12 UNL     1       0.471   2.995   0.452  1.00  0.00     0.156 HD
HETATM    4  C1  UNL     1       0.596   1.027   0.145  1.00  0.00     0.121 A 
HETATM    5  C2  UNL     1       2.034   0.960   0.357  1.00  0.00     0.277 A 
HETATM    6  O1  UNL     1       2.716   1.978   0.631  1.00  0.00    -0.265 OA
HETATM    7  N2  UNL     1       2.721  -0.301   0.254  1.00  0.00    -0.274 N 
ATOM      8  H2  UNL     1       3.728  -0.383   0.396  1.00  0.00     0.173 HD
HETATM    9  C3  UNL     1       1.906  -1.425  -0.058  1.00  0.00     0.327 A 
HETATM   10  O2  UNL     1       2.479  -2.548  -0.155  1.00  0.00    -0.247 OA
HETATM   11  N3  UNL     1       0.502  -1.296  -0.254  1.00  0.00    -0.306 N 
ATOM     12  H3  UNL     1      -0.028  -2.139  -0.475  1.00  0.00     0.170 HD
HETATM   13  C4  UNL     1      -0.138  -0.192  -0.171  1.00  0.00     0.103 A 
ENDROOT
BRANCH  13  14
HETATM   14  C5  UNL     1      -1.626  -0.165  -0.397  1.00  0.00     0.429 C 
BRANCH  14  15
HETATM   15  N4  UNL     1      -2.103  -1.503  -0.693  1.00  0.00    -0.045 N 
ATOM     16  H43 UNL     1      -1.604  -1.923  -1.477  1.00  0.00     0.277 HD
ATOM     17  H42 UNL     1      -1.837  -2.173   0.028  1.00  0.00     0.277 HD
ATOM     18  H41 UNL     1      -3.111  -1.485  -0.846  1.00  0.00     0.277 HD
ENDBRANCH  14  15
BRANCH  14  19
HETATM   19  N5  UNL     1      -2.334   0.301   0.764  1.00  0.00    -0.045 N 
ATOM     20  H53 UNL     1      -2.094  -0.247   1.590  1.00  0.00     0.277 HD
ATOM     21  H52 UNL     1      -1.988   1.211   1.069  1.00  0.00     0.277 HD
ATOM     22  H51 UNL     1      -3.342   0.319   0.611  1.00  0.00     0.277 HD
ENDBRANCH  14  19
ENDBRANCH  13  14
TORSDOF 3
