REMARK  3 active torsions:
REMARK  status: ('A' for Active; 'I' for Inactive)
REMARK    1  A    between atoms: C2_2  and  N2_5 
REMARK    2  A    between atoms: C2_2  and  N5_10 
REMARK    3  A    between atoms: C6_14  and  N7_15 
ROOT
HETATM    1  C1  UNL     1       0.063  -2.361  -0.549  1.00  0.00     0.082 C 
HETATM    2  C2  UNL     1       0.318  -1.016   0.143  1.00  0.00     0.214 C 
HETATM    3  C3  UNL     1       0.950  -1.247   1.425  1.00  0.00     0.115 C 
HETATM    4  N1  UNL     1       1.437  -1.443   2.448  1.00  0.00    -0.193 NA
ENDROOT
BRANCH   2   5
HETATM    5  N2  UNL     1       1.093  -0.226  -0.764  1.00  0.00    -0.327 N 
HETATM    6  C4  UNL     1       1.813   0.776  -0.482  1.00  0.00     0.199 C 
HETATM    7  N3  UNL     1       1.913   1.224   0.851  1.00  0.00    -0.067 NA
HETATM    8  N4  UNL     1       2.517   1.446  -1.503  1.00  0.00    -0.067 NA
ATOM      9  H2  UNL     1       1.062  -0.501  -1.746  1.00  0.00     0.165 HD
ENDBRANCH   2   5
BRANCH   2  10
HETATM   10  N5  UNL     1      -1.015  -0.413   0.292  1.00  0.00    -0.230 N 
HETATM   11  C5  UNL     1      -2.077  -0.937   0.938  1.00  0.00     0.222 A 
HETATM   12  N6  UNL     1      -3.119  -0.073   0.848  1.00  0.00    -0.185 N 
HETATM   13  C6  UNL     1      -2.696   0.994   0.139  1.00  0.00     0.691 A 
ATOM     14  H6  UNL     1      -4.050  -0.206   1.243  1.00  0.00     0.185 HD
HETATM   15  N8  UNL     1      -1.408   0.754  -0.185  1.00  0.00    -0.126 N 
ATOM     16  H8  UNL     1      -0.818   1.388  -0.725  1.00  0.00     0.206 HD
BRANCH  13  17
HETATM   17  N7  UNL     1      -3.403   2.042  -0.165  1.00  0.00    -0.233 N 
ATOM     18  H72 UNL     1      -4.376   2.223   0.080  1.00  0.00     0.174 HD
ATOM     19  H71 UNL     1      -3.083   2.849  -0.701  1.00  0.00     0.174 HD
ENDBRANCH  13  17
ENDBRANCH   2  10
TORSDOF 3
