REMARK  2 active torsions:
REMARK  status: ('A' for Active; 'I' for Inactive)
REMARK    1  A    between atoms: N1_1  and  C1_4 
REMARK    2  A    between atoms: C3_9  and  C4_10 
ROOT
HETATM    1  C1  UNL     1      -1.845  -0.190  -0.233  1.00  0.00     0.680 A 
HETATM    2  N2  UNL     1      -0.997   0.878  -0.310  1.00  0.00    -0.178 N 
ATOM      3  H2  UNL     1      -1.371   1.797  -0.546  1.00  0.00     0.185 HD
HETATM    4  C2  UNL     1       0.311   0.742  -0.083  1.00  0.00     0.154 A 
HETATM    5  N3  UNL     1       1.218   1.856  -0.171  1.00  0.00    -0.081 NA
HETATM    6  C3  UNL     1       0.868  -0.486   0.242  1.00  0.00     0.150 A 
HETATM    7  C5  UNL     1      -0.008  -1.562   0.319  1.00  0.00     0.280 A 
HETATM    8  O3  UNL     1       0.474  -2.686   0.618  1.00  0.00    -0.266 OA
HETATM    9  N4  UNL     1      -1.309  -1.373   0.083  1.00  0.00    -0.155 N 
ATOM     10  H4  UNL     1      -1.930  -2.179   0.148  1.00  0.00     0.187 HD
ENDROOT
BRANCH   1  11
HETATM   11  N1  UNL     1      -3.127  -0.040  -0.465  1.00  0.00    -0.234 N 
ATOM     12  H12 UNL     1      -3.536   0.863  -0.706  1.00  0.00     0.174 HD
ATOM     13  H11 UNL     1      -3.760  -0.838  -0.407  1.00  0.00     0.174 HD
ENDBRANCH   1  11
BRANCH   6  14
HETATM   14  C4  UNL     1       2.300  -0.664   0.465  1.00  0.00     0.218 C 
HETATM   15  O1  UNL     1       3.096  -0.541  -0.529  1.00  0.00    -0.644 OA
HETATM   16  O2  UNL     1       2.835  -0.970   1.693  1.00  0.00    -0.644 OA
ENDBRANCH   6  14
TORSDOF 2
