REMARK  5 active torsions:
REMARK  status: ('A' for Active; 'I' for Inactive)
REMARK    1  A    between atoms: C2_2  and  C4_4 
REMARK    2  A    between atoms: C4_4  and  C5_6 
REMARK    3  A    between atoms: C5_6  and  N1_8 
REMARK    4  A    between atoms: N1_8  and  C7_10 
REMARK    5  A    between atoms: C7_10  and  C8_12 
ROOT
HETATM    1  C8  UNL     1      -0.459   1.423  -0.270  1.00  0.00     0.119 C 
HETATM    2  C9  UNL     1      -0.402   2.747  -0.980  1.00  0.00     0.054 C 
HETATM    3  O1  UNL     1      -1.049   0.508  -1.153  1.00  0.00    -0.343 OA
HETATM    4  C10 UNL     1      -2.425   0.712  -1.217  1.00  0.00     0.267 C 
HETATM    5  O2  UNL     1      -2.818   1.971  -0.735  1.00  0.00    -0.350 OA
HETATM    6  C11 UNL     1      -2.671   1.992   0.660  1.00  0.00     0.067 C 
HETATM    7  C12 UNL     1      -2.807   3.410   1.193  1.00  0.00     0.046 C 
HETATM    8  C13 UNL     1      -3.880   1.257   1.159  1.00  0.00     0.039 C 
HETATM    9  C14 UNL     1      -4.254   0.042   0.370  1.00  0.00     0.013 C 
HETATM   10  C15 UNL     1      -3.200  -0.420  -0.599  1.00  0.00     0.049 C 
HETATM   11  C16 UNL     1      -2.333  -1.534  -0.087  1.00  0.00    -0.040 C 
HETATM   12  C17 UNL     1      -3.290  -2.542   0.573  1.00  0.00     0.015 C 
HETATM   13  C18 UNL     1      -1.787  -2.286  -1.295  1.00  0.00     0.015 C 
HETATM   14  C19 UNL     1      -1.234  -1.169   0.823  1.00  0.00     0.010 C 
HETATM   15  C20 UNL     1      -1.379   0.066   1.620  1.00  0.00     0.012 C 
HETATM   16  C21 UNL     1      -1.331   1.378   0.957  1.00  0.00     0.061 C 
ENDROOT
BRANCH   1  17
HETATM   17  C7  UNL     1       0.955   1.081  -0.004  1.00  0.00     0.109 C 
HETATM   18  S1  UNL     1       1.530   1.143   1.508  1.00  0.00    -0.062 SA
BRANCH  17  19
HETATM   19  N1  UNL     1       1.814   0.734  -1.075  1.00  0.00    -0.375 N 
ATOM     20  H1  UNL     1       1.418   0.738  -2.015  1.00  0.00     0.160 HD
BRANCH  19  21
HETATM   21  C5  UNL     1       3.210   0.374  -0.941  1.00  0.00     0.112 C 
HETATM   22  C6  UNL     1       4.070   1.516  -0.447  1.00  0.00     0.035 C 
BRANCH  21  23
HETATM   23  C4  UNL     1       3.432  -0.892  -0.189  1.00  0.00     0.195 C 
HETATM   24  F1  UNL     1       2.635  -1.901  -0.705  1.00  0.00    -0.247 F 
BRANCH  23  25
HETATM   25  C2  UNL     1       4.860  -1.393  -0.279  1.00  0.00     0.013 C 
HETATM   26  C1  UNL     1       5.270  -1.692  -1.688  1.00  0.00     0.012 C 
HETATM   27  C3  UNL     1       4.898  -2.701   0.497  1.00  0.00     0.012 C 
ENDBRANCH  23  25
ENDBRANCH  21  23
ENDBRANCH  19  21
ENDBRANCH  17  19
ENDBRANCH   1  17
TORSDOF 5
