REMARK  4 active torsions:
REMARK  status: ('A' for Active; 'I' for Inactive)
REMARK    1  A    between atoms: O1_2  and  C2_3 
REMARK    2  A    between atoms: C7_9  and  O2_10 
REMARK    3  A    between atoms: C13_16  and  C15_18 
REMARK    4  A    between atoms: C15_18  and  O3_19 
ROOT
HETATM    1  C2  UNL     1       3.011   0.407   0.259  1.00  0.00     0.103 A 
HETATM    2  C3  UNL     1       3.353   0.320  -1.070  1.00  0.00     0.059 A 
HETATM    3  C4  UNL     1       2.428  -0.242  -1.955  1.00  0.00     0.020 A 
HETATM    4 BR1  UNL     1       2.884  -0.375  -3.810  1.00  0.00    -0.050 Br
HETATM    5  C5  UNL     1       1.230  -0.681  -1.487  1.00  0.00    -0.031 A 
HETATM    6  C6  UNL     1       0.838  -0.610  -0.135  1.00  0.00    -0.010 A 
HETATM    7  C7  UNL     1       1.768  -0.057   0.701  1.00  0.00     0.108 A 
HETATM    8  C9  UNL     1      -0.481  -1.115   0.149  1.00  0.00     0.027 C 
HETATM    9  C10 UNL     1      -1.005  -1.103   1.530  1.00  0.00     0.010 C 
HETATM   10  C11 UNL     1      -2.539  -1.243   1.412  1.00  0.00     0.002 C 
HETATM   11  C12 UNL     1      -3.038   0.120   0.963  1.00  0.00     0.012 C 
HETATM   12  C13 UNL     1      -2.290   0.601  -0.262  1.00  0.00    -0.018 C 
HETATM   13  C14 UNL     1      -1.458   1.813  -0.042  1.00  0.00     0.018 C 
HETATM   14  C16 UNL     1      -1.513  -0.584  -0.831  1.00  0.00     0.004 C 
HETATM   15  C17 UNL     1      -0.987  -0.340  -2.190  1.00  0.00     0.011 C 
HETATM   16  C18 UNL     1       0.225  -1.263  -2.411  1.00  0.00     0.041 C 
ENDROOT
BRANCH  12  17
HETATM   17  C15 UNL     1      -3.331   0.953  -1.310  1.00  0.00     0.173 C 
BRANCH  17  18
HETATM   18  O3  UNL     1      -4.175   1.965  -0.818  1.00  0.00    -0.400 OA
ATOM     19  H3  UNL     1      -4.826   2.185  -1.474  1.00  0.00     0.209 HD
ENDBRANCH  17  18
ENDBRANCH  12  17
BRANCH   7  20
HETATM   20  O2  UNL     1       1.528   0.072   2.020  1.00  0.00    -0.353 OA
HETATM   21  C8  UNL     1       1.924  -0.853   3.024  1.00  0.00     0.210 C 
ENDBRANCH   7  20
BRANCH   1  22
HETATM   22  O1  UNL     1       3.917   0.959   1.134  1.00  0.00    -0.353 OA
HETATM   23  C1  UNL     1       5.183   1.442   0.741  1.00  0.00     0.210 C 
ENDBRANCH   1  22
TORSDOF 4
