REMARK  5 active torsions:
REMARK  status: ('A' for Active; 'I' for Inactive)
REMARK    1  A    between atoms: C2_2  and  C3_3 
REMARK    2  A    between atoms: C3_3  and  C4_4 
REMARK    3  A    between atoms: C12_15  and  C14_17 
REMARK    4  A    between atoms: C14_17  and  O2_19 
REMARK    5  A    between atoms: O2_19  and  C15_20 
ROOT
HETATM    1  C4  UNL     1       3.282  -0.131   1.027  1.00  0.00    -0.076 C 
HETATM    2  C5  UNL     1       2.141  -0.331   0.408  1.00  0.00    -0.061 C 
HETATM    3  C6  UNL     1       1.235  -1.541   0.418  1.00  0.00     0.113 C 
HETATM    4  C7  UNL     1      -0.125  -0.873   0.471  1.00  0.00     0.137 C 
HETATM    5  O1  UNL     1      -0.734  -0.998   1.490  1.00  0.00    -0.297 OA
HETATM    6  C8  UNL     1      -0.496  -0.154  -0.762  1.00  0.00     0.084 C 
HETATM    7  C9  UNL     1       0.430   1.076  -0.778  1.00  0.00     0.057 C 
HETATM    8  C10 UNL     1      -0.587   1.637   0.200  1.00  0.00     0.001 C 
HETATM    9  N1  UNL     1      -0.534   2.359   1.201  1.00  0.00    -0.400 N 
ATOM     10  H1  UNL     1       0.427   2.634   1.404  1.00  0.00     0.158 HD
HETATM   11  C11 UNL     1      -1.406   2.896   2.119  1.00  0.00     0.145 C 
HETATM   12  C12 UNL     1      -1.576   0.909  -0.622  1.00  0.00     0.045 C 
HETATM   13  C13 UNL     1      -1.744   1.586  -1.996  1.00  0.00     0.026 C 
HETATM   14  C19 UNL     1       1.796   0.874  -0.358  1.00  0.00    -0.010 C 
HETATM   15  C20 UNL     1       2.688   0.851  -1.617  1.00  0.00     0.021 C 
HETATM   16  C21 UNL     1       2.430   1.954   0.516  1.00  0.00     0.019 C 
HETATM   17  C22 UNL     1       3.798   1.260   0.710  1.00  0.00     0.035 C 
ENDROOT
BRANCH  12  18
HETATM   18  C14 UNL     1      -2.889   0.506  -0.049  1.00  0.00     0.232 C 
HETATM   19 CL1  UNL     1      -3.808   2.144  -0.051  1.00  0.00    -0.094 Cl
BRANCH  18  20
HETATM   20  O2  UNL     1      -3.583  -0.275  -0.901  1.00  0.00    -0.360 OA
BRANCH  20  21
HETATM   21  C15 UNL     1      -4.311  -1.329  -0.619  1.00  0.00     0.052 C 
HETATM   22  C16 UNL     1      -3.559  -2.471  -0.007  1.00  0.00     0.045 C 
HETATM   23  C17 UNL     1      -4.857  -1.891  -1.960  1.00  0.00     0.045 C 
HETATM   24  C18 UNL     1      -5.540  -1.097   0.241  1.00  0.00     0.045 C 
ENDBRANCH  20  21
ENDBRANCH  18  20
ENDBRANCH  12  18
BRANCH   1  25
HETATM   25  C3  UNL     1       3.992  -1.063   1.914  1.00  0.00     0.034 C 
BRANCH  25  26
HETATM   26  C2  UNL     1       5.354  -1.349   1.333  1.00  0.00    -0.000 C 
HETATM   27  C1  UNL     1       5.180  -1.972  -0.021  1.00  0.00     0.005 C 
ENDBRANCH  25  26
ENDBRANCH   1  25
TORSDOF 5
