REMARK  10 active torsions:
REMARK  status: ('A' for Active; 'I' for Inactive)
REMARK    1  A    between atoms: C1_2  and  C2_4 
REMARK    2  A    between atoms: C2_4  and  C3_5 
REMARK    3  A    between atoms: C3_5  and  C4_6 
REMARK    4  A    between atoms: C4_6  and  N1_7 
REMARK    5  A    between atoms: C4_6  and  N2_16 
REMARK    6  A    between atoms: N1_7  and  C5_9 
REMARK    7  A    between atoms: N2_16  and  C11_18 
REMARK    8  A    between atoms: C12_23  and  S1_24 
REMARK    9  A    between atoms: S1_24  and  C13_25 
REMARK   10  A    between atoms: C13_25  and  C14_26 
ROOT
HETATM    1  N2  UNL     1      -2.153  -0.280  -0.491  1.00  0.00    -0.325 N 
ATOM      2  H2  UNL     1      -2.548  -0.151  -1.422  1.00  0.00     0.169 HD
ENDROOT
BRANCH   1   3
HETATM    3  C4  UNL     1      -3.063  -0.413   0.553  1.00  0.00     0.084 C 
BRANCH   3   4
HETATM    4  C3  UNL     1      -2.886  -1.431   1.650  1.00  0.00     0.087 C 
BRANCH   4   5
HETATM    5  C2  UNL     1      -4.128  -1.488   2.516  1.00  0.00     0.120 C 
BRANCH   5   6
HETATM    6  C1  UNL     1      -5.341  -1.899   1.777  1.00  0.00     0.172 C 
HETATM    7  O1  UNL     1      -6.437  -1.826   2.398  1.00  0.00    -0.648 OA
HETATM    8  O2  UNL     1      -5.309  -2.343   0.482  1.00  0.00    -0.648 OA
ENDBRANCH   5   6
ENDBRANCH   4   5
ENDBRANCH   3   4
BRANCH   3   9
HETATM    9  N1  UNL     1      -4.095   0.359   0.608  1.00  0.00    -0.346 N 
ATOM     10  H1  UNL     1      -4.766   0.278   1.372  1.00  0.00     0.167 HD
BRANCH   9  11
HETATM   11  C5  UNL     1      -4.279   1.332  -0.425  1.00  0.00     0.033 A 
HETATM   12  C6  UNL     1      -4.359   0.915  -1.737  1.00  0.00     0.032 A 
HETATM   13  C7  UNL     1      -4.534   1.805  -2.756  1.00  0.00     0.044 A 
HETATM   14  C8  UNL     1      -4.631   3.149  -2.445  1.00  0.00     0.116 A 
HETATM   15  F1  UNL     1      -4.805   4.015  -3.478  1.00  0.00    -0.206 F 
HETATM   16  C9  UNL     1      -4.553   3.577  -1.130  1.00  0.00     0.044 A 
HETATM   17  C10 UNL     1      -4.377   2.662  -0.130  1.00  0.00     0.032 A 
ENDBRANCH   9  11
ENDBRANCH   3   9
ENDBRANCH   1   3
BRANCH   1  18
HETATM   18  C11 UNL     1      -0.864  -0.302  -0.413  1.00  0.00     0.167 A 
HETATM   19  N3  UNL     1      -0.016  -0.170  -1.438  1.00  0.00    -0.278 N 
HETATM   20  N4  UNL     1       1.230  -0.215  -1.201  1.00  0.00    -0.286 N 
ATOM     21  H3  UNL     1      -0.362  -0.036  -2.388  1.00  0.00     0.189 HD
HETATM   22  C12 UNL     1       1.681  -0.387   0.024  1.00  0.00     0.130 A 
ATOM     23  H4  UNL     1       1.892  -0.116  -1.971  1.00  0.00     0.188 HD
HETATM   24  S2  UNL     1       0.217  -0.492   0.902  1.00  0.00    -0.026 SA
BRANCH  22  25
HETATM   25  S1  UNL     1       3.389  -0.486   0.615  1.00  0.00    -0.099 SA
BRANCH  25  26
HETATM   26  C13 UNL     1       4.491  -0.301  -0.814  1.00  0.00     0.120 C 
BRANCH  26  27
HETATM   27  C14 UNL     1       5.890  -0.389  -0.314  1.00  0.00    -0.048 A 
HETATM   28  C15 UNL     1       6.580  -1.582  -0.224  1.00  0.00     0.009 A 
HETATM   29  C16 UNL     1       7.865  -1.628   0.240  1.00  0.00     0.019 A 
HETATM   30  C17 UNL     1       8.521  -0.489   0.635  1.00  0.00     0.011 A 
HETATM   31 BR1  UNL     1      10.310  -0.557   1.279  1.00  0.00    -0.051 Br
HETATM   32  C18 UNL     1       7.824   0.713   0.543  1.00  0.00     0.019 A 
HETATM   33  C19 UNL     1       6.532   0.787   0.080  1.00  0.00     0.009 A 
ENDBRANCH  26  27
ENDBRANCH  25  26
ENDBRANCH  22  25
ENDBRANCH   1  18
TORSDOF 10
