REMARK  10 active torsions:
REMARK  status: ('A' for Active; 'I' for Inactive)
REMARK    1  A    between atoms: C5_5  and  C6_6 
REMARK    2  A    between atoms: C6_6  and  O1_7 
REMARK    3  A    between atoms: C6_6  and  C7_9 
REMARK    4  A    between atoms: C10_12  and  C11_13 
REMARK    5  A    between atoms: C16_18  and  C17_19 
REMARK    6  A    between atoms: C17_19  and  N1_20 
REMARK    7  A    between atoms: N1_20  and  C18_22 
REMARK    8  A    between atoms: C18_22  and  C19_23 
REMARK    9  A    between atoms: C22_26  and  N2_27 
REMARK   10  A    between atoms: N3_30  and  O2_31 
ROOT
HETATM    1  C7  UNL     1      -3.056   0.057   1.147  1.00  0.00    -0.024 A 
HETATM    2  C8  UNL     1      -2.239   0.900   0.423  1.00  0.00     0.011 A 
HETATM    3  C9  UNL     1      -1.141   0.428  -0.261  1.00  0.00     0.014 A 
HETATM    4  C10 UNL     1      -0.823  -0.900  -0.243  1.00  0.00    -0.005 A 
HETATM    5  C25 UNL     1      -1.617  -1.762   0.469  1.00  0.00     0.056 A 
HETATM    6  C26 UNL     1      -1.350  -3.199   0.549  1.00  0.00     0.100 C 
HETATM    7  N4  UNL     1      -1.121  -4.332   0.603  1.00  0.00    -0.191 NA
HETATM    8  C27 UNL     1      -2.713  -1.282   1.149  1.00  0.00     0.033 A 
ENDROOT
BRANCH   4   9
HETATM    9  C11 UNL     1       0.274  -1.488  -0.977  1.00  0.00    -0.016 A 
HETATM   10  C12 UNL     1      -0.032  -2.461  -1.918  1.00  0.00     0.013 A 
HETATM   11  C13 UNL     1       0.988  -2.994  -2.663  1.00  0.00     0.001 A 
HETATM   12  C14 UNL     1       2.288  -2.587  -2.494  1.00  0.00     0.001 A 
HETATM   13  C15 UNL     1       2.543  -1.618  -1.545  1.00  0.00     0.010 A 
HETATM   14  C16 UNL     1       1.546  -1.038  -0.756  1.00  0.00    -0.027 A 
BRANCH  14  15
HETATM   15  C17 UNL     1       1.975  -0.073   0.260  1.00  0.00     0.200 C 
BRANCH  15  16
HETATM   16  N1  UNL     1       3.360   0.259   0.275  1.00  0.00    -0.223 N 
HETATM   17  F1  UNL     1       3.902   0.882  -0.719  1.00  0.00    -0.099 F 
BRANCH  16  18
HETATM   18  C18 UNL     1       4.099   0.098   1.446  1.00  0.00     0.133 C 
BRANCH  18  19
HETATM   19  C19 UNL     1       5.494   0.504   1.229  1.00  0.00    -0.017 C 
HETATM   20  C20 UNL     1       6.391  -0.459   0.752  1.00  0.00     0.017 C 
HETATM   21  C21 UNL     1       7.637  -0.291   0.186  1.00  0.00     0.051 C 
HETATM   22  C22 UNL     1       8.223   0.911  -0.141  1.00  0.00     0.126 C 
HETATM   23  N3  UNL     1       7.867   2.167   0.176  1.00  0.00    -0.220 N 
HETATM   24  C23 UNL     1       6.872   2.535   1.004  1.00  0.00     0.126 C 
HETATM   25  C24 UNL     1       5.812   1.808   1.514  1.00  0.00     0.032 C 
BRANCH  22  26
HETATM   26  N2  UNL     1       9.279   0.803  -0.867  1.00  0.00    -0.384 N 
ATOM     27  H22 UNL     1       9.549  -0.151  -1.108  1.00  0.00     0.157 HD
ATOM     28  H21 UNL     1       9.713   1.694  -1.109  1.00  0.00     0.157 HD
ENDBRANCH  22  26
BRANCH  23  29
HETATM   29  O2  UNL     1       8.614   3.175  -0.422  1.00  0.00    -0.282 OA
ATOM     30  H2  UNL     1       8.362   4.063  -0.198  1.00  0.00     0.245 HD
ENDBRANCH  23  29
ENDBRANCH  18  19
ENDBRANCH  16  18
ENDBRANCH  15  16
ENDBRANCH  14  15
ENDBRANCH   4   9
BRANCH   1  31
HETATM   31  C6  UNL     1      -4.251   0.514   1.901  1.00  0.00     0.184 C 
BRANCH  31  32
HETATM   32  C5  UNL     1      -5.449   0.667   1.038  1.00  0.00    -0.025 A 
HETATM   33  C4  UNL     1      -6.437  -0.296   0.975  1.00  0.00     0.010 A 
HETATM   34  C3  UNL     1      -7.557  -0.149   0.166  1.00  0.00     0.007 A 
HETATM   35  C2  UNL     1      -7.717   0.979  -0.608  1.00  0.00    -0.062 A 
HETATM   36  C1  UNL     1      -8.916   1.130  -1.471  1.00  0.00     0.048 C 
HETATM   37  C29 UNL     1      -6.742   1.950  -0.558  1.00  0.00     0.007 A 
HETATM   38  C28 UNL     1      -5.624   1.791   0.257  1.00  0.00     0.010 A 
ENDBRANCH  31  32
BRANCH  31  39
HETATM   39  O1  UNL     1      -3.939   1.661   2.609  1.00  0.00    -0.386 OA
ATOM     40  H1  UNL     1      -3.172   1.563   3.161  1.00  0.00     0.210 HD
ENDBRANCH  31  39
ENDBRANCH   1  31
TORSDOF 10
