REMARK  5 active torsions:
REMARK  status: ('A' for Active; 'I' for Inactive)
REMARK    1  A    between atoms: C2_3  and  C3_4 
REMARK    2  A    between atoms: C2_3  and  C13_22 
REMARK    3  A    between atoms: C2_3  and  C19_30 
REMARK       I    between atoms: C3_4  and  N1_6 
REMARK       I    between atoms: N1_6  and  C4_8 
REMARK       I    between atoms: C4_8  and  N4_19 
REMARK    4  A    between atoms: N2_9  and  N3_11 
REMARK    5  A    between atoms: N3_11  and  C5_13 
ROOT
HETATM    1  C1  UNL     1      -2.003   0.834  -2.511  1.00  0.00     0.204 C 
HETATM    2  O1  UNL     1      -2.005   0.262  -1.435  1.00  0.00    -0.366 OA
HETATM    3  C2  UNL     1      -2.008  -0.343  -0.295  1.00  0.00     0.200 C 
ENDROOT
BRANCH   3   4
HETATM    4  C3  UNL     1      -0.614  -0.630   0.018  1.00  0.00     0.280 C 
HETATM    5  O2  UNL     1      -0.309  -0.911   1.196  1.00  0.00    -0.268 OA
HETATM    6  N1  UNL     1       0.476  -0.633  -0.893  1.00  0.00    -0.155 N 
HETATM    7  C4  UNL     1       1.805  -0.919  -0.546  1.00  0.00     0.696 C 
ATOM      8  H1  UNL     1       0.278  -0.411  -1.869  1.00  0.00     0.187 HD
HETATM    9  N2  UNL     1       2.737  -0.893  -1.469  1.00  0.00    -0.132 N 
HETATM   10  N4  UNL     1       2.277  -1.252   0.753  1.00  0.00    -0.225 N 
ATOM     11  H2  UNL     1       2.458  -0.661  -2.422  1.00  0.00     0.205 HD
HETATM   12  C11 UNL     1       2.630  -0.278   1.769  1.00  0.00     0.168 C 
HETATM   13  C12 UNL     1       2.451  -2.657   1.146  1.00  0.00     0.168 C 
BRANCH   9  14
HETATM   14  N3  UNL     1       4.072  -1.159  -1.234  1.00  0.00    -0.287 N 
ATOM     15  H3  UNL     1       4.404  -2.119  -1.143  1.00  0.00     0.187 HD
BRANCH  14  16
HETATM   16  C5  UNL     1       4.976  -0.059  -1.122  1.00  0.00     0.048 A 
HETATM   17  C6  UNL     1       6.324  -0.270  -0.879  1.00  0.00     0.031 A 
HETATM   18  C7  UNL     1       7.236   0.768  -0.763  1.00  0.00     0.002 A 
HETATM   19  C8  UNL     1       6.813   2.074  -0.889  1.00  0.00     0.000 A 
HETATM   20  C9  UNL     1       5.456   2.271  -1.133  1.00  0.00     0.002 A 
HETATM   21  C10 UNL     1       4.562   1.247  -1.247  1.00  0.00     0.031 A 
ENDBRANCH  14  16
ENDBRANCH   9  14
ENDBRANCH   3   4
BRANCH   3  22
HETATM   22  C13 UNL     1      -2.659  -1.714  -0.504  1.00  0.00     0.029 A 
HETATM   23  C14 UNL     1      -3.037  -2.170  -1.743  1.00  0.00     0.017 A 
HETATM   24  C15 UNL     1      -3.633  -3.411  -1.948  1.00  0.00     0.043 A 
HETATM   25  C16 UNL     1      -3.861  -4.233  -0.872  1.00  0.00     0.119 A 
HETATM   26  F1  UNL     1      -4.444  -5.462  -1.030  1.00  0.00    -0.206 F 
HETATM   27  C17 UNL     1      -3.499  -3.821   0.390  1.00  0.00     0.085 A 
HETATM   28  C18 UNL     1      -2.907  -2.575   0.549  1.00  0.00     0.129 A 
HETATM   29  F2  UNL     1      -2.555  -2.263   1.787  1.00  0.00    -0.205 F 
ENDBRANCH   3  22
BRANCH   3  30
HETATM   30  C19 UNL     1      -2.879   0.487   0.519  1.00  0.00     0.002 A 
HETATM   31  C20 UNL     1      -4.156   0.043   0.820  1.00  0.00     0.012 A 
HETATM   32  C21 UNL     1      -5.086   0.779   1.528  1.00  0.00     0.002 A 
HETATM   33  C22 UNL     1      -4.779   2.030   1.980  1.00  0.00     0.012 A 
HETATM   34  C23 UNL     1      -3.530   2.524   1.708  1.00  0.00    -0.025 A 
HETATM   35  C24 UNL     1      -3.168   3.802   2.125  1.00  0.00     0.012 A 
HETATM   36  C28 UNL     1      -2.597   1.765   0.988  1.00  0.00    -0.016 A 
HETATM   37  C25 UNL     1      -1.942   4.347   1.860  1.00  0.00     0.001 A 
HETATM   38  C26 UNL     1      -1.046   3.584   1.151  1.00  0.00     0.001 A 
HETATM   39  C27 UNL     1      -1.366   2.288   0.709  1.00  0.00     0.013 A 
ENDBRANCH   3  30
TORSDOF 5
