REMARK  7 active torsions:
REMARK  status: ('A' for Active; 'I' for Inactive)
REMARK       I    between atoms: C2_2  and  N1_4 
REMARK    1  A    between atoms: N1_4  and  C3_6 
REMARK    2  A    between atoms: C6_9  and  O2_10 
REMARK    3  A    between atoms: O2_10  and  C7_11 
REMARK    4  A    between atoms: C10_14  and  S1_15 
REMARK    5  A    between atoms: S1_15  and  N2_18 
REMARK    6  A    between atoms: N2_18  and  C11_20 
REMARK    7  A    between atoms: C14_23  and  S2_24 
ROOT
HETATM    1  C7  UNL     1       1.229  -1.045   1.401  1.00  0.00     0.079 A 
HETATM    2  C8  UNL     1       0.864  -0.115   2.350  1.00  0.00     0.039 A 
HETATM    3  C9  UNL     1      -0.341   0.534   2.274  1.00  0.00     0.031 A 
HETATM    4  C10 UNL     1      -1.274   0.300   1.243  1.00  0.00     0.118 A 
HETATM    5  C17 UNL     1      -0.902  -0.621   0.312  1.00  0.00     0.142 A 
HETATM    6  F2  UNL     1      -1.716  -0.926  -0.721  1.00  0.00    -0.204 F 
HETATM    7  C18 UNL     1       0.335  -1.287   0.390  1.00  0.00     0.081 A 
ENDROOT
BRANCH   4   8
HETATM    8  S1  UNL     1      -2.779   1.179   1.238  1.00  0.00     0.266 S 
HETATM    9  O3  UNL     1      -2.820   2.090   0.012  1.00  0.00    -0.200 OA
HETATM   10  O4  UNL     1      -2.826   2.121   2.419  1.00  0.00    -0.200 OA
BRANCH   8  11
HETATM   11  N2  UNL     1      -4.178   0.206   1.318  1.00  0.00    -0.281 N 
ATOM     12  H2  UNL     1      -4.269  -0.400   2.133  1.00  0.00     0.179 HD
BRANCH  11  13
HETATM   13  C11 UNL     1      -5.225   0.155   0.368  1.00  0.00     0.042 A 
HETATM   14  C12 UNL     1      -5.116   0.234  -0.990  1.00  0.00     0.031 A 
HETATM   15  C13 UNL     1      -6.234   0.198  -1.833  1.00  0.00     0.028 A 
HETATM   16  C14 UNL     1      -7.510   0.081  -1.335  1.00  0.00     0.090 A 
HETATM   17  C15 UNL     1      -7.627   0.001   0.034  1.00  0.00     0.028 A 
HETATM   18  C16 UNL     1      -6.535   0.036   0.866  1.00  0.00     0.031 A 
BRANCH  16  19
HETATM   19  S2  UNL     1      -8.921   0.033  -2.365  1.00  0.00     0.333 S 
HETATM   20  O5  UNL     1     -10.009  -0.804  -1.760  1.00  0.00    -0.189 OA
HETATM   21  O6  UNL     1      -8.581  -0.549  -3.707  1.00  0.00    -0.189 OA
HETATM   22  F1  UNL     1      -9.465   1.592  -2.599  1.00  0.00    -0.100 F 
ENDBRANCH  16  19
ENDBRANCH  11  13
ENDBRANCH   8  11
ENDBRANCH   4   8
BRANCH   1  23
HETATM   23  O2  UNL     1       2.455  -1.700   1.486  1.00  0.00    -0.311 OA
BRANCH  23  24
HETATM   24  C6  UNL     1       3.604  -1.195   0.886  1.00  0.00     0.076 A 
HETATM   25  C5  UNL     1       3.992  -1.488  -0.377  1.00  0.00     0.039 A 
HETATM   26  C4  UNL     1       5.154  -0.936  -0.889  1.00  0.00     0.032 A 
HETATM   27  C3  UNL     1       5.974  -0.085  -0.189  1.00  0.00     0.034 A 
HETATM   28  C20 UNL     1       5.533   0.191   1.117  1.00  0.00     0.032 A 
HETATM   29  C19 UNL     1       4.386  -0.347   1.635  1.00  0.00     0.039 A 
BRANCH  27  30
HETATM   30  N1  UNL     1       7.168   0.498  -0.631  1.00  0.00    -0.328 N 
HETATM   31  C2  UNL     1       7.877   0.160  -1.765  1.00  0.00     0.218 C 
HETATM   32  C1  UNL     1       9.156   0.919  -2.077  1.00  0.00     0.117 C 
HETATM   33  O1  UNL     1       7.535  -0.734  -2.557  1.00  0.00    -0.274 OA
ATOM     34  H1  UNL     1       7.552   1.248  -0.057  1.00  0.00     0.169 HD
ENDBRANCH  27  30
ENDBRANCH  23  24
ENDBRANCH   1  23
TORSDOF 7
