REMARK  10 active torsions:
REMARK  status: ('A' for Active; 'I' for Inactive)
REMARK    1  A    between atoms: C2_2  and  N1_3 
REMARK    2  A    between atoms: C2_2  and  C21_32 
REMARK       I    between atoms: N1_3  and  C3_5 
REMARK    3  A    between atoms: C3_5  and  C4_7 
REMARK    4  A    between atoms: C4_7  and  O2_8 
REMARK    5  A    between atoms: C4_7  and  N2_10 
REMARK    6  A    between atoms: N2_10  and  C5_11 
REMARK    7  A    between atoms: N2_10  and  C11_18 
REMARK    8  A    between atoms: C11_18  and  C12_19 
REMARK    9  A    between atoms: C11_18  and  C17_27 
REMARK       I    between atoms: C12_19  and  N3_21 
REMARK   10  A    between atoms: N3_21  and  C13_23 
ROOT
HETATM    1  N2  UNL     1       0.022   1.067  -0.708  1.00  0.00    -0.303 N 
ENDROOT
BRANCH   1   2
HETATM    2  C4  UNL     1       1.409   0.765  -0.664  1.00  0.00     0.213 C 
BRANCH   2   3
HETATM    3  C3  UNL     1       2.057  -0.479  -0.400  1.00  0.00     0.293 C 
HETATM    4  N1  UNL     1       3.496  -0.582  -0.480  1.00  0.00    -0.344 N 
ATOM      5  H1  UNL     1       4.042   0.243  -0.730  1.00  0.00     0.163 HD
HETATM    6  O1  UNL     1       1.464  -1.525  -0.094  1.00  0.00    -0.264 OA
BRANCH   4   7
HETATM    7  C2  UNL     1       4.180  -1.828  -0.214  1.00  0.00     0.138 C 
HETATM    8  C1  UNL     1       4.961  -2.300  -1.419  1.00  0.00     0.039 C 
BRANCH   7   9
HETATM    9  C21 UNL     1       5.074  -1.593   0.957  1.00  0.00     0.077 A 
HETATM   10  C22 UNL     1       6.378  -2.009   1.049  1.00  0.00     0.038 A 
HETATM   11  C23 UNL     1       6.834  -1.593   2.278  1.00  0.00     0.052 A 
HETATM   12  C24 UNL     1       5.790  -0.944   2.875  1.00  0.00     0.145 A 
HETATM   13 CL1  UNL     1       5.816  -0.206   4.467  1.00  0.00    -0.057 Cl
HETATM   14  O5  UNL     1       4.788  -0.974   2.061  1.00  0.00    -0.301 OA
ENDBRANCH   7   9
ENDBRANCH   4   7
ENDBRANCH   2   3
BRANCH   2  15
HETATM   15  O2  UNL     1       2.253   1.745  -0.889  1.00  0.00    -0.342 OA
ATOM     16  H2  UNL     1       1.822   2.573  -1.065  1.00  0.00     0.219 HD
ENDBRANCH   2  15
ENDBRANCH   1   2
BRANCH   1  17
HETATM   17  C5  UNL     1      -0.275   2.466  -0.774  1.00  0.00     0.038 A 
HETATM   18  C6  UNL     1      -0.943   3.135   0.190  1.00  0.00     0.033 A 
HETATM   19  C7  UNL     1      -1.220   4.506   0.097  1.00  0.00     0.044 A 
HETATM   20  C8  UNL     1      -0.788   5.172  -1.021  1.00  0.00     0.116 A 
HETATM   21  F1  UNL     1      -1.036   6.515  -1.157  1.00  0.00    -0.206 F 
HETATM   22  C9  UNL     1      -0.102   4.493  -2.014  1.00  0.00     0.044 A 
HETATM   23  C10 UNL     1       0.160   3.134  -1.899  1.00  0.00     0.033 A 
ENDBRANCH   1  17
BRANCH   1  24
HETATM   24  C11 UNL     1      -0.970   0.060  -0.832  1.00  0.00     0.241 C 
BRANCH  24  25
HETATM   25  C12 UNL     1      -1.674  -0.296   0.449  1.00  0.00     0.248 C 
HETATM   26  O3  UNL     1      -1.162  -0.002   1.554  1.00  0.00    -0.271 OA
HETATM   27  N3  UNL     1      -2.916  -0.963   0.487  1.00  0.00    -0.351 N 
ATOM     28  H3  UNL     1      -3.340  -1.204  -0.409  1.00  0.00     0.163 HD
BRANCH  27  29
HETATM   29  C13 UNL     1      -3.629  -1.329   1.659  1.00  0.00     0.022 C 
HETATM   30  C14 UNL     1      -4.000  -0.157   2.555  1.00  0.00     0.037 C 
HETATM   31  C15 UNL     1      -2.925  -2.341   2.524  1.00  0.00     0.037 C 
HETATM   32  C16 UNL     1      -4.958  -1.959   1.226  1.00  0.00     0.037 C 
ENDBRANCH  27  29
ENDBRANCH  24  25
BRANCH  24  33
HETATM   33  C17 UNL     1      -1.954   0.288  -1.905  1.00  0.00     0.085 A 
HETATM   34  C18 UNL     1      -2.389  -0.619  -2.847  1.00  0.00     0.037 A 
HETATM   35  C19 UNL     1      -3.299   0.018  -3.639  1.00  0.00     0.027 A 
HETATM   36  C20 UNL     1      -3.391   1.298  -3.154  1.00  0.00     0.142 A 
HETATM   37  O4  UNL     1      -2.597   1.435  -2.139  1.00  0.00    -0.324 OA
ENDBRANCH  24  33
ENDBRANCH   1  24
TORSDOF 10
