REMARK  3 active torsions:
REMARK  status: ('A' for Active; 'I' for Inactive)
REMARK    1  A    between atoms: C2_2  and  C3_3 
REMARK    2  A    between atoms: C3_3  and  C6_9 
REMARK    3  A    between atoms: C4_4  and  C5_5 
ROOT
HETATM    1  C3  UNL     1       0.387   0.193  -0.276  1.00  0.00    -0.011 C 
HETATM    2  C4  UNL     1       1.018  -1.004  -0.346  1.00  0.00     0.030 C 
ENDROOT
BRANCH   1   3
HETATM    3  C2  UNL     1       0.987   1.286  -0.917  1.00  0.00     0.003 C 
HETATM    4  C1  UNL     1       0.680   2.532  -1.054  1.00  0.00     0.012 C 
ENDBRANCH   1   3
BRANCH   1   5
HETATM    5  C6  UNL     1      -0.846   0.175   0.467  1.00  0.00     0.069 C 
HETATM    6  N2  UNL     1      -1.252  -1.127   1.045  1.00  0.00    -0.101 NA
HETATM    7  C7  UNL     1      -1.682   1.132   0.721  1.00  0.00     0.127 C 
HETATM    8  N3  UNL     1      -2.858   0.786   1.514  1.00  0.00    -0.113 NA
ENDBRANCH   1   5
BRANCH   2   9
HETATM    9  C5  UNL     1       2.247  -1.296  -1.007  1.00  0.00     0.081 C 
HETATM   10  N1  UNL     1       2.693  -2.528  -0.957  1.00  0.00    -0.408 N 
ATOM     11  H12 UNL     1       2.165  -3.243  -0.457  1.00  0.00     0.155 HD
ATOM     12  H11 UNL     1       3.572  -2.737  -1.430  1.00  0.00     0.155 HD
ENDBRANCH   2   9
TORSDOF 3
