REMARK  5 active torsions:
REMARK  status: ('A' for Active; 'I' for Inactive)
REMARK    1  A    between atoms: C2_2  and  C3_4 
REMARK    2  A    between atoms: C3_4  and  C4_5 
REMARK    3  A    between atoms: C4_5  and  N2_6 
REMARK    4  A    between atoms: C5_10  and  C7_12 
REMARK    5  A    between atoms: C7_12  and  N3_13 
ROOT
HETATM    1  C3  UNL     1      -0.354   0.159   0.239  1.00  0.00    -0.006 C 
HETATM    2  C5  UNL     1       0.720  -0.509   0.091  1.00  0.00    -0.049 C 
HETATM    3  C6  UNL     1       1.223  -1.334   1.276  1.00  0.00     0.046 C 
ENDROOT
BRANCH   1   4
HETATM    4  C2  UNL     1      -1.005   0.996  -0.721  1.00  0.00     0.045 C 
HETATM    5  C1  UNL     1      -2.113   1.639  -0.377  1.00  0.00     0.040 C 
HETATM    6  N1  UNL     1      -0.572   1.199  -2.045  1.00  0.00    -0.103 NA
ENDBRANCH   1   4
BRANCH   1   7
HETATM    7  C4  UNL     1      -0.994   0.052   1.630  1.00  0.00     0.270 C 
BRANCH   7   8
HETATM    8  N2  UNL     1      -2.259  -0.642   1.579  1.00  0.00    -0.075 N 
ATOM      9  H23 UNL     1      -2.895  -0.210   0.908  1.00  0.00     0.274 HD
ATOM     10  H22 UNL     1      -2.165  -1.558   1.140  1.00  0.00     0.274 HD
ATOM     11  H21 UNL     1      -2.684  -0.713   2.503  1.00  0.00     0.274 HD
ENDBRANCH   7   8
ENDBRANCH   1   7
BRANCH   2  12
HETATM   12  C7  UNL     1       1.575  -0.655  -1.066  1.00  0.00     0.264 C 
BRANCH  12  13
HETATM   13  N3  UNL     1       2.934  -0.137  -0.810  1.00  0.00    -0.076 N 
ATOM     14  H33 UNL     1       2.909   0.830  -0.486  1.00  0.00     0.274 HD
ATOM     15  H32 UNL     1       3.348  -0.571   0.015  1.00  0.00     0.274 HD
ATOM     16  H31 UNL     1       3.537  -0.240  -1.626  1.00  0.00     0.274 HD
ENDBRANCH  12  13
ENDBRANCH   2  12
TORSDOF 5
