REMARK  13 active torsions:
REMARK  status: ('A' for Active; 'I' for Inactive)
REMARK    1  A    between atoms: C2_2  and  O1_4 
REMARK    2  A    between atoms: C2_2  and  C4_6 
REMARK    3  A    between atoms: C5_7  and  C6_8 
REMARK    4  A    between atoms: C7_9  and  C8_10 
REMARK    5  A    between atoms: C9_11  and  C10_12 
REMARK    6  A    between atoms: C10_12  and  N1_13 
REMARK    7  A    between atoms: N1_13  and  C11_14 
REMARK       I    between atoms: N1_13  and  C16_20 
REMARK    8  A    between atoms: C11_14  and  C12_15 
REMARK    9  A    between atoms: C12_15  and  N2_16 
REMARK   10  A    between atoms: C16_20  and  C17_22 
REMARK       I    between atoms: C17_22  and  N3_24 
REMARK   11  A    between atoms: N3_24  and  C18_26 
REMARK   12  A    between atoms: C25_33  and  C26_34 
REMARK   13  A    between atoms: C26_34  and  O4_35 
ROOT
HETATM    1  N1  UNL     1       1.630  -1.899   1.824  1.00  0.00    -0.339 N 
HETATM    2  C16 UNL     1       0.546  -1.185   2.313  1.00  0.00     0.312 C 
HETATM    3  O2  UNL     1       0.691  -0.466   3.366  1.00  0.00    -0.262 OA
ENDROOT
BRANCH   2   4
HETATM    4  C17 UNL     1      -0.782  -1.194   1.695  1.00  0.00     0.313 C 
HETATM    5  O3  UNL     1      -1.040  -1.846   0.678  1.00  0.00    -0.262 OA
HETATM    6  N3  UNL     1      -1.817  -0.433   2.273  1.00  0.00    -0.329 N 
ATOM      7  H3  UNL     1      -1.543   0.056   3.125  1.00  0.00     0.168 HD
BRANCH   6   8
HETATM    8  C18 UNL     1      -3.124  -0.224   1.908  1.00  0.00     0.097 C 
HETATM    9  C19 UNL     1      -3.717   0.505   0.835  1.00  0.00    -0.028 C 
HETATM   10  C20 UNL     1      -3.506   1.997   0.684  1.00  0.00    -0.014 C 
HETATM   11  C28 UNL     1      -3.747   0.353  -0.613  1.00  0.00     0.059 C 
HETATM   12  C21 UNL     1      -4.284   2.789   1.713  1.00  0.00     0.020 C 
HETATM   13  C22 UNL     1      -2.143   2.531   0.565  1.00  0.00     0.020 C 
HETATM   14  C23 UNL     1      -4.173   1.828  -0.663  1.00  0.00     0.031 C 
HETATM   15  C24 UNL     1      -5.577   2.126  -0.857  1.00  0.00     0.024 C 
HETATM   16  C25 UNL     1      -6.620   1.093  -0.706  1.00  0.00     0.102 C 
HETATM   17  C27 UNL     1      -6.164  -0.200  -1.197  1.00  0.00     0.224 C 
HETATM   18  O5  UNL     1      -6.997  -1.050  -1.667  1.00  0.00    -0.273 OA
HETATM   19  N4  UNL     1      -4.797  -0.516  -1.155  1.00  0.00    -0.347 N 
ATOM     20  H4  UNL     1      -4.512  -1.420  -1.531  1.00  0.00     0.163 HD
HETATM   21  C29 UNL     1      -2.526   0.109  -1.450  1.00  0.00     0.044 C 
BRANCH  16  22
HETATM   22  C26 UNL     1      -7.816   1.494  -1.587  1.00  0.00     0.178 C 
BRANCH  22  23
HETATM   23  O4  UNL     1      -7.445   1.584  -2.916  1.00  0.00    -0.400 OA
ATOM     24  H4  UNL     1      -8.183   1.832  -3.460  1.00  0.00     0.209 HD
ENDBRANCH  22  23
ENDBRANCH  16  22
ENDBRANCH   6   8
ENDBRANCH   2   4
BRANCH   1  25
HETATM   25  C10 UNL     1       2.890  -1.736   2.621  1.00  0.00     0.154 C 
BRANCH  25  26
HETATM   26  C9  UNL     1       3.581  -0.587   2.016  1.00  0.00     0.002 C 
HETATM   27  C8  UNL     1       4.785  -0.739   1.504  1.00  0.00     0.063 C 
BRANCH  27  28
HETATM   28  C7  UNL     1       5.419   0.410   0.925  1.00  0.00    -0.065 C 
HETATM   29  C6  UNL     1       5.950   1.394   0.450  1.00  0.00    -0.010 C 
BRANCH  29  30
HETATM   30  C5  UNL     1       6.557   2.558  -0.090  1.00  0.00    -0.012 C 
HETATM   31  C4  UNL     1       7.058   3.558  -0.541  1.00  0.00    -0.055 C 
BRANCH  31  32
HETATM   32  C2  UNL     1       7.678   4.782  -1.067  1.00  0.00     0.114 C 
HETATM   33  C1  UNL     1       8.889   4.480  -1.927  1.00  0.00     0.060 C 
HETATM   34  C3  UNL     1       6.670   5.538  -1.921  1.00  0.00     0.060 C 
BRANCH  32  35
HETATM   35  O1  UNL     1       8.067   5.578   0.006  1.00  0.00    -0.378 OA
ATOM     36  H1  UNL     1       7.308   5.767   0.545  1.00  0.00     0.211 HD
ENDBRANCH  32  35
ENDBRANCH  31  32
ENDBRANCH  29  30
ENDBRANCH  27  28
ENDBRANCH  25  26
ENDBRANCH   1  25
BRANCH   1  37
HETATM   37  C11 UNL     1       1.661  -2.750   0.672  1.00  0.00     0.154 C 
BRANCH  37  38
HETATM   38  C12 UNL     1       1.309  -4.153   1.096  1.00  0.00     0.255 C 
BRANCH  38  39
HETATM   39  N2  UNL     1       1.310  -5.079  -0.027  1.00  0.00    -0.077 N 
HETATM   40  C13 UNL     1       1.845  -6.331   0.457  1.00  0.00     0.271 C 
HETATM   41  C14 UNL     1      -0.035  -5.269  -0.528  1.00  0.00     0.271 C 
HETATM   42  C15 UNL     1       2.119  -4.590  -1.127  1.00  0.00     0.271 C 
ENDBRANCH  38  39
ENDBRANCH  37  38
ENDBRANCH   1  37
TORSDOF 13
