REMARK  11 active torsions:
REMARK  status: ('A' for Active; 'I' for Inactive)
REMARK    1  A    between atoms: C2_2  and  C3_3 
REMARK    2  A    between atoms: C3_3  and  N1_4 
REMARK    3  A    between atoms: C5_6  and  C6_7 
REMARK    4  A    between atoms: C6_7  and  C7_8 
REMARK    5  A    between atoms: C11_15  and  C12_16 
REMARK    6  A    between atoms: C15_21  and  O2_22 
REMARK    7  A    between atoms: C16_24  and  O3_25 
REMARK    8  A    between atoms: C17_29  and  C18_30 
REMARK    9  A    between atoms: C18_30  and  C19_31 
REMARK   10  A    between atoms: C19_31  and  N5_32 
REMARK   11  A    between atoms: C23_36  and  O4_37 
ROOT
HETATM    1  N1  UNL     1      -1.327  -2.500  -0.749  1.00  0.00    -0.345 N 
HETATM    2  C4  UNL     1      -2.512  -1.914  -0.124  1.00  0.00     0.151 C 
HETATM    3  C5  UNL     1      -2.369  -0.562   0.441  1.00  0.00     0.102 C 
HETATM    4  N2  UNL     1      -1.900   0.404  -0.519  1.00  0.00    -0.353 N 
ATOM      5  H2  UNL     1      -1.199   0.047  -1.168  1.00  0.00     0.163 HD
HETATM    6  C10 UNL     1      -2.235   1.732  -0.714  1.00  0.00     0.241 C 
HETATM    7  O1  UNL     1      -2.789   1.993  -1.856  1.00  0.00    -0.271 OA
HETATM    8  C11 UNL     1      -2.056   2.895   0.183  1.00  0.00     0.179 C 
HETATM    9  N3  UNL     1      -0.949   2.836   1.077  1.00  0.00    -0.354 N 
ATOM     10  H3  UNL     1      -1.192   2.541   2.023  1.00  0.00     0.162 HD
HETATM   11  C15 UNL     1       0.417   3.110   0.893  1.00  0.00     0.188 C 
HETATM   12  C16 UNL     1       1.397   2.486   0.018  1.00  0.00     0.188 C 
HETATM   13  N4  UNL     1       1.819   1.124  -0.003  1.00  0.00    -0.355 N 
ATOM     14  H4  UNL     1       1.689   0.642  -0.893  1.00  0.00     0.162 HD
HETATM   15  C17 UNL     1       2.394   0.338   1.034  1.00  0.00     0.159 C 
HETATM   16  C23 UNL     1       1.473  -0.485   1.833  1.00  0.00     0.135 C 
HETATM   17  N6  UNL     1       1.171  -1.822   1.891  1.00  0.00    -0.355 N 
ATOM     18  H6  UNL     1       1.530  -2.241   2.749  1.00  0.00     0.162 HD
HETATM   19  C24 UNL     1       0.498  -2.792   1.092  1.00  0.00     0.105 C 
HETATM   20  C25 UNL     1      -0.573  -3.515   1.955  1.00  0.00     0.048 C 
HETATM   21  C26 UNL     1       1.503  -3.965   0.851  1.00  0.00     0.048 C 
HETATM   22  C27 UNL     1      -0.011  -2.467  -0.222  1.00  0.00     0.247 C 
HETATM   23  O5  UNL     1       0.840  -2.076  -1.114  1.00  0.00    -0.271 OA
ENDROOT
BRANCH  15  24
HETATM   24  C18 UNL     1       3.635  -0.428   0.536  1.00  0.00     0.061 C 
BRANCH  24  25
HETATM   25  C19 UNL     1       4.602   0.662   0.080  1.00  0.00     0.238 C 
BRANCH  25  26
HETATM   26  N5  UNL     1       5.806   0.015  -0.407  1.00  0.00    -0.079 N 
HETATM   27  C20 UNL     1       6.806  -0.114   0.621  1.00  0.00     0.271 C 
HETATM   28  C21 UNL     1       6.357   0.812  -1.486  1.00  0.00     0.271 C 
HETATM   29  C22 UNL     1       5.520  -1.312  -0.919  1.00  0.00     0.271 C 
ENDBRANCH  25  26
ENDBRANCH  24  25
ENDBRANCH  15  24
BRANCH  16  30
HETATM   30  O4  UNL     1       0.796   0.254   2.684  1.00  0.00    -0.348 OA
ATOM     31  H4  UNL     1       0.201  -0.277   3.200  1.00  0.00     0.219 HD
ENDBRANCH  16  30
BRANCH  12  32
HETATM   32  O3  UNL     1       1.932   3.312  -0.839  1.00  0.00    -0.343 OA
ATOM     33  H3  UNL     1       2.572   2.904  -1.411  1.00  0.00     0.219 HD
ENDBRANCH  12  32
BRANCH  11  34
HETATM   34  O2  UNL     1       0.917   4.079   1.611  1.00  0.00    -0.343 OA
ATOM     35  H2  UNL     1       1.840   4.264   1.487  1.00  0.00     0.219 HD
ENDBRANCH  11  34
BRANCH   8  36
HETATM   36  C12 UNL     1      -2.186   4.166  -0.628  1.00  0.00     0.009 C 
HETATM   37  C13 UNL     1      -2.006   5.399   0.235  1.00  0.00     0.012 C 
HETATM   38  C14 UNL     1      -1.403   4.213  -1.886  1.00  0.00     0.012 C 
ENDBRANCH   8  36
BRANCH   1  39
HETATM   39  C3  UNL     1      -1.621  -3.166  -2.037  1.00  0.00     0.152 C 
BRANCH  39  40
HETATM   40  C2  UNL     1      -1.508  -2.307  -3.203  1.00  0.00    -0.017 C 
HETATM   41  C1  UNL     1      -2.545  -2.098  -3.987  1.00  0.00     0.008 C 
ENDBRANCH  39  40
ENDBRANCH   1  39
BRANCH   3  42
HETATM   42  C6  UNL     1      -3.499  -0.156   1.282  1.00  0.00     0.030 C 
BRANCH  42  43
HETATM   43  C7  UNL     1      -4.869  -0.046   0.791  1.00  0.00    -0.021 C 
HETATM   44  C8  UNL     1      -5.557  -1.241   0.251  1.00  0.00     0.009 C 
HETATM   45  C9  UNL     1      -5.716   0.441   1.995  1.00  0.00     0.009 C 
ENDBRANCH  42  43
ENDBRANCH   3  42
TORSDOF 11
