REMARK  7 active torsions:
REMARK  status: ('A' for Active; 'I' for Inactive)
REMARK    1  A    between atoms: C3_3  and  C4_4 
REMARK    2  A    between atoms: C5_5  and  N1_6 
REMARK    3  A    between atoms: N2_16  and  C13_17 
REMARK    4  A    between atoms: N2_16  and  C14_22 
REMARK    5  A    between atoms: C13_17  and  N3_18 
REMARK    6  A    between atoms: C14_22  and  C15_23 
REMARK    7  A    between atoms: C15_23  and  N4_24 
ROOT
HETATM    1  C4  UNL     1      -3.040   0.416   1.389  1.00  0.00     0.142 C 
HETATM    2  C5  UNL     1      -4.405   0.043   0.912  1.00  0.00     0.214 C 
HETATM    3  C7  UNL     1      -4.168  -0.820  -0.307  1.00  0.00     0.061 C 
HETATM    4  C8  UNL     1      -2.746  -1.381  -0.120  1.00  0.00     0.097 C 
HETATM    5  C9  UNL     1      -2.118  -1.536  -1.455  1.00  0.00     0.036 C 
HETATM    6  C10 UNL     1      -2.647  -2.835  -2.065  1.00  0.00     0.014 C 
HETATM    7  C11 UNL     1      -0.647  -1.449  -1.516  1.00  0.00     0.205 C 
HETATM    8  C12 UNL     1      -0.276  -0.456  -2.618  1.00  0.00     0.041 C 
HETATM    9  N2  UNL     1       0.055  -1.182  -0.271  1.00  0.00     0.043 N 
HETATM   10  C22 UNL     1      -0.699  -0.137   0.384  1.00  0.00     0.420 C 
HETATM   11  O2  UNL     1      -0.181   0.932   0.787  1.00  0.00    -0.239 OA
HETATM   12  N5  UNL     1      -2.082  -0.300   0.591  1.00  0.00    -0.312 N 
ENDROOT
BRANCH   9  13
HETATM   13  C13 UNL     1       0.027  -2.314   0.587  1.00  0.00     0.478 C 
BRANCH  13  14
HETATM   14  N3  UNL     1      -0.199  -3.587  -0.123  1.00  0.00    -0.054 N 
ATOM     15  H33 UNL     1      -1.048  -3.540  -0.686  1.00  0.00     0.276 HD
ATOM     16  H32 UNL     1       0.490  -3.714  -0.865  1.00  0.00     0.276 HD
ATOM     17  H31 UNL     1      -0.219  -4.400   0.493  1.00  0.00     0.276 HD
ENDBRANCH  13  14
ENDBRANCH   9  13
BRANCH   9  18
HETATM   18  C14 UNL     1       1.356  -0.693  -0.640  1.00  0.00     0.280 C 
BRANCH  18  19
HETATM   19  C15 UNL     1       2.373  -0.544   0.412  1.00  0.00     0.265 C 
BRANCH  19  20
HETATM   20  N4  UNL     1       3.653  -0.031  -0.047  1.00  0.00    -0.068 N 
HETATM   21  C16 UNL     1       4.191  -0.661  -1.187  1.00  0.00     0.272 C 
HETATM   22  C17 UNL     1       4.569  -0.279   1.080  1.00  0.00     0.238 C 
HETATM   23  C18 UNL     1       6.000  -0.151   0.709  1.00  0.00     0.040 C 
HETATM   24  C19 UNL     1       6.449   1.290   0.562  1.00  0.00     0.110 C 
HETATM   25  S1  UNL     1       5.376   2.316   1.539  1.00  0.00     0.016 S 
HETATM   26  O1  UNL     1       5.966   3.873   1.524  1.00  0.00    -0.258 OA
HETATM   27  C20 UNL     1       3.699   2.214   0.967  1.00  0.00     0.136 C 
HETATM   28  C21 UNL     1       3.584   1.397  -0.291  1.00  0.00     0.249 C 
ENDBRANCH  19  20
ENDBRANCH  18  19
ENDBRANCH   9  18
BRANCH   1  29
HETATM   29  C3  UNL     1      -2.904   1.908   1.206  1.00  0.00    -0.004 C 
HETATM   30  C2  UNL     1      -3.440   2.726   2.077  1.00  0.00    -0.033 C 
HETATM   31  C1  UNL     1      -3.299   4.196   1.886  1.00  0.00     0.036 C 
ENDBRANCH   1  29
BRANCH   2  32
HETATM   32  N1  UNL     1      -5.187   1.190   0.475  1.00  0.00    -0.072 N 
HETATM   33  C6  UNL     1      -6.485   0.657   0.042  1.00  0.00     0.267 C 
ATOM     34  H12 UNL     1      -5.264   1.922   1.181  1.00  0.00     0.277 HD
ATOM     35  H11 UNL     1      -4.721   1.752  -0.237  1.00  0.00     0.277 HD
ENDBRANCH   2  32
TORSDOF 7
