REMARK  9 active torsions:
REMARK  status: ('A' for Active; 'I' for Inactive)
REMARK    1  A    between atoms: C2_2  and  N1_5 
REMARK       I    between atoms: N1_5  and  C5_7 
REMARK    2  A    between atoms: C5_7  and  C6_9 
REMARK    3  A    between atoms: C8_11  and  C9_12 
REMARK    4  A    between atoms: C9_12  and  N2_13 
REMARK       I    between atoms: N3_17  and  C13_18 
REMARK    5  A    between atoms: C13_18  and  C14_20 
REMARK    6  A    between atoms: C14_20  and  N4_21 
REMARK       I    between atoms: N4_21  and  C15_23 
REMARK    7  A    between atoms: C15_23  and  C16_25 
REMARK    8  A    between atoms: C16_25  and  N5_26 
REMARK       I    between atoms: N5_26  and  C17_28 
REMARK    9  A    between atoms: C17_28  and  C18_30 
ROOT
HETATM    1  C6  UNL     1      -2.433   0.485  -0.944  1.00  0.00     0.181 C 
HETATM    2  C7  UNL     1      -3.486  -0.574  -0.707  1.00  0.00     0.062 C 
HETATM    3  C8  UNL     1      -2.580  -1.261   0.252  1.00  0.00     0.116 C 
HETATM    4  N3  UNL     1      -1.516  -0.408  -0.246  1.00  0.00    -0.331 N 
HETATM    5  C13 UNL     1      -0.101  -0.357  -0.154  1.00  0.00     0.238 C 
HETATM    6  O2  UNL     1       0.574   0.568  -0.723  1.00  0.00    -0.272 OA
ENDROOT
BRANCH   1   7
HETATM    7  C5  UNL     1      -2.656   1.774  -0.249  1.00  0.00     0.241 C 
HETATM    8  N1  UNL     1      -3.529   2.724  -0.834  1.00  0.00    -0.351 N 
ATOM      9  H1  UNL     1      -3.983   2.497  -1.719  1.00  0.00     0.163 HD
HETATM   10  O1  UNL     1      -2.066   1.982   0.832  1.00  0.00    -0.271 OA
BRANCH   8  11
HETATM   11  C2  UNL     1      -3.800   4.011  -0.216  1.00  0.00     0.022 C 
HETATM   12  C1  UNL     1      -4.763   4.770  -1.095  1.00  0.00     0.037 C 
HETATM   13  C3  UNL     1      -4.374   3.876   1.170  1.00  0.00     0.037 C 
HETATM   14  C4  UNL     1      -2.484   4.771  -0.166  1.00  0.00     0.037 C 
ENDBRANCH   8  11
ENDBRANCH   1   7
BRANCH   3  15
HETATM   15  C9  UNL     1      -2.275  -2.680   0.113  1.00  0.00     0.261 C 
BRANCH  15  16
HETATM   16  N2  UNL     1      -3.366  -3.608   0.166  1.00  0.00    -0.077 N 
HETATM   17  C10 UNL     1      -2.796  -4.911   0.491  1.00  0.00     0.271 C 
HETATM   18  C11 UNL     1      -4.351  -3.325   1.156  1.00  0.00     0.271 C 
HETATM   19  C12 UNL     1      -3.947  -3.760  -1.175  1.00  0.00     0.271 C 
ENDBRANCH  15  16
ENDBRANCH   3  15
BRANCH   5  20
HETATM   20  C14 UNL     1       0.678  -1.356   0.596  1.00  0.00     0.225 C 
BRANCH  20  21
HETATM   21  N4  UNL     1       2.120  -1.068   0.539  1.00  0.00    -0.351 N 
HETATM   22  C15 UNL     1       3.020  -1.901   1.188  1.00  0.00     0.235 C 
HETATM   23  O3  UNL     1       2.545  -2.910   1.825  1.00  0.00    -0.272 OA
ATOM     24  H4  UNL     1       2.458  -0.256   0.022  1.00  0.00     0.163 HD
BRANCH  22  25
HETATM   25  C16 UNL     1       4.466  -1.753   1.226  1.00  0.00     0.225 C 
BRANCH  25  26
HETATM   26  N5  UNL     1       4.922  -0.608   0.495  1.00  0.00    -0.352 N 
HETATM   27  C17 UNL     1       6.347  -0.351   0.457  1.00  0.00     0.225 C 
HETATM   28  O4  UNL     1       7.124  -1.114   1.047  1.00  0.00    -0.273 OA
ATOM     29  H5  UNL     1       4.264   0.007   0.016  1.00  0.00     0.162 HD
BRANCH  27  30
HETATM   30  C18 UNL     1       6.826   0.827  -0.293  1.00  0.00     0.030 C 
HETATM   31  C19 UNL     1       6.201   2.067   0.323  1.00  0.00     0.024 C 
HETATM   32  C20 UNL     1       6.439   0.750  -1.755  1.00  0.00     0.024 C 
HETATM   33  C21 UNL     1       8.327   0.863  -0.214  1.00  0.00     0.024 C 
ENDBRANCH  27  30
ENDBRANCH  25  26
ENDBRANCH  22  25
ENDBRANCH  20  21
ENDBRANCH   5  20
TORSDOF 9
