REMARK  15 active torsions:
REMARK  status: ('A' for Active; 'I' for Inactive)
REMARK    1  A    between atoms: O1_2  and  C2_3 
REMARK       I    between atoms: C2_3  and  N1_5 
REMARK    2  A    between atoms: N1_5  and  C3_7 
REMARK    3  A    between atoms: C3_7  and  C5_9 
REMARK    4  A    between atoms: C3_7  and  C15_25 
REMARK    5  A    between atoms: C5_9  and  O3_10 
REMARK    6  A    between atoms: C5_9  and  N2_12 
REMARK    7  A    between atoms: C9_16  and  C10_17 
REMARK       I    between atoms: C10_17  and  N3_19 
REMARK    8  A    between atoms: N3_19  and  C11_21 
REMARK    9  A    between atoms: C15_25  and  N4_27 
REMARK   10  A    between atoms: N4_27  and  C17_29 
REMARK   11  A    between atoms: C17_29  and  C18_30 
REMARK   12  A    between atoms: C17_29  and  C22_34 
REMARK   13  A    between atoms: C18_30  and  C19_31 
REMARK       I    between atoms: C22_34  and  N5_36 
REMARK   14  A    between atoms: N5_36  and  C23_38 
REMARK   15  A    between atoms: C23_38  and  C26_41 
ROOT
HETATM    1  C3  UNL     1       1.535  -1.841  -2.160  1.00  0.00     0.116 C 
HETATM    2  C4  UNL     1       2.427  -2.086  -3.309  1.00  0.00     0.050 C 
ENDROOT
BRANCH   1   3
HETATM    3  N1  UNL     1       0.539  -2.946  -2.060  1.00  0.00    -0.318 N 
HETATM    4  C2  UNL     1       0.945  -4.287  -1.795  1.00  0.00     0.361 C 
HETATM    5  O2  UNL     1       2.152  -4.544  -1.636  1.00  0.00    -0.238 OA
ATOM      6  H1  UNL     1      -0.452  -2.739  -2.184  1.00  0.00     0.166 HD
BRANCH   4   7
HETATM    7  O1  UNL     1       0.023  -5.314  -1.711  1.00  0.00    -0.309 OA
HETATM    8  C1  UNL     1       0.417  -6.650  -1.447  1.00  0.00     0.215 C 
ENDBRANCH   4   7
ENDBRANCH   1   3
BRANCH   1   9
HETATM    9  C5  UNL     1       2.154  -1.719  -0.870  1.00  0.00     0.145 C 
BRANCH   9  10
HETATM   10  O3  UNL     1       1.325  -1.839   0.130  1.00  0.00    -0.347 OA
ATOM     11  H3  UNL     1       1.735  -1.758   0.983  1.00  0.00     0.219 HD
ENDBRANCH   9  10
BRANCH   9  12
HETATM   12  N2  UNL     1       3.485  -1.491  -0.463  1.00  0.00    -0.350 N 
HETATM   13  C6  UNL     1       4.611  -1.413  -1.413  1.00  0.00     0.126 C 
HETATM   14  C7  UNL     1       5.892  -1.408  -0.556  1.00  0.00     0.022 C 
HETATM   15  C8  UNL     1       5.399  -1.980   0.740  1.00  0.00     0.037 C 
HETATM   16  C9  UNL     1       4.043  -1.214   0.814  1.00  0.00     0.178 C 
BRANCH  16  17
HETATM   17  C10 UNL     1       3.396  -1.630   2.041  1.00  0.00     0.241 C 
HETATM   18  O4  UNL     1       2.736  -2.676   2.145  1.00  0.00    -0.271 OA
HETATM   19  N3  UNL     1       3.475  -0.849   3.253  1.00  0.00    -0.351 N 
ATOM     20  H3  UNL     1       4.009   0.019   3.221  1.00  0.00     0.163 HD
BRANCH  19  21
HETATM   21  C11 UNL     1       2.863  -1.201   4.489  1.00  0.00     0.022 C 
HETATM   22  C12 UNL     1       3.302  -2.521   5.067  1.00  0.00     0.037 C 
HETATM   23  C13 UNL     1       1.357  -1.244   4.310  1.00  0.00     0.037 C 
HETATM   24  C14 UNL     1       3.142  -0.062   5.480  1.00  0.00     0.037 C 
ENDBRANCH  19  21
ENDBRANCH  16  17
ENDBRANCH   9  12
ENDBRANCH   1   9
BRANCH   1  25
HETATM   25  C15 UNL     1       0.639  -0.561  -2.450  1.00  0.00     0.113 C 
HETATM   26  C16 UNL     1       1.488   0.644  -2.502  1.00  0.00     0.035 C 
BRANCH  25  27
HETATM   27  N4  UNL     1      -0.451  -0.600  -1.608  1.00  0.00    -0.382 N 
ATOM     28  H4  UNL     1      -0.362  -1.084  -0.715  1.00  0.00     0.160 HD
BRANCH  27  29
HETATM   29  C17 UNL     1      -1.722   0.021  -1.942  1.00  0.00     0.074 C 
BRANCH  29  30
HETATM   30  C18 UNL     1      -2.183  -0.383  -3.280  1.00  0.00     0.066 C 
BRANCH  30  31
HETATM   31  C19 UNL     1      -3.488   0.077  -3.811  1.00  0.00    -0.017 C 
HETATM   32  C20 UNL     1      -4.702  -0.348  -3.055  1.00  0.00     0.010 C 
HETATM   33  C21 UNL     1      -3.544   1.550  -4.175  1.00  0.00     0.010 C 
ENDBRANCH  30  31
ENDBRANCH  29  30
BRANCH  29  34
HETATM   34  C22 UNL     1      -1.868   1.413  -1.498  1.00  0.00     0.264 C 
HETATM   35  O5  UNL     1      -0.982   2.292  -1.643  1.00  0.00    -0.266 OA
HETATM   36  N5  UNL     1      -3.055   1.862  -0.845  1.00  0.00    -0.347 N 
ATOM     37  H5  UNL     1      -3.795   1.170  -0.729  1.00  0.00     0.163 HD
BRANCH  36  38
HETATM   38  C23 UNL     1      -3.328   3.178  -0.332  1.00  0.00     0.029 C 
HETATM   39  C24 UNL     1      -3.040   4.301  -1.286  1.00  0.00     0.038 C 
HETATM   40  C25 UNL     1      -4.899   3.274  -0.156  1.00  0.00     0.038 C 
BRANCH  38  41
HETATM   41  C26 UNL     1      -2.815   3.419   1.038  1.00  0.00     0.013 C 
HETATM   42  C27 UNL     1      -3.460   2.389   1.995  1.00  0.00     0.007 C 
HETATM   43  C28 UNL     1      -3.160   2.733   3.420  1.00  0.00     0.000 C 
HETATM   44  C29 UNL     1      -2.244   3.896   3.577  1.00  0.00     0.000 C 
HETATM   45  C30 UNL     1      -1.051   3.850   2.685  1.00  0.00     0.000 C 
HETATM   46  C31 UNL     1      -1.357   3.365   1.274  1.00  0.00     0.007 C 
ENDBRANCH  38  41
ENDBRANCH  36  38
ENDBRANCH  29  34
ENDBRANCH  27  29
ENDBRANCH  25  27
ENDBRANCH   1  25
TORSDOF 15
