REMARK  15 active torsions:
REMARK  status: ('A' for Active; 'I' for Inactive)
REMARK    1  A    between atoms: C2_2  and  N1_3 
REMARK    2  A    between atoms: C2_2  and  C30_43 
REMARK    3  A    between atoms: N1_3  and  C3_5 
REMARK    4  A    between atoms: C3_5  and  C5_7 
REMARK    5  A    between atoms: C5_7  and  C6_8 
REMARK    6  A    between atoms: C5_7  and  N2_17 
REMARK    7  A    between atoms: C6_8  and  C7_9 
REMARK    8  A    between atoms: C7_9  and  C8_10 
REMARK    9  A    between atoms: C8_10  and  O2_12 
REMARK   10  A    between atoms: O2_12  and  C9_13 
REMARK       I    between atoms: N2_17  and  C13_19 
REMARK   11  A    between atoms: C13_19  and  C14_21 
REMARK   12  A    between atoms: C14_21  and  O4_22 
REMARK   13  A    between atoms: C14_21  and  N3_24 
REMARK       I    between atoms: N3_24  and  C15_25 
REMARK   14  A    between atoms: N3_24  and  C26_39 
REMARK       I    between atoms: C15_25  and  N4_27 
REMARK   15  A    between atoms: N4_27  and  C16_29 
ROOT
HETATM    1  N2  UNL     1       1.632   0.967   0.411  1.00  0.00    -0.347 N 
ATOM      2  H2  UNL     1       2.112   1.134   1.295  1.00  0.00     0.163 HD
HETATM    3  C13 UNL     1       0.171   0.826   0.424  1.00  0.00     0.293 C 
HETATM    4  O3  UNL     1      -0.270   0.630  -0.718  1.00  0.00    -0.264 OA
ENDROOT
BRANCH   3   5
HETATM    5  C14 UNL     1      -0.532   0.918   1.639  1.00  0.00     0.216 C 
BRANCH   5   6
HETATM    6  O4  UNL     1       0.248   1.218   2.673  1.00  0.00    -0.342 OA
ATOM      7  H4  UNL     1      -0.227   1.280   3.494  1.00  0.00     0.219 HD
ENDBRANCH   5   6
BRANCH   5   8
HETATM    8  N3  UNL     1      -1.912   0.758   2.019  1.00  0.00    -0.267 N 
HETATM    9  C15 UNL     1      -2.835   0.226   1.140  1.00  0.00     0.325 C 
HETATM   10  O5  UNL     1      -2.503   0.194  -0.116  1.00  0.00    -0.247 OA
HETATM   11  N4  UNL     1      -4.118  -0.324   1.323  1.00  0.00    -0.333 N 
ATOM     12  H4  UNL     1      -4.482  -0.379   2.274  1.00  0.00     0.165 HD
BRANCH  11  13
HETATM   13  C16 UNL     1      -4.965  -0.823   0.234  1.00  0.00     0.035 C 
HETATM   14  C17 UNL     1      -6.261  -1.375   0.878  1.00  0.00     0.035 C 
HETATM   15  C18 UNL     1      -7.206  -1.862  -0.170  1.00  0.00    -0.012 C 
HETATM   16  C19 UNL     1      -6.629  -2.946  -1.053  1.00  0.00     0.009 C 
HETATM   17  C23 UNL     1      -7.593  -0.716  -1.107  1.00  0.00     0.009 C 
HETATM   18  C20 UNL     1      -5.315  -2.455  -1.564  1.00  0.00    -0.012 C 
HETATM   19  C21 UNL     1      -5.594  -1.297  -2.526  1.00  0.00     0.009 C 
HETATM   20  C25 UNL     1      -4.362  -2.007  -0.468  1.00  0.00     0.035 C 
HETATM   21  C22 UNL     1      -6.325  -0.232  -1.745  1.00  0.00    -0.012 C 
HETATM   22  C24 UNL     1      -5.363   0.273  -0.695  1.00  0.00     0.035 C 
ENDBRANCH  11  13
BRANCH   8  23
HETATM   23  C26 UNL     1      -2.197   1.052   3.441  1.00  0.00     0.033 C 
HETATM   24  C27 UNL     1      -1.475   0.060   4.302  1.00  0.00     0.038 C 
HETATM   25  C28 UNL     1      -1.570   2.434   3.759  1.00  0.00     0.038 C 
HETATM   26  C29 UNL     1      -3.610   1.176   3.834  1.00  0.00     0.038 C 
ENDBRANCH   8  23
ENDBRANCH   5   8
ENDBRANCH   3   5
BRANCH   1  27
HETATM   27  C5  UNL     1       2.410   0.881  -0.779  1.00  0.00     0.107 C 
BRANCH  27  28
HETATM   28  C3  UNL     1       3.307   2.076  -1.022  1.00  0.00     0.096 C 
HETATM   29  C4  UNL     1       4.074   1.884  -2.291  1.00  0.00     0.034 C 
BRANCH  28  30
HETATM   30  N1  UNL     1       2.521   3.262  -0.959  1.00  0.00    -0.403 N 
ATOM     31  H1  UNL     1       1.503   3.215  -0.906  1.00  0.00     0.154 HD
BRANCH  30  32
HETATM   32  C2  UNL     1       3.196   4.516  -0.972  1.00  0.00     0.174 C 
HETATM   33  C1  UNL     1       3.973   4.876  -2.185  1.00  0.00     0.043 C 
BRANCH  32  34
HETATM   34  C30 UNL     1       2.121   5.568  -0.835  1.00  0.00     0.195 C 
HETATM   35  O6  UNL     1       0.920   5.317  -0.730  1.00  0.00    -0.646 OA
HETATM   36  O7  UNL     1       2.491   6.930  -0.822  1.00  0.00    -0.646 OA
ENDBRANCH  32  34
ENDBRANCH  30  32
ENDBRANCH  28  30
ENDBRANCH  27  28
BRANCH  27  37
HETATM   37  C6  UNL     1       3.154  -0.439  -0.817  1.00  0.00     0.037 C 
BRANCH  37  38
HETATM   38  C7  UNL     1       4.268  -0.531   0.202  1.00  0.00     0.113 C 
BRANCH  38  39
HETATM   39  C8  UNL     1       4.858  -1.888   0.043  1.00  0.00     0.259 C 
HETATM   40  O1  UNL     1       4.096  -2.918   0.071  1.00  0.00    -0.265 OA
BRANCH  39  41
HETATM   41  O2  UNL     1       6.200  -2.152  -0.142  1.00  0.00    -0.311 OA
BRANCH  41  42
HETATM   42  C9  UNL     1       6.701  -3.474  -0.283  1.00  0.00     0.060 C 
HETATM   43  C10 UNL     1       8.196  -3.324  -0.509  1.00  0.00     0.045 C 
HETATM   44  C11 UNL     1       6.556  -4.245   1.020  1.00  0.00     0.045 C 
HETATM   45  C12 UNL     1       6.100  -4.244  -1.407  1.00  0.00     0.045 C 
ENDBRANCH  41  42
ENDBRANCH  39  41
ENDBRANCH  38  39
ENDBRANCH  37  38
ENDBRANCH  27  37
ENDBRANCH   1  27
TORSDOF 15
