REMARK  13 active torsions:
REMARK  status: ('A' for Active; 'I' for Inactive)
REMARK    1  A    between atoms: C2_2  and  C3_3 
REMARK    2  A    between atoms: C3_3  and  N1_4 
REMARK    3  A    between atoms: N1_4  and  C4_6 
REMARK    4  A    between atoms: C4_6  and  N2_8 
REMARK    5  A    between atoms: N2_8  and  C5_10 
REMARK    6  A    between atoms: C5_10  and  C6_11 
REMARK    7  A    between atoms: C5_10  and  C10_15 
REMARK    8  A    between atoms: C6_11  and  C7_12 
REMARK    9  A    between atoms: C10_15  and  C11_17 
REMARK   10  A    between atoms: C11_17  and  C12_18 
REMARK   11  A    between atoms: C13_19  and  O2_20 
REMARK   12  A    between atoms: C15_23  and  C16_24 
REMARK       I    between atoms: C16_24  and  N3_26 
REMARK   13  A    between atoms: N3_26  and  C17_28 
ROOT
HETATM    1  C12 UNL     1       1.079  -1.539  -0.122  1.00  0.00     0.029 C 
HETATM    2  C13 UNL     1       0.047  -2.339  -0.860  1.00  0.00     0.126 C 
HETATM    3  C14 UNL     1      -1.193  -1.598  -1.218  1.00  0.00     0.073 C 
HETATM    4  C15 UNL     1      -2.197  -1.683  -0.115  1.00  0.00     0.216 C 
HETATM    5  O4  UNL     1      -1.804  -1.156   1.084  1.00  0.00    -0.370 OA
HETATM    6  C27 UNL     1      -0.764  -0.250   1.003  1.00  0.00     0.137 C 
HETATM    7  C28 UNL     1      -0.838   0.603   2.256  1.00  0.00     0.106 C 
HETATM    8  S2  UNL     1      -0.220  -0.604   3.495  1.00  0.00    -0.166 SA
HETATM    9  C29 UNL     1       0.555  -1.782   2.316  1.00  0.00     0.081 C 
HETATM   10  C30 UNL     1       0.597  -0.854   1.087  1.00  0.00     0.032 C 
ENDROOT
BRANCH   1  11
HETATM   11  C11 UNL     1       1.809  -0.576  -1.024  1.00  0.00     0.088 C 
BRANCH  11  12
HETATM   12  C10 UNL     1       2.836   0.215  -0.316  1.00  0.00     0.149 C 
HETATM   13  O1  UNL     1       2.660   1.385  -0.007  1.00  0.00    -0.296 OA
BRANCH  12  14
HETATM   14  C5  UNL     1       4.147  -0.414   0.049  1.00  0.00     0.154 C 
BRANCH  14  15
HETATM   15  N2  UNL     1       5.001   0.519   0.716  1.00  0.00    -0.356 N 
ATOM     16  H2  UNL     1       5.187   0.329   1.701  1.00  0.00     0.162 HD
BRANCH  15  17
HETATM   17  C4  UNL     1       5.614   1.662   0.184  1.00  0.00     0.168 C 
HETATM   18  S1  UNL     1       5.425   2.184  -1.359  1.00  0.00    -0.041 SA
BRANCH  17  19
HETATM   19  N1  UNL     1       6.445   2.473   1.015  1.00  0.00    -0.364 N 
ATOM     20  H1  UNL     1       6.550   2.193   1.990  1.00  0.00     0.162 HD
BRANCH  19  21
HETATM   21  C3  UNL     1       7.142   3.648   0.588  1.00  0.00     0.148 C 
BRANCH  21  22
HETATM   22  C2  UNL     1       8.246   3.211  -0.311  1.00  0.00    -0.018 C 
HETATM   23  C1  UNL     1       9.486   3.494   0.023  1.00  0.00     0.008 C 
ENDBRANCH  21  22
ENDBRANCH  19  21
ENDBRANCH  17  19
ENDBRANCH  15  17
ENDBRANCH  14  15
BRANCH  14  24
HETATM   24  C6  UNL     1       4.853  -1.042  -1.108  1.00  0.00     0.037 C 
BRANCH  24  25
HETATM   25  C7  UNL     1       6.086  -1.754  -0.586  1.00  0.00    -0.020 C 
HETATM   26  C8  UNL     1       6.838  -2.410  -1.753  1.00  0.00     0.009 C 
HETATM   27  C9  UNL     1       5.749  -2.870   0.367  1.00  0.00     0.009 C 
ENDBRANCH  24  25
ENDBRANCH  14  24
ENDBRANCH  12  14
ENDBRANCH  11  12
ENDBRANCH   1  11
BRANCH   2  28
HETATM   28  O2  UNL     1       0.636  -2.803  -2.041  1.00  0.00    -0.395 OA
ATOM     29  H2  UNL     1      -0.018  -3.310  -2.508  1.00  0.00     0.210 HD
ENDBRANCH   2  28
BRANCH   4  30
HETATM   30  C16 UNL     1      -3.526  -1.153  -0.496  1.00  0.00     0.247 C 
HETATM   31  O3  UNL     1      -4.016  -1.526  -1.583  1.00  0.00    -0.271 OA
HETATM   32  N3  UNL     1      -4.261  -0.250   0.307  1.00  0.00    -0.350 N 
ATOM     33  H3  UNL     1      -3.827   0.031   1.186  1.00  0.00     0.163 HD
BRANCH  32  34
HETATM   34  C17 UNL     1      -5.539   0.311   0.026  1.00  0.00     0.034 C 
HETATM   35  C18 UNL     1      -6.563  -0.766  -0.108  1.00  0.00     0.035 C 
HETATM   36  C19 UNL     1      -7.929  -0.172  -0.402  1.00  0.00    -0.012 C 
HETATM   37  C20 UNL     1      -7.812   0.617  -1.674  1.00  0.00     0.009 C 
HETATM   38  C24 UNL     1      -8.345   0.668   0.761  1.00  0.00     0.009 C 
HETATM   39  C21 UNL     1      -6.812   1.749  -1.481  1.00  0.00    -0.012 C 
HETATM   40  C22 UNL     1      -7.307   2.591  -0.334  1.00  0.00     0.009 C 
HETATM   41  C26 UNL     1      -5.446   1.215  -1.180  1.00  0.00     0.035 C 
HETATM   42  C23 UNL     1      -7.313   1.778   0.944  1.00  0.00    -0.012 C 
HETATM   43  C25 UNL     1      -5.967   1.177   1.209  1.00  0.00     0.035 C 
ENDBRANCH  32  34
ENDBRANCH   4  30
TORSDOF 13
