REMARK  12 active torsions:
REMARK  status: ('A' for Active; 'I' for Inactive)
REMARK    1  A    between atoms: C2_2  and  C3_3 
REMARK    2  A    between atoms: C2_2  and  N1_15 
REMARK    3  A    between atoms: C4_4  and  C5_5 
REMARK    4  A    between atoms: C4_4  and  C7_9 
REMARK    5  A    between atoms: C5_5  and  C6_6 
REMARK    6  A    between atoms: C7_9  and  O3_10 
REMARK    7  A    between atoms: C7_9  and  C8_12 
REMARK       I    between atoms: N1_15  and  C11_17 
REMARK    8  A    between atoms: C11_17  and  C12_19 
REMARK       I    between atoms: N2_24  and  C15_25 
REMARK    9  A    between atoms: C15_25  and  C16_27 
REMARK   10  A    between atoms: C16_27  and  N3_28 
REMARK   11  A    between atoms: C16_27  and  C28_42 
REMARK       I    between atoms: N3_28  and  C17_30 
REMARK   12  A    between atoms: C17_30  and  C18_32 
ROOT
HETATM    1  C12 UNL     1       1.731  -1.920   0.301  1.00  0.00     0.214 C 
HETATM    2  C13 UNL     1       2.584  -3.034   0.893  1.00  0.00     0.216 C 
HETATM    3  O5  UNL     1       2.559  -2.742   2.298  1.00  0.00    -0.301 OA
HETATM    4  C14 UNL     1       1.458  -1.921   2.569  1.00  0.00     0.370 C 
HETATM    5  O6  UNL     1       1.216  -1.424   3.686  1.00  0.00    -0.238 OA
HETATM    6  N2  UNL     1       0.719  -1.796   1.328  1.00  0.00    -0.246 N 
HETATM    7  C15 UNL     1      -0.687  -1.613   1.277  1.00  0.00     0.252 C 
HETATM    8  O7  UNL     1      -1.290  -1.480   2.363  1.00  0.00    -0.270 OA
ENDROOT
BRANCH   1   9
HETATM    9  C11 UNL     1       2.530  -0.672   0.169  1.00  0.00     0.243 C 
HETATM   10  N1  UNL     1       3.610  -0.587  -0.731  1.00  0.00    -0.352 N 
ATOM     11  H1  UNL     1       3.838  -1.405  -1.296  1.00  0.00     0.163 HD
HETATM   12  O4  UNL     1       2.227   0.306   0.872  1.00  0.00    -0.271 OA
BRANCH  10  13
HETATM   13  C2  UNL     1       4.417   0.616  -0.893  1.00  0.00     0.103 C 
HETATM   14  C1  UNL     1       4.375   1.108  -2.321  1.00  0.00     0.036 C 
BRANCH  13  15
HETATM   15  C3  UNL     1       5.832   0.344  -0.466  1.00  0.00     0.004 C 
HETATM   16  C4  UNL     1       6.687   1.306  -0.092  1.00  0.00    -0.043 C 
BRANCH  16  17
HETATM   17  C5  UNL     1       6.267   2.728  -0.077  1.00  0.00     0.149 C 
BRANCH  17  18
HETATM   18  C6  UNL     1       6.255   3.402   1.223  1.00  0.00     0.176 C 
HETATM   19  O1  UNL     1       6.441   2.903   2.344  1.00  0.00    -0.648 OA
HETATM   20  O2  UNL     1       6.004   4.795   1.236  1.00  0.00    -0.648 OA
ENDBRANCH  17  18
ENDBRANCH  16  17
BRANCH  16  21
HETATM   21  C7  UNL     1       8.081   0.978   0.277  1.00  0.00     0.150 C 
BRANCH  21  22
HETATM   22  O3  UNL     1       8.374   1.178   1.611  1.00  0.00    -0.391 OA
ATOM     23  H3  UNL     1       9.269   0.967   1.848  1.00  0.00     0.210 HD
ENDBRANCH  21  22
BRANCH  21  24
HETATM   24  C8  UNL     1       8.511  -0.431  -0.073  1.00  0.00     0.010 C 
HETATM   25  C9  UNL     1       8.440  -0.650  -1.571  1.00  0.00     0.012 C 
HETATM   26  C10 UNL     1       9.986  -0.593   0.304  1.00  0.00     0.012 C 
ENDBRANCH  21  24
ENDBRANCH  16  21
ENDBRANCH  13  15
ENDBRANCH  10  13
ENDBRANCH   1   9
BRANCH   7  27
HETATM   27  C16 UNL     1      -1.448  -1.570   0.014  1.00  0.00     0.184 C 
BRANCH  27  28
HETATM   28  N3  UNL     1      -2.399  -0.516  -0.120  1.00  0.00    -0.347 N 
HETATM   29  C17 UNL     1      -3.413  -0.041   0.722  1.00  0.00     0.222 C 
HETATM   30  O8  UNL     1      -3.717  -0.486   1.857  1.00  0.00    -0.273 OA
ATOM     31  H3  UNL     1      -2.327  -0.008  -1.002  1.00  0.00     0.163 HD
BRANCH  29  32
HETATM   32  C18 UNL     1      -4.283   1.133   0.294  1.00  0.00     0.078 C 
HETATM   33  C19 UNL     1      -5.211   1.434   1.383  1.00  0.00     0.014 C 
HETATM   34  C20 UNL     1      -6.390   0.567   1.565  1.00  0.00     0.001 C 
HETATM   35  C21 UNL     1      -7.611   1.253   2.106  1.00  0.00     0.000 C 
HETATM   36  C22 UNL     1      -8.205   2.259   1.178  1.00  0.00     0.000 C 
HETATM   37  C23 UNL     1      -8.773   1.660  -0.082  1.00  0.00     0.000 C 
HETATM   38  C24 UNL     1      -8.201   2.402  -1.276  1.00  0.00     0.000 C 
HETATM   39  C25 UNL     1      -7.123   1.596  -1.971  1.00  0.00     0.000 C 
HETATM   40  C26 UNL     1      -5.737   2.015  -1.526  1.00  0.00     0.001 C 
HETATM   41  C27 UNL     1      -4.911   0.843  -1.044  1.00  0.00     0.014 C 
ENDBRANCH  29  32
ENDBRANCH  27  28
BRANCH  27  42
HETATM   42  C28 UNL     1      -2.086  -2.912  -0.310  1.00  0.00    -0.022 C 
HETATM   43  C29 UNL     1      -1.102  -4.022  -0.456  1.00  0.00     0.017 C 
HETATM   44  C30 UNL     1      -2.735  -2.714  -1.689  1.00  0.00     0.017 C 
HETATM   45  C31 UNL     1      -3.150  -3.331   0.653  1.00  0.00     0.017 C 
ENDBRANCH  27  42
ENDBRANCH   7  27
TORSDOF 12
