REMARK  14 active torsions:
REMARK  status: ('A' for Active; 'I' for Inactive)
REMARK    1  A    between atoms: C2_2  and  C4_4 
REMARK    2  A    between atoms: C4_4  and  C5_5 
REMARK    3  A    between atoms: C5_5  and  N1_6 
REMARK    4  A    between atoms: C5_5  and  C15_17 
REMARK       I    between atoms: N1_6  and  C6_7 
REMARK    5  A    between atoms: C6_7  and  C7_9 
REMARK    6  A    between atoms: C7_9  and  C8_10 
REMARK    7  A    between atoms: C8_10  and  C11_13 
REMARK       I    between atoms: C15_17  and  N2_19 
REMARK    8  A    between atoms: C19_23  and  C20_24 
REMARK       I    between atoms: C20_24  and  N3_26 
REMARK    9  A    between atoms: N3_26  and  C21_28 
REMARK   10  A    between atoms: C21_28  and  C22_29 
REMARK   11  A    between atoms: C21_28  and  C29_41 
REMARK       I    between atoms: C22_29  and  N4_31 
REMARK   12  A    between atoms: N4_31  and  C23_33 
REMARK   13  A    between atoms: C23_33  and  C24_34 
REMARK   14  A    between atoms: C23_33  and  C25_37 
ROOT
HETATM    1  C15 UNL     1      -1.387   0.722  -0.266  1.00  0.00     0.256 C 
HETATM    2  O2  UNL     1      -1.609   1.798  -0.818  1.00  0.00    -0.270 OA
HETATM    3  N2  UNL     1      -0.233   0.412   0.472  1.00  0.00    -0.336 N 
HETATM    4  C16 UNL     1       0.170  -0.903   0.942  1.00  0.00     0.127 C 
HETATM    5  C17 UNL     1       0.465  -0.675   2.423  1.00  0.00     0.022 C 
HETATM    6  C18 UNL     1       0.594   0.809   2.550  1.00  0.00     0.037 C 
HETATM    7  C19 UNL     1       0.664   1.368   1.097  1.00  0.00     0.179 C 
ENDROOT
BRANCH   7   8
HETATM    8  C20 UNL     1       2.008   1.556   0.654  1.00  0.00     0.241 C 
HETATM    9  O3  UNL     1       2.190   2.365  -0.340  1.00  0.00    -0.271 OA
HETATM   10  N3  UNL     1       3.110   0.952   1.228  1.00  0.00    -0.345 N 
ATOM     11  H3  UNL     1       2.966   0.279   1.981  1.00  0.00     0.163 HD
BRANCH  10  12
HETATM   12  C21 UNL     1       4.486   1.246   0.791  1.00  0.00     0.184 C 
BRANCH  12  13
HETATM   13  C22 UNL     1       5.086   0.065   0.205  1.00  0.00     0.242 C 
HETATM   14  O4  UNL     1       4.508  -1.067   0.431  1.00  0.00    -0.271 OA
HETATM   15  N4  UNL     1       6.235  -0.040  -0.599  1.00  0.00    -0.344 N 
ATOM     16  H4  UNL     1       6.752   0.802  -0.852  1.00  0.00     0.163 HD
BRANCH  15  17
HETATM   17  C23 UNL     1       6.703  -1.357  -1.082  1.00  0.00     0.193 C 
BRANCH  17  18
HETATM   18  C24 UNL     1       6.158  -1.575  -2.467  1.00  0.00     0.197 C 
HETATM   19  O5  UNL     1       5.550  -0.678  -3.075  1.00  0.00    -0.646 OA
HETATM   20  O6  UNL     1       6.335  -2.805  -3.068  1.00  0.00    -0.646 OA
ENDBRANCH  17  18
BRANCH  17  21
HETATM   21  C25 UNL     1       8.193  -1.406  -1.091  1.00  0.00    -0.021 C 
HETATM   22  C26 UNL     1       8.806  -1.187   0.291  1.00  0.00     0.017 C 
HETATM   23  C27 UNL     1       8.697  -2.748  -1.544  1.00  0.00     0.017 C 
HETATM   24  C28 UNL     1       8.784  -0.306  -1.965  1.00  0.00     0.017 C 
ENDBRANCH  17  21
ENDBRANCH  15  17
ENDBRANCH  12  13
BRANCH  12  25
HETATM   25  C29 UNL     1       5.267   1.810   1.961  1.00  0.00    -0.022 C 
HETATM   26  C30 UNL     1       6.656   2.152   1.479  1.00  0.00     0.017 C 
HETATM   27  C31 UNL     1       4.636   3.036   2.539  1.00  0.00     0.017 C 
HETATM   28  C32 UNL     1       5.461   0.784   3.072  1.00  0.00     0.017 C 
ENDBRANCH  12  25
ENDBRANCH  10  12
ENDBRANCH   7   8
BRANCH   1  29
HETATM   29  C5  UNL     1      -2.548  -0.321  -0.417  1.00  0.00     0.258 C 
BRANCH  29  30
HETATM   30  C4  UNL     1      -2.457  -0.711  -1.849  1.00  0.00     0.053 C 
BRANCH  30  31
HETATM   31  C2  UNL     1      -3.505  -1.606  -2.392  1.00  0.00    -0.019 C 
HETATM   32  C1  UNL     1      -3.201  -1.870  -3.877  1.00  0.00     0.009 C 
HETATM   33  C3  UNL     1      -3.581  -2.958  -1.738  1.00  0.00     0.009 C 
ENDBRANCH  30  31
ENDBRANCH  29  30
BRANCH  29  34
HETATM   34  N1  UNL     1      -3.758   0.339  -0.168  1.00  0.00    -0.400 NA
HETATM   35  C6  UNL     1      -4.929   0.977   0.073  1.00  0.00     0.288 C 
HETATM   36  O1  UNL     1      -5.042   2.108   0.632  1.00  0.00    -0.258 OA
BRANCH  35  37
HETATM   37  C7  UNL     1      -6.265   0.358  -0.293  1.00  0.00     0.128 C 
BRANCH  37  38
HETATM   38  C8  UNL     1      -7.392   1.264   0.149  1.00  0.00    -0.032 C 
HETATM   39  C9  UNL     1      -7.324   1.567   1.654  1.00  0.00     0.016 C 
HETATM   40  C10 UNL     1      -7.498   2.544  -0.590  1.00  0.00     0.016 C 
BRANCH  38  41
HETATM   41  C11 UNL     1      -8.716   0.494   0.016  1.00  0.00    -0.044 C 
HETATM   42  C12 UNL     1      -8.647  -0.755   0.892  1.00  0.00     0.015 C 
HETATM   43  C13 UNL     1      -9.867   1.319   0.558  1.00  0.00     0.015 C 
HETATM   44  C14 UNL     1      -9.023   0.052  -1.368  1.00  0.00     0.015 C 
ENDBRANCH  38  41
ENDBRANCH  37  38
ENDBRANCH  35  37
ENDBRANCH  29  34
ENDBRANCH   1  29
TORSDOF 14
