REMARK  3 active torsions:
REMARK  status: ('A' for Active; 'I' for Inactive)
REMARK    1  A    between atoms: C2_2  and  N1_3 
REMARK    2  A    between atoms: N3_8  and  N4_9 
REMARK       I    between atoms: N4_9  and  C3_11 
REMARK    3  A    between atoms: C3_11  and  C4_13 
ROOT
HETATM    1  C1  UNL     1      -2.849   1.320  -0.228  1.00  0.00     0.093 C 
HETATM    2  C2  UNL     1      -2.200  -0.068  -0.139  1.00  0.00     0.290 C 
HETATM    3  N2  UNL     1      -0.991  -0.030  -0.817  1.00  0.00    -0.067 NA
HETATM    4  N3  UNL     1       0.095   0.126  -0.004  1.00  0.00    -0.003 NA
HETATM    5  S1  UNL     1      -0.432  -0.239   1.587  1.00  0.00     0.334 S 
HETATM    6  O3  UNL     1      -0.325   0.891   2.533  1.00  0.00    -0.185 OA
HETATM    7  O4  UNL     1       0.219  -1.499   2.043  1.00  0.00    -0.185 OA
HETATM    8  N6  UNL     1      -2.097  -0.497   1.200  1.00  0.00    -0.256 N 
ATOM      9  H6  UNL     1      -2.832  -0.872   1.800  1.00  0.00     0.177 HD
ENDROOT
BRANCH   4  10
HETATM   10  N4  UNL     1       1.243  -0.503  -0.377  1.00  0.00    -0.251 N 
HETATM   11  C3  UNL     1       2.491   0.167  -0.260  1.00  0.00     0.323 C 
HETATM   12  O1  UNL     1       2.549   1.360   0.187  1.00  0.00    -0.261 OA
ATOM     13  H4  UNL     1       1.208  -1.455  -0.741  1.00  0.00     0.187 HD
BRANCH  11  14
HETATM   14  C4  UNL     1       3.755  -0.475  -0.642  1.00  0.00     0.323 C 
HETATM   15  N5  UNL     1       4.984   0.205  -0.501  1.00  0.00    -0.053 NA
HETATM   16  O2  UNL     1       3.712  -1.655  -1.096  1.00  0.00    -0.266 OA
ENDBRANCH  11  14
ENDBRANCH   4  10
BRANCH   2  17
HETATM   17  N1  UNL     1      -3.161  -0.971  -0.817  1.00  0.00    -0.036 N 
ATOM     18  H13 UNL     1      -4.108  -0.929  -0.441  1.00  0.00     0.279 HD
ATOM     19  H12 UNL     1      -3.403  -0.685  -1.766  1.00  0.00     0.279 HD
ATOM     20  H11 UNL     1      -2.730  -1.893  -0.758  1.00  0.00     0.279 HD
ENDBRANCH   2  17
TORSDOF 3
