REMARK  3 active torsions:
REMARK  status: ('A' for Active; 'I' for Inactive)
REMARK    1  A    between atoms: C2_2  and  O1_3 
REMARK    2  A    between atoms: N3_12  and  N4_14 
REMARK    3  A    between atoms: C7_19  and  N7_21 
ROOT
HETATM    1  C1  UNL     1      -2.741  -1.057   1.014  1.00  0.00     0.074 C 
HETATM    2  C2  UNL     1      -2.154  -0.405  -0.245  1.00  0.00     0.168 C 
HETATM    3  N1  UNL     1      -2.274   1.002  -0.076  1.00  0.00    -0.342 N 
ATOM      4  H1  UNL     1      -3.214   1.385  -0.179  1.00  0.00     0.164 HD
HETATM    5  C3  UNL     1      -1.350   1.850   0.190  1.00  0.00     0.167 C 
HETATM    6  N2  UNL     1      -1.605   3.246   0.336  1.00  0.00    -0.079 NA
HETATM    7  C4  UNL     1       0.002   1.332   0.340  1.00  0.00     0.239 C 
HETATM    8  O2  UNL     1       0.964   2.082   0.598  1.00  0.00    -0.283 OA
HETATM    9  C5  UNL     1       0.265  -0.102   0.188  1.00  0.00     0.119 C 
HETATM   10  N3  UNL     1       1.349  -0.656   0.568  1.00  0.00    -0.296 N 
ATOM     11  H3  UNL     1       1.493  -1.658   0.444  1.00  0.00     0.187 HD
HETATM   12  C7  UNL     1      -0.781  -0.941  -0.438  1.00  0.00     0.215 C 
HETATM   13  C8  UNL     1      -0.469  -0.959  -1.940  1.00  0.00     0.058 C 
ENDROOT
BRANCH  10  14
HETATM   14  N4  UNL     1       2.334   0.136   1.157  1.00  0.00    -0.276 N 
HETATM   15  C6  UNL     1       3.486   0.275   0.610  1.00  0.00     0.215 C 
HETATM   16  N5  UNL     1       4.446   1.096   1.260  1.00  0.00    -0.065 NA
HETATM   17  N6  UNL     1       3.750  -0.388  -0.606  1.00  0.00    -0.065 NA
ATOM     18  H4  UNL     1       2.135   0.612   2.037  1.00  0.00     0.189 HD
ENDBRANCH  10  14
BRANCH  12  19
HETATM   19  N7  UNL     1      -0.614  -2.297   0.023  1.00  0.00    -0.060 N 
ATOM     20  H73 UNL     1      -0.899  -2.382   0.999  1.00  0.00     0.275 HD
ATOM     21  H72 UNL     1      -1.303  -2.911  -0.411  1.00  0.00     0.275 HD
ATOM     22  H71 UNL     1       0.328  -2.665  -0.109  1.00  0.00     0.275 HD
ENDBRANCH  12  19
BRANCH   2  23
HETATM   23  O1  UNL     1      -2.958  -0.830  -1.328  1.00  0.00    -0.368 OA
ATOM     24  H1  UNL     1      -2.595  -0.426  -2.107  1.00  0.00     0.212 HD
ENDBRANCH   2  23
TORSDOF 3
