REMARK  2 active torsions:
REMARK  status: ('A' for Active; 'I' for Inactive)
REMARK    1  A    between atoms: C2_10  and  N4_11 
REMARK    2  A    between atoms: C2_10  and  C3_15 
ROOT
HETATM    1  N1  UNL     1       3.019   1.154   0.232  1.00  0.00    -0.063 NA
HETATM    2  C1  UNL     1       1.863   0.283   0.278  1.00  0.00     0.199 C 
HETATM    3  N2  UNL     1       1.486  -0.059   1.442  1.00  0.00    -0.241 N 
ATOM      4  H2  UNL     1       2.050   0.325   2.200  1.00  0.00     0.183 HD
HETATM    5  S1  UNL     1       0.189  -1.058   1.953  1.00  0.00     0.323 S 
HETATM    6  O1  UNL     1      -0.347  -0.581   3.281  1.00  0.00    -0.182 OA
HETATM    7  O2  UNL     1       0.734  -2.450   2.227  1.00  0.00    -0.182 OA
HETATM    8  N3  UNL     1      -0.985  -1.157   0.785  1.00  0.00    -0.258 N 
ATOM      9  H3  UNL     1      -1.677  -1.905   0.834  1.00  0.00     0.177 HD
HETATM   10  C2  UNL     1      -1.045  -0.236  -0.265  1.00  0.00     0.308 C 
HETATM   11  C4  UNL     1      -0.018  -0.427  -1.357  1.00  0.00     0.196 C 
HETATM   12  N5  UNL     1       1.304  -0.070  -0.983  1.00  0.00    -0.359 N 
ATOM     13  H5  UNL     1       1.972  -0.066  -1.754  1.00  0.00     0.162 HD
ENDROOT
BRANCH  10  14
HETATM   14  N4  UNL     1      -2.343  -0.457  -0.944  1.00  0.00    -0.040 N 
ATOM     15  H43 UNL     1      -2.483  -1.422  -1.244  1.00  0.00     0.278 HD
ATOM     16  H42 UNL     1      -3.143  -0.404  -0.314  1.00  0.00     0.278 HD
ATOM     17  H41 UNL     1      -2.387   0.215  -1.710  1.00  0.00     0.278 HD
ENDBRANCH  10  14
BRANCH  10  18
HETATM   18  C3  UNL     1      -1.105   1.182   0.176  1.00  0.00     0.234 C 
HETATM   19  O3  UNL     1      -1.105   1.473   1.395  1.00  0.00    -0.645 OA
HETATM   20  O4  UNL     1      -1.163   2.215  -0.741  1.00  0.00    -0.645 OA
ENDBRANCH  10  18
TORSDOF 2
