REMARK  4 active torsions:
REMARK  status: ('A' for Active; 'I' for Inactive)
REMARK    1  A    between atoms: N1_2  and  C2_4 
REMARK    2  A    between atoms: C3_7  and  N3_8 
REMARK    3  A    between atoms: N3_8  and  N4_10 
REMARK       I    between atoms: N4_10  and  C4_12 
REMARK       I    between atoms: C4_12  and  N6_16 
REMARK    4  A    between atoms: N6_16  and  N7_18 
ROOT
HETATM    1  C2  UNL     1      -1.666   0.930  -0.398  1.00  0.00     0.694 A 
HETATM    2  N2  UNL     1      -0.339   0.724  -0.420  1.00  0.00    -0.169 N 
ATOM      3  H2  UNL     1       0.293   1.494  -0.641  1.00  0.00     0.186 HD
HETATM    4  C3  UNL     1       0.152  -0.482  -0.154  1.00  0.00     0.206 A 
HETATM    5  C5  UNL     1      -0.697  -1.522   0.144  1.00  0.00     0.308 A 
HETATM    6  O1  UNL     1      -0.275  -2.683   0.403  1.00  0.00    -0.262 OA
HETATM    7  N8  UNL     1      -2.020  -1.316   0.167  1.00  0.00    -0.244 N 
HETATM    8  C6  UNL     1      -2.954  -2.411   0.483  1.00  0.00     0.182 C 
HETATM    9  N9  UNL     1      -2.468  -0.109  -0.102  1.00  0.00    -0.127 N 
ATOM     10  H9  UNL     1      -3.476   0.048  -0.085  1.00  0.00     0.206 HD
ENDROOT
BRANCH   4  11
HETATM   11  N3  UNL     1       1.435  -0.668  -0.179  1.00  0.00    -0.266 N 
ATOM     12  H3  UNL     1       1.815  -1.593   0.025  1.00  0.00     0.189 HD
BRANCH  11  13
HETATM   13  N4  UNL     1       2.294   0.372  -0.479  1.00  0.00    -0.130 N 
HETATM   14  C4  UNL     1       3.424   0.560   0.386  1.00  0.00     0.704 C 
HETATM   15  N5  UNL     1       3.184   0.901   1.608  1.00  0.00    -0.232 N 
HETATM   16  N6  UNL     1       4.742   0.386  -0.061  1.00  0.00    -0.138 N 
ATOM     17  H52 UNL     1       2.226   1.028   1.933  1.00  0.00     0.174 HD
ATOM     18  H51 UNL     1       3.987   1.035   2.223  1.00  0.00     0.174 HD
ATOM     19  H6  UNL     1       5.304   1.223  -0.219  1.00  0.00     0.205 HD
ATOM     20  H4  UNL     1       2.132   0.981  -1.281  1.00  0.00     0.205 HD
BRANCH  16  21
HETATM   21  N7  UNL     1       5.339  -0.851  -0.305  1.00  0.00    -0.331 N 
ATOM     22  H72 UNL     1       4.763  -1.677  -0.142  1.00  0.00     0.177 HD
ATOM     23  H71 UNL     1       6.297  -0.978  -0.630  1.00  0.00     0.177 HD
ENDBRANCH  16  21
ENDBRANCH  11  13
ENDBRANCH   4  11
BRANCH   1  24
HETATM   24  N1  UNL     1      -2.146   2.104  -0.657  1.00  0.00    -0.229 N 
HETATM   25  C1  UNL     1      -3.540   2.413  -0.656  1.00  0.00     0.165 C 
ATOM     26  H1  UNL     1      -1.489   2.853  -0.875  1.00  0.00     0.177 HD
ENDBRANCH   1  24
TORSDOF 4
