REMARK  3 active torsions:
REMARK  status: ('A' for Active; 'I' for Inactive)
REMARK    1  A    between atoms: O1_1  and  S1_3 
REMARK    2  A    between atoms: S1_3  and  O2_4 
REMARK    3  A    between atoms: S1_3  and  O3_6 
ROOT
HETATM    1  S1  UNL     1       1.193  -0.285  -0.608  1.00  0.00     0.034 SA
HETATM    2  C1  UNL     1       0.574   1.529  -0.540  1.00  0.00     0.139 C 
HETATM    3  C2  UNL     1      -0.784   1.206  -0.171  1.00  0.00     0.096 C 
HETATM    4  C3  UNL     1      -1.579   0.645   0.115  1.00  0.00    -0.156 C 
HETATM    5  C4  UNL     1      -2.358  -0.448   0.492  1.00  0.00     0.255 C 
HETATM    6  O4  UNL     1      -1.303  -1.539   0.280  1.00  0.00    -0.342 OA
HETATM    7  C5  UNL     1      -0.066  -0.996   0.609  1.00  0.00     0.226 C 
ENDROOT
BRANCH   1   8
HETATM    8  O1  UNL     1       0.678  -0.248  -2.408  1.00  0.00    -0.313 OA
ATOM      9  H1  UNL     1       0.292   0.581  -2.152  1.00  0.00     0.229 HD
ENDBRANCH   1   8
BRANCH   1  10
HETATM   10  O2  UNL     1       1.834  -1.661  -1.032  1.00  0.00    -0.313 OA
ATOM     11  H2  UNL     1       2.095  -1.680  -0.119  1.00  0.00     0.229 HD
ENDBRANCH   1  10
BRANCH   1  12
HETATM   12  O3  UNL     1       2.797   0.219  -0.162  1.00  0.00    -0.313 OA
ATOM     13  H3  UNL     1       3.058   0.200   0.751  1.00  0.00     0.229 HD
ENDBRANCH   1  12
TORSDOF 3
