REMARK  0 active torsions:
REMARK  status: ('A' for Active; 'I' for Inactive)
ROOT
HETATM    1  C1  UNL     1       1.920   0.341  -0.423  1.00  0.00     0.142 C 
HETATM    2  C2  UNL     1       1.343   1.260   0.623  1.00  0.00     0.187 C 
HETATM    3  O1  UNL     1       0.614   2.300   0.121  1.00  0.00    -0.387 OA
HETATM    4  C3  UNL     1      -0.569   1.959  -0.473  1.00  0.00     0.193 C 
HETATM    5  C4  UNL     1      -1.662   1.573   0.479  1.00  0.00     0.193 C 
HETATM    6  O2  UNL     1      -1.582   0.291   0.951  1.00  0.00    -0.387 OA
HETATM    7  C5  UNL     1      -2.053  -0.678   0.098  1.00  0.00     0.193 C 
HETATM    8  C6  UNL     1      -1.080  -1.829  -0.091  1.00  0.00     0.196 C 
HETATM    9  O3  UNL     1       0.059  -1.529   0.617  1.00  0.00    -0.370 OA
HETATM   10  C7  UNL     1       1.232  -1.927  -0.002  1.00  0.00     0.285 C 
HETATM   11  N1  UNL     1       2.224  -0.908   0.184  1.00  0.00    -0.399 N 
ATOM     12  H1  UNL     1       3.082  -1.067   0.712  1.00  0.00     0.155 HD
ENDROOT
TORSDOF 0
