REMARK  1 active torsions:
REMARK  status: ('A' for Active; 'I' for Inactive)
REMARK    1  A    between atoms: C4_8  and  O3_9 
ROOT
HETATM    1  O1  UNL     1      -0.340  -0.002  -1.671  1.00  0.00    -0.061 OA
HETATM    2  N1  UNL     1      -0.357   0.429  -0.417  1.00  0.00     0.054 N 
HETATM    3  C1  UNL     1      -1.494   1.237  -0.069  1.00  0.00     0.389 C 
HETATM    4  S1  UNL     1      -2.785  -0.078  -0.140  1.00  0.00    -0.128 SA
HETATM    5  C2  UNL     1      -1.624  -1.508  -0.014  1.00  0.00     0.147 C 
HETATM    6  C3  UNL     1      -0.396  -0.748   0.472  1.00  0.00     0.404 C 
HETATM    7  O2  UNL     1       0.791  -1.346   0.162  1.00  0.00    -0.319 OA
HETATM    8  C4  UNL     1       1.740  -0.322  -0.038  1.00  0.00     0.294 C 
HETATM    9  C5  UNL     1       0.913   0.975  -0.069  1.00  0.00     0.376 C 
ENDROOT
BRANCH   8  10
HETATM   10  O3  UNL     1       2.705  -0.295   0.935  1.00  0.00    -0.369 OA
ATOM     11  H3  UNL     1       3.344   0.395   0.800  1.00  0.00     0.212 HD
ENDBRANCH   8  10
TORSDOF 1
