REMARK  11 active torsions:
REMARK  status: ('A' for Active; 'I' for Inactive)
REMARK    1  A    between atoms: C2_5  and  N2_6 
REMARK    2  A    between atoms: N2_6  and  C3_8 
REMARK    3  A    between atoms: C5_10  and  N3_11 
REMARK    4  A    between atoms: N3_11  and  O2_13 
REMARK    5  A    between atoms: N7_24  and  C8_25 
REMARK    6  A    between atoms: C8_25  and  C9_26 
REMARK    7  A    between atoms: C9_26  and  O4_27 
REMARK    8  A    between atoms: C9_26  and  C10_29 
REMARK    9  A    between atoms: C10_29  and  O5_30 
REMARK   10  A    between atoms: C10_29  and  C11_32 
REMARK   11  A    between atoms: C11_32  and  O6_33 
ROOT
HETATM    1  O1  UNL     1      -2.466   3.211   0.289  1.00  0.00    -0.244 OA
HETATM    2  C1  UNL     1      -1.391   2.529   0.191  1.00  0.00     0.349 A 
HETATM    3  N1  UNL     1      -0.137   3.010   0.158  1.00  0.00    -0.271 N 
ATOM      4  H1  UNL     1       0.131   3.993   0.207  1.00  0.00     0.174 HD
HETATM    5  C2  UNL     1       0.697   1.969   0.050  1.00  0.00     0.253 A 
HETATM    6  O3  UNL     1      -0.024   0.893   0.018  1.00  0.00    -0.194 OA
HETATM    7  N7  UNL     1      -1.284   1.192   0.101  1.00  0.00    -0.196 N 
ENDROOT
BRANCH   5   8
HETATM    8  N2  UNL     1       1.973   2.023  -0.011  1.00  0.00    -0.305 N 
ATOM      9  H2  UNL     1       2.444   2.927   0.023  1.00  0.00     0.171 HD
BRANCH   8  10
HETATM   10  C3  UNL     1       2.749   0.818  -0.127  1.00  0.00     0.128 A 
HETATM   11  C4  UNL     1       3.742   0.337  -0.858  1.00  0.00     0.098 A 
HETATM   12  C5  UNL     1       4.666   0.493  -1.870  1.00  0.00     0.143 A 
HETATM   13  C7  UNL     1       3.749  -0.874  -0.199  1.00  0.00     0.125 A 
HETATM   14  N4  UNL     1       5.543  -0.500  -2.204  1.00  0.00    -0.336 N 
HETATM   15  C6  UNL     1       5.527  -1.665  -1.547  1.00  0.00     0.183 A 
ATOM     16  H4  UNL     1       6.213  -0.352  -2.958  1.00  0.00     0.168 HD
HETATM   17  N5  UNL     1       4.638  -1.843  -0.557  1.00  0.00    -0.338 N 
ATOM     18  H5  UNL     1       4.628  -2.732  -0.057  1.00  0.00     0.168 HD
HETATM   19  N6  UNL     1       2.781  -0.441   0.533  1.00  0.00    -0.327 N 
ATOM     20  H6  UNL     1       2.242  -0.848   1.297  1.00  0.00     0.169 HD
BRANCH  12  21
HETATM   21  N3  UNL     1       4.687   1.611  -2.506  1.00  0.00    -0.252 N 
ATOM     22  H3  UNL     1       5.369   1.731  -3.255  1.00  0.00     0.196 HD
BRANCH  21  23
HETATM   23  O2  UNL     1       3.844   2.641  -2.227  1.00  0.00    -0.288 OA
ATOM     24  H2  UNL     1       3.860   3.467  -2.697  1.00  0.00     0.244 HD
ENDBRANCH  21  23
ENDBRANCH  12  21
ENDBRANCH   8  10
ENDBRANCH   5   8
BRANCH   7  25
HETATM   25  C8  UNL     1      -2.406   0.253   0.099  1.00  0.00     0.196 C 
BRANCH  25  26
HETATM   26  C9  UNL     1      -2.666  -0.116   1.536  1.00  0.00     0.169 C 
BRANCH  26  27
HETATM   27  O4  UNL     1      -1.528  -0.699   2.050  1.00  0.00    -0.391 OA
ATOM     28  H4  UNL     1      -1.692  -0.932   2.956  1.00  0.00     0.210 HD
ENDBRANCH  26  27
BRANCH  26  29
HETATM   29  C10 UNL     1      -3.885  -1.028   1.642  1.00  0.00     0.172 C 
BRANCH  29  30
HETATM   30  O5  UNL     1      -4.949  -0.309   1.086  1.00  0.00    -0.391 OA
ATOM     31  H5  UNL     1      -5.708  -0.877   1.152  1.00  0.00     0.210 HD
ENDBRANCH  29  30
BRANCH  29  32
HETATM   32  C11 UNL     1      -3.658  -2.329   0.898  1.00  0.00     0.198 C 
BRANCH  32  33
HETATM   33  O6  UNL     1      -4.857  -3.055   1.016  1.00  0.00    -0.398 OA
ATOM     34  H6  UNL     1      -4.715  -3.870   0.550  1.00  0.00     0.209 HD
ENDBRANCH  32  33
ENDBRANCH  29  32
ENDBRANCH  26  29
ENDBRANCH  25  26
ENDBRANCH   7  25
TORSDOF 11
