REMARK  7 active torsions:
REMARK  status: ('A' for Active; 'I' for Inactive)
REMARK    1  A    between atoms: N1_1  and  O1_4 
REMARK    2  A    between atoms: O1_4  and  N2_5 
REMARK    3  A    between atoms: N2_5  and  C1_7 
REMARK    4  A    between atoms: C1_7  and  N3_9 
REMARK    5  A    between atoms: N3_9  and  C2_11 
REMARK    6  A    between atoms: C2_11  and  N4_13 
REMARK    7  A    between atoms: N4_13  and  N5_15 
ROOT
HETATM    1  N3  UNL     1       1.952  -0.638   0.623  1.00  0.00    -0.308 N 
ATOM      2  H3  UNL     1       2.481  -1.056   1.388  1.00  0.00     0.170 HD
ENDROOT
BRANCH   1   3
HETATM    3  C1  UNL     1       2.739  -0.002  -0.345  1.00  0.00     0.200 C 
HETATM    4  S1  UNL     1       2.209   0.757  -1.682  1.00  0.00    -0.039 SA
BRANCH   3   5
HETATM    5  N2  UNL     1       4.171   0.007  -0.185  1.00  0.00    -0.216 N 
ATOM      6  H2  UNL     1       4.777   0.460  -0.869  1.00  0.00     0.199 HD
BRANCH   5   7
HETATM    7  O1  UNL     1       4.681  -0.609   0.909  1.00  0.00    -0.162 OA
BRANCH   7   8
HETATM    8  N1  UNL     1       5.461   0.277   1.564  1.00  0.00    -0.286 N 
ATOM      9  H12 UNL     1       5.628   1.240   1.273  1.00  0.00     0.186 HD
ATOM     10  H11 UNL     1       5.845  -0.187   2.387  1.00  0.00     0.186 HD
ENDBRANCH   7   8
ENDBRANCH   5   7
ENDBRANCH   3   5
ENDBRANCH   1   3
BRANCH   1  11
HETATM   11  C2  UNL     1       0.579  -0.798   0.722  1.00  0.00     0.188 C 
HETATM   12  S2  UNL     1      -0.001  -1.633   2.049  1.00  0.00    -0.040 SA
BRANCH  11  13
HETATM   13  N4  UNL     1      -0.406  -0.343  -0.160  1.00  0.00    -0.295 N 
ATOM     14  H4  UNL     1      -0.125   0.175  -0.992  1.00  0.00     0.183 HD
BRANCH  13  15
HETATM   15  N5  UNL     1      -1.795  -0.583   0.071  1.00  0.00    -0.229 NA
HETATM   16  C3  UNL     1      -2.482  -0.579  -1.194  1.00  0.00     0.113 C 
HETATM   17  C4  UNL     1      -3.877  -0.163  -0.803  1.00  0.00     0.017 C 
HETATM   18  C5  UNL     1      -3.664   0.873   0.266  1.00  0.00     0.017 C 
HETATM   19  C6  UNL     1      -2.373   0.458   0.888  1.00  0.00     0.113 C 
ENDBRANCH  13  15
ENDBRANCH  11  13
ENDBRANCH   1  11
TORSDOF 7
