REMARK  5 active torsions:
REMARK  status: ('A' for Active; 'I' for Inactive)
REMARK    1  A    between atoms: N1_1  and  S1_4 
REMARK    2  A    between atoms: S1_4  and  C1_7 
REMARK    3  A    between atoms: C4_10  and  N2_11 
REMARK    4  A    between atoms: N2_11  and  N3_13 
REMARK    5  A    between atoms: N3_13  and  C5_15 
ROOT
HETATM    1  C1  UNL     1       2.481  -0.272   0.480  1.00  0.00     0.079 A 
HETATM    2  C2  UNL     1       1.643   0.777   0.783  1.00  0.00     0.027 A 
HETATM    3  C3  UNL     1       0.373   0.742   0.244  1.00  0.00     0.032 A 
HETATM    4  C4  UNL     1      -0.057  -0.286  -0.564  1.00  0.00     0.048 A 
HETATM    5  C7  UNL     1       0.790  -1.318  -0.853  1.00  0.00     0.032 A 
HETATM    6  C8  UNL     1       2.071  -1.308  -0.325  1.00  0.00     0.027 A 
ENDROOT
BRANCH   4   7
HETATM    7  N2  UNL     1      -1.370  -0.285  -1.099  1.00  0.00    -0.298 N 
ATOM      8  H2  UNL     1      -1.682  -1.050  -1.697  1.00  0.00     0.187 HD
BRANCH   7   9
HETATM    9  N3  UNL     1      -2.227   0.764  -0.803  1.00  0.00    -0.270 N 
ATOM     10  H3  UNL     1      -1.951   1.723  -1.013  1.00  0.00     0.190 HD
BRANCH   9  11
HETATM   11  C5  UNL     1      -3.507   0.499  -0.199  1.00  0.00     0.200 A 
HETATM   12  N4  UNL     1      -4.667   0.928  -0.401  1.00  0.00    -0.323 N 
HETATM   13  C6  UNL     1      -5.244   0.146   0.612  1.00  0.00     0.186 A 
ATOM     14  H4  UNL     1      -5.053   1.602  -1.062  1.00  0.00     0.169 HD
HETATM   15  N5  UNL     1      -3.927  -0.340   0.839  1.00  0.00    -0.323 N 
ATOM     16  H5  UNL     1      -3.485  -1.004   1.475  1.00  0.00     0.169 HD
ENDBRANCH   9  11
ENDBRANCH   7   9
ENDBRANCH   4   7
BRANCH   1  17
HETATM   17  S1  UNL     1       4.101  -0.242   1.159  1.00  0.00     0.256 S 
HETATM   18  O1  UNL     1       4.552  -1.670   1.279  1.00  0.00    -0.201 OA
HETATM   19  O2  UNL     1       4.098   0.451   2.488  1.00  0.00    -0.201 OA
BRANCH  17  20
HETATM   20  N1  UNL     1       5.117   0.592   0.014  1.00  0.00    -0.324 N 
ATOM     21  H12 UNL     1       5.894   0.163  -0.489  1.00  0.00     0.169 HD
ATOM     22  H11 UNL     1       4.811   1.562  -0.067  1.00  0.00     0.169 HD
ENDBRANCH  17  20
ENDBRANCH   1  17
TORSDOF 5
