REMARK  3 active torsions:
REMARK  status: ('A' for Active; 'I' for Inactive)
REMARK       I    between atoms: C1_2  and  N1_3 
REMARK    1  A    between atoms: C1_2  and  C5_17 
REMARK    2  A    between atoms: N1_3  and  N2_5 
REMARK    3  A    between atoms: C2_7  and  C3_8 
ROOT
HETATM    1  N2  UNL     1       1.222   0.050  -0.124  1.00  0.00    -0.307 N 
ATOM      2  H2  UNL     1       1.600  -0.877   0.071  1.00  0.00     0.186 HD
HETATM    3  C2  UNL     1       2.043   1.029  -0.265  1.00  0.00     0.143 C 
ENDROOT
BRANCH   1   4
HETATM    4  N1  UNL     1      -0.164   0.196  -0.225  1.00  0.00    -0.265 N 
HETATM    5  C1  UNL     1      -1.006  -0.828   0.219  1.00  0.00     0.286 C 
HETATM    6  O1  UNL     1      -0.525  -1.899   0.719  1.00  0.00    -0.264 OA
ATOM      7  H1  UNL     1      -0.561   1.048  -0.622  1.00  0.00     0.190 HD
BRANCH   5   8
HETATM    8  C5  UNL     1      -2.470  -0.731   0.138  1.00  0.00     0.102 A 
HETATM    9  C6  UNL     1      -3.126   0.360  -0.374  1.00  0.00     0.035 A 
HETATM   10  C7  UNL     1      -4.507   0.467  -0.458  1.00  0.00     0.004 A 
HETATM   11  C8  UNL     1      -5.244  -0.598   0.008  1.00  0.00     0.017 A 
HETATM   12  C9  UNL     1      -4.586  -1.699   0.525  1.00  0.00     0.088 A 
HETATM   13  N6  UNL     1      -3.247  -1.759   0.586  1.00  0.00    -0.361 N 
ATOM     14  H6  UNL     1      -2.801  -2.590   0.975  1.00  0.00     0.165 HD
ENDBRANCH   5   8
ENDBRANCH   1   4
BRANCH   3  15
HETATM   15  C3  UNL     1       3.472   0.823  -0.150  1.00  0.00     0.135 A 
HETATM   16  N3  UNL     1       4.445   1.757  -0.274  1.00  0.00    -0.280 N 
HETATM   17  N4  UNL     1       5.622   1.196  -0.105  1.00  0.00    -0.239 N 
ATOM     18  H3  UNL     1       4.288   2.746  -0.469  1.00  0.00     0.189 HD
HETATM   19  N5  UNL     1       5.488  -0.091   0.130  1.00  0.00    -0.250 N 
ATOM     20  H4  UNL     1       6.514   1.689  -0.150  1.00  0.00     0.208 HD
HETATM   21  C4  UNL     1       4.156  -0.351   0.108  1.00  0.00     0.290 A 
ATOM     22  H5  UNL     1       6.238  -0.762   0.296  1.00  0.00     0.192 HD
HETATM   23  O2  UNL     1       3.612  -1.453   0.287  1.00  0.00    -0.264 OA
ENDBRANCH   3  15
TORSDOF 3
