REMARK  4 active torsions:
REMARK  status: ('A' for Active; 'I' for Inactive)
REMARK    1  A    between atoms: C2_3  and  N2_4 
REMARK    2  A    between atoms: N2_4  and  C3_6 
REMARK    3  A    between atoms: C3_6  and  N3_7 
REMARK    4  A    between atoms: N3_7  and  O1_9 
ROOT
HETATM    1  N1  UNL     1      -2.475  -2.044  -0.141  1.00  0.00    -0.092 NA
HETATM    2  C1  UNL     1      -2.359  -0.621  -0.063  1.00  0.00     0.158 A 
HETATM    3  C2  UNL     1      -1.115  -0.085   0.206  1.00  0.00     0.137 A 
HETATM    4  N4  UNL     1      -1.058   1.255   0.268  1.00  0.00    -0.293 N 
ATOM      5  H4  UNL     1      -0.159   1.694   0.463  1.00  0.00     0.172 HD
HETATM    6  C8  UNL     1      -2.129   2.044   0.085  1.00  0.00     0.328 A 
HETATM    7  O2  UNL     1      -2.018   3.299   0.155  1.00  0.00    -0.247 OA
HETATM    8  N5  UNL     1      -3.341   1.519  -0.177  1.00  0.00    -0.274 N 
ATOM      9  H5  UNL     1      -4.151   2.124  -0.315  1.00  0.00     0.173 HD
HETATM   10  C9  UNL     1      -3.463   0.184  -0.253  1.00  0.00     0.277 A 
HETATM   11  O3  UNL     1      -4.589  -0.307  -0.496  1.00  0.00    -0.266 OA
ENDROOT
BRANCH   3  12
HETATM   12  N2  UNL     1       0.028  -0.867   0.401  1.00  0.00    -0.346 N 
ATOM     13  H2  UNL     1      -0.093  -1.878   0.332  1.00  0.00     0.163 HD
BRANCH  12  14
HETATM   14  C3  UNL     1       1.341  -0.400   0.685  1.00  0.00     0.133 A 
HETATM   15  C4  UNL     1       2.473  -1.422   0.428  1.00  0.00     0.070 A 
HETATM   16  C5  UNL     1       2.401  -0.181  -0.248  1.00  0.00     0.010 A 
HETATM   17  C6  UNL     1       3.325   0.885  -0.445  1.00  0.00     0.015 A 
HETATM   18  C7  UNL     1       2.461   0.261  -1.586  1.00  0.00     0.015 A 
BRANCH  14  19
HETATM   19  N3  UNL     1       1.421   0.341   1.938  1.00  0.00    -0.275 N 
ATOM     20  H3  UNL     1       1.962   1.202   2.019  1.00  0.00     0.190 HD
BRANCH  19  21
HETATM   21  O1  UNL     1       0.828  -0.106   2.851  1.00  0.00    -0.292 OA
ATOM     22  H1  UNL     1       0.880   0.377   3.667  1.00  0.00     0.244 HD
ENDBRANCH  19  21
ENDBRANCH  14  19
ENDBRANCH  12  14
ENDBRANCH   3  12
TORSDOF 4
