REMARK  2 active torsions:
REMARK  status: ('A' for Active; 'I' for Inactive)
REMARK       I    between atoms: C1_4  and  N3_6 
REMARK       I    between atoms: N3_6  and  C2_8 
REMARK    1  A    between atoms: C2_8  and  C3_10 
REMARK    2  A    between atoms: N4_12  and  C5_13 
ROOT
HETATM    1  C3  UNL     1       1.281  -0.128  -0.043  1.00  0.00     0.135 A 
HETATM    2  C4  UNL     1       0.026  -0.649   0.291  1.00  0.00     0.155 A 
HETATM    3  N4  UNL     1      -0.922   0.213  -0.096  1.00  0.00    -0.249 N 
HETATM    4  N6  UNL     1      -0.306   1.232  -0.649  1.00  0.00    -0.235 N 
ATOM      5  H6  UNL     1      -0.775   2.049  -1.040  1.00  0.00     0.209 HD
HETATM    6  N7  UNL     1       1.004   1.056  -0.631  1.00  0.00    -0.279 N 
ATOM      7  H7  UNL     1       1.694   1.709  -1.001  1.00  0.00     0.189 HD
ENDROOT
BRANCH   1   8
HETATM    8  C2  UNL     1       2.538  -0.756   0.199  1.00  0.00     0.277 C 
HETATM    9  N3  UNL     1       3.765  -0.057  -0.196  1.00  0.00    -0.296 N 
HETATM   10  C1  UNL     1       4.986  -0.671   0.034  1.00  0.00     0.188 C 
ATOM     11  H3  UNL     1       3.721   0.864  -0.632  1.00  0.00     0.171 HD
HETATM   12  N1  UNL     1       6.030  -1.197   0.231  1.00  0.00    -0.373 N 
HETATM   13  N2  UNL     1       5.886   0.697  -0.640  1.00  0.00    -0.064 NA
ATOM     14  H12 UNL     1       6.929  -1.649   0.400  1.00  0.00     0.158 HD
ATOM     15  H11 UNL     1       5.512  -1.985   0.619  1.00  0.00     0.158 HD
HETATM   16  O1  UNL     1       2.654  -1.863   0.726  1.00  0.00    -0.266 OA
ENDBRANCH   1   8
BRANCH   3  17
HETATM   17  C5  UNL     1      -2.337   0.023   0.080  1.00  0.00     0.081 A 
HETATM   18  C6  UNL     1      -2.846  -1.052   0.772  1.00  0.00     0.033 A 
HETATM   19  C7  UNL     1      -4.203  -1.226   0.948  1.00  0.00     0.002 A 
HETATM   20  C8  UNL     1      -5.091  -0.325   0.432  1.00  0.00     0.002 A 
HETATM   21  C9  UNL     1      -4.607   0.758  -0.266  1.00  0.00     0.029 A 
HETATM   22  C10 UNL     1      -3.232   0.926  -0.439  1.00  0.00     0.075 A 
HETATM   23  N5  UNL     1      -2.814   2.072  -1.178  1.00  0.00    -0.100 NA
ENDBRANCH   3  17
TORSDOF 2
