REMARK  4 active torsions:
REMARK  status: ('A' for Active; 'I' for Inactive)
REMARK    1  A    between atoms: C2_2  and  S1_3 
REMARK    2  A    between atoms: C2_2  and  C11_17 
REMARK    3  A    between atoms: S1_3  and  C3_4 
REMARK    4  A    between atoms: C4_10  and  C5_11 
REMARK       I    between atoms: C11_17  and  N3_19 
REMARK       I    between atoms: N3_19  and  C12_21 
ROOT
HETATM    1  C3  UNL     1       0.377  -0.952  -0.249  1.00  0.00     0.101 A 
HETATM    2  N1  UNL     1       1.299  -1.893  -0.090  1.00  0.00    -0.305 N 
ATOM      3  H1  UNL     1       2.264  -1.878  -0.421  1.00  0.00     0.176 HD
HETATM    4  S2  UNL     1       0.539  -3.109   0.769  1.00  0.00     0.068 SA
HETATM    5  N2  UNL     1      -0.965  -2.383   0.912  1.00  0.00    -0.313 N 
ATOM      6  H2  UNL     1      -1.791  -2.761   1.376  1.00  0.00     0.175 HD
HETATM    7  C4  UNL     1      -0.856  -1.207   0.291  1.00  0.00     0.055 A 
ENDROOT
BRANCH   1   8
HETATM    8  S1  UNL     1       0.737   0.598  -1.129  1.00  0.00    -0.096 SA
BRANCH   8   9
HETATM    9  C2  UNL     1       2.471   0.586  -1.684  1.00  0.00     0.142 C 
HETATM   10  C1  UNL     1       2.576  -0.514  -2.715  1.00  0.00     0.031 C 
BRANCH   9  11
HETATM   11  C11 UNL     1       3.385   0.315  -0.537  1.00  0.00     0.237 C 
HETATM   12  O1  UNL     1       4.068  -0.732  -0.514  1.00  0.00    -0.272 OA
HETATM   13  N3  UNL     1       3.493   1.230   0.536  1.00  0.00    -0.300 N 
HETATM   14  C12 UNL     1       4.333   1.039   1.651  1.00  0.00     0.188 C 
ATOM     15  H3  UNL     1       2.929   2.079   0.501  1.00  0.00     0.171 HD
HETATM   16  N4  UNL     1       4.406   1.897   2.612  1.00  0.00    -0.373 N 
HETATM   17  N5  UNL     1       5.134  -0.142   1.730  1.00  0.00    -0.064 NA
ATOM     18  H42 UNL     1       3.834   2.740   2.556  1.00  0.00     0.158 HD
ATOM     19  H41 UNL     1       5.014   1.759   3.419  1.00  0.00     0.158 HD
ENDBRANCH   9  11
ENDBRANCH   8   9
ENDBRANCH   1   8
BRANCH   7  20
HETATM   20  C5  UNL     1      -2.057  -0.304   0.239  1.00  0.00     0.039 C 
HETATM   21  C6  UNL     1      -3.167  -0.855   1.103  1.00  0.00     0.011 C 
HETATM   22  C7  UNL     1      -4.179   0.232   1.268  1.00  0.00     0.001 C 
HETATM   23  C8  UNL     1      -4.685   0.796  -0.021  1.00  0.00     0.000 C 
HETATM   24  C9  UNL     1      -3.632   0.996  -1.068  1.00  0.00     0.001 C 
HETATM   25  C10 UNL     1      -2.635  -0.151  -1.134  1.00  0.00     0.011 C 
ENDBRANCH   7  20
TORSDOF 4
