REMARK  9 active torsions:
REMARK  status: ('A' for Active; 'I' for Inactive)
REMARK    1  A    between atoms: C2_2  and  C3_3 
REMARK    2  A    between atoms: C3_3  and  S1_4 
REMARK    3  A    between atoms: S1_4  and  C4_5 
REMARK    4  A    between atoms: C4_5  and  S3_7 
REMARK    5  A    between atoms: S3_7  and  C5_8 
REMARK    6  A    between atoms: C8_13  and  C9_14 
REMARK    7  A    between atoms: C9_14  and  C10_15 
REMARK    8  A    between atoms: C10_15  and  O1_16 
REMARK    9  A    between atoms: N2_18  and  O2_20 
ROOT
HETATM    1  C5  UNL     1       0.289   0.363  -0.572  1.00  0.00     0.110 C 
HETATM    2  N1  UNL     1      -0.061   0.807  -1.709  1.00  0.00    -0.379 N 
ATOM      3  H1  UNL     1       0.608   0.691  -2.470  1.00  0.00     0.160 HD
HETATM    4  C6  UNL     1      -1.287   1.448  -2.032  1.00  0.00     0.122 C 
HETATM    5  C7  UNL     1      -2.441   0.809  -1.231  1.00  0.00     0.035 C 
HETATM    6  C8  UNL     1      -2.299   1.366   0.162  1.00  0.00     0.063 C 
HETATM    7  S4  UNL     1      -0.824   0.517   0.852  1.00  0.00    -0.100 SA
ENDROOT
BRANCH   6   8
HETATM    8  C9  UNL     1      -3.491   1.237   1.032  1.00  0.00     0.101 C 
BRANCH   8   9
HETATM    9  C10 UNL     1      -3.920  -0.156   1.277  1.00  0.00     0.136 C 
HETATM   10  N2  UNL     1      -3.275  -1.175   0.843  1.00  0.00    -0.251 N 
ATOM     11  H2  UNL     1      -2.423  -1.034   0.300  1.00  0.00     0.196 HD
BRANCH   9  12
HETATM   12  O1  UNL     1      -5.085  -0.414   2.019  1.00  0.00    -0.348 OA
ATOM     13  H1  UNL     1      -5.361  -1.309   2.176  1.00  0.00     0.219 HD
ENDBRANCH   9  12
BRANCH  10  14
HETATM   14  O2  UNL     1      -3.708  -2.448   1.094  1.00  0.00    -0.288 OA
ATOM     15  H2  UNL     1      -3.230  -3.203   0.772  1.00  0.00     0.244 HD
ENDBRANCH  10  14
ENDBRANCH   8   9
ENDBRANCH   6   8
BRANCH   1  16
HETATM   16  S3  UNL     1       1.859  -0.432  -0.261  1.00  0.00    -0.047 SA
BRANCH  16  17
HETATM   17  C4  UNL     1       2.810  -0.494  -1.753  1.00  0.00     0.111 C 
HETATM   18  S2  UNL     1       2.276   0.051  -2.954  1.00  0.00    -0.064 SA
BRANCH  17  19
HETATM   19  S1  UNL     1       4.417  -1.232  -1.747  1.00  0.00    -0.107 SA
BRANCH  19  20
HETATM   20  C3  UNL     1       4.834  -1.765  -0.072  1.00  0.00     0.107 C 
BRANCH  20  21
HETATM   21  C2  UNL     1       5.013  -0.570   0.774  1.00  0.00    -0.026 C 
HETATM   22  C1  UNL     1       6.171  -0.348   1.369  1.00  0.00     0.007 C 
ENDBRANCH  20  21
ENDBRANCH  19  20
ENDBRANCH  17  19
ENDBRANCH  16  17
ENDBRANCH   1  16
TORSDOF 9
