REMARK  4 active torsions:
REMARK  status: ('A' for Active; 'I' for Inactive)
REMARK    1  A    between atoms: C2_2  and  O1_3 
REMARK    2  A    between atoms: O1_3  and  C3_4 
REMARK    3  A    between atoms: C9_19  and  S2_20 
REMARK    4  A    between atoms: S2_20  and  C10_21 
ROOT
HETATM    1  C3  UNL     1      -1.539   0.200   0.189  1.00  0.00     0.155 C 
HETATM    2  C4  UNL     1      -0.245   0.189   0.975  1.00  0.00     0.092 C 
HETATM    3  C5  UNL     1       0.720  -0.456   0.036  1.00  0.00     0.231 C 
HETATM    4  N1  UNL     1       0.134  -0.408  -1.287  1.00  0.00    -0.044 N 
ATOM      5  H11 UNL     1       0.555  -1.048  -1.960  1.00  0.00     0.280 HD
ATOM      6  H12 UNL     1       0.338   0.444  -1.810  1.00  0.00     0.280 HD
HETATM    7  C6  UNL     1      -1.255  -0.635  -1.040  1.00  0.00     0.213 C 
HETATM    8  C7  UNL     1      -1.518  -2.081  -0.760  1.00  0.00     0.043 C 
HETATM    9  S1  UNL     1       1.139  -2.155   0.509  1.00  0.00    -0.048 SA
HETATM   10  C8  UNL     1       2.883  -1.963   0.187  1.00  0.00     0.141 C 
HETATM   11  N2  UNL     1       3.729  -2.888   0.045  1.00  0.00    -0.380 N 
ATOM     12  H21 UNL     1       4.726  -2.778  -0.139  1.00  0.00     0.158 HD
ATOM     13  H22 UNL     1       3.609  -3.900   0.083  1.00  0.00     0.158 HD
HETATM   14  N3  UNL     1       3.046  -0.592   0.136  1.00  0.00    -0.332 N 
ATOM     15  H3  UNL     1       3.987  -0.198   0.157  1.00  0.00     0.168 HD
HETATM   16  C9  UNL     1       2.065   0.171   0.065  1.00  0.00     0.101 C 
ENDROOT
BRANCH  16  17
HETATM   17  S2  UNL     1       2.163   1.992  -0.006  1.00  0.00    -0.065 SA
BRANCH  17  18
HETATM   18  C10 UNL     1       3.912   2.443   0.047  1.00  0.00     0.061 A 
HETATM   19  C11 UNL     1       5.057   1.720   0.124  1.00  0.00     0.084 A 
HETATM   20  S3  UNL     1       6.227   2.914   0.123  1.00  0.00    -0.062 SA
HETATM   21  S4  UNL     1       4.572   4.027   0.009  1.00  0.00    -0.045 SA
ENDBRANCH  17  18
ENDBRANCH  16  17
BRANCH   1  22
HETATM   22  O1  UNL     1      -2.587  -0.395   0.872  1.00  0.00    -0.384 OA
BRANCH  22  23
HETATM   23  C2  UNL     1      -3.652   0.503   0.974  1.00  0.00     0.163 C 
HETATM   24  C1  UNL     1      -4.179   0.949  -0.349  1.00  0.00     0.033 C 
ENDBRANCH  22  23
ENDBRANCH   1  22
TORSDOF 4
