REMARK  9 active torsions:
REMARK  status: ('A' for Active; 'I' for Inactive)
REMARK    1  A    between atoms: O1_2  and  C2_3 
REMARK    2  A    between atoms: C2_3  and  C3_4 
REMARK    3  A    between atoms: C3_4  and  C4_5 
REMARK    4  A    between atoms: C4_5  and  N1_6 
REMARK    5  A    between atoms: N1_6  and  O2_7 
REMARK    6  A    between atoms: N1_6  and  C5_9 
REMARK    7  A    between atoms: C5_9  and  S2_11 
REMARK    8  A    between atoms: S2_11  and  C6_12 
REMARK    9  A    between atoms: N3_18  and  O3_20 
ROOT
HETATM    1  C6  UNL     1       4.139   1.174  -0.933  1.00  0.00     0.083 A 
HETATM    2  S3  UNL     1       4.081   2.844  -0.815  1.00  0.00    -0.042 SA
HETATM    3  S4  UNL     1       5.337   2.395   0.632  1.00  0.00    -0.039 SA
HETATM    4  C7  UNL     1       4.999   0.864   0.057  1.00  0.00     0.116 A 
HETATM    5  C8  UNL     1       5.532  -0.434   0.549  1.00  0.00     0.109 C 
HETATM    6  N2  UNL     1       5.968  -1.449   0.960  1.00  0.00    -0.191 NA
ENDROOT
BRANCH   1   7
HETATM    7  S2  UNL     1       3.273   0.070  -2.117  1.00  0.00    -0.049 SA
BRANCH   7   8
HETATM    8  C5  UNL     1       1.689  -0.423  -1.498  1.00  0.00     0.165 C 
HETATM    9  S1  UNL     1       0.780  -1.482  -2.390  1.00  0.00    -0.050 SA
BRANCH   8  10
HETATM   10  N1  UNL     1       1.212   0.063  -0.268  1.00  0.00    -0.243 N 
BRANCH  10  11
HETATM   11  C4  UNL     1      -0.075  -0.300   0.289  1.00  0.00     0.165 C 
BRANCH  11  12
HETATM   12  C3  UNL     1      -1.245   0.249  -0.452  1.00  0.00     0.108 C 
BRANCH  12  13
HETATM   13  C2  UNL     1      -2.503  -0.224   0.242  1.00  0.00     0.138 C 
HETATM   14  N3  UNL     1      -2.416  -0.892   1.329  1.00  0.00    -0.251 N 
ATOM     15  H3  UNL     1      -1.477  -1.075   1.683  1.00  0.00     0.196 HD
BRANCH  13  16
HETATM   16  O1  UNL     1      -3.734   0.071  -0.308  1.00  0.00    -0.343 OA
HETATM   17  C1  UNL     1      -4.957  -0.358   0.217  1.00  0.00     0.211 C 
ENDBRANCH  13  16
BRANCH  14  18
HETATM   18  O3  UNL     1      -3.451  -1.380   2.056  1.00  0.00    -0.288 OA
ATOM     19  H3  UNL     1      -3.386  -1.876   2.864  1.00  0.00     0.244 HD
ENDBRANCH  14  18
ENDBRANCH  12  13
ENDBRANCH  11  12
ENDBRANCH  10  11
BRANCH  10  20
HETATM   20  O2  UNL     1       1.966   0.917   0.448  1.00  0.00    -0.286 OA
ATOM     21  H2  UNL     1       2.810   1.155   0.083  1.00  0.00     0.244 HD
ENDBRANCH  10  20
ENDBRANCH   8  10
ENDBRANCH   7   8
ENDBRANCH   1   7
TORSDOF 9
