REMARK  5 active torsions:
REMARK  status: ('A' for Active; 'I' for Inactive)
REMARK    1  A    between atoms: C2_2  and  C3_3 
REMARK    2  A    between atoms: C6_8  and  N1_9 
REMARK    3  A    between atoms: C14_18  and  O3_19 
REMARK    4  A    between atoms: O3_19  and  C15_20 
REMARK    5  A    between atoms: C15_20  and  O4_21 
ROOT
HETATM    1  C3  UNL     1       3.668  -2.077   0.380  1.00  0.00     0.015 A 
HETATM    2  C4  UNL     1       3.215  -2.748   1.498  1.00  0.00     0.156 A 
HETATM    3  O1  UNL     1       2.156  -2.377   2.181  1.00  0.00    -0.298 OA
HETATM    4  C5  UNL     1       1.448  -1.307   1.817  1.00  0.00     0.209 A 
HETATM    5  O2  UNL     1       0.385  -0.728   2.297  1.00  0.00    -0.267 OA
HETATM    6  C6  UNL     1       0.035   0.306   1.614  1.00  0.00     0.185 A 
HETATM    7  C14 UNL     1       0.934   0.490   0.539  1.00  0.00     0.142 A 
HETATM    8  C16 UNL     1       1.832  -0.583   0.716  1.00  0.00     0.111 A 
HETATM    9  C17 UNL     1       2.948  -0.963  -0.014  1.00  0.00     0.198 A 
HETATM   10  O5  UNL     1       3.248  -0.267  -1.004  1.00  0.00    -0.287 OA
ENDROOT
BRANCH   6  11
HETATM   11  N1  UNL     1      -1.055   1.217   1.789  1.00  0.00    -0.342 N 
HETATM   12  C7  UNL     1      -2.216   0.989   1.253  1.00  0.00    -0.011 C 
HETATM   13  C8  UNL     1      -3.280   1.994   1.494  1.00  0.00     0.052 C 
HETATM   14  C13 UNL     1      -2.515  -0.190   0.440  1.00  0.00     0.056 C 
HETATM   15  C9  UNL     1      -3.911   2.327   0.166  1.00  0.00     0.006 C 
HETATM   16  C10 UNL     1      -4.483   1.075  -0.458  1.00  0.00     0.005 C 
HETATM   17  C11 UNL     1      -3.421   0.038  -0.721  1.00  0.00    -0.013 C 
HETATM   18  C12 UNL     1      -4.125  -1.249  -1.097  1.00  0.00     0.010 C 
ATOM     19  H1  UNL     1      -0.918   2.061   2.345  1.00  0.00     0.167 HD
ENDBRANCH   6  11
BRANCH   7  20
HETATM   20  O3  UNL     1       0.964   1.387  -0.384  1.00  0.00    -0.321 OA
BRANCH  20  21
HETATM   21  C15 UNL     1       0.979   2.269  -1.322  1.00  0.00     0.341 C 
BRANCH  21  22
HETATM   22  O4  UNL     1       1.755   3.406  -0.934  1.00  0.00    -0.377 OA
ATOM     23  H4  UNL     1       1.766   4.057  -1.626  1.00  0.00     0.212 HD
ENDBRANCH  21  22
ENDBRANCH  20  21
ENDBRANCH   7  20
BRANCH   1  24
HETATM   24  C2  UNL     1       4.850  -2.480  -0.392  1.00  0.00     0.040 C 
HETATM   25  C1  UNL     1       6.055  -1.620  -0.143  1.00  0.00     0.010 C 
ENDBRANCH   1  24
TORSDOF 5
