REMARK  5 active torsions:
REMARK  status: ('A' for Active; 'I' for Inactive)
REMARK    1  A    between atoms: C2_2  and  O1_3 
REMARK    2  A    between atoms: O1_3  and  C3_4 
REMARK    3  A    between atoms: C3_4  and  C4_6 
REMARK    4  A    between atoms: N1_10  and  C6_11 
REMARK    5  A    between atoms: C6_11  and  C7_12 
ROOT
HETATM    1  C4  UNL     1       1.021   0.594  -0.558  1.00  0.00     0.105 A 
HETATM    2  S1  UNL     1       0.456   0.928  -2.123  1.00  0.00    -0.052 SA
HETATM    3  C5  UNL     1      -1.161   1.287  -1.715  1.00  0.00     0.146 A 
HETATM    4  S2  UNL     1      -2.291   1.727  -2.808  1.00  0.00    -0.052 SA
HETATM    5  N1  UNL     1      -1.212   1.138  -0.393  1.00  0.00    -0.329 N 
HETATM    6  C10 UNL     1      -0.091   0.781   0.219  1.00  0.00     0.033 A 
HETATM    7  C11 UNL     1       0.086   0.597   1.722  1.00  0.00     0.070 C 
ENDROOT
BRANCH   5   8
HETATM    8  C6  UNL     1      -2.463   1.381   0.326  1.00  0.00     0.188 C 
BRANCH   8   9
HETATM    9  C7  UNL     1      -3.392   0.230   0.412  1.00  0.00     0.035 A 
HETATM   10  C8  UNL     1      -4.468   0.143  -0.453  1.00  0.00     0.079 A 
HETATM   11  S3  UNL     1      -5.249  -1.314  -0.003  1.00  0.00    -0.070 SA
HETATM   12  C9  UNL     1      -4.187  -1.749   1.253  1.00  0.00     0.143 A 
HETATM   13  S4  UNL     1      -4.242  -3.090   2.242  1.00  0.00    -0.052 SA
HETATM   14  N2  UNL     1      -3.290  -0.769   1.272  1.00  0.00    -0.343 N 
ATOM     15  H2  UNL     1      -2.526  -0.787   1.947  1.00  0.00     0.167 HD
ENDBRANCH   8   9
ENDBRANCH   5   8
BRANCH   1  16
HETATM   16  C3  UNL     1       2.394   0.198  -0.173  1.00  0.00     0.302 C 
HETATM   17  O2  UNL     1       2.697  -0.024   1.003  1.00  0.00    -0.259 OA
BRANCH  16  18
HETATM   18  O1  UNL     1       3.342   0.078  -1.162  1.00  0.00    -0.317 OA
BRANCH  18  19
HETATM   19  C2  UNL     1       4.673  -0.285  -0.957  1.00  0.00     0.174 C 
HETATM   20  C1  UNL     1       4.700  -1.664  -0.327  1.00  0.00     0.034 C 
ENDBRANCH  18  19
ENDBRANCH  16  18
ENDBRANCH   1  16
TORSDOF 5
