REMARK  20 active torsions:
REMARK  status: ('A' for Active; 'I' for Inactive)
REMARK    1  A    between atoms: C2_2  and  C3_3 
REMARK    2  A    between atoms: C3_3  and  C4_4 
REMARK    3  A    between atoms: C4_4  and  C5_5 
REMARK    4  A    between atoms: C5_5  and  C6_6 
REMARK    5  A    between atoms: C6_6  and  C7_7 
REMARK    6  A    between atoms: C7_7  and  C8_8 
REMARK    7  A    between atoms: C8_8  and  C9_9 
REMARK    8  A    between atoms: C9_9  and  C10_10 
REMARK    9  A    between atoms: C10_10  and  C11_11 
REMARK   10  A    between atoms: C11_11  and  O1_12 
REMARK   11  A    between atoms: C18_20  and  O2_21 
REMARK   12  A    between atoms: O2_21  and  O3_22 
REMARK   13  A    between atoms: O3_22  and  C19_23 
REMARK   14  A    between atoms: C21_28  and  O5_29 
REMARK   15  A    between atoms: O5_29  and  C22_30 
REMARK   16  A    between atoms: C24_33  and  C25_34 
REMARK   17  A    between atoms: C25_34  and  O7_35 
REMARK   18  A    between atoms: C26_37  and  O8_38 
REMARK   19  A    between atoms: C27_40  and  O9_41 
REMARK   20  A    between atoms: C29_44  and  O10_45 
ROOT
HETATM    1  C11 UNL     1       2.094  -0.895   0.064  1.00  0.00     0.069 C 
HETATM    2  C12 UNL     1       2.277  -1.615   1.410  1.00  0.00     0.017 C 
HETATM    3  C13 UNL     1       3.245  -0.830   2.255  1.00  0.00     0.013 C 
HETATM    4  C14 UNL     1       1.017  -1.872   2.141  1.00  0.00     0.007 C 
HETATM    5  C15 UNL     1       0.244  -2.830   1.217  1.00  0.00     0.006 C 
HETATM    6  C16 UNL     1      -0.233  -1.887   0.105  1.00  0.00    -0.001 C 
HETATM    7  C17 UNL     1      -1.129  -0.898   0.759  1.00  0.00     0.040 C 
HETATM    8  C18 UNL     1      -2.430  -0.847  -0.063  1.00  0.00     0.163 C 
HETATM    9  C28 UNL     1      -2.159   0.148  -1.152  1.00  0.00     0.067 C 
HETATM   10  C29 UNL     1      -0.999  -0.242  -2.038  1.00  0.00     0.121 C 
HETATM   11  C30 UNL     1       0.332  -0.084  -1.394  1.00  0.00     0.044 C 
HETATM   12  C31 UNL     1       0.901  -1.307  -0.701  1.00  0.00    -0.007 C 
HETATM   13  C32 UNL     1       1.268  -2.379  -1.714  1.00  0.00     0.019 C 
ENDROOT
BRANCH   8  14
HETATM   14  O2  UNL     1      -2.772  -2.087  -0.535  1.00  0.00    -0.233 OA
BRANCH  14  15
HETATM   15  O3  UNL     1      -3.877  -2.596  -0.105  1.00  0.00    -0.202 OA
BRANCH  15  16
HETATM   16  C19 UNL     1      -4.881  -2.570  -1.066  1.00  0.00     0.359 C 
HETATM   17  O4  UNL     1      -5.142  -3.972  -1.333  1.00  0.00    -0.242 OA
HETATM   18  N1  UNL     1      -5.990  -4.402  -0.310  1.00  0.00    -0.276 N 
HETATM   19  C20 UNL     1      -6.643  -3.413   0.186  1.00  0.00     0.124 C 
ATOM     20  H1  UNL     1      -6.079  -5.369   0.001  1.00  0.00     0.193 HD
HETATM   21  C21 UNL     1      -6.226  -2.203  -0.539  1.00  0.00     0.225 C 
BRANCH  21  22
HETATM   22  O5  UNL     1      -6.260  -1.061   0.233  1.00  0.00    -0.343 OA
BRANCH  22  23
HETATM   23  C22 UNL     1      -7.152  -0.168  -0.353  1.00  0.00     0.291 C 
HETATM   24  O6  UNL     1      -6.554   1.019  -0.762  1.00  0.00    -0.358 OA
HETATM   25  C23 UNL     1      -6.325   1.929   0.235  1.00  0.00     0.180 C 
HETATM   26  C24 UNL     1      -7.595   2.420   0.893  1.00  0.00     0.065 C 
HETATM   27  C26 UNL     1      -8.765   1.500   0.635  1.00  0.00     0.159 C 
HETATM   28  C27 UNL     1      -8.322   0.061   0.585  1.00  0.00     0.202 C 
BRANCH  26  29
HETATM   29  C25 UNL     1      -7.999   3.805   0.374  1.00  0.00     0.173 C 
BRANCH  29  30
HETATM   30  O7  UNL     1      -8.217   3.762  -1.000  1.00  0.00    -0.400 OA
ATOM     31  H7  UNL     1      -8.467   4.620  -1.322  1.00  0.00     0.209 HD
ENDBRANCH  29  30
ENDBRANCH  26  29
BRANCH  27  32
HETATM   32  O8  UNL     1      -9.650   1.624   1.713  1.00  0.00    -0.392 OA
ATOM     33  H8  UNL     1     -10.386   1.045   1.551  1.00  0.00     0.210 HD
ENDBRANCH  27  32
BRANCH  28  34
HETATM   34  O9  UNL     1      -9.436  -0.709   0.224  1.00  0.00    -0.388 OA
ATOM     35  H9  UNL     1     -10.169  -0.566   0.811  1.00  0.00     0.210 HD
ENDBRANCH  28  34
ENDBRANCH  22  23
ENDBRANCH  21  22
ENDBRANCH  15  16
ENDBRANCH  14  15
ENDBRANCH   8  14
BRANCH  10  36
HETATM   36  O10 UNL     1      -1.190  -1.440  -2.708  1.00  0.00    -0.395 OA
ATOM     37  H10 UNL     1      -0.461  -1.685  -3.265  1.00  0.00     0.210 HD
ENDBRANCH  10  36
BRANCH   1  38
HETATM   38  C10 UNL     1       3.436  -1.020  -0.556  1.00  0.00     0.039 C 
BRANCH  38  39
HETATM   39  C9  UNL     1       3.754  -0.249  -1.772  1.00  0.00     0.003 C 
BRANCH  39  40
HETATM   40  C8  UNL     1       5.210  -0.568  -2.167  1.00  0.00     0.000 C 
BRANCH  40  41
HETATM   41  C7  UNL     1       6.185  -0.189  -1.082  1.00  0.00     0.000 C 
BRANCH  41  42
HETATM   42  C6  UNL     1       6.108   1.276  -0.794  1.00  0.00     0.000 C 
BRANCH  42  43
HETATM   43  C5  UNL     1       7.070   1.711   0.322  1.00  0.00     0.000 C 
BRANCH  43  44
HETATM   44  C4  UNL     1       8.479   1.409  -0.033  1.00  0.00     0.000 C 
BRANCH  44  45
HETATM   45  C3  UNL     1       9.529   1.717   0.957  1.00  0.00    -0.000 C 
BRANCH  45  46
HETATM   46  C2  UNL     1       9.752   3.091   1.429  1.00  0.00    -0.005 C 
HETATM   47  C1  UNL     1       8.622   3.713   2.185  1.00  0.00     0.005 C 
ENDBRANCH  45  46
ENDBRANCH  44  45
ENDBRANCH  43  44
ENDBRANCH  42  43
ENDBRANCH  41  42
ENDBRANCH  40  41
ENDBRANCH  39  40
ENDBRANCH  38  39
ENDBRANCH   1  38
BRANCH   1  48
HETATM   48  O1  UNL     1       1.916   0.449   0.428  1.00  0.00    -0.389 OA
ATOM     49  H1  UNL     1       1.057   0.529   0.825  1.00  0.00     0.210 HD
ENDBRANCH   1  48
TORSDOF 20
