REMARK  22 active torsions:
REMARK  status: ('A' for Active; 'I' for Inactive)
REMARK    1  A    between atoms: C4_4  and  C5_5 
REMARK    2  A    between atoms: C5_5  and  C6_6 
REMARK    3  A    between atoms: C6_6  and  C7_7 
REMARK    4  A    between atoms: C9_9  and  C10_10 
REMARK    5  A    between atoms: C10_10  and  C11_11 
REMARK    6  A    between atoms: C13_14  and  O2_15 
REMARK    7  A    between atoms: C14_17  and  O3_18 
REMARK    8  A    between atoms: C15_20  and  C16_21 
REMARK    9  A    between atoms: C16_21  and  O4_22 
REMARK   10  A    between atoms: C17_24  and  C18_25 
REMARK   11  A    between atoms: C18_25  and  C19_26 
REMARK   12  A    between atoms: C19_26  and  C20_27 
REMARK   13  A    between atoms: C20_27  and  N1_28 
REMARK   14  A    between atoms: C23_31  and  O5_32 
REMARK   15  A    between atoms: O5_32  and  C24_33 
REMARK   16  A    between atoms: C24_33  and  C25_35 
REMARK   17  A    between atoms: C25_35  and  C26_36 
REMARK   18  A    between atoms: C26_36  and  C27_37 
REMARK   19  A    between atoms: C27_37  and  C28_38 
REMARK   20  A    between atoms: C28_38  and  C29_39 
REMARK   21  A    between atoms: C29_39  and  N2_40 
REMARK   22  A    between atoms: C31_46  and  O8_47 
ROOT
HETATM    1  C11 UNL     1      -4.512   0.893   0.033  1.00  0.00     0.264 C 
HETATM    2  O1  UNL     1      -5.082   0.018  -0.886  1.00  0.00    -0.350 OA
HETATM    3  C12 UNL     1      -4.048  -0.814  -1.213  1.00  0.00     0.185 C 
HETATM    4  C13 UNL     1      -4.171  -1.515  -2.531  1.00  0.00     0.178 C 
HETATM    5  C14 UNL     1      -2.862  -2.110  -2.954  1.00  0.00     0.156 C 
HETATM    6  C15 UNL     1      -1.686  -1.205  -2.850  1.00  0.00     0.047 C 
HETATM    7  C17 UNL     1      -1.676  -0.506  -1.527  1.00  0.00     0.026 C 
HETATM    8  C32 UNL     1      -2.948   0.248  -1.403  1.00  0.00     0.161 C 
HETATM    9  O9  UNL     1      -3.128   0.930  -0.209  1.00  0.00    -0.353 OA
ENDROOT
BRANCH   7  10
HETATM   10  C18 UNL     1      -0.484   0.338  -1.264  1.00  0.00     0.009 C 
BRANCH  10  11
HETATM   11  C19 UNL     1       0.824  -0.386  -1.275  1.00  0.00     0.020 C 
BRANCH  11  12
HETATM   12  C20 UNL     1       1.933   0.605  -0.986  1.00  0.00     0.121 C 
BRANCH  12  13
HETATM   13  N1  UNL     1       3.223   0.016  -0.973  1.00  0.00    -0.366 N 
HETATM   14  C21 UNL     1       4.240   0.951  -0.690  1.00  0.00     0.124 C 
HETATM   15  C22 UNL     1       5.308   1.135  -1.714  1.00  0.00     0.054 C 
HETATM   16  C23 UNL     1       6.325   0.015  -1.705  1.00  0.00     0.157 C 
HETATM   17  C30 UNL     1       5.748  -1.271  -2.258  1.00  0.00     0.205 C 
HETATM   18  O7  UNL     1       4.638  -1.690  -1.530  1.00  0.00    -0.342 OA
HETATM   19  C31 UNL     1       3.476  -1.013  -1.901  1.00  0.00     0.365 C 
BRANCH  16  20
HETATM   20  O5  UNL     1       6.708  -0.205  -0.362  1.00  0.00    -0.314 OA
BRANCH  20  21
HETATM   21  C24 UNL     1       8.038  -0.066   0.014  1.00  0.00     0.259 C 
HETATM   22  O6  UNL     1       8.864   0.255  -0.866  1.00  0.00    -0.265 OA
BRANCH  21  23
HETATM   23  C25 UNL     1       8.463  -0.294   1.425  1.00  0.00     0.111 C 
BRANCH  23  24
HETATM   24  C26 UNL     1       9.969  -0.095   1.497  1.00  0.00     0.010 C 
BRANCH  24  25
HETATM   25  C27 UNL     1      10.397  -0.329   2.926  1.00  0.00     0.002 C 
BRANCH  25  26
HETATM   26  C28 UNL     1      11.881  -0.160   3.101  1.00  0.00     0.027 C 
BRANCH  26  27
HETATM   27  C29 UNL     1      12.349   1.229   2.727  1.00  0.00     0.229 C 
BRANCH  27  28
HETATM   28  N2  UNL     1      13.803   1.232   2.951  1.00  0.00    -0.079 N 
ATOM     29  H23 UNL     1      14.072   0.950   3.893  1.00  0.00     0.274 HD
ATOM     30  H22 UNL     1      14.295   0.488   2.456  1.00  0.00     0.274 HD
ATOM     31  H21 UNL     1      14.119   2.169   2.699  1.00  0.00     0.274 HD
ENDBRANCH  27  28
ENDBRANCH  26  27
ENDBRANCH  25  26
ENDBRANCH  24  25
ENDBRANCH  23  24
ENDBRANCH  21  23
ENDBRANCH  20  21
ENDBRANCH  16  20
BRANCH  19  32
HETATM   32  O8  UNL     1       3.630  -0.625  -3.218  1.00  0.00    -0.355 OA
ATOM     33  H8  UNL     1       3.801  -1.319  -3.844  1.00  0.00     0.214 HD
ENDBRANCH  19  32
ENDBRANCH  12  13
ENDBRANCH  11  12
ENDBRANCH  10  11
ENDBRANCH   7  10
BRANCH   6  34
HETATM   34  C16 UNL     1      -1.674  -0.276  -4.025  1.00  0.00     0.172 C 
BRANCH  34  35
HETATM   35  O4  UNL     1      -1.586  -1.028  -5.196  1.00  0.00    -0.400 OA
ATOM     36  H4  UNL     1      -1.578  -0.439  -5.941  1.00  0.00     0.209 HD
ENDBRANCH  34  35
ENDBRANCH   6  34
BRANCH   5  37
HETATM   37  O3  UNL     1      -2.991  -2.652  -4.227  1.00  0.00    -0.392 OA
ATOM     38  H3  UNL     1      -2.161  -3.029  -4.495  1.00  0.00     0.210 HD
ENDBRANCH   5  37
BRANCH   4  39
HETATM   39  O2  UNL     1      -4.772  -0.708  -3.464  1.00  0.00    -0.390 OA
ATOM     40  H2  UNL     1      -4.850  -1.153  -4.300  1.00  0.00     0.210 HD
ENDBRANCH   4  39
BRANCH   1  41
HETATM   41  C10 UNL     1      -4.809   0.356   1.417  1.00  0.00     0.088 C 
BRANCH  41  42
HETATM   42  C9  UNL     1      -6.311   0.312   1.535  1.00  0.00    -0.020 C 
HETATM   43  C7  UNL     1      -6.953  -0.810   1.768  1.00  0.00    -0.087 C 
HETATM   44  C8  UNL     1      -6.190  -2.077   1.922  1.00  0.00     0.043 C 
BRANCH  43  45
HETATM   45  C6  UNL     1      -8.417  -0.840   1.881  1.00  0.00     0.037 C 
BRANCH  45  46
HETATM   46  C5  UNL     1      -9.003   0.540   1.701  1.00  0.00     0.031 C 
BRANCH  46  47
HETATM   47  C4  UNL     1     -10.492   0.481   1.812  1.00  0.00    -0.024 C 
HETATM   48  C2  UNL     1     -11.106   1.166   2.742  1.00  0.00    -0.091 C 
HETATM   49  C1  UNL     1     -10.350   2.013   3.702  1.00  0.00     0.042 C 
HETATM   50  C3  UNL     1     -12.594   1.116   2.863  1.00  0.00     0.042 C 
ENDBRANCH  46  47
ENDBRANCH  45  46
ENDBRANCH  43  45
ENDBRANCH  41  42
ENDBRANCH   1  41
TORSDOF 22
