REMARK  13 active torsions:
REMARK  status: ('A' for Active; 'I' for Inactive)
REMARK    1  A    between atoms: C2_5  and  N3_6 
REMARK    2  A    between atoms: C2_5  and  C21_50 
REMARK    3  A    between atoms: N3_6  and  C3_8 
REMARK    4  A    between atoms: C3_8  and  C4_9 
REMARK    5  A    between atoms: C7_12  and  O1_13 
REMARK    6  A    between atoms: O1_13  and  C8_14 
REMARK    7  A    between atoms: C8_14  and  C9_15 
REMARK    8  A    between atoms: N4_17  and  C11_18 
REMARK    9  A    between atoms: N5_20  and  C13_21 
REMARK   10  A    between atoms: C13_21  and  C14_22 
REMARK       I    between atoms: C14_22  and  N6_24 
REMARK   11  A    between atoms: N6_24  and  N7_26 
REMARK   12  A    between atoms: N7_26  and  C15_28 
REMARK   13  A    between atoms: C17_31  and  N8_32 
ROOT
HETATM    1  N1  UNL     1      -5.884  -2.301   4.089  1.00  0.00    -0.172 NA
HETATM    2  C1  UNL     1      -6.353  -2.308   3.033  1.00  0.00     0.183 C 
HETATM    3  N2  UNL     1      -6.936  -2.319   1.774  1.00  0.00    -0.279 N 
ATOM      4  H2  UNL     1      -6.932  -3.184   1.233  1.00  0.00     0.179 HD
HETATM    5  C2  UNL     1      -7.476  -1.278   1.276  1.00  0.00     0.127 C 
ENDROOT
BRANCH   5   6
HETATM    6  N3  UNL     1      -7.520  -0.045   1.964  1.00  0.00    -0.371 N 
ATOM      7  H3  UNL     1      -8.001  -0.006   2.862  1.00  0.00     0.161 HD
BRANCH   6   8
HETATM    8  C3  UNL     1      -6.914   1.165   1.453  1.00  0.00     0.161 C 
BRANCH   8   9
HETATM    9  C4  UNL     1      -5.452   0.978   1.255  1.00  0.00    -0.025 A 
HETATM   10  C5  UNL     1      -4.929   0.584   0.042  1.00  0.00     0.014 A 
HETATM   11  C6  UNL     1      -3.550   0.427  -0.070  1.00  0.00     0.057 A 
HETATM   12  C7  UNL     1      -2.711   0.656   0.996  1.00  0.00     0.142 A 
HETATM   13  N13 UNL     1      -3.250   1.039   2.164  1.00  0.00    -0.346 N 
HETATM   14  C20 UNL     1      -4.571   1.203   2.320  1.00  0.00     0.099 A 
ATOM     15  H13 UNL     1      -2.634   1.211   2.959  1.00  0.00     0.167 HD
BRANCH  12  16
HETATM   16  O1  UNL     1      -1.324   0.488   0.852  1.00  0.00    -0.330 OA
BRANCH  16  17
HETATM   17  C8  UNL     1      -0.440   0.713   1.921  1.00  0.00     0.237 C 
BRANCH  17  18
HETATM   18  C9  UNL     1       0.941   0.446   1.452  1.00  0.00     0.069 A 
HETATM   19  C10 UNL     1       1.843   1.363   0.914  1.00  0.00     0.147 A 
HETATM   20  N4  UNL     1       2.990   0.740   0.617  1.00  0.00    -0.244 N 
HETATM   21  N11 UNL     1       2.819  -0.534   0.955  1.00  0.00    -0.236 N 
HETATM   22  N12 UNL     1       1.624  -0.733   1.448  1.00  0.00    -0.286 N 
ATOM     23  H11 UNL     1       3.526  -1.261   0.845  1.00  0.00     0.209 HD
ATOM     24  H12 UNL     1       1.261  -1.628   1.777  1.00  0.00     0.188 HD
BRANCH  20  25
HETATM   25  C11 UNL     1       4.203   1.231   0.060  1.00  0.00     0.141 A 
HETATM   26  C12 UNL     1       5.052   0.390  -0.662  1.00  0.00     0.133 A 
HETATM   27  N5  UNL     1       6.209   0.825  -1.190  1.00  0.00    -0.298 N 
HETATM   28  C18 UNL     1       6.561   2.105  -1.022  1.00  0.00     0.329 A 
HETATM   29  O3  UNL     1       7.629   2.568  -1.493  1.00  0.00    -0.246 OA
HETATM   30  N10 UNL     1       5.763   2.929  -0.334  1.00  0.00    -0.273 N 
HETATM   31  C19 UNL     1       4.597   2.542   0.213  1.00  0.00     0.279 A 
ATOM     32  H10 UNL     1       6.054   3.900  -0.218  1.00  0.00     0.173 HD
HETATM   33  O4  UNL     1       3.883   3.355   0.850  1.00  0.00    -0.265 OA
BRANCH  27  34
HETATM   34  C13 UNL     1       7.028  -0.111  -1.908  1.00  0.00     0.237 C 
BRANCH  34  35
HETATM   35  C14 UNL     1       7.980  -0.823  -1.053  1.00  0.00     0.254 C 
HETATM   36  O2  UNL     1       7.999  -0.583   0.177  1.00  0.00    -0.270 OA
HETATM   37  N6  UNL     1       8.888  -1.777  -1.563  1.00  0.00    -0.267 N 
ATOM     38  H6  UNL     1       8.878  -1.976  -2.563  1.00  0.00     0.190 HD
BRANCH  37  39
HETATM   39  N7  UNL     1       9.795  -2.456  -0.756  1.00  0.00    -0.282 N 
ATOM     40  H7  UNL     1       9.661  -3.456  -0.606  1.00  0.00     0.188 HD
BRANCH  39  41
HETATM   41  C15 UNL     1      10.925  -1.801  -0.118  1.00  0.00     0.128 A 
HETATM   42  C16 UNL     1      11.768  -2.507   0.705  1.00  0.00     0.103 A 
HETATM   43  S1  UNL     1      12.894  -1.318   1.187  1.00  0.00    -0.062 SA
HETATM   44  C17 UNL     1      12.243  -0.000   0.328  1.00  0.00     0.143 A 
HETATM   45  N9  UNL     1      11.192  -0.529  -0.290  1.00  0.00    -0.322 N 
ATOM     46  H9  UNL     1      10.601   0.047  -0.890  1.00  0.00     0.169 HD
BRANCH  44  47
HETATM   47  N8  UNL     1      12.660   1.252   0.271  1.00  0.00    -0.380 N 
ATOM     48  H82 UNL     1      13.467   1.658   0.745  1.00  0.00     0.158 HD
ATOM     49  H81 UNL     1      12.270   2.042  -0.244  1.00  0.00     0.158 HD
ENDBRANCH  44  47
ENDBRANCH  39  41
ENDBRANCH  37  39
ENDBRANCH  34  35
ENDBRANCH  27  34
ENDBRANCH  20  25
ENDBRANCH  17  18
ENDBRANCH  16  17
ENDBRANCH  12  16
ENDBRANCH   8   9
ENDBRANCH   6   8
ENDBRANCH   5   6
BRANCH   5  50
HETATM   50  C21 UNL     1      -8.082  -1.343  -0.058  1.00  0.00     0.092 A 
HETATM   51  C22 UNL     1      -9.140  -0.544  -0.427  1.00  0.00     0.115 A 
HETATM   52  N14 UNL     1      -9.708  -0.589  -1.644  1.00  0.00    -0.320 N 
HETATM   53  C23 UNL     1      -9.231  -1.452  -2.556  1.00  0.00     0.228 A 
HETATM   54  C26 UNL     1     -10.808   0.143  -2.241  1.00  0.00     0.158 C 
HETATM   55  N15 UNL     1      -8.191  -2.247  -2.211  1.00  0.00    -0.288 N 
HETATM   56  O6  UNL     1      -9.960  -1.337  -3.743  1.00  0.00    -0.320 OA
HETATM   57  C24 UNL     1      -7.605  -2.229  -1.017  1.00  0.00     0.263 A 
ATOM     58  H15 UNL     1      -7.835  -2.900  -2.909  1.00  0.00     0.172 HD
HETATM   59  O5  UNL     1      -6.639  -2.966  -0.691  1.00  0.00    -0.267 OA
HETATM   60  C25 UNL     1     -10.623  -0.086  -3.710  1.00  0.00     0.199 C 
ENDBRANCH   5  50
TORSDOF 13
