REMARK  7 active torsions:
REMARK  status: ('A' for Active; 'I' for Inactive)
REMARK    1  A    between atoms: C2_3  and  N2_4 
REMARK    2  A    between atoms: C2_3  and  C3_8 
REMARK    3  A    between atoms: C4_13  and  S1_14 
REMARK    4  A    between atoms: S1_14  and  C5_15 
REMARK    5  A    between atoms: C5_15  and  C6_16 
REMARK    6  A    between atoms: C6_16  and  C7_18 
REMARK    7  A    between atoms: C8_19  and  O2_20 
ROOT
HETATM    1  N1  UNL     1       6.352  -2.003  -1.638  1.00  0.00    -0.195 NA
HETATM    2  C1  UNL     1       5.908  -1.063  -1.134  1.00  0.00     0.100 C 
HETATM    3  C2  UNL     1       5.352   0.116  -0.478  1.00  0.00     0.357 C 
ENDROOT
BRANCH   3   4
HETATM    4  N2  UNL     1       5.540  -0.031   0.975  1.00  0.00    -0.056 N 
ATOM      5  H23 UNL     1       5.149  -0.902   1.335  1.00  0.00     0.276 HD
ATOM      6  H22 UNL     1       6.513  -0.200   1.230  1.00  0.00     0.276 HD
ATOM      7  H21 UNL     1       5.151   0.793   1.434  1.00  0.00     0.276 HD
ENDBRANCH   3   4
BRANCH   3   8
HETATM    8  C3  UNL     1       3.882   0.189  -0.738  1.00  0.00     0.143 A 
HETATM    9  N3  UNL     1       3.264  -0.493  -1.717  1.00  0.00    -0.284 N 
HETATM   10  N4  UNL     1       1.980  -0.185  -1.644  1.00  0.00    -0.278 N 
ATOM     11  H3  UNL     1       3.701  -1.126  -2.387  1.00  0.00     0.188 HD
HETATM   12  C4  UNL     1       1.770   0.682  -0.635  1.00  0.00     0.160 A 
ATOM     13  H4  UNL     1       1.255  -0.550  -2.261  1.00  0.00     0.189 HD
HETATM   14  N7  UNL     1       2.959   0.914  -0.070  1.00  0.00    -0.322 N 
ATOM     15  H7  UNL     1       3.137   1.529   0.724  1.00  0.00     0.169 HD
BRANCH  12  16
HETATM   16  S1  UNL     1       0.167   1.374  -0.170  1.00  0.00    -0.085 SA
BRANCH  16  17
HETATM   17  C5  UNL     1      -0.536   0.235   1.054  1.00  0.00     0.166 C 
BRANCH  17  18
HETATM   18  C6  UNL     1      -1.846   0.625   1.557  1.00  0.00     0.178 C 
HETATM   19  O1  UNL     1      -1.899   1.195   2.695  1.00  0.00    -0.291 OA
BRANCH  18  20
HETATM   20  C7  UNL     1      -3.100   0.415   0.860  1.00  0.00     0.129 A 
HETATM   21  C8  UNL     1      -3.211  -0.173  -0.377  1.00  0.00     0.163 A 
HETATM   22  N5  UNL     1      -4.397  -0.374  -1.011  1.00  0.00    -0.288 N 
HETATM   23  C9  UNL     1      -5.528   0.017  -0.410  1.00  0.00     0.329 A 
ATOM     24  H5  UNL     1      -4.425  -0.816  -1.930  1.00  0.00     0.172 HD
HETATM   25  O3  UNL     1      -6.674  -0.123  -0.910  1.00  0.00    -0.247 OA
HETATM   26  N6  UNL     1      -5.452   0.601   0.811  1.00  0.00    -0.275 N 
HETATM   27  C10 UNL     1      -4.299   0.807   1.449  1.00  0.00     0.267 A 
ATOM     28  H6  UNL     1      -6.317   0.897   1.263  1.00  0.00     0.173 HD
HETATM   29  O4  UNL     1      -4.234   1.347   2.578  1.00  0.00    -0.267 OA
BRANCH  21  30
HETATM   30  O2  UNL     1      -2.089  -0.601  -1.060  1.00  0.00    -0.345 OA
ATOM     31  H2  UNL     1      -2.166  -1.008  -1.915  1.00  0.00     0.219 HD
ENDBRANCH  21  30
ENDBRANCH  18  20
ENDBRANCH  17  18
ENDBRANCH  16  17
ENDBRANCH  12  16
ENDBRANCH   3   8
TORSDOF 7
