REMARK  11 active torsions:
REMARK  status: ('A' for Active; 'I' for Inactive)
REMARK    1  A    between atoms: C3_3  and  C4_4 
REMARK    2  A    between atoms: C4_4  and  C5_5 
REMARK    3  A    between atoms: C5_5  and  C6_6 
REMARK    4  A    between atoms: C7_8  and  O2_9 
REMARK    5  A    between atoms: C8_11  and  C9_12 
REMARK    6  A    between atoms: C9_12  and  C10_13 
REMARK    7  A    between atoms: C10_13  and  C11_14 
REMARK    8  A    between atoms: C10_13  and  O5_20 
REMARK    9  A    between atoms: C12_15  and  O3_16 
REMARK   10  A    between atoms: C12_15  and  O4_18 
REMARK   11  A    between atoms: C15_22  and  O6_23 
ROOT
HETATM    1  C6  UNL     1       1.266  -0.284   0.967  1.00  0.00     0.112 A 
HETATM    2  O1  UNL     1       1.732   0.285  -0.116  1.00  0.00    -0.285 OA
HETATM    3  C7  UNL     1       0.799   0.993  -0.718  1.00  0.00     0.193 A 
HETATM    4  C8  UNL     1      -0.356   0.883   0.017  1.00  0.00     0.042 A 
HETATM    5  C15 UNL     1      -0.092   0.085   1.085  1.00  0.00     0.111 A 
ENDROOT
BRANCH   4   6
HETATM    6  C9  UNL     1      -1.630   1.558  -0.376  1.00  0.00     0.111 C 
BRANCH   6   7
HETATM    7  C10 UNL     1      -2.331   0.888  -1.441  1.00  0.00     0.054 C 
BRANCH   7   8
HETATM    8  C11 UNL     1      -3.533   0.440  -1.429  1.00  0.00     0.096 C 
HETATM    9  C12 UNL     1      -4.456   0.511  -0.337  1.00  0.00     0.179 C 
BRANCH   9  10
HETATM   10  O3  UNL     1      -5.632  -0.006  -0.537  1.00  0.00    -0.341 OA
ATOM     11  H3  UNL     1      -6.245   0.041   0.188  1.00  0.00     0.220 HD
ENDBRANCH   9  10
BRANCH   9  12
HETATM   12  O4  UNL     1      -4.292   1.049   0.910  1.00  0.00    -0.336 OA
HETATM   13  C13 UNL     1      -5.247   1.080   1.921  1.00  0.00     0.212 C 
ENDBRANCH   9  12
ENDBRANCH   7   8
BRANCH   7  14
HETATM   14  O5  UNL     1      -1.609   0.695  -2.658  1.00  0.00    -0.360 OA
HETATM   15  C14 UNL     1      -1.448  -0.655  -3.116  1.00  0.00     0.209 C 
ENDBRANCH   7  14
ENDBRANCH   6   7
ENDBRANCH   4   6
BRANCH   3  16
HETATM   16  O2  UNL     1       1.059   1.689  -1.891  1.00  0.00    -0.340 OA
ATOM     17  H2  UNL     1       0.386   2.200  -2.325  1.00  0.00     0.220 HD
ENDBRANCH   3  16
BRANCH   5  18
HETATM   18  O6  UNL     1      -0.923  -0.306   2.082  1.00  0.00    -0.357 OA
ATOM     19  H6  UNL     1      -1.837  -0.058   2.161  1.00  0.00     0.217 HD
ENDBRANCH   5  18
BRANCH   1  20
HETATM   20  C5  UNL     1       1.991  -1.134   1.884  1.00  0.00     0.040 C 
BRANCH  20  21
HETATM   21  C4  UNL     1       3.229  -1.464   1.766  1.00  0.00     0.003 C 
BRANCH  21  22
HETATM   22  C3  UNL     1       4.181  -1.090   0.734  1.00  0.00    -0.004 C 
HETATM   23  C2  UNL     1       5.448  -1.532   0.769  1.00  0.00    -0.031 C 
HETATM   24  C1  UNL     1       6.441  -1.171  -0.266  1.00  0.00     0.036 C 
ENDBRANCH  21  22
ENDBRANCH  20  21
ENDBRANCH   1  20
TORSDOF 11
