REMARK  9 active torsions:
REMARK  status: ('A' for Active; 'I' for Inactive)
REMARK    1  A    between atoms: C2_2  and  C3_3 
REMARK    2  A    between atoms: C3_3  and  C4_4 
REMARK    3  A    between atoms: C4_4  and  C5_5 
REMARK    4  A    between atoms: C5_5  and  O1_6 
REMARK    5  A    between atoms: O1_6  and  C6_7 
REMARK    6  A    between atoms: C6_7  and  C7_9 
REMARK    7  A    between atoms: C9_13  and  O3_14 
REMARK    8  A    between atoms: C11_18  and  O4_19 
REMARK    9  A    between atoms: C13_22  and  C14_23 
ROOT
HETATM    1  C7  UNL     1      -1.018   0.148  -0.315  1.00  0.00     0.124 A 
HETATM    2  N1  UNL     1      -1.624   1.253  -0.722  1.00  0.00    -0.346 N 
ATOM      3  H1  UNL     1      -1.167   2.000  -1.245  1.00  0.00     0.166 HD
HETATM    4  C8  UNL     1      -2.918   1.266  -0.359  1.00  0.00     0.100 A 
HETATM    5  C9  UNL     1      -4.123   1.957  -0.378  1.00  0.00     0.172 A 
HETATM    6  N2  UNL     1      -5.037   1.213   0.274  1.00  0.00    -0.310 N 
HETATM    7  C10 UNL     1      -6.427   1.587   0.474  1.00  0.00     0.160 C 
HETATM    8  C11 UNL     1      -4.512   0.077   0.721  1.00  0.00     0.157 A 
HETATM    9  C12 UNL     1      -3.172   0.098   0.327  1.00  0.00     0.062 A 
HETATM   10  C13 UNL     1      -1.982  -0.605   0.357  1.00  0.00     0.059 A 
ENDROOT
BRANCH   1  11
HETATM   11  C6  UNL     1       0.370  -0.258  -0.498  1.00  0.00     0.311 C 
HETATM   12  O2  UNL     1       0.814  -1.325  -0.064  1.00  0.00    -0.258 OA
BRANCH  11  13
HETATM   13  O1  UNL     1       1.213   0.591  -1.184  1.00  0.00    -0.316 OA
BRANCH  13  14
HETATM   14  C5  UNL     1       2.566   0.383  -1.460  1.00  0.00     0.179 C 
BRANCH  14  15
HETATM   15  C4  UNL     1       3.424   0.248  -0.237  1.00  0.00     0.027 C 
BRANCH  15  16
HETATM   16  C3  UNL     1       4.880   0.028  -0.596  1.00  0.00     0.002 C 
BRANCH  16  17
HETATM   17  C2  UNL     1       5.664  -0.096   0.703  1.00  0.00    -0.004 C 
HETATM   18  C1  UNL     1       7.120  -0.316   0.417  1.00  0.00     0.005 C 
ENDBRANCH  16  17
ENDBRANCH  15  16
ENDBRANCH  14  15
ENDBRANCH  13  14
ENDBRANCH  11  13
ENDBRANCH   1  11
BRANCH  10  19
HETATM   19  C14 UNL     1      -1.750  -1.893   0.968  1.00  0.00     0.159 C 
HETATM   20  C15 UNL     1      -1.927  -3.168   0.238  1.00  0.00     0.097 C 
HETATM   21  O5  UNL     1      -1.385  -1.936   2.164  1.00  0.00    -0.293 OA
ENDBRANCH  10  19
BRANCH   5  22
HETATM   22  O3  UNL     1      -4.290   3.196  -0.982  1.00  0.00    -0.344 OA
ATOM     23  H3  UNL     1      -5.114   3.669  -0.995  1.00  0.00     0.219 HD
ENDBRANCH   5  22
BRANCH   8  24
HETATM   24  O4  UNL     1      -5.048  -0.977   1.428  1.00  0.00    -0.345 OA
ATOM     25  H4  UNL     1      -4.673  -1.789   1.748  1.00  0.00     0.219 HD
ENDBRANCH   8  24
TORSDOF 9
