REMARK  8 active torsions:
REMARK  status: ('A' for Active; 'I' for Inactive)
REMARK    1  A    between atoms: C5_6  and  C6_7 
REMARK    2  A    between atoms: C6_7  and  C7_8 
REMARK    3  A    between atoms: C7_8  and  C8_9 
REMARK    4  A    between atoms: C8_9  and  C9_10 
REMARK    5  A    between atoms: C9_10  and  O2_11 
REMARK    6  A    between atoms: C9_10  and  C10_13 
REMARK    7  A    between atoms: C10_13  and  C11_14 
REMARK    8  A    between atoms: C13_19  and  O5_20 
ROOT
HETATM    1  C9  UNL     1       2.031  -0.828   0.526  1.00  0.00     0.123 C 
ENDROOT
BRANCH   1   2
HETATM    2  C8  UNL     1       1.029  -1.926   0.223  1.00  0.00     0.032 C 
BRANCH   2   3
HETATM    3  C7  UNL     1      -0.211  -1.824   1.057  1.00  0.00     0.005 C 
BRANCH   3   4
HETATM    4  C6  UNL     1      -0.962  -0.537   0.878  1.00  0.00     0.032 C 
BRANCH   4   5
HETATM    5  C5  UNL     1      -1.417  -0.340  -0.553  1.00  0.00     0.121 C 
HETATM    6  O1  UNL     1      -2.237  -1.372  -0.897  1.00  0.00    -0.386 OA
HETATM    7  C4  UNL     1      -3.581  -1.168  -0.802  1.00  0.00     0.168 C 
HETATM    8  C3  UNL     1      -4.038  -0.090   0.116  1.00  0.00     0.030 C 
HETATM    9  C2  UNL     1      -3.206   1.151   0.121  1.00  0.00    -0.014 C 
HETATM   10  C1  UNL     1      -3.991   2.380  -0.264  1.00  0.00     0.010 C 
HETATM   11  C14 UNL     1      -2.001   1.019  -0.766  1.00  0.00     0.036 C 
ENDBRANCH   4   5
ENDBRANCH   3   4
ENDBRANCH   2   3
ENDBRANCH   1   2
BRANCH   1  12
HETATM   12  O2  UNL     1       2.448  -0.843   1.839  1.00  0.00    -0.395 OA
ATOM     13  H2  UNL     1       3.075  -0.155   2.029  1.00  0.00     0.210 HD
ENDBRANCH   1  12
BRANCH   1  14
HETATM   14  C10 UNL     1       3.196  -1.035  -0.401  1.00  0.00     0.083 C 
BRANCH  14  15
HETATM   15  C11 UNL     1       4.266   0.001  -0.189  1.00  0.00     0.049 A 
HETATM   16  S1  UNL     1       5.790  -0.105   0.607  1.00  0.00    -0.021 SA
HETATM   17  C12 UNL     1       6.295   1.507   0.354  1.00  0.00     0.334 A 
HETATM   18  O3  UNL     1       7.373   2.109   0.705  1.00  0.00    -0.251 OA
HETATM   19  O4  UNL     1       5.301   2.004  -0.300  1.00  0.00    -0.245 OA
HETATM   20  C13 UNL     1       4.294   1.314  -0.588  1.00  0.00     0.200 A 
BRANCH  20  21
HETATM   21  O5  UNL     1       3.190   1.846  -1.306  1.00  0.00    -0.340 OA
ATOM     22  H5  UNL     1       3.209   2.755  -1.582  1.00  0.00     0.220 HD
ENDBRANCH  20  21
ENDBRANCH  14  15
ENDBRANCH   1  14
TORSDOF 8
