REMARK  9 active torsions:
REMARK  status: ('A' for Active; 'I' for Inactive)
REMARK    1  A    between atoms: C2_2  and  C3_3 
REMARK    2  A    between atoms: C3_3  and  C4_4 
REMARK    3  A    between atoms: C5_5  and  C6_6 
REMARK    4  A    between atoms: C6_6  and  C7_7 
REMARK    5  A    between atoms: C7_7  and  C8_13 
REMARK    6  A    between atoms: N1_8  and  N2_10 
REMARK    7  A    between atoms: C9_14  and  O1_15 
REMARK    8  A    between atoms: C10_17  and  O2_18 
REMARK    9  A    between atoms: C11_20  and  C12_21 
ROOT
HETATM    1  C8  UNL     1       0.427  -1.022   0.210  1.00  0.00     0.100 A 
HETATM    2  C9  UNL     1       1.110   0.163   0.059  1.00  0.00     0.120 A 
HETATM    3  C10 UNL     1       2.439   0.335   0.447  1.00  0.00     0.134 A 
HETATM    4  C11 UNL     1       3.080  -0.764   1.007  1.00  0.00     0.115 A 
HETATM    5  O3  UNL     1       2.416  -1.903   1.148  1.00  0.00    -0.272 OA
HETATM    6  C16 UNL     1       1.175  -2.048   0.782  1.00  0.00     0.303 A 
HETATM    7  O4  UNL     1       0.580  -3.158   0.937  1.00  0.00    -0.259 OA
ENDROOT
BRANCH   1   8
HETATM    8  C7  UNL     1      -0.964  -1.205  -0.127  1.00  0.00     0.047 C 
HETATM    9  N1  UNL     1      -1.409  -2.432   0.052  1.00  0.00    -0.310 N 
ATOM     10  H1  UNL     1      -0.764  -3.167   0.341  1.00  0.00     0.186 HD
BRANCH   8  11
HETATM   11  C6  UNL     1      -1.928  -0.159  -0.544  1.00  0.00     0.086 C 
BRANCH  11  12
HETATM   12  C5  UNL     1      -2.374   0.737   0.518  1.00  0.00    -0.025 C 
HETATM   13  C4  UNL     1      -3.604   0.941   0.871  1.00  0.00    -0.030 C 
BRANCH  13  14
HETATM   14  C3  UNL     1      -4.787   0.321   0.276  1.00  0.00     0.026 C 
BRANCH  14  15
HETATM   15  C2  UNL     1      -5.740   1.392  -0.304  1.00  0.00    -0.001 C 
HETATM   16  C1  UNL     1      -5.068   2.205  -1.365  1.00  0.00     0.005 C 
ENDBRANCH  14  15
ENDBRANCH  13  14
ENDBRANCH  11  12
ENDBRANCH   8  11
BRANCH   9  17
HETATM   17  N2  UNL     1      -2.735  -2.729  -0.147  1.00  0.00    -0.345 N 
ATOM     18  H22 UNL     1      -3.367  -1.982  -0.436  1.00  0.00     0.176 HD
ATOM     19  H21 UNL     1      -3.080  -3.679  -0.008  1.00  0.00     0.176 HD
ENDBRANCH   9  17
ENDBRANCH   1   8
BRANCH   2  20
HETATM   20  O1  UNL     1       0.492   1.234  -0.497  1.00  0.00    -0.357 OA
ATOM     21  H1  UNL     1       0.964   2.052  -0.601  1.00  0.00     0.218 HD
ENDBRANCH   2  20
BRANCH   3  22
HETATM   22  O2  UNL     1       3.146   1.509   0.317  1.00  0.00    -0.356 OA
ATOM     23  H2  UNL     1       4.051   1.626   0.581  1.00  0.00     0.218 HD
ENDBRANCH   3  22
BRANCH   4  24
HETATM   24  C12 UNL     1       4.463  -0.664   1.427  1.00  0.00     0.042 C 
HETATM   25  C13 UNL     1       5.430  -0.439   0.586  1.00  0.00    -0.085 C 
HETATM   26  C14 UNL     1       6.863  -0.331   1.039  1.00  0.00     0.043 C 
HETATM   27  C15 UNL     1       5.206  -0.331  -0.863  1.00  0.00     0.043 C 
ENDBRANCH   4  24
TORSDOF 9
