REMARK  9 active torsions:
REMARK  status: ('A' for Active; 'I' for Inactive)
REMARK    1  A    between atoms: C6_9  and  C7_10 
REMARK    2  A    between atoms: C7_10  and  C8_11 
REMARK    3  A    between atoms: C8_11  and  C9_12 
REMARK    4  A    between atoms: C9_12  and  C10_13 
REMARK    5  A    between atoms: C10_13  and  O1_14 
REMARK    6  A    between atoms: O1_14  and  C11_15 
REMARK    7  A    between atoms: C11_15  and  C12_17 
REMARK    8  A    between atoms: C13_18  and  O3_19 
REMARK    9  A    between atoms: C15_23  and  O5_24 
ROOT
HETATM    1  C10 UNL     1       0.744   2.210  -0.318  1.00  0.00     0.179 C 
ENDROOT
BRANCH   1   2
HETATM    2  C9  UNL     1       0.072   0.862  -0.376  1.00  0.00     0.027 C 
BRANCH   2   3
HETATM    3  C8  UNL     1      -1.434   1.030  -0.430  1.00  0.00     0.002 C 
BRANCH   3   4
HETATM    4  C7  UNL     1      -2.168  -0.253  -0.489  1.00  0.00     0.007 C 
BRANCH   4   5
HETATM    5  C6  UNL     1      -1.998  -1.218   0.613  1.00  0.00     0.021 C 
HETATM    6  C2  UNL     1      -2.865  -2.446   0.240  1.00  0.00     0.013 C 
HETATM    7  C1  UNL     1      -2.011  -3.707   0.187  1.00  0.00     0.012 C 
HETATM    8  C3  UNL     1      -3.914  -2.555   1.317  1.00  0.00     0.237 C 
HETATM    9  N1  UNL     1      -3.988  -1.164   1.790  1.00  0.00    -0.070 N 
HETATM   10  C4  UNL     1      -2.567  -0.892   1.938  1.00  0.00     0.186 C 
ATOM     11  H12 UNL     1      -4.511  -0.516   1.201  1.00  0.00     0.277 HD
ATOM     12  H11 UNL     1      -4.566  -1.000   2.615  1.00  0.00     0.277 HD
HETATM   13  C5  UNL     1      -2.318   0.443   2.514  1.00  0.00     0.040 C 
ENDBRANCH   4   5
ENDBRANCH   3   4
ENDBRANCH   2   3
ENDBRANCH   1   2
BRANCH   1  14
HETATM   14  O1  UNL     1       2.135   2.159  -0.263  1.00  0.00    -0.317 OA
BRANCH  14  15
HETATM   15  C11 UNL     1       2.885   1.609  -1.256  1.00  0.00     0.301 C 
HETATM   16  O2  UNL     1       2.358   1.107  -2.308  1.00  0.00    -0.259 OA
BRANCH  15  17
HETATM   17  C12 UNL     1       4.361   1.544  -1.209  1.00  0.00     0.132 A 
HETATM   18  C13 UNL     1       5.185   1.994  -0.225  1.00  0.00     0.109 A 
HETATM   19  C14 UNL     1       6.478   1.716  -0.619  1.00  0.00     0.182 A 
HETATM   20  O4  UNL     1       6.406   1.132  -1.775  1.00  0.00    -0.297 OA
HETATM   21  C15 UNL     1       5.187   1.000  -2.181  1.00  0.00     0.202 A 
BRANCH  18  22
HETATM   22  O3  UNL     1       4.863   2.606   0.940  1.00  0.00    -0.358 OA
ATOM     23  H3  UNL     1       5.439   2.920   1.627  1.00  0.00     0.217 HD
ENDBRANCH  18  22
BRANCH  21  24
HETATM   24  O5  UNL     1       4.790   0.425  -3.360  1.00  0.00    -0.340 OA
ATOM     25  H5  UNL     1       5.356   0.052  -4.026  1.00  0.00     0.220 HD
ENDBRANCH  21  24
ENDBRANCH  15  17
ENDBRANCH  14  15
ENDBRANCH   1  14
TORSDOF 9
