REMARK  6 active torsions:
REMARK  status: ('A' for Active; 'I' for Inactive)
REMARK    1  A    between atoms: C2_2  and  N1_3 
REMARK    2  A    between atoms: C2_2  and  C3_7 
REMARK    3  A    between atoms: C3_7  and  N2_8 
REMARK    4  A    between atoms: N2_8  and  C4_10 
REMARK    5  A    between atoms: C4_10  and  C5_11 
REMARK    6  A    between atoms: C5_11  and  N3_12 
ROOT
HETATM    1  C4  UNL     1       0.740   0.745  -0.169  1.00  0.00     0.149 C 
ENDROOT
BRANCH   1   2
HETATM    2  N2  UNL     1       1.185  -0.595  -0.089  1.00  0.00    -0.399 N 
ATOM      3  H2  UNL     1       0.656  -1.273   0.459  1.00  0.00     0.158 HD
BRANCH   2   4
HETATM    4  C3  UNL     1       2.341  -0.993  -0.755  1.00  0.00     0.087 C 
BRANCH   4   5
HETATM    5  C2  UNL     1       3.665  -0.489  -0.311  1.00  0.00     0.217 C 
HETATM    6  C1  UNL     1       4.047  -0.820   1.092  1.00  0.00     0.045 C 
BRANCH   5   7
HETATM    7  N1  UNL     1       3.834   0.934  -0.511  1.00  0.00    -0.071 N 
ATOM      8  H13 UNL     1       3.322   1.489   0.175  1.00  0.00     0.275 HD
ATOM      9  H12 UNL     1       4.774   1.253  -0.276  1.00  0.00     0.275 HD
ATOM     10  H11 UNL     1       3.573   1.160  -1.471  1.00  0.00     0.275 HD
ENDBRANCH   5   7
ENDBRANCH   4   5
ENDBRANCH   2   4
ENDBRANCH   1   2
BRANCH   1  11
HETATM   11  C5  UNL     1      -0.548   0.898   0.572  1.00  0.00     0.292 C 
BRANCH  11  12
HETATM   12  N3  UNL     1      -1.631   0.121   0.120  1.00  0.00     0.093 N 
HETATM   13  C6  UNL     1      -2.201   0.402  -1.135  1.00  0.00     0.300 C 
HETATM   14  C7  UNL     1      -3.599   0.993  -0.904  1.00  0.00     0.262 C 
HETATM   15  N4  UNL     1      -4.473  -0.021  -0.329  1.00  0.00    -0.072 N 
HETATM   16  C8  UNL     1      -3.743  -0.868   0.604  1.00  0.00     0.262 C 
ATOM     17  H42 UNL     1      -5.297   0.394   0.105  1.00  0.00     0.277 HD
ATOM     18  H41 UNL     1      -4.939  -0.570  -1.051  1.00  0.00     0.277 HD
HETATM   19  C9  UNL     1      -2.587  -0.082   1.185  1.00  0.00     0.300 C 
ENDBRANCH  11  12
ENDBRANCH   1  11
TORSDOF 6
