REMARK  4 active torsions:
REMARK  status: ('A' for Active; 'I' for Inactive)
REMARK    1  A    between atoms: C2_2  and  N1_3 
REMARK    2  A    between atoms: N1_3  and  C3_6 
REMARK    3  A    between atoms: C3_6  and  C4_7 
REMARK    4  A    between atoms: C4_7  and  N2_8 
ROOT
HETATM    1  N2  UNL     1       0.602  -1.851   0.267  1.00  0.00    -0.373 N 
ATOM      2  H2  UNL     1       0.307  -2.803   0.049  1.00  0.00     0.161 HD
HETATM    3  C5  UNL     1       1.846  -1.490   0.257  1.00  0.00     0.134 A 
HETATM    4  N3  UNL     1       3.076  -2.147  -0.010  1.00  0.00    -0.325 N 
ATOM      5  H3  UNL     1       3.336  -3.098  -0.273  1.00  0.00     0.169 HD
HETATM    6  C6  UNL     1       3.796  -0.955   0.234  1.00  0.00     0.139 A 
HETATM    7  N4  UNL     1       4.854  -0.099   0.365  1.00  0.00    -0.337 N 
ATOM      8  H4  UNL     1       5.842  -0.314   0.231  1.00  0.00     0.168 HD
HETATM    9  C7  UNL     1       4.318   1.088   0.708  1.00  0.00     0.182 A 
HETATM   10  N5  UNL     1       2.981   0.974   0.789  1.00  0.00    -0.346 N 
ATOM     11  H5  UNL     1       2.337   1.726   1.033  1.00  0.00     0.167 HD
HETATM   12  C8  UNL     1       2.629  -0.289   0.498  1.00  0.00     0.122 A 
ENDROOT
BRANCH   1  13
HETATM   13  C4  UNL     1      -0.344  -0.802   0.611  1.00  0.00     0.148 C 
BRANCH  13  14
HETATM   14  C3  UNL     1      -1.016  -0.364  -0.669  1.00  0.00     0.251 C 
BRANCH  14  15
HETATM   15  N1  UNL     1      -1.947   0.687  -0.442  1.00  0.00    -0.074 N 
ATOM     16  H12 UNL     1      -2.220   1.137  -1.316  1.00  0.00     0.277 HD
ATOM     17  H11 UNL     1      -1.504   1.484   0.015  1.00  0.00     0.277 HD
BRANCH  15  18
HETATM   18  C2  UNL     1      -3.086   0.235   0.289  1.00  0.00     0.228 C 
HETATM   19  C1  UNL     1      -4.068   1.387   0.537  1.00  0.00     0.034 C 
ENDBRANCH  15  18
ENDBRANCH  14  15
ENDBRANCH  13  14
ENDBRANCH   1  13
TORSDOF 4
