REMARK  6 active torsions:
REMARK  status: ('A' for Active; 'I' for Inactive)
REMARK    1  A    between atoms: C2_2  and  C3_3 
REMARK    2  A    between atoms: C2_2  and  C5_11 
REMARK    3  A    between atoms: C3_3  and  C4_4 
REMARK    4  A    between atoms: N2_6  and  N3_8 
REMARK    5  A    between atoms: C5_11  and  N4_13 
REMARK    6  A    between atoms: N4_13  and  C7_15 
ROOT
HETATM    1  C1  UNL     1       0.352  -2.196  -1.492  1.00  0.00     0.012 C 
HETATM    2  C2  UNL     1       0.721  -1.284  -0.295  1.00  0.00     0.010 C 
ENDROOT
BRANCH   2   3
HETATM    3  C3  UNL     1       1.417  -0.115  -0.842  1.00  0.00     0.081 C 
BRANCH   3   4
HETATM    4  C4  UNL     1       1.897   0.897   0.109  1.00  0.00     0.107 C 
HETATM    5  N1  UNL     1       2.551   2.042  -0.472  1.00  0.00    -0.086 NA
HETATM    6  N2  UNL     1       1.799   0.865   1.375  1.00  0.00    -0.298 N 
ATOM      7  H2  UNL     1       1.343   0.065   1.813  1.00  0.00     0.187 HD
BRANCH   6   8
HETATM    8  N3  UNL     1       2.287   1.873   2.179  1.00  0.00    -0.344 N 
ATOM      9  H32 UNL     1       2.740   2.666   1.725  1.00  0.00     0.176 HD
ATOM     10  H31 UNL     1       2.208   1.847   3.196  1.00  0.00     0.176 HD
ENDBRANCH   6   8
ENDBRANCH   3   4
ENDBRANCH   2   3
BRANCH   2  11
HETATM   11  C5  UNL     1      -0.518  -1.115   0.503  1.00  0.00     0.077 C 
HETATM   12  C6  UNL     1      -0.915  -2.548   0.978  1.00  0.00     0.032 C 
BRANCH  11  13
HETATM   13  N4  UNL     1      -1.657  -0.620  -0.133  1.00  0.00    -0.413 N 
ATOM     14  H4  UNL     1      -2.456  -1.247  -0.228  1.00  0.00     0.154 HD
BRANCH  13  15
HETATM   15  C7  UNL     1      -1.780   0.658  -0.643  1.00  0.00     0.077 A 
HETATM   16  C8  UNL     1      -1.746   1.842   0.307  1.00  0.00     0.027 A 
HETATM   17  C9  UNL     1      -3.033   1.436  -0.338  1.00  0.00     0.027 A 
ENDBRANCH  13  15
ENDBRANCH  11  13
ENDBRANCH   2  11
TORSDOF 6
