REMARK  5 active torsions:
REMARK  status: ('A' for Active; 'I' for Inactive)
REMARK    1  A    between atoms: C2_2  and  C3_3 
REMARK    2  A    between atoms: C2_2  and  C4_6 
REMARK    3  A    between atoms: C4_6  and  N2_7 
REMARK    4  A    between atoms: C4_6  and  C5_11 
REMARK    5  A    between atoms: C5_11  and  C6_12 
ROOT
HETATM    1  C4  UNL     1      -0.427  -1.206  -0.059  1.00  0.00     0.201 C 
ENDROOT
BRANCH   1   2
HETATM    2  C2  UNL     1      -1.099   0.116   0.094  1.00  0.00     0.101 C 
HETATM    3  C1  UNL     1      -1.367   0.850  -1.170  1.00  0.00     0.021 C 
BRANCH   2   4
HETATM    4  C3  UNL     1      -2.358   0.047   0.868  1.00  0.00     0.236 C 
HETATM    5  N1  UNL     1      -2.948   1.281   1.239  1.00  0.00    -0.062 NA
HETATM    6  O1  UNL     1      -2.946  -0.997   1.221  1.00  0.00    -0.276 OA
ENDBRANCH   2   4
ENDBRANCH   1   2
BRANCH   1   7
HETATM    7  N2  UNL     1      -1.221  -2.117  -0.867  1.00  0.00    -0.074 N 
ATOM      8  H23 UNL     1      -2.165  -2.219  -0.495  1.00  0.00     0.274 HD
ATOM      9  H22 UNL     1      -1.451  -1.708  -1.773  1.00  0.00     0.274 HD
ATOM     10  H21 UNL     1      -0.761  -3.021  -0.972  1.00  0.00     0.274 HD
ENDBRANCH   1   7
BRANCH   1  11
HETATM   11  C5  UNL     1       0.958  -1.165  -0.590  1.00  0.00     0.092 C 
BRANCH  11  12
HETATM   12  C6  UNL     1       1.917  -0.394   0.238  1.00  0.00     0.027 A 
HETATM   13  C7  UNL     1       2.183   0.950   0.095  1.00  0.00     0.114 A 
HETATM   14  N3  UNL     1       3.094   1.328   0.999  1.00  0.00    -0.360 N 
HETATM   15  C8  UNL     1       3.421   0.252   1.721  1.00  0.00     0.180 A 
ATOM     16  H3  UNL     1       3.471   2.268   1.116  1.00  0.00     0.166 HD
HETATM   17  N4  UNL     1       2.700  -0.802   1.255  1.00  0.00    -0.355 N 
ATOM     18  H4  UNL     1       2.745  -1.754   1.619  1.00  0.00     0.166 HD
ENDBRANCH  11  12
ENDBRANCH   1  11
TORSDOF 5
