REMARK  5 active torsions:
REMARK  status: ('A' for Active; 'I' for Inactive)
REMARK    1  A    between atoms: N1_2  and  C2_5 
REMARK    2  A    between atoms: C2_5  and  C3_6 
REMARK    3  A    between atoms: C3_6  and  O1_7 
REMARK    4  A    between atoms: O1_7  and  C4_8 
REMARK    5  A    between atoms: C6_10  and  C7_11 
ROOT
HETATM    1  C4  UNL     1       0.618   1.347   0.191  1.00  0.00     0.142 A 
HETATM    2  C5  UNL     1       1.374   0.214   0.037  1.00  0.00     0.074 A 
HETATM    3  C6  UNL     1       2.732   0.495   0.245  1.00  0.00     0.048 A 
HETATM    4  C8  UNL     1       2.759   1.843   0.529  1.00  0.00     0.106 A 
HETATM    5  N3  UNL     1       1.520   2.337   0.496  1.00  0.00    -0.346 N 
ATOM      6  H3  UNL     1       1.277   3.312   0.672  1.00  0.00     0.167 HD
ENDROOT
BRANCH   1   7
HETATM    7  O1  UNL     1      -0.739   1.503   0.078  1.00  0.00    -0.334 OA
BRANCH   7   8
HETATM    8  C3  UNL     1      -1.700   0.581  -0.207  1.00  0.00     0.204 C 
BRANCH   8   9
HETATM    9  C2  UNL     1      -1.800  -0.525   0.818  1.00  0.00     0.258 C 
BRANCH   9  10
HETATM   10  N1  UNL     1      -2.857  -1.461   0.443  1.00  0.00    -0.077 N 
HETATM   11  C1  UNL     1      -4.144  -0.809   0.573  1.00  0.00     0.267 C 
ATOM     12  H12 UNL     1      -2.809  -2.331   0.974  1.00  0.00     0.276 HD
ATOM     13  H11 UNL     1      -2.714  -1.852  -0.488  1.00  0.00     0.276 HD
ENDBRANCH   9  10
ENDBRANCH   8   9
ENDBRANCH   7   8
ENDBRANCH   1   7
BRANCH   3  14
HETATM   14  C7  UNL     1       3.839  -0.437   0.170  1.00  0.00     0.266 C 
HETATM   15  N2  UNL     1       3.640  -1.746  -0.299  1.00  0.00    -0.057 NA
HETATM   16  O2  UNL     1       4.972  -0.065   0.526  1.00  0.00    -0.271 OA
ENDBRANCH   3  14
TORSDOF 5
