REMARK  6 active torsions:
REMARK  status: ('A' for Active; 'I' for Inactive)
REMARK       I    between atoms: N3_4  and  C2_6 
REMARK    1  A    between atoms: C2_6  and  C3_8 
REMARK    2  A    between atoms: C3_8  and  N6_21 
REMARK    3  A    between atoms: N4_9  and  O2_11 
REMARK    4  A    between atoms: O2_11  and  C4_12 
REMARK    5  A    between atoms: C7_15  and  N5_16 
REMARK    6  A    between atoms: N6_21  and  N7_23 
ROOT
HETATM    1  C3  UNL     1      -1.226   0.405  -1.095  1.00  0.00     0.205 C 
HETATM    2  N4  UNL     1      -0.258  -0.425  -0.903  1.00  0.00    -0.245 N 
ATOM      3  H4  UNL     1      -0.458  -1.377  -0.597  1.00  0.00     0.196 HD
ENDROOT
BRANCH   1   4
HETATM    4  C2  UNL     1      -1.003   1.779  -1.532  1.00  0.00     0.294 C 
HETATM    5  N3  UNL     1      -2.037   2.704  -1.749  1.00  0.00    -0.297 N 
HETATM    6  C1  UNL     1      -2.417   3.609  -0.935  1.00  0.00     0.203 C 
ATOM      7  H3  UNL     1      -2.530   2.647  -2.640  1.00  0.00     0.171 HD
HETATM    8  N1  UNL     1      -3.496   4.452  -1.353  1.00  0.00    -0.066 NA
HETATM    9  N2  UNL     1      -1.848   3.836   0.346  1.00  0.00    -0.066 NA
HETATM   10  O1  UNL     1       0.185   2.141  -1.722  1.00  0.00    -0.264 OA
ENDBRANCH   1   4
BRANCH   1  11
HETATM   11  N6  UNL     1      -2.547  -0.070  -0.862  1.00  0.00    -0.299 N 
ATOM     12  H6  UNL     1      -3.278   0.241  -1.502  1.00  0.00     0.182 HD
BRANCH  11  13
HETATM   13  N7  UNL     1      -2.916  -0.915   0.158  1.00  0.00    -0.230 NA
HETATM   14  C9  UNL     1      -2.742  -2.310  -0.122  1.00  0.00     0.113 C 
HETATM   15  C10 UNL     1      -2.895  -2.922   1.269  1.00  0.00     0.017 C 
HETATM   16  C11 UNL     1      -2.042  -1.976   2.090  1.00  0.00     0.017 C 
HETATM   17  C12 UNL     1      -2.309  -0.645   1.422  1.00  0.00     0.113 C 
ENDBRANCH  11  13
ENDBRANCH   1  11
BRANCH   2  18
HETATM   18  O2  UNL     1       1.025  -0.036  -1.107  1.00  0.00    -0.273 OA
BRANCH  18  19
HETATM   19  C4  UNL     1       2.139  -0.410  -0.379  1.00  0.00     0.154 C 
HETATM   20  C5  UNL     1       2.929   0.710   0.212  1.00  0.00     0.036 C 
HETATM   21  C6  UNL     1       4.170  -0.024   0.728  1.00  0.00     0.035 C 
HETATM   22  C7  UNL     1       4.487  -0.932  -0.435  1.00  0.00     0.186 C 
HETATM   23  C8  UNL     1       3.177  -1.171  -1.167  1.00  0.00     0.067 C 
BRANCH  22  24
HETATM   24  N5  UNL     1       4.981  -2.222   0.004  1.00  0.00    -0.075 N 
ATOM     25  H53 UNL     1       5.785  -2.120   0.624  1.00  0.00     0.274 HD
ATOM     26  H52 UNL     1       4.332  -2.665   0.654  1.00  0.00     0.274 HD
ATOM     27  H51 UNL     1       5.195  -2.836  -0.782  1.00  0.00     0.274 HD
ENDBRANCH  22  24
ENDBRANCH  18  19
ENDBRANCH   2  18
TORSDOF 6
