REMARK  6 active torsions:
REMARK  status: ('A' for Active; 'I' for Inactive)
REMARK       I    between atoms: C2_3  and  N2_5 
REMARK    1  A    between atoms: N2_5  and  N3_7 
REMARK    2  A    between atoms: N3_7  and  C3_9 
REMARK    3  A    between atoms: C3_9  and  N4_11 
REMARK    4  A    between atoms: N4_11  and  N5_13 
REMARK    5  A    between atoms: N5_13  and  S2_15 
REMARK    6  A    between atoms: S2_15  and  C4_18 
ROOT
HETATM    1  N1  UNL     1       7.527   0.921   1.449  1.00  0.00    -0.186 NA
HETATM    2  C1  UNL     1       6.387   0.774   1.296  1.00  0.00     0.163 C 
HETATM    3  C2  UNL     1       4.983   0.578   1.124  1.00  0.00     0.340 C 
HETATM    4  O1  UNL     1       4.169   1.168   1.868  1.00  0.00    -0.254 OA
HETATM    5  N2  UNL     1       4.513  -0.279   0.116  1.00  0.00    -0.255 N 
ATOM      6  H2  UNL     1       5.166  -0.766  -0.498  1.00  0.00     0.191 HD
ENDROOT
BRANCH   5   7
HETATM    7  N3  UNL     1       3.135  -0.453  -0.031  1.00  0.00    -0.272 N 
ATOM      8  H3  UNL     1       2.729  -1.357   0.211  1.00  0.00     0.189 HD
BRANCH   7   9
HETATM    9  C3  UNL     1       2.285   0.561  -0.497  1.00  0.00     0.206 C 
HETATM   10  S1  UNL     1       2.912   2.008  -0.890  1.00  0.00    -0.038 SA
BRANCH   9  11
HETATM   11  N4  UNL     1       0.901   0.318  -0.622  1.00  0.00    -0.265 N 
ATOM     12  H4  UNL     1       0.301   1.068  -0.964  1.00  0.00     0.190 HD
BRANCH  11  13
HETATM   13  N5  UNL     1       0.322  -0.906  -0.297  1.00  0.00    -0.221 N 
ATOM     14  H5  UNL     1       0.665  -1.570   0.397  1.00  0.00     0.200 HD
BRANCH  13  15
HETATM   15  S2  UNL     1      -1.088  -1.097  -1.287  1.00  0.00     0.276 S 
HETATM   16  O2  UNL     1      -0.887  -0.429  -2.630  1.00  0.00    -0.199 OA
HETATM   17  O3  UNL     1      -1.349  -2.569  -1.560  1.00  0.00    -0.199 OA
BRANCH  15  18
HETATM   18  C4  UNL     1      -2.514  -0.448  -0.509  1.00  0.00     0.081 A 
HETATM   19  C5  UNL     1      -2.859   0.873  -0.704  1.00  0.00     0.025 A 
HETATM   20  C6  UNL     1      -3.998   1.364  -0.075  1.00  0.00     0.002 A 
HETATM   21  C7  UNL     1      -4.771   0.532   0.735  1.00  0.00     0.000 A 
HETATM   22  C8  UNL     1      -4.418  -0.782   0.922  1.00  0.00     0.002 A 
HETATM   23  C9  UNL     1      -3.300  -1.257   0.302  1.00  0.00     0.025 A 
ENDBRANCH  15  18
ENDBRANCH  13  15
ENDBRANCH  11  13
ENDBRANCH   9  11
ENDBRANCH   7   9
ENDBRANCH   5   7
TORSDOF 6
