REMARK  3 active torsions:
REMARK  status: ('A' for Active; 'I' for Inactive)
REMARK    1  A    between atoms: C8_9  and  O2_10 
REMARK    2  A    between atoms: C10_13  and  O3_15 
REMARK    3  A    between atoms: C14_19  and  O4_21 
ROOT
HETATM    1  C1  UNL     1      -3.670   2.164   0.310  1.00  0.00     0.043 C 
HETATM    2  C2  UNL     1      -2.286   1.534   0.098  1.00  0.00    -0.085 C 
HETATM    3  C3  UNL     1      -1.613   2.015  -0.903  1.00  0.00    -0.024 C 
HETATM    4  C4  UNL     1      -0.307   1.759  -1.490  1.00  0.00     0.030 C 
HETATM    5  C5  UNL     1       0.901   1.809  -0.637  1.00  0.00     0.047 C 
HETATM    6  C6  UNL     1       2.127   1.193  -1.197  1.00  0.00     0.117 A 
HETATM    7  C7  UNL     1       2.910   2.094  -2.163  1.00  0.00     0.052 C 
HETATM    8  O1  UNL     1       3.014   0.788  -0.056  1.00  0.00    -0.336 OA
HETATM    9  C8  UNL     1       2.544  -0.108  -0.978  1.00  0.00     0.197 A 
HETATM   10  C9  UNL     1       1.573  -1.194  -0.654  1.00  0.00     0.108 C 
HETATM   11  C10 UNL     1       1.656  -1.803   0.696  1.00  0.00     0.059 C 
HETATM   12  C11 UNL     1       2.838  -1.353   1.512  1.00  0.00     0.046 C 
HETATM   13  C12 UNL     1       0.398  -1.451   1.520  1.00  0.00     0.040 C 
HETATM   14  C13 UNL     1      -0.851  -1.852   0.859  1.00  0.00     0.040 C 
HETATM   15  C14 UNL     1      -1.959  -0.928   0.611  1.00  0.00     0.058 C 
HETATM   16  C15 UNL     1      -3.231  -1.652   1.145  1.00  0.00     0.046 C 
HETATM   17  C16 UNL     1      -1.934   0.468   1.081  1.00  0.00     0.070 C 
ENDROOT
BRANCH  11  18
HETATM   18  O3  UNL     1       1.683  -3.206   0.672  1.00  0.00    -0.390 OA
ATOM     19  H3  UNL     1       1.736  -3.596   1.537  1.00  0.00     0.210 HD
ENDBRANCH  11  18
BRANCH   9  20
HETATM   20  O2  UNL     1       3.599  -0.570  -1.816  1.00  0.00    -0.363 OA
ATOM     21  H2  UNL     1       3.885  -1.463  -1.666  1.00  0.00     0.213 HD
ENDBRANCH   9  20
BRANCH  15  22
HETATM   22  O4  UNL     1      -2.295  -0.886  -0.773  1.00  0.00    -0.390 OA
ATOM     23  H4  UNL     1      -3.014  -0.286  -0.934  1.00  0.00     0.210 HD
ENDBRANCH  15  22
TORSDOF 3
