REMARK  3 active torsions:
REMARK  status: ('A' for Active; 'I' for Inactive)
REMARK    1  A    between atoms: C15_17  and  O3_18 
REMARK    2  A    between atoms: C15_17  and  C16_20 
REMARK    3  A    between atoms: C16_20  and  O4_21 
ROOT
HETATM    1  C1  UNL     1      -2.091   2.105  -0.014  1.00  0.00     0.013 C 
HETATM    2  C2  UNL     1      -1.886   0.747   0.562  1.00  0.00     0.022 C 
HETATM    3  C3  UNL     1      -3.301   0.181   0.785  1.00  0.00     0.007 C 
HETATM    4  C4  UNL     1      -3.266  -1.010   1.714  1.00  0.00     0.001 C 
HETATM    5  C5  UNL     1      -2.000  -1.778   1.430  1.00  0.00     0.003 C 
HETATM    6  C6  UNL     1      -1.686  -1.568  -0.050  1.00  0.00     0.045 C 
HETATM    7  C7  UNL     1      -0.993  -0.188  -0.102  1.00  0.00     0.132 C 
HETATM    8  O1  UNL     1       0.148  -0.449   0.709  1.00  0.00    -0.225 OA
HETATM    9  O2  UNL     1       0.818   0.630   0.962  1.00  0.00    -0.229 OA
HETATM   10  C8  UNL     1       2.108   0.428   0.417  1.00  0.00     0.096 C 
HETATM   11  C9  UNL     1       2.968   1.541   0.921  1.00  0.00     0.041 C 
HETATM   12  C10 UNL     1       4.332   0.909   1.117  1.00  0.00     0.003 C 
HETATM   13  C11 UNL     1       4.116  -0.553   1.334  1.00  0.00     0.003 C 
HETATM   14  C12 UNL     1       2.698  -0.861   0.901  1.00  0.00     0.041 C 
HETATM   15  C13 UNL     1       1.963   0.505  -1.069  1.00  0.00     0.044 C 
HETATM   16  C14 UNL     1       0.952  -0.443  -1.638  1.00  0.00     0.046 C 
HETATM   17  C15 UNL     1      -0.484   0.087  -1.459  1.00  0.00     0.113 C 
ENDROOT
BRANCH  17  18
HETATM   18  O3  UNL     1      -0.458   1.386  -1.879  1.00  0.00    -0.384 OA
ATOM     19  H3  UNL     1      -0.130   1.563  -2.753  1.00  0.00     0.210 HD
ENDBRANCH  17  18
BRANCH  17  20
HETATM   20  C16 UNL     1      -1.254  -0.666  -2.550  1.00  0.00     0.205 C 
BRANCH  20  21
HETATM   21  O4  UNL     1      -2.529  -0.200  -2.722  1.00  0.00    -0.398 OA
ATOM     22  H4  UNL     1      -3.006  -0.667  -3.398  1.00  0.00     0.209 HD
ENDBRANCH  20  21
ENDBRANCH  17  20
TORSDOF 3
