REMARK  7 active torsions:
REMARK  status: ('A' for Active; 'I' for Inactive)
REMARK    1  A    between atoms: C4_10  and  S1_11 
REMARK    2  A    between atoms: S1_11  and  C5_12 
REMARK    3  A    between atoms: C9_17  and  C10_18 
REMARK    4  A    between atoms: C10_18  and  N4_19 
REMARK    5  A    between atoms: C10_18  and  C11_23 
REMARK    6  A    between atoms: C11_23  and  O1_24 
REMARK    7  A    between atoms: O1_24  and  N5_25 
REMARK       I    between atoms: N5_25  and  C12_27 
ROOT
HETATM    1  C5  UNL     1       0.228  -1.332  -0.207  1.00  0.00     0.064 C 
HETATM    2  C6  UNL     1       0.492  -2.285   0.911  1.00  0.00     0.053 C 
HETATM    3  C7  UNL     1      -0.019  -3.605   0.288  1.00  0.00     0.171 C 
HETATM    4  F1  UNL     1       0.792  -3.921  -0.784  1.00  0.00    -0.249 F 
HETATM    5  C8  UNL     1      -1.354  -3.168  -0.263  1.00  0.00     0.045 C 
HETATM    6  C9  UNL     1      -1.040  -1.793  -0.828  1.00  0.00     0.035 C 
ENDROOT
BRANCH   1   7
HETATM    7  S1  UNL     1       0.392   0.394   0.133  1.00  0.00    -0.088 SA
BRANCH   7   8
HETATM    8  C4  UNL     1       2.043   0.978   0.235  1.00  0.00     0.147 A 
HETATM    9  N3  UNL     1       3.136   0.194   0.087  1.00  0.00    -0.325 N 
HETATM   10  C3  UNL     1       4.347   0.754   0.057  1.00  0.00     0.121 A 
ATOM     11  H3  UNL     1       3.035  -0.817  -0.001  1.00  0.00     0.169 HD
HETATM   12  C2  UNL     1       4.545   2.123   0.179  1.00  0.00     0.093 A 
HETATM   13  N2  UNL     1       5.523  -0.063  -0.157  1.00  0.00    -0.083 NA
HETATM   14  C1  UNL     1       3.429   2.909   0.336  1.00  0.00     0.103 A 
HETATM   15  N1  UNL     1       3.519   4.180   0.436  1.00  0.00    -0.385 N 
HETATM   16  N7  UNL     1       2.248   2.290   0.357  1.00  0.00    -0.323 N 
ATOM     17  H12 UNL     1       4.422   4.653   0.420  1.00  0.00     0.157 HD
ATOM     18  H11 UNL     1       2.691   4.763   0.553  1.00  0.00     0.157 HD
ATOM     19  H7  UNL     1       1.422   2.876   0.478  1.00  0.00     0.169 HD
ENDBRANCH   7   8
ENDBRANCH   1   7
BRANCH   6  20
HETATM   20  C10 UNL     1      -2.187  -0.888  -0.824  1.00  0.00     0.215 C 
BRANCH  20  21
HETATM   21  N4  UNL     1      -3.322  -1.467  -1.463  1.00  0.00    -0.072 N 
ATOM     22  H43 UNL     1      -3.097  -1.777  -2.408  1.00  0.00     0.274 HD
ATOM     23  H42 UNL     1      -3.560  -2.369  -1.051  1.00  0.00     0.274 HD
ATOM     24  H41 UNL     1      -4.123  -0.835  -1.460  1.00  0.00     0.274 HD
ENDBRANCH  20  21
BRANCH  20  25
HETATM   25  C11 UNL     1      -2.625  -0.331   0.523  1.00  0.00     0.234 C 
BRANCH  25  26
HETATM   26  O1  UNL     1      -3.671   0.539   0.087  1.00  0.00    -0.275 OA
BRANCH  26  27
HETATM   27  N5  UNL     1      -3.365   1.791   0.238  1.00  0.00    -0.219 N 
HETATM   28  C12 UNL     1      -4.131   2.885   0.634  1.00  0.00     0.352 C 
HETATM   29  N6  UNL     1      -3.528   4.221   0.605  1.00  0.00    -0.038 NA
HETATM   30  O2  UNL     1      -5.322   2.846   1.005  1.00  0.00    -0.249 OA
ATOM     31  H5  UNL     1      -2.392   2.013   0.030  1.00  0.00     0.199 HD
ENDBRANCH  26  27
ENDBRANCH  25  26
ENDBRANCH  20  25
ENDBRANCH   6  20
TORSDOF 7
