REMARK  8 active torsions:
REMARK  status: ('A' for Active; 'I' for Inactive)
REMARK    1  A    between atoms: C3_6  and  C4_7 
REMARK    2  A    between atoms: C4_7  and  C5_8 
REMARK    3  A    between atoms: C4_7  and  C8_21 
REMARK    4  A    between atoms: C5_8  and  C6_10 
REMARK       I    between atoms: C6_10  and  N2_12 
REMARK    5  A    between atoms: N2_12  and  N3_14 
REMARK       I    between atoms: N3_14  and  C7_16 
REMARK    6  A    between atoms: C8_21  and  O4_22 
REMARK    7  A    between atoms: C8_21  and  N6_24 
REMARK    8  A    between atoms: N6_24  and  C9_26 
ROOT
HETATM    1  C4  UNL     1      -0.665   0.824   0.517  1.00  0.00     0.169 C 
ENDROOT
BRANCH   1   2
HETATM    2  C3  UNL     1      -1.416   1.977  -0.116  1.00  0.00     0.089 A 
HETATM    3  N1  UNL     1      -2.536   1.950  -0.834  1.00  0.00    -0.261 N 
HETATM    4  O1  UNL     1      -2.855   3.168  -1.194  1.00  0.00    -0.239 OA
ATOM      5  H1  UNL     1      -3.065   1.110  -1.068  1.00  0.00     0.194 HD
HETATM    6  C2  UNL     1      -1.977   4.028  -0.738  1.00  0.00     0.113 A 
HETATM    7  C1  UNL     1      -2.007   5.497  -0.944  1.00  0.00     0.082 C 
HETATM    8  C13 UNL     1      -1.039   3.309  -0.044  1.00  0.00     0.172 A 
HETATM    9  F1  UNL     1       0.036   3.804   0.585  1.00  0.00    -0.201 F 
ENDBRANCH   1   2
BRANCH   1  10
HETATM   10  C5  UNL     1       0.692   0.857  -0.070  1.00  0.00     0.232 C 
HETATM   11  O2  UNL     1       0.782   1.392  -1.232  1.00  0.00    -0.286 OA
BRANCH  10  12
HETATM   12  C6  UNL     1       1.903   0.359   0.528  1.00  0.00     0.306 C 
HETATM   13  O3  UNL     1       2.028  -0.125   1.673  1.00  0.00    -0.263 OA
HETATM   14  N2  UNL     1       3.129   0.401  -0.228  1.00  0.00    -0.261 N 
ATOM     15  H2  UNL     1       3.099   0.784  -1.173  1.00  0.00     0.190 HD
BRANCH  14  16
HETATM   16  N3  UNL     1       4.341  -0.048   0.256  1.00  0.00    -0.271 N 
HETATM   17  C7  UNL     1       4.544  -1.176   1.065  1.00  0.00     0.200 C 
HETATM   18  N4  UNL     1       5.381  -1.132   2.057  1.00  0.00    -0.372 N 
HETATM   19  N5  UNL     1       3.861  -2.395   0.848  1.00  0.00    -0.062 NA
ATOM     20  H42 UNL     1       5.874  -0.253   2.214  1.00  0.00     0.158 HD
ATOM     21  H41 UNL     1       5.529  -1.952   2.645  1.00  0.00     0.158 HD
ATOM     22  H3  UNL     1       5.168   0.492   0.001  1.00  0.00     0.189 HD
ENDBRANCH  14  16
ENDBRANCH  10  12
ENDBRANCH   1  10
BRANCH   1  23
HETATM   23  C8  UNL     1      -1.451  -0.414   0.127  1.00  0.00     0.237 C 
BRANCH  23  24
HETATM   24  O4  UNL     1      -2.763  -0.202   0.651  1.00  0.00    -0.376 OA
ATOM     25  H4  UNL     1      -3.255  -0.977   0.407  1.00  0.00     0.212 HD
ENDBRANCH  23  24
BRANCH  23  26
HETATM   26  N6  UNL     1      -1.015  -1.621   0.790  1.00  0.00    -0.343 N 
ATOM     27  H6  UNL     1      -0.307  -1.606   1.524  1.00  0.00     0.164 HD
BRANCH  26  28
HETATM   28  C9  UNL     1      -1.631  -2.841   0.360  1.00  0.00     0.144 A 
HETATM   29  C10 UNL     1      -2.586  -3.015  -0.605  1.00  0.00     0.058 A 
HETATM   30  C11 UNL     1      -2.873  -4.359  -0.671  1.00  0.00     0.029 A 
HETATM   31  C12 UNL     1      -2.053  -4.960   0.287  1.00  0.00     0.144 A 
HETATM   32  O5  UNL     1      -1.363  -4.013   0.843  1.00  0.00    -0.306 OA
ENDBRANCH  26  28
ENDBRANCH  23  26
ENDBRANCH   1  23
TORSDOF 8
