REMARK  6 active torsions:
REMARK  status: ('A' for Active; 'I' for Inactive)
REMARK       I    between atoms: N1_1  and  C1_5 
REMARK       I    between atoms: C1_5  and  N2_6 
REMARK       I    between atoms: C1_5  and  N3_10 
REMARK       I    between atoms: N3_10  and  C2_12 
REMARK    1  A    between atoms: C2_12  and  C3_14 
REMARK    2  A    between atoms: C3_14  and  C4_15 
REMARK       I    between atoms: C4_15  and  N4_17 
REMARK    3  A    between atoms: N4_17  and  C5_19 
REMARK    4  A    between atoms: C8_22  and  N5_23 
REMARK    5  A    between atoms: N5_23  and  N6_25 
REMARK    6  A    between atoms: N6_25  and  C9_27 
ROOT
HETATM    1  C5  UNL     1      -0.312   1.221   0.173  1.00  0.00     0.037 A 
HETATM    2  C6  UNL     1      -1.179   2.320   0.287  1.00  0.00     0.032 A 
HETATM    3  C7  UNL     1      -2.494   2.289  -0.080  1.00  0.00     0.036 A 
HETATM    4  C8  UNL     1      -3.006   1.121  -0.592  1.00  0.00     0.086 A 
HETATM    5  C13 UNL     1      -2.189   0.026  -0.718  1.00  0.00     0.146 A 
HETATM    6  F1  UNL     1      -2.684  -1.137  -1.224  1.00  0.00    -0.204 F 
HETATM    7  C14 UNL     1      -0.840   0.080  -0.334  1.00  0.00     0.074 A 
ENDROOT
BRANCH   1   8
HETATM    8  N4  UNL     1       0.983   1.379   0.601  1.00  0.00    -0.327 N 
HETATM    9  C4  UNL     1       2.078   0.570   0.257  1.00  0.00     0.230 C 
HETATM   10  O2  UNL     1       1.927  -0.396  -0.511  1.00  0.00    -0.273 OA
ATOM     11  H4  UNL     1       1.168   2.160   1.230  1.00  0.00     0.169 HD
BRANCH   9  12
HETATM   12  C3  UNL     1       3.448   0.856   0.812  1.00  0.00     0.205 C 
BRANCH  12  13
HETATM   13  C2  UNL     1       4.402  -0.119   0.308  1.00  0.00     0.229 C 
HETATM   14  N3  UNL     1       5.764  -0.034   0.708  1.00  0.00    -0.311 N 
HETATM   15  C1  UNL     1       6.757  -0.979   0.237  1.00  0.00     0.482 C 
ATOM     16  H3  UNL     1       6.050   0.711   1.343  1.00  0.00     0.166 HD
HETATM   17  N1  UNL     1       7.730  -0.271  -0.573  1.00  0.00    -0.033 N 
HETATM   18  N2  UNL     1       7.395  -1.694   1.299  1.00  0.00    -0.033 N 
ATOM     19  H13 UNL     1       8.316   0.342  -0.006  1.00  0.00     0.278 HD
ATOM     20  H12 UNL     1       8.454  -0.898  -0.924  1.00  0.00     0.278 HD
ATOM     21  H11 UNL     1       7.275   0.239  -1.330  1.00  0.00     0.278 HD
ATOM     22  H23 UNL     1       8.119  -2.321   0.948  1.00  0.00     0.278 HD
ATOM     23  H22 UNL     1       7.981  -1.081   1.866  1.00  0.00     0.278 HD
ATOM     24  H21 UNL     1       6.711  -2.192   1.869  1.00  0.00     0.278 HD
HETATM   25  O1  UNL     1       4.067  -1.034  -0.467  1.00  0.00    -0.273 OA
ENDBRANCH  12  13
ENDBRANCH   9  12
ENDBRANCH   1   8
BRANCH   4  26
HETATM   26  N5  UNL     1      -4.384   1.054  -0.988  1.00  0.00    -0.297 N 
ATOM     27  H5  UNL     1      -4.963   1.887  -0.879  1.00  0.00     0.187 HD
BRANCH  26  28
HETATM   28  N6  UNL     1      -4.961  -0.084  -1.508  1.00  0.00    -0.299 N 
ATOM     29  H6  UNL     1      -4.729  -0.401  -2.449  1.00  0.00     0.187 HD
BRANCH  28  30
HETATM   30  C9  UNL     1      -5.882  -0.805  -0.711  1.00  0.00     0.066 A 
HETATM   31  C10 UNL     1      -6.231  -0.424   0.562  1.00  0.00     0.051 A 
HETATM   32  C11 UNL     1      -7.134  -1.166   1.291  1.00  0.00     0.109 A 
HETATM   33  N7  UNL     1      -7.653  -2.263   0.715  1.00  0.00    -0.312 N 
HETATM   34  N8  UNL     1      -7.324  -2.641  -0.513  1.00  0.00    -0.310 N 
ATOM     35  H7  UNL     1      -8.323  -2.825   1.240  1.00  0.00     0.186 HD
HETATM   36  C12 UNL     1      -6.454  -1.943  -1.241  1.00  0.00     0.138 A 
ATOM     37  H8  UNL     1      -7.745  -3.482  -0.907  1.00  0.00     0.186 HD
ENDBRANCH  28  30
ENDBRANCH  26  28
ENDBRANCH   4  26
TORSDOF 6
