REMARK  8 active torsions:
REMARK  status: ('A' for Active; 'I' for Inactive)
REMARK    1  A    between atoms: N1_1  and  C1_4 
REMARK    2  A    between atoms: C4_9  and  N3_10 
REMARK    3  A    between atoms: N3_10  and  N4_12 
REMARK    4  A    between atoms: N4_12  and  C5_14 
REMARK    5  A    between atoms: C8_17  and  C9_18 
REMARK       I    between atoms: C9_18  and  N5_20 
REMARK    6  A    between atoms: N5_20  and  C10_22 
REMARK    7  A    between atoms: C10_22  and  C11_23 
REMARK    8  A    between atoms: C10_22  and  C12_25 
ROOT
HETATM    1  C5  UNL     1       0.905  -0.193  -1.377  1.00  0.00     0.063 A 
HETATM    2  C6  UNL     1       0.146  -0.926  -2.264  1.00  0.00     0.035 A 
HETATM    3  C7  UNL     1      -1.214  -1.122  -2.070  1.00  0.00     0.037 A 
HETATM    4  C8  UNL     1      -1.825  -0.572  -0.965  1.00  0.00     0.100 A 
HETATM    5  N6  UNL     1      -1.073   0.145  -0.103  1.00  0.00    -0.359 N 
ATOM      6  H6  UNL     1      -1.522   0.555   0.716  1.00  0.00     0.165 HD
HETATM    7  C13 UNL     1       0.258   0.341  -0.285  1.00  0.00     0.119 A 
ENDROOT
BRANCH   1   8
HETATM    8  N4  UNL     1       2.297   0.020  -1.555  1.00  0.00    -0.298 N 
ATOM      9  H4  UNL     1       2.779  -0.375  -2.363  1.00  0.00     0.187 HD
BRANCH   8  10
HETATM   10  N3  UNL     1       3.001   0.775  -0.615  1.00  0.00    -0.284 N 
ATOM     11  H3  UNL     1       2.609   1.667  -0.314  1.00  0.00     0.188 HD
BRANCH  10  12
HETATM   12  C4  UNL     1       4.237   0.356  -0.060  1.00  0.00     0.137 A 
HETATM   13  C3  UNL     1       4.782  -0.846  -0.456  1.00  0.00     0.137 A 
HETATM   14  N2  UNL     1       5.962  -1.224   0.087  1.00  0.00    -0.368 N 
HETATM   15  C2  UNL     1       6.579  -0.439   0.989  1.00  0.00     0.136 A 
ATOM     16  H2  UNL     1       6.387  -2.109  -0.189  1.00  0.00     0.164 HD
HETATM   17  C1  UNL     1       6.023   0.768   1.380  1.00  0.00     0.116 A 
HETATM   18  N7  UNL     1       4.834   1.157   0.838  1.00  0.00    -0.326 N 
ATOM     19  H7  UNL     1       4.405   2.042   1.110  1.00  0.00     0.169 HD
BRANCH  17  20
HETATM   20  N1  UNL     1       6.619   1.499   2.235  1.00  0.00    -0.384 N 
ATOM     21  H12 UNL     1       7.509   1.208   2.640  1.00  0.00     0.157 HD
ATOM     22  H11 UNL     1       6.210   2.388   2.523  1.00  0.00     0.157 HD
ENDBRANCH  17  20
ENDBRANCH  10  12
ENDBRANCH   8  10
ENDBRANCH   1   8
BRANCH   4  23
HETATM   23  C9  UNL     1      -3.250  -0.757  -0.731  1.00  0.00     0.269 C 
HETATM   24  O1  UNL     1      -3.921  -1.430  -1.553  1.00  0.00    -0.266 OA
HETATM   25  N5  UNL     1      -3.920  -0.210   0.391  1.00  0.00    -0.336 N 
ATOM     26  H5  UNL     1      -3.381   0.337   1.062  1.00  0.00     0.164 HD
BRANCH  25  27
HETATM   27  C10 UNL     1      -5.329  -0.392   0.626  1.00  0.00     0.247 C 
BRANCH  27  28
HETATM   28  C11 UNL     1      -5.597  -1.038   1.941  1.00  0.00     0.267 C 
HETATM   29  O2  UNL     1      -4.637  -1.324   2.633  1.00  0.00    -0.304 OA
ENDBRANCH  27  28
BRANCH  27  30
HETATM   30  C12 UNL     1      -5.976   0.944   0.648  1.00  0.00     0.203 C 
HETATM   31  O3  UNL     1      -5.313   2.000   0.479  1.00  0.00    -0.646 OA
HETATM   32  O4  UNL     1      -7.360   1.025   0.863  1.00  0.00    -0.646 OA
ENDBRANCH  27  30
ENDBRANCH  25  27
ENDBRANCH   4  23
TORSDOF 8
