REMARK  7 active torsions:
REMARK  status: ('A' for Active; 'I' for Inactive)
REMARK    1  A    between atoms: C2_4  and  C3_6 
REMARK    2  A    between atoms: C3_6  and  N3_8 
REMARK    3  A    between atoms: C3_6  and  C8_13 
REMARK    4  A    between atoms: N3_8  and  C5_10 
REMARK    5  A    between atoms: N4_15  and  C10_16 
REMARK    6  A    between atoms: C15_23  and  N6_24 
REMARK    7  A    between atoms: N6_24  and  O1_26 
ROOT
HETATM    1  C8  UNL     1      -0.410  -0.164   0.589  1.00  0.00     0.041 A 
HETATM    2  C9  UNL     1       0.755  -0.455  -0.094  1.00  0.00     0.124 A 
HETATM    3  N4  UNL     1       1.817  -0.055   0.603  1.00  0.00    -0.296 N 
HETATM    4  N5  UNL     1       1.366   0.475   1.694  1.00  0.00    -0.281 N 
ATOM      5  H5  UNL     1       1.957   0.871   2.425  1.00  0.00     0.189 HD
HETATM    6  C15 UNL     1       0.026   0.440   1.746  1.00  0.00     0.150 A 
ENDROOT
BRANCH   1   7
HETATM    7  C3  UNL     1      -1.791  -0.466   0.156  1.00  0.00     0.111 C 
HETATM    8  C4  UNL     1      -1.624  -1.285  -1.145  1.00  0.00     0.052 C 
BRANCH   7   9
HETATM    9  C2  UNL     1      -2.380  -1.447   1.120  1.00  0.00     0.121 C 
HETATM   10  N1  UNL     1      -2.427  -2.710   0.858  1.00  0.00    -0.384 N 
HETATM   11  C1  UNL     1      -2.992  -3.629   1.795  1.00  0.00     0.147 C 
ATOM     12  H1  UNL     1      -2.057  -3.056  -0.027  1.00  0.00     0.160 HD
HETATM   13  N2  UNL     1      -2.924  -1.080   2.380  1.00  0.00    -0.085 NA
ENDBRANCH   7   9
BRANCH   7  14
HETATM   14  N3  UNL     1      -2.683   0.583   0.033  1.00  0.00    -0.400 N 
ATOM     15  H3  UNL     1      -3.516   0.523   0.619  1.00  0.00     0.155 HD
BRANCH  14  16
HETATM   16  C5  UNL     1      -2.603   1.687  -0.763  1.00  0.00     0.070 C 
HETATM   17  C6  UNL     1      -1.430   2.650  -0.508  1.00  0.00     0.031 C 
HETATM   18  C7  UNL     1      -2.664   1.527  -2.258  1.00  0.00     0.031 C 
ENDBRANCH  14  16
ENDBRANCH   7  14
ENDBRANCH   1   7
BRANCH   6  19
HETATM   19  N6  UNL     1      -0.755   0.967   2.824  1.00  0.00    -0.251 N 
ATOM     20  H6  UNL     1      -1.491   0.424   3.276  1.00  0.00     0.196 HD
BRANCH  19  21
HETATM   21  O1  UNL     1      -0.477   2.143   3.180  1.00  0.00    -0.288 OA
ATOM     22  H1  UNL     1      -0.995   2.493   3.895  1.00  0.00     0.244 HD
ENDBRANCH  19  21
ENDBRANCH   6  19
BRANCH   3  23
HETATM   23  C10 UNL     1       3.208  -0.219   0.152  1.00  0.00     0.107 C 
HETATM   24  C11 UNL     1       3.958   1.095   0.323  1.00  0.00     0.027 C 
HETATM   25  C12 UNL     1       5.192   0.858  -0.526  1.00  0.00     0.002 C 
HETATM   26  C13 UNL     1       4.768  -0.111  -1.602  1.00  0.00     0.002 C 
HETATM   27  C14 UNL     1       3.305  -0.446  -1.319  1.00  0.00     0.027 C 
ENDBRANCH   3  23
TORSDOF 7
