REMARK  5 active torsions:
REMARK  status: ('A' for Active; 'I' for Inactive)
REMARK    1  A    between atoms: C2_2  and  C3_3 
REMARK    2  A    between atoms: C8_8  and  C9_9 
REMARK    3  A    between atoms: C9_9  and  C10_11 
REMARK    4  A    between atoms: C10_11  and  N1_12 
REMARK    5  A    between atoms: C12_18  and  N4_19 
ROOT
HETATM    1  C3  UNL     1      -1.798   0.876   0.827  1.00  0.00    -0.003 C 
HETATM    2  C4  UNL     1      -2.721  -0.118   0.219  1.00  0.00    -0.007 C 
HETATM    3  C5  UNL     1      -2.380  -0.130  -1.258  1.00  0.00     0.005 C 
HETATM    4  C6  UNL     1      -0.939   0.310  -1.317  1.00  0.00     0.009 C 
HETATM    5  C7  UNL     1      -0.487   0.567   0.092  1.00  0.00     0.036 C 
HETATM    6  C8  UNL     1       0.204  -0.605   0.740  1.00  0.00     0.164 C 
HETATM    7  C13 UNL     1      -0.353  -1.936   0.302  1.00  0.00     0.085 C 
HETATM    8  C14 UNL     1      -1.490  -2.054   1.270  1.00  0.00     0.164 C 
HETATM    9  C15 UNL     1      -2.756  -1.448   0.851  1.00  0.00     0.040 C 
HETATM   10  O2  UNL     1      -0.913  -1.502   2.404  1.00  0.00    -0.234 OA
HETATM   11  O3  UNL     1      -0.090  -0.584   2.074  1.00  0.00    -0.221 OA
ENDROOT
BRANCH   6  12
HETATM   12  C9  UNL     1       1.666  -0.591   0.529  1.00  0.00     0.183 C 
HETATM   13  O1  UNL     1       2.395  -0.567   1.505  1.00  0.00    -0.293 OA
BRANCH  12  14
HETATM   14  C10 UNL     1       2.288  -0.606  -0.823  1.00  0.00     0.230 C 
BRANCH  14  15
HETATM   15  N1  UNL     1       3.730  -0.590  -0.698  1.00  0.00    -0.170 N 
HETATM   16  C11 UNL     1       4.494  -1.694  -0.616  1.00  0.00     0.218 A 
HETATM   17  N2  UNL     1       5.800  -1.313  -0.509  1.00  0.00    -0.281 N 
HETATM   18  N3  UNL     1       5.846   0.008  -0.525  1.00  0.00    -0.131 N 
ATOM     19  H2  UNL     1       6.602  -1.939  -0.430  1.00  0.00     0.188 HD
HETATM   20  C12 UNL     1       4.574   0.452  -0.641  1.00  0.00     0.694 A 
ATOM     21  H3  UNL     1       6.685   0.585  -0.462  1.00  0.00     0.205 HD
BRANCH  20  22
HETATM   22  N4  UNL     1       4.209   1.678  -0.691  1.00  0.00    -0.233 N 
ATOM     23  H42 UNL     1       3.250   2.013  -0.778  1.00  0.00     0.174 HD
ATOM     24  H41 UNL     1       4.850   2.470  -0.648  1.00  0.00     0.174 HD
ENDBRANCH  20  22
ENDBRANCH  14  15
ENDBRANCH  12  14
ENDBRANCH   6  12
BRANCH   1  25
HETATM   25  C2  UNL     1      -2.134   2.305   0.518  1.00  0.00     0.001 C 
HETATM   26  C1  UNL     1      -3.479   2.737   0.977  1.00  0.00     0.005 C 
ENDBRANCH   1  25
TORSDOF 5
