REMARK  5 active torsions:
REMARK  status: ('A' for Active; 'I' for Inactive)
REMARK    1  A    between atoms: C2_2  and  N1_3 
REMARK    2  A    between atoms: N1_3  and  C4_5 
REMARK    3  A    between atoms: C4_5  and  C5_6 
REMARK    4  A    between atoms: C5_6  and  S1_7 
REMARK    5  A    between atoms: S1_7  and  C6_8 
ROOT
HETATM    1  C6  UNL     1       0.286  -1.541  -0.783  1.00  0.00     0.147 A 
HETATM    2  N2  UNL     1      -0.384  -2.694  -0.581  1.00  0.00    -0.323 N 
ATOM      3  H2  UNL     1       0.090  -3.567  -0.813  1.00  0.00     0.169 HD
HETATM    4  C7  UNL     1      -1.632  -2.769  -0.096  1.00  0.00     0.149 A 
HETATM    5  N3  UNL     1      -2.307  -4.014   0.099  1.00  0.00    -0.080 NA
HETATM    6  C8  UNL     1      -2.235  -1.566   0.204  1.00  0.00     0.125 A 
HETATM    7  C9  UNL     1      -1.584  -0.368   0.012  1.00  0.00     0.176 A 
HETATM    8  N4  UNL     1      -0.322  -0.383  -0.484  1.00  0.00    -0.315 N 
ATOM      9  H4  UNL     1       0.171   0.497  -0.632  1.00  0.00     0.170 HD
HETATM   10  O1  UNL     1      -2.084   0.894   0.274  1.00  0.00    -0.319 OA
HETATM   11  C10 UNL     1      -3.421   1.394   0.244  1.00  0.00     0.081 C 
HETATM   12  C11 UNL     1      -3.849   1.519  -1.216  1.00  0.00     0.051 C 
HETATM   13  C12 UNL     1      -3.430   2.753   0.867  1.00  0.00     0.051 C 
HETATM   14  C13 UNL     1      -4.390   0.532   0.928  1.00  0.00     0.027 C 
HETATM   15  C14 UNL     1      -4.470  -0.785   1.137  1.00  0.00     0.087 C 
HETATM   16  N5  UNL     1      -3.557  -1.761   0.714  1.00  0.00    -0.360 N 
ATOM     17  H5  UNL     1      -3.874  -2.728   0.778  1.00  0.00     0.165 HD
ENDROOT
BRANCH   1  18
HETATM   18  S1  UNL     1       1.938  -1.691  -1.428  1.00  0.00    -0.089 SA
BRANCH  18  19
HETATM   19  C5  UNL     1       3.096  -1.804  -0.041  1.00  0.00     0.127 C 
BRANCH  19  20
HETATM   20  C4  UNL     1       3.194  -0.484   0.695  1.00  0.00     0.073 C 
BRANCH  20  21
HETATM   21  N1  UNL     1       3.674   0.577  -0.094  1.00  0.00    -0.378 N 
HETATM   22  C3  UNL     1       2.847   1.656  -0.413  1.00  0.00     0.154 C 
BRANCH  21  23
HETATM   23  C2  UNL     1       5.014   0.559  -0.527  1.00  0.00     0.058 C 
HETATM   24  C1  UNL     1       5.833   1.620   0.168  1.00  0.00     0.055 C 
ENDBRANCH  21  23
ENDBRANCH  20  21
ENDBRANCH  19  20
ENDBRANCH  18  19
ENDBRANCH   1  18
TORSDOF 5
