REMARK  6 active torsions:
REMARK  status: ('A' for Active; 'I' for Inactive)
REMARK    1  A    between atoms: C2_2  and  C3_3 
REMARK    2  A    between atoms: C3_3  and  C4_4 
REMARK    3  A    between atoms: C4_4  and  N1_5 
REMARK    4  A    between atoms: C5_10  and  N4_11 
REMARK    5  A    between atoms: N4_11  and  O1_13 
REMARK    6  A    between atoms: C6_15  and  C7_16 
ROOT
HETATM    1  N1  UNL     1       2.378  -1.205   0.909  1.00  0.00    -0.274 N 
HETATM    2  N2  UNL     1       2.989  -2.340   0.545  1.00  0.00    -0.239 N 
ATOM      3  H2  UNL     1       3.929  -2.603   0.840  1.00  0.00     0.208 HD
HETATM    4  N3  UNL     1       2.240  -3.066  -0.229  1.00  0.00    -0.268 N 
ATOM      5  H3  UNL     1       2.493  -3.969  -0.631  1.00  0.00     0.190 HD
HETATM    6  C5  UNL     1       1.095  -2.434  -0.406  1.00  0.00     0.169 A 
HETATM    7  C6  UNL     1       1.181  -1.236   0.327  1.00  0.00     0.127 A 
ENDROOT
BRANCH   7   8
HETATM    8  C7  UNL     1       0.080  -0.280   0.317  1.00  0.00     0.344 C 
HETATM    9  N5  UNL     1      -0.400   0.200   1.583  1.00  0.00    -0.326 N 
HETATM   10  C8  UNL     1      -1.603   0.936   1.211  1.00  0.00     0.256 C 
ATOM     11  H5  UNL     1       0.001   0.061   2.511  1.00  0.00     0.165 HD
HETATM   12  O2  UNL     1      -2.020   1.978   1.758  1.00  0.00    -0.271 OA
HETATM   13  C9  UNL     1      -2.176   0.169   0.074  1.00  0.00     0.208 C 
HETATM   14  C10 UNL     1      -2.663   1.066  -1.013  1.00  0.00     0.049 C 
HETATM   15  C14 UNL     1      -3.275  -0.708   0.651  1.00  0.00     0.049 C 
HETATM   16  N6  UNL     1      -1.118  -0.730  -0.363  1.00  0.00    -0.031 N 
HETATM   17  C11 UNL     1      -3.917   0.599  -1.680  1.00  0.00     0.003 C 
HETATM   18  C12 UNL     1      -5.022   0.255  -0.738  1.00  0.00     0.000 C 
HETATM   19  C13 UNL     1      -4.533   0.134   0.701  1.00  0.00     0.003 C 
ATOM     20  H62 UNL     1      -1.018  -0.783  -1.377  1.00  0.00     0.281 HD
ATOM     21  H61 UNL     1      -1.330  -1.716  -0.211  1.00  0.00     0.281 HD
ENDBRANCH   7   8
BRANCH   1  22
HETATM   22  C4  UNL     1       2.916  -0.158   1.717  1.00  0.00     0.150 C 
BRANCH  22  23
HETATM   23  C3  UNL     1       3.687   0.868   0.917  1.00  0.00     0.021 C 
BRANCH  23  24
HETATM   24  C2  UNL     1       4.852   0.279   0.183  1.00  0.00    -0.003 C 
HETATM   25  C1  UNL     1       5.538   1.396  -0.574  1.00  0.00     0.005 C 
ENDBRANCH  23  24
ENDBRANCH  22  23
ENDBRANCH   1  22
BRANCH   6  26
HETATM   26  N4  UNL     1       0.022  -2.920  -1.194  1.00  0.00    -0.250 N 
ATOM     27  H4  UNL     1      -0.861  -3.163  -0.745  1.00  0.00     0.196 HD
BRANCH  26  28
HETATM   28  O1  UNL     1       0.140  -3.054  -2.421  1.00  0.00    -0.288 OA
ATOM     29  H1  UNL     1      -0.579  -3.380  -2.949  1.00  0.00     0.244 HD
ENDBRANCH  26  28
ENDBRANCH   6  26
TORSDOF 6
