REMARK  7 active torsions:
REMARK  status: ('A' for Active; 'I' for Inactive)
REMARK    1  A    between atoms: C3_3  and  O1_4 
REMARK    2  A    between atoms: C3_3  and  N1_6 
REMARK    3  A    between atoms: C6_9  and  N2_10 
REMARK       I    between atoms: N2_10  and  C7_12 
REMARK       I    between atoms: C7_12  and  N3_14 
REMARK    4  A    between atoms: C8_16  and  C9_17 
REMARK    5  A    between atoms: C9_17  and  C10_18 
REMARK    6  A    between atoms: C10_18  and  N4_19 
REMARK    7  A    between atoms: C10_18  and  C11_23 
ROOT
HETATM    1  C1  UNL     1       6.977   1.146  -0.791  1.00  0.00     0.016 C 
HETATM    2  C2  UNL     1       6.147   0.799   0.025  1.00  0.00    -0.054 C 
HETATM    3  C3  UNL     1       5.128   0.369   0.995  1.00  0.00     0.437 C 
ENDROOT
BRANCH   3   4
HETATM    4  O1  UNL     1       5.662  -0.769   1.626  1.00  0.00    -0.359 OA
ATOM      5  H1  UNL     1       5.004  -1.047   2.252  1.00  0.00     0.213 HD
ENDBRANCH   3   4
BRANCH   3   6
HETATM    6  N1  UNL     1       3.947  -0.006   0.261  1.00  0.00     0.129 N 
HETATM    7  C4  UNL     1       3.370   1.066  -0.471  1.00  0.00     0.279 C 
HETATM    8  C5  UNL     1       2.033   0.845  -1.057  1.00  0.00     0.055 C 
HETATM    9  C6  UNL     1       1.154  -0.118  -0.307  1.00  0.00     0.089 C 
HETATM   10  C12 UNL     1       1.972  -1.325   0.058  1.00  0.00     0.055 C 
HETATM   11  C13 UNL     1       3.043  -0.821   1.004  1.00  0.00     0.279 C 
BRANCH   9  12
HETATM   12  N2  UNL     1       0.012  -0.453  -1.143  1.00  0.00    -0.338 N 
HETATM   13  C7  UNL     1      -1.334  -0.197  -0.776  1.00  0.00     0.320 C 
HETATM   14  O2  UNL     1      -1.525   0.345   0.328  1.00  0.00    -0.247 OA
HETATM   15  N3  UNL     1      -2.374  -0.540  -1.622  1.00  0.00    -0.323 N 
HETATM   16  C8  UNL     1      -3.592  -0.354  -1.404  1.00  0.00     0.068 C 
ATOM     17  H3  UNL     1      -2.125  -0.986  -2.505  1.00  0.00     0.169 HD
ATOM     18  H2  UNL     1       0.189  -0.897  -2.044  1.00  0.00     0.164 HD
BRANCH  16  19
HETATM   19  C9  UNL     1      -4.127   0.269  -0.202  1.00  0.00     0.088 C 
BRANCH  19  20
HETATM   20  C10 UNL     1      -5.642   0.381  -0.176  1.00  0.00     0.288 C 
BRANCH  20  21
HETATM   21  N4  UNL     1      -5.974   1.040   1.103  1.00  0.00    -0.065 N 
ATOM     22  H43 UNL     1      -5.585   0.567   1.919  1.00  0.00     0.275 HD
ATOM     23  H42 UNL     1      -5.496   1.931   1.239  1.00  0.00     0.275 HD
ATOM     24  H41 UNL     1      -6.991   1.115   1.120  1.00  0.00     0.275 HD
ENDBRANCH  20  21
BRANCH  20  25
HETATM   25  C11 UNL     1      -6.345  -0.894  -0.224  1.00  0.00     0.204 C 
HETATM   26  O3  UNL     1      -6.278  -1.665  -1.204  1.00  0.00    -0.646 OA
HETATM   27  O4  UNL     1      -7.129  -1.295   0.847  1.00  0.00    -0.646 OA
ENDBRANCH  20  25
ENDBRANCH  19  20
ENDBRANCH  16  19
ENDBRANCH   9  12
ENDBRANCH   3   6
TORSDOF 7
