REMARK  11 active torsions:
REMARK  status: ('A' for Active; 'I' for Inactive)
REMARK    1  A    between atoms: C2_2  and  C3_3 
REMARK    2  A    between atoms: C3_3  and  C4_4 
REMARK    3  A    between atoms: C5_5  and  C6_6 
REMARK    4  A    between atoms: C8_8  and  C9_9 
REMARK    5  A    between atoms: C9_9  and  O1_10 
REMARK    6  A    between atoms: C9_9  and  C10_12 
REMARK    7  A    between atoms: C10_12  and  O2_13 
REMARK    8  A    between atoms: C14_19  and  C15_20 
REMARK    9  A    between atoms: C15_20  and  O4_21 
REMARK   10  A    between atoms: C15_20  and  C16_23 
REMARK   11  A    between atoms: C16_23  and  O5_24 
ROOT
HETATM    1  C6  UNL     1       0.132  -0.506   0.554  1.00  0.00     0.077 C 
HETATM    2  C7  UNL     1      -0.809  -1.548  -0.074  1.00  0.00     0.058 C 
HETATM    3  C8  UNL     1      -2.217  -0.939   0.038  1.00  0.00     0.090 C 
HETATM    4  C11 UNL     1      -2.604  -0.323  -1.266  1.00  0.00     0.043 C 
HETATM    5  C12 UNL     1      -2.540   1.181  -0.974  1.00  0.00     0.035 C 
HETATM    6  C13 UNL     1      -1.585   1.153   0.224  1.00  0.00     0.130 C 
HETATM    7  O3  UNL     1      -2.217   0.110   0.950  1.00  0.00    -0.372 OA
HETATM    8  C14 UNL     1      -0.193   0.780  -0.196  1.00  0.00     0.061 C 
ENDROOT
BRANCH   3   9
HETATM    9  C9  UNL     1      -3.108  -2.068   0.486  1.00  0.00     0.176 C 
BRANCH   9  10
HETATM   10  O1  UNL     1      -3.110  -3.098  -0.421  1.00  0.00    -0.390 OA
ATOM     11  H1  UNL     1      -3.672  -3.810  -0.138  1.00  0.00     0.210 HD
ENDBRANCH   9  10
BRANCH   9  12
HETATM   12  C10 UNL     1      -4.471  -1.646   0.934  1.00  0.00     0.198 C 
BRANCH  12  13
HETATM   13  O2  UNL     1      -5.306  -1.204  -0.067  1.00  0.00    -0.398 OA
ATOM     14  H2  UNL     1      -6.172  -0.936   0.218  1.00  0.00     0.209 HD
ENDBRANCH  12  13
ENDBRANCH   9  12
ENDBRANCH   3   9
BRANCH   1  15
HETATM   15  C5  UNL     1       1.522  -0.816   0.292  1.00  0.00    -0.101 C 
HETATM   16  C4  UNL     1       2.685  -1.054   0.076  1.00  0.00    -0.106 C 
BRANCH  16  17
HETATM   17  C3  UNL     1       4.101  -1.317  -0.186  1.00  0.00     0.093 C 
BRANCH  17  18
HETATM   18  C2  UNL     1       4.883  -0.096   0.253  1.00  0.00     0.007 C 
HETATM   19  C1  UNL     1       6.356  -0.389  -0.028  1.00  0.00     0.006 C 
ENDBRANCH  17  18
ENDBRANCH  16  17
ENDBRANCH   1  15
BRANCH   8  20
HETATM   20  C15 UNL     1       0.832   1.844   0.052  1.00  0.00     0.149 C 
BRANCH  20  21
HETATM   21  O4  UNL     1       0.896   2.161   1.386  1.00  0.00    -0.393 OA
ATOM     22  H4  UNL     1       1.546   2.836   1.543  1.00  0.00     0.210 HD
ENDBRANCH  20  21
BRANCH  20  23
HETATM   23  C16 UNL     1       0.581   3.089  -0.756  1.00  0.00     0.196 C 
BRANCH  23  24
HETATM   24  O5  UNL     1      -0.574   3.760  -0.462  1.00  0.00    -0.398 OA
ATOM     25  H5  UNL     1      -0.732   4.546  -0.972  1.00  0.00     0.209 HD
ENDBRANCH  23  24
ENDBRANCH  20  23
ENDBRANCH   8  20
TORSDOF 11
