REMARK  6 active torsions:
REMARK  status: ('A' for Active; 'I' for Inactive)
REMARK    1  A    between atoms: O1_2  and  C2_3 
REMARK    2  A    between atoms: C2_3  and  C3_4 
REMARK    3  A    between atoms: C2_3  and  C10_14 
REMARK       I    between atoms: C3_4  and  N1_6 
REMARK    4  A    between atoms: N1_6  and  C4_8 
REMARK    5  A    between atoms: C11_16  and  C12_17 
REMARK    6  A    between atoms: N2_21  and  O6_22 
ROOT
HETATM    1  C2  UNL     1       1.296  -1.199   0.441  1.00  0.00     0.257 C 
ENDROOT
BRANCH   1   2
HETATM    2  O1  UNL     1       1.961  -2.192  -0.267  1.00  0.00    -0.377 OA
HETATM    3  C1  UNL     1       2.459  -3.160   0.589  1.00  0.00     0.202 C 
ENDBRANCH   1   2
BRANCH   1   4
HETATM    4  C3  UNL     1      -0.081  -1.101  -0.055  1.00  0.00     0.251 C 
HETATM    5  O2  UNL     1      -0.465  -1.858  -0.980  1.00  0.00    -0.271 OA
HETATM    6  N1  UNL     1      -1.032  -0.175   0.462  1.00  0.00    -0.354 N 
ATOM      7  H1  UNL     1      -0.749   0.453   1.214  1.00  0.00     0.162 HD
BRANCH   6   8
HETATM    8  C4  UNL     1      -2.387  -0.095  -0.043  1.00  0.00     0.084 C 
HETATM    9  C5  UNL     1      -3.315  -0.492   1.072  1.00  0.00     0.025 C 
HETATM   10  C6  UNL     1      -4.733  -0.353   0.558  1.00  0.00     0.002 C 
HETATM   11  C7  UNL     1      -4.959   1.136   0.336  1.00  0.00     0.000 C 
HETATM   12  C8  UNL     1      -4.049   1.654  -0.742  1.00  0.00     0.002 C 
HETATM   13  C9  UNL     1      -2.613   1.301  -0.540  1.00  0.00     0.025 C 
ENDBRANCH   6   8
ENDBRANCH   1   4
BRANCH   1  14
HETATM   14  C10 UNL     1       2.065   0.095   0.283  1.00  0.00     0.260 C 
HETATM   15  O3  UNL     1       2.188   0.480  -1.048  1.00  0.00    -0.349 OA
HETATM   16  C11 UNL     1       3.428   1.147  -1.128  1.00  0.00     0.239 C 
HETATM   17  C13 UNL     1       4.291   0.229  -0.282  1.00  0.00     0.167 C 
HETATM   18  N2  UNL     1       3.383  -0.092   0.804  1.00  0.00    -0.164 NA
BRANCH  16  19
HETATM   19  C12 UNL     1       3.902   1.212  -2.531  1.00  0.00     0.204 C 
HETATM   20  O4  UNL     1       5.000   1.784  -2.736  1.00  0.00    -0.646 OA
HETATM   21  O5  UNL     1       3.222   0.691  -3.605  1.00  0.00    -0.646 OA
ENDBRANCH  16  19
BRANCH  18  22
HETATM   22  O6  UNL     1       3.673   0.735   1.832  1.00  0.00    -0.310 OA
ATOM     23  H6  UNL     1       4.549   0.611   2.178  1.00  0.00     0.237 HD
ENDBRANCH  18  22
ENDBRANCH   1  14
TORSDOF 6
