REMARK  5 active torsions:
REMARK  status: ('A' for Active; 'I' for Inactive)
REMARK    1  A    between atoms: O1_2  and  N1_3 
REMARK       I    between atoms: N1_3  and  C2_5 
REMARK       I    between atoms: C2_5  and  N2_7 
REMARK    2  A    between atoms: N2_7  and  C3_9 
REMARK    3  A    between atoms: C7_14  and  C8_15 
REMARK    4  A    between atoms: C8_15  and  O4_16 
REMARK    5  A    between atoms: C8_15  and  C9_18 
ROOT
HETATM    1  C3  UNL     1       0.969   0.368   0.768  1.00  0.00     0.090 C 
HETATM    2  C4  UNL     1       0.470   1.633   0.137  1.00  0.00     0.033 C 
HETATM    3  C5  UNL     1      -0.504   1.463  -0.975  1.00  0.00     0.081 C 
HETATM    4  C6  UNL     1      -1.424   0.337  -0.861  1.00  0.00     0.138 C 
HETATM    5  O3  UNL     1      -1.749  -0.191  -1.936  1.00  0.00    -0.297 OA
HETATM    6  C7  UNL     1      -2.075  -0.334   0.293  1.00  0.00     0.057 C 
HETATM    7  C10 UNL     1      -1.739  -1.808   0.323  1.00  0.00     0.021 C 
HETATM    8  C11 UNL     1      -0.318  -1.809   0.837  1.00  0.00     0.008 C 
HETATM    9  C12 UNL     1      -0.044  -0.464   1.447  1.00  0.00     0.010 C 
HETATM   10  C13 UNL     1      -1.411   0.166   1.540  1.00  0.00     0.027 C 
ENDROOT
BRANCH   1  11
HETATM   11  N2  UNL     1       1.770  -0.318  -0.223  1.00  0.00    -0.336 N 
HETATM   12  C2  UNL     1       3.166  -0.500  -0.093  1.00  0.00     0.340 C 
HETATM   13  N1  UNL     1       3.884  -1.177  -1.095  1.00  0.00    -0.217 N 
HETATM   14  O2  UNL     1       3.750  -0.057   0.911  1.00  0.00    -0.245 OA
ATOM     15  H1  UNL     1       3.398  -1.538  -1.916  1.00  0.00     0.199 HD
ATOM     16  H2  UNL     1       1.306  -0.687  -1.053  1.00  0.00     0.164 HD
BRANCH  13  17
HETATM   17  O1  UNL     1       5.220  -1.348  -0.968  1.00  0.00    -0.281 OA
HETATM   18  C1  UNL     1       5.824  -0.101  -1.061  1.00  0.00     0.237 C 
ENDBRANCH  13  17
ENDBRANCH   1  11
BRANCH   6  19
HETATM   19  C8  UNL     1      -3.570  -0.197   0.288  1.00  0.00     0.234 C 
BRANCH  19  20
HETATM   20  O4  UNL     1      -4.036  -0.779  -0.897  1.00  0.00    -0.384 OA
ATOM     21  H4  UNL     1      -4.982  -0.692  -0.900  1.00  0.00     0.210 HD
ENDBRANCH  19  20
BRANCH  19  22
HETATM   22  C9  UNL     1      -4.036   1.186   0.413  1.00  0.00     0.204 C 
HETATM   23  O5  UNL     1      -3.735   1.874   1.415  1.00  0.00    -0.646 OA
HETATM   24  O6  UNL     1      -4.808   1.731  -0.579  1.00  0.00    -0.646 OA
ENDBRANCH  19  22
ENDBRANCH   6  19
TORSDOF 5
