REMARK  3 active torsions:
REMARK  status: ('A' for Active; 'I' for Inactive)
REMARK    1  A    between atoms: C1_2  and  C2_3 
REMARK       I    between atoms: C1_2  and  N3_18 
REMARK    2  A    between atoms: C2_3  and  C3_4 
REMARK    3  A    between atoms: C3_4  and  N1_5 
ROOT
HETATM    1  N1  UNL     1      -1.074   0.637   1.420  1.00  0.00    -0.268 N 
HETATM    2  C4  UNL     1      -1.324   2.022   1.177  1.00  0.00     0.326 C 
HETATM    3  O2  UNL     1      -0.556   2.990   1.490  1.00  0.00    -0.247 OA
HETATM    4  N2  UNL     1      -2.586   2.103   0.525  1.00  0.00    -0.324 N 
ATOM      5  H2  UNL     1      -3.177   2.931   0.458  1.00  0.00     0.165 HD
HETATM    6  C5  UNL     1      -2.875   0.814  -0.019  1.00  0.00     0.116 C 
HETATM    7  C6  UNL     1      -4.349   0.487  -0.032  1.00  0.00     0.041 C 
HETATM    8  C7  UNL     1      -4.566  -0.564  -1.102  1.00  0.00     0.003 C 
HETATM    9  C8  UNL     1      -4.534   0.167  -2.438  1.00  0.00     0.000 C 
HETATM   10  C9  UNL     1      -3.277   1.008  -2.485  1.00  0.00     0.003 C 
HETATM   11  C10 UNL     1      -2.296   0.617  -1.405  1.00  0.00     0.041 C 
HETATM   12  C11 UNL     1      -2.184  -0.112   0.914  1.00  0.00     0.256 C 
HETATM   13  O3  UNL     1      -2.436  -1.283   1.244  1.00  0.00    -0.270 OA
ENDROOT
BRANCH   1  14
HETATM   14  C3  UNL     1       0.103   0.092   2.068  1.00  0.00     0.146 C 
BRANCH  14  15
HETATM   15  C2  UNL     1       1.131  -0.186   0.982  1.00  0.00     0.123 C 
BRANCH  15  16
HETATM   16  C1  UNL     1       2.378  -0.749   1.550  1.00  0.00     0.221 C 
HETATM   17  O1  UNL     1       2.425  -0.917   2.798  1.00  0.00    -0.273 OA
HETATM   18  N3  UNL     1       3.463  -1.078   0.703  1.00  0.00    -0.348 N 
HETATM   19  C12 UNL     1       4.692  -1.627   1.209  1.00  0.00     0.152 C 
HETATM   20  C15 UNL     1       3.343  -0.859  -0.724  1.00  0.00     0.152 C 
HETATM   21  C13 UNL     1       5.913  -1.097   0.470  1.00  0.00     0.187 C 
HETATM   22  O4  UNL     1       5.669  -0.994  -0.898  1.00  0.00    -0.388 OA
HETATM   23  C14 UNL     1       4.601  -0.146  -1.173  1.00  0.00     0.187 C 
ENDBRANCH  15  16
ENDBRANCH  14  15
ENDBRANCH   1  14
TORSDOF 3
