REMARK  3 active torsions:
REMARK  status: ('A' for Active; 'I' for Inactive)
REMARK    1  A    between atoms: C2_3  and  C3_4 
REMARK    2  A    between atoms: C5_10  and  C6_11 
REMARK    3  A    between atoms: C6_11  and  N4_12 
REMARK       I    between atoms: N5_15  and  C9_16 
REMARK       I    between atoms: C9_16  and  N6_18 
ROOT
HETATM    1  N1  UNL     1       5.547   0.739  -2.618  1.00  0.00    -0.197 NA
HETATM    2  C1  UNL     1       5.654   0.614  -1.482  1.00  0.00     0.065 C 
HETATM    3  C2  UNL     1       5.813   0.461  -0.055  1.00  0.00     0.183 C 
ENDROOT
BRANCH   3   4
HETATM    4  C3  UNL     1       5.056  -0.755   0.396  1.00  0.00     0.048 A 
HETATM    5  N2  UNL     1       5.574  -1.949   0.726  1.00  0.00    -0.304 N 
HETATM    6  N3  UNL     1       4.600  -2.762   1.070  1.00  0.00    -0.311 N 
ATOM      7  H2  UNL     1       6.566  -2.187   0.712  1.00  0.00     0.186 HD
HETATM    8  C4  UNL     1       3.409  -2.138   0.982  1.00  0.00     0.118 A 
ATOM      9  H3  UNL     1       4.728  -3.731   1.363  1.00  0.00     0.186 HD
HETATM   10  C5  UNL     1       3.667  -0.852   0.552  1.00  0.00     0.012 A 
BRANCH  10  11
HETATM   11  C6  UNL     1       2.780   0.281   0.280  1.00  0.00     0.314 C 
BRANCH  11  12
HETATM   12  N4  UNL     1       1.398   0.011   0.484  1.00  0.00     0.096 N 
HETATM   13  C7  UNL     1       0.871  -1.017  -0.360  1.00  0.00     0.292 C 
HETATM   14  C8  UNL     1      -0.179  -0.492  -1.314  1.00  0.00     0.158 C 
HETATM   15  N5  UNL     1      -1.246   0.101  -0.493  1.00  0.00    -0.331 N 
HETATM   16  C9  UNL     1      -2.568  -0.173  -0.870  1.00  0.00     0.320 C 
HETATM   17  C14 UNL     1      -0.817   0.913   0.620  1.00  0.00     0.158 C 
HETATM   18  O1  UNL     1      -2.698  -0.918  -1.914  1.00  0.00    -0.247 OA
HETATM   19  N6  UNL     1      -3.771   0.250  -0.271  1.00  0.00    -0.334 N 
HETATM   20  C10 UNL     1      -5.074  -0.118  -0.808  1.00  0.00     0.127 C 
HETATM   21  C13 UNL     1      -3.922   1.069   0.904  1.00  0.00     0.127 C 
HETATM   22  C11 UNL     1      -6.066   0.180   0.268  1.00  0.00     0.022 C 
HETATM   23  C12 UNL     1      -5.359   0.891   1.364  1.00  0.00     0.022 C 
HETATM   24  C15 UNL     1       0.664   1.253   0.374  1.00  0.00     0.292 C 
ENDBRANCH  11  12
ENDBRANCH  10  11
ENDBRANCH   3   4
TORSDOF 3
