REMARK  5 active torsions:
REMARK  status: ('A' for Active; 'I' for Inactive)
REMARK    1  A    between atoms: C2_2  and  C3_3 
REMARK    2  A    between atoms: C3_3  and  C6_6 
REMARK    3  A    between atoms: C6_6  and  N1_7 
REMARK       I    between atoms: N1_7  and  C7_9 
REMARK    4  A    between atoms: C7_9  and  C8_11 
REMARK    5  A    between atoms: N2_14  and  C11_15 
ROOT
HETATM    1  C8  UNL     1       0.686   0.446  -0.597  1.00  0.00     0.081 C 
HETATM    2  C9  UNL     1       0.242   1.848  -0.884  1.00  0.00     0.033 C 
HETATM    3  C10 UNL     1      -1.289   1.826  -0.923  1.00  0.00     0.118 C 
HETATM    4  N2  UNL     1      -1.774   0.652  -0.292  1.00  0.00    -0.408 N 
HETATM    5  C19 UNL     1      -1.183   0.309   0.945  1.00  0.00     0.118 C 
HETATM    6  C20 UNL     1       0.334   0.164   0.853  1.00  0.00     0.033 C 
ENDROOT
BRANCH   1   7
HETATM    7  C7  UNL     1       2.136   0.216  -0.857  1.00  0.00     0.221 C 
HETATM    8  N1  UNL     1       3.099   0.927  -0.129  1.00  0.00    -0.360 N 
ATOM      9  H1  UNL     1       2.710   1.587   0.544  1.00  0.00     0.162 HD
HETATM   10  O1  UNL     1       2.414  -0.619  -1.733  1.00  0.00    -0.273 OA
BRANCH   8  11
HETATM   11  C6  UNL     1       4.518   0.896  -0.158  1.00  0.00     0.131 C 
BRANCH  11  12
HETATM   12  C3  UNL     1       5.236  -0.329   0.243  1.00  0.00    -0.032 C 
HETATM   13  C4  UNL     1       4.951  -0.640   1.689  1.00  0.00     0.016 C 
HETATM   14  C5  UNL     1       5.085  -1.543  -0.639  1.00  0.00     0.016 C 
BRANCH  12  15
HETATM   15  C2  UNL     1       6.753   0.003   0.128  1.00  0.00     0.006 C 
HETATM   16  C1  UNL     1       7.593  -1.151   0.569  1.00  0.00     0.006 C 
ENDBRANCH  12  15
ENDBRANCH  11  12
ENDBRANCH   8  11
ENDBRANCH   1   7
BRANCH   4  17
HETATM   17  C11 UNL     1      -3.140   0.336  -0.510  1.00  0.00     0.079 C 
HETATM   18  C12 UNL     1      -4.096   1.332   0.014  1.00  0.00     0.025 C 
HETATM   19  C13 UNL     1      -4.974   0.860   1.145  1.00  0.00     0.002 C 
HETATM   20  C14 UNL     1      -6.389   0.602   0.726  1.00  0.00     0.000 C 
HETATM   21  C15 UNL     1      -6.682  -0.667   0.047  1.00  0.00     0.000 C 
HETATM   22  C16 UNL     1      -5.695  -1.770   0.142  1.00  0.00     0.000 C 
HETATM   23  C17 UNL     1      -4.621  -1.584  -0.912  1.00  0.00     0.002 C 
HETATM   24  C18 UNL     1      -3.383  -1.094  -0.179  1.00  0.00     0.025 C 
ENDBRANCH   4  17
TORSDOF 5
