REMARK  6 active torsions:
REMARK  status: ('A' for Active; 'I' for Inactive)
REMARK       I    between atoms: C2_2  and  N1_4 
REMARK    1  A    between atoms: N1_4  and  C3_5 
REMARK    2  A    between atoms: C5_11  and  C6_12 
REMARK    3  A    between atoms: C6_12  and  C7_13 
REMARK    4  A    between atoms: C7_13  and  C8_14 
REMARK    5  A    between atoms: C8_14  and  O3_16 
REMARK    6  A    between atoms: O3_16  and  C9_17 
ROOT
HETATM    1  C3  UNL     1       3.396  -0.453  -0.481  1.00  0.00     0.205 A 
HETATM    2  N2  UNL     1       4.259  -1.525  -0.604  1.00  0.00    -0.274 N 
ATOM      3  H2  UNL     1       5.258  -1.448  -0.797  1.00  0.00     0.189 HD
HETATM    4  N3  UNL     1       3.618  -2.648  -0.439  1.00  0.00    -0.309 N 
ATOM      5  H3  UNL     1       4.051  -3.570  -0.486  1.00  0.00     0.186 HD
HETATM    6  C4  UNL     1       2.313  -2.434  -0.199  1.00  0.00     0.119 A 
HETATM    7  C5  UNL     1       2.166  -1.073  -0.222  1.00  0.00     0.019 A 
ENDROOT
BRANCH   7   8
HETATM    8  C6  UNL     1       0.880  -0.330   0.020  1.00  0.00     0.055 C 
BRANCH   8   9
HETATM    9  C7  UNL     1      -0.202  -1.355   0.199  1.00  0.00     0.116 C 
BRANCH   9  10
HETATM   10  C8  UNL     1      -1.536  -0.829   0.491  1.00  0.00     0.259 C 
HETATM   11  O2  UNL     1      -2.054  -1.040   1.646  1.00  0.00    -0.265 OA
BRANCH  10  12
HETATM   12  O3  UNL     1      -2.339  -0.097  -0.367  1.00  0.00    -0.311 OA
BRANCH  12  13
HETATM   13  C9  UNL     1      -3.637   0.349   0.036  1.00  0.00     0.060 C 
HETATM   14  C10 UNL     1      -3.608   1.216   1.253  1.00  0.00     0.045 C 
HETATM   15  C11 UNL     1      -4.151   1.231  -1.113  1.00  0.00     0.045 C 
HETATM   16  C12 UNL     1      -4.601  -0.801   0.145  1.00  0.00     0.045 C 
ENDBRANCH  12  13
ENDBRANCH  10  12
ENDBRANCH   9  10
ENDBRANCH   8   9
ENDBRANCH   7   8
BRANCH   1  17
HETATM   17  N1  UNL     1       3.633   0.708  -0.567  1.00  0.00    -0.350 NA
HETATM   18  C2  UNL     1       4.004   1.955  -0.681  1.00  0.00     0.289 C 
HETATM   19  C1  UNL     1       4.889   2.591   0.381  1.00  0.00     0.135 C 
HETATM   20  O1  UNL     1       3.709   2.771  -1.622  1.00  0.00    -0.258 OA
ENDBRANCH   1  17
TORSDOF 6
