REMARK  2 active torsions:
REMARK  status: ('A' for Active; 'I' for Inactive)
REMARK    1  A    between atoms: C1_2  and  C2_3 
REMARK       I    between atoms: C1_2  and  N1_8 
REMARK       I    between atoms: N2_12  and  C10_13 
REMARK    2  A    between atoms: C10_13  and  C11_15 
ROOT
HETATM    1  O1  UNL     1      -3.871  -1.160  -1.896  1.00  0.00    -0.273 OA
HETATM    2  C1  UNL     1      -3.619  -0.321  -0.978  1.00  0.00     0.224 C 
HETATM    3  N1  UNL     1      -2.273  -0.104  -0.620  1.00  0.00    -0.351 N 
HETATM    4  C7  UNL     1      -1.805   0.815   0.405  1.00  0.00     0.132 C 
HETATM    5  C8  UNL     1      -0.420   0.373   0.590  1.00  0.00     0.029 C 
HETATM    6  C9  UNL     1       0.644   1.315   0.940  1.00  0.00     0.132 C 
HETATM    7  N2  UNL     1       1.802   0.688   0.273  1.00  0.00    -0.351 N 
HETATM    8  C10 UNL     1       3.151   1.044   0.550  1.00  0.00     0.224 C 
HETATM    9  O2  UNL     1       3.396   1.947   1.407  1.00  0.00    -0.273 OA
HETATM   10  C16 UNL     1       1.338  -0.309  -0.680  1.00  0.00     0.132 C 
HETATM   11  C17 UNL     1      -0.049   0.172  -0.904  1.00  0.00     0.029 C 
HETATM   12  C18 UNL     1      -1.113  -0.780  -1.242  1.00  0.00     0.132 C 
ENDROOT
BRANCH   8  13
HETATM   13  C11 UNL     1       4.328   0.410  -0.118  1.00  0.00     0.081 C 
HETATM   14  C12 UNL     1       5.559   1.112   0.326  1.00  0.00     0.041 C 
HETATM   15  C13 UNL     1       6.775   0.301   0.547  1.00  0.00     0.233 C 
HETATM   16  N3  UNL     1       6.504  -1.049   1.005  1.00  0.00    -0.075 N 
HETATM   17  C14 UNL     1       5.681  -1.653  -0.027  1.00  0.00     0.233 C 
ATOM     18  H32 UNL     1       7.345  -1.584   1.224  1.00  0.00     0.277 HD
ATOM     19  H31 UNL     1       6.089  -1.090   1.936  1.00  0.00     0.277 HD
HETATM   20  C15 UNL     1       4.279  -1.060   0.163  1.00  0.00     0.041 C 
ENDBRANCH   8  13
BRANCH   2  21
HETATM   21  C2  UNL     1      -4.782   0.353  -0.368  1.00  0.00     0.078 C 
HETATM   22  C3  UNL     1      -4.990   0.085   1.076  1.00  0.00     0.014 C 
HETATM   23  C4  UNL     1      -6.455  -0.185   1.229  1.00  0.00     0.001 C 
HETATM   24  C5  UNL     1      -6.853  -0.820  -0.070  1.00  0.00     0.001 C 
HETATM   25  C6  UNL     1      -6.070  -0.005  -1.103  1.00  0.00     0.014 C 
ENDBRANCH   2  21
TORSDOF 2
