REMARK  3 active torsions:
REMARK  status: ('A' for Active; 'I' for Inactive)
REMARK    1  A    between atoms: C1_2  and  C2_3 
REMARK       I    between atoms: C1_2  and  N1_6 
REMARK    2  A    between atoms: C11_13  and  O2_14 
REMARK       I    between atoms: N2_16  and  C12_17 
REMARK    3  A    between atoms: C12_17  and  C13_19 
ROOT
HETATM    1  O1  UNL     1       2.310   1.320  -2.082  1.00  0.00    -0.273 OA
HETATM    2  C1  UNL     1       2.557   1.007  -0.867  1.00  0.00     0.226 C 
HETATM    3  N1  UNL     1       1.972  -0.171  -0.370  1.00  0.00    -0.321 N 
HETATM    4  C5  UNL     1       1.136  -0.976  -1.235  1.00  0.00     0.153 C 
HETATM    5  C6  UNL     1       0.056  -1.736  -0.496  1.00  0.00     0.106 C 
HETATM    6  C7  UNL     1       0.445  -3.134  -0.172  1.00  0.00     0.027 C 
HETATM    7  C8  UNL     1       0.782  -3.475   1.214  1.00  0.00     0.004 C 
HETATM    8  C9  UNL     1       0.975  -2.398   2.189  1.00  0.00     0.030 C 
HETATM    9  C10 UNL     1       0.865  -1.000   1.660  1.00  0.00     0.136 C 
HETATM   10  C11 UNL     1       2.162  -0.636   0.984  1.00  0.00     0.245 C 
HETATM   11  N2  UNL     1      -0.261  -1.032   0.713  1.00  0.00    -0.337 N 
HETATM   12  C12 UNL     1      -1.495  -0.413   1.029  1.00  0.00     0.225 C 
HETATM   13  O3  UNL     1      -1.573   0.144   2.156  1.00  0.00    -0.273 OA
ENDROOT
BRANCH  12  14
HETATM   14  C13 UNL     1      -2.678  -0.377   0.136  1.00  0.00     0.078 C 
HETATM   15  C14 UNL     1      -2.332   0.459  -1.051  1.00  0.00     0.014 C 
HETATM   16  C15 UNL     1      -3.368   1.572  -1.251  1.00  0.00     0.001 C 
HETATM   17  C16 UNL     1      -3.347   2.365   0.018  1.00  0.00     0.000 C 
HETATM   18  C17 UNL     1      -4.024   1.540   1.077  1.00  0.00     0.001 C 
HETATM   19  C18 UNL     1      -3.883   0.071   0.893  1.00  0.00     0.014 C 
ENDBRANCH  12  14
BRANCH  10  20
HETATM   20  O2  UNL     1       3.000  -1.762   0.895  1.00  0.00    -0.374 OA
ATOM     21  H2  UNL     1       3.125  -2.068   1.786  1.00  0.00     0.212 HD
ENDBRANCH  10  20
BRANCH   2  22
HETATM   22  C2  UNL     1       3.435   1.942  -0.147  1.00  0.00     0.078 A 
HETATM   23  C3  UNL     1       4.446   2.748  -0.960  1.00  0.00     0.015 A 
HETATM   24  C4  UNL     1       3.246   3.396  -0.427  1.00  0.00     0.015 A 
ENDBRANCH   2  22
TORSDOF 3
