REMARK  3 active torsions:
REMARK  status: ('A' for Active; 'I' for Inactive)
REMARK    1  A    between atoms: N2_8  and  C7_9 
REMARK    2  A    between atoms: C7_9  and  C8_10 
REMARK       I    between atoms: C8_10  and  N3_12 
REMARK    3  A    between atoms: N3_12  and  C9_14 
ROOT
HETATM    1  C8  UNL     1      -0.027  -0.393   0.443  1.00  0.00     0.246 C 
HETATM    2  O1  UNL     1      -0.176   0.842   0.417  1.00  0.00    -0.272 OA
HETATM    3  N3  UNL     1      -1.130  -1.248   0.244  1.00  0.00    -0.355 N 
ATOM      4  H3  UNL     1      -0.932  -2.248   0.277  1.00  0.00     0.162 HD
ENDROOT
BRANCH   1   5
HETATM    5  C7  UNL     1       1.289  -0.986   0.682  1.00  0.00     0.374 C 
BRANCH   5   6
HETATM    6  N2  UNL     1       2.389  -0.073   0.875  1.00  0.00     0.099 N 
HETATM    7  C6  UNL     1       3.558  -0.754   1.362  1.00  0.00     0.308 C 
HETATM    8  C5  UNL     1       4.778  -0.692   0.538  1.00  0.00     0.251 C 
HETATM    9  N1  UNL     1       5.436   0.579   0.758  1.00  0.00     0.091 N 
HETATM   10  C4  UNL     1       4.452  -0.635  -0.950  1.00  0.00     0.045 C 
HETATM   11  C1  UNL     1       6.853   0.455   0.835  1.00  0.00     0.310 C 
HETATM   12  C2  UNL     1       4.962   1.503  -0.217  1.00  0.00     0.279 C 
HETATM   13  C3  UNL     1       3.839   0.775  -0.967  1.00  0.00     0.044 C 
HETATM   14  C19 UNL     1       2.596   0.857  -0.163  1.00  0.00     0.279 C 
ENDBRANCH   5   6
ENDBRANCH   1   5
BRANCH   3  15
HETATM   15  C9  UNL     1      -2.492  -0.886   0.001  1.00  0.00     0.088 C 
HETATM   16  C10 UNL     1      -2.593   0.051  -1.154  1.00  0.00     0.030 C 
HETATM   17  C11 UNL     1      -4.001   0.249  -1.650  1.00  0.00    -0.012 C 
HETATM   18  C12 UNL     1      -4.996  -0.753  -1.168  1.00  0.00     0.010 C 
HETATM   19  C18 UNL     1      -4.544   1.530  -1.037  1.00  0.00     0.010 C 
HETATM   20  C13 UNL     1      -5.346  -0.372   0.231  1.00  0.00    -0.010 C 
HETATM   21  C14 UNL     1      -4.594  -1.118   1.297  1.00  0.00     0.011 C 
HETATM   22  C17 UNL     1      -4.928   1.078   0.349  1.00  0.00    -0.010 C 
HETATM   23  C15 UNL     1      -3.225  -0.422   1.223  1.00  0.00     0.009 C 
HETATM   24  C16 UNL     1      -3.652   1.022   1.168  1.00  0.00     0.011 C 
ENDBRANCH   3  15
TORSDOF 3
