REMARK  4 active torsions:
REMARK  status: ('A' for Active; 'I' for Inactive)
REMARK    1  A    between atoms: C4_4  and  C5_5 
REMARK    2  A    between atoms: C6_6  and  C7_7 
REMARK    3  A    between atoms: C7_7  and  N1_9 
REMARK       I    between atoms: N1_9  and  C9_11 
REMARK       I    between atoms: C9_11  and  N2_13 
REMARK    4  A    between atoms: N3_16  and  C12_17 
ROOT
HETATM    1  C1  UNL     1       9.020  -5.175   1.144  1.00  0.00     0.027 C 
HETATM    2  C2  UNL     1       8.249  -4.288   0.870  1.00  0.00    -0.025 C 
HETATM    3  C3  UNL     1       7.338  -3.257   0.533  1.00  0.00    -0.002 C 
HETATM    4  C4  UNL     1       6.553  -2.379   0.263  1.00  0.00    -0.001 C 
ENDROOT
BRANCH   4   5
HETATM    5  C5  UNL     1       5.620  -1.353  -0.033  1.00  0.00    -0.012 C 
HETATM    6  C6  UNL     1       4.825  -0.475  -0.270  1.00  0.00    -0.067 C 
BRANCH   6   7
HETATM    7  C7  UNL     1       3.873   0.600  -0.536  1.00  0.00     0.163 C 
HETATM    8  C8  UNL     1       3.995   0.982  -1.997  1.00  0.00     0.046 C 
BRANCH   7   9
HETATM    9  N1  UNL     1       2.550   0.155  -0.196  1.00  0.00    -0.328 N 
HETATM   10  C9  UNL     1       1.704   0.820   0.715  1.00  0.00     0.319 C 
HETATM   11  O1  UNL     1       2.157   1.871   1.256  1.00  0.00    -0.247 OA
HETATM   12  N2  UNL     1       0.403   0.377   1.043  1.00  0.00    -0.331 N 
HETATM   13  C10 UNL     1      -0.163  -0.817   0.458  1.00  0.00     0.147 C 
HETATM   14  C18 UNL     1      -0.424   1.105   1.982  1.00  0.00     0.147 C 
HETATM   15  C11 UNL     1      -1.630  -0.933   0.726  1.00  0.00     0.137 C 
HETATM   16  N3  UNL     1      -2.363   0.277   0.770  1.00  0.00    -0.405 N 
HETATM   17  C17 UNL     1      -1.699   1.441   1.234  1.00  0.00     0.137 C 
ATOM     18  H1  UNL     1       2.201  -0.694  -0.641  1.00  0.00     0.165 HD
BRANCH  16  19
HETATM   19  C12 UNL     1      -3.348   0.472  -0.241  1.00  0.00     0.083 C 
HETATM   20  C13 UNL     1      -4.439  -0.602  -0.126  1.00  0.00     0.051 C 
HETATM   21  C14 UNL     1      -5.721   0.010  -0.671  1.00  0.00     0.169 C 
HETATM   22  O2  UNL     1      -5.458   0.801  -1.804  1.00  0.00    -0.391 OA
HETATM   23  C15 UNL     1      -4.862   2.008  -1.405  1.00  0.00     0.169 C 
HETATM   24  C16 UNL     1      -4.034   1.806  -0.157  1.00  0.00     0.051 C 
ENDBRANCH  16  19
ENDBRANCH   7   9
ENDBRANCH   6   7
ENDBRANCH   4   5
TORSDOF 4
