REMARK  5 active torsions:
REMARK  status: ('A' for Active; 'I' for Inactive)
REMARK    1  A    between atoms: C2_2  and  N1_3 
REMARK       I    between atoms: N1_3  and  C3_5 
REMARK    2  A    between atoms: C3_5  and  C4_7 
REMARK    3  A    between atoms: C4_7  and  O2_8 
REMARK    4  A    between atoms: C4_7  and  N2_10 
REMARK       I    between atoms: N3_16  and  C10_17 
REMARK    5  A    between atoms: C10_17  and  C11_19 
ROOT
HETATM    1  N2  UNL     1      -0.478  -1.045   0.296  1.00  0.00    -0.330 N 
HETATM    2  C5  UNL     1       0.535  -2.173   0.198  1.00  0.00     0.135 C 
HETATM    3  C6  UNL     1       1.457  -1.968   1.362  1.00  0.00     0.035 C 
HETATM    4  C7  UNL     1       0.662  -0.981   2.194  1.00  0.00     0.062 C 
HETATM    5  C8  UNL     1       0.315  -0.073   0.952  1.00  0.00     0.110 C 
HETATM    6  C9  UNL     1      -0.250   1.188   1.415  1.00  0.00     0.064 C 
HETATM    7  N3  UNL     1       1.654   0.041   0.367  1.00  0.00    -0.316 N 
HETATM    8  C10 UNL     1       2.116   0.974  -0.595  1.00  0.00     0.222 C 
HETATM    9  O3  UNL     1       3.340   0.857  -0.979  1.00  0.00    -0.273 OA
HETATM   10  C13 UNL     1       2.541  -1.004   0.935  1.00  0.00     0.036 C 
HETATM   11  C14 UNL     1       3.283  -0.439   2.117  1.00  0.00     0.039 C 
HETATM   12  C15 UNL     1       3.499  -1.566  -0.036  1.00  0.00     0.039 C 
ENDROOT
BRANCH   1  13
HETATM   13  C4  UNL     1      -1.753  -1.251  -0.215  1.00  0.00     0.209 C 
BRANCH  13  14
HETATM   14  C3  UNL     1      -2.930  -0.426  -0.265  1.00  0.00     0.292 C 
HETATM   15  N1  UNL     1      -4.148  -0.885  -0.863  1.00  0.00    -0.354 N 
ATOM     16  H1  UNL     1      -4.188  -1.822  -1.264  1.00  0.00     0.162 HD
HETATM   17  O1  UNL     1      -2.985   0.723   0.194  1.00  0.00    -0.264 OA
BRANCH  15  18
HETATM   18  C2  UNL     1      -5.309  -0.051  -0.907  1.00  0.00     0.118 C 
HETATM   19  C1  UNL     1      -5.106   1.240  -1.670  1.00  0.00     0.026 C 
ENDBRANCH  15  18
ENDBRANCH  13  14
BRANCH  13  20
HETATM   20  O2  UNL     1      -1.968  -2.422  -0.769  1.00  0.00    -0.342 OA
ATOM     21  H2  UNL     1      -1.191  -2.967  -0.736  1.00  0.00     0.219 HD
ENDBRANCH  13  20
ENDBRANCH   1  13
BRANCH   8  22
HETATM   22  C11 UNL     1       1.310   2.054  -1.183  1.00  0.00     0.098 C 
HETATM   23  C12 UNL     1       2.131   2.714  -2.309  1.00  0.00     0.014 C 
ENDBRANCH   8  22
TORSDOF 5
