REMARK  2 active torsions:
REMARK  status: ('A' for Active; 'I' for Inactive)
REMARK    1  A    between atoms: C5_6  and  C6_7 
REMARK       I    between atoms: N3_12  and  C9_13 
REMARK    2  A    between atoms: C9_13  and  C10_15 
ROOT
HETATM    1  C1  UNL     1       3.967  -3.195  -0.068  1.00  0.00     0.012 C 
HETATM    2  C2  UNL     1       3.181  -2.413  -0.540  1.00  0.00    -0.110 C 
HETATM    3  C3  UNL     1       2.264  -1.469  -1.113  1.00  0.00     0.104 C 
HETATM    4  C4  UNL     1       2.588  -0.030  -0.897  1.00  0.00     0.294 C 
HETATM    5  N1  UNL     1       1.353   0.681  -0.932  1.00  0.00     0.127 N 
HETATM    6  C5  UNL     1       1.281   1.642   0.108  1.00  0.00     0.315 C 
HETATM    7  C7  UNL     1      -0.010   2.435   0.125  1.00  0.00     0.065 C 
HETATM    8  C8  UNL     1      -1.036   1.696  -0.716  1.00  0.00     0.130 C 
HETATM    9  N3  UNL     1      -0.922   0.241  -0.454  1.00  0.00    -0.321 N 
HETATM   10  C9  UNL     1      -1.968  -0.374   0.221  1.00  0.00     0.225 C 
HETATM   11  O2  UNL     1      -1.942  -1.589   0.504  1.00  0.00    -0.273 OA
HETATM   12  C13 UNL     1       0.272  -0.296  -0.961  1.00  0.00     0.336 C 
HETATM   13  C14 UNL     1       0.848  -1.557  -0.495  1.00  0.00     0.017 C 
HETATM   14  C15 UNL     1       0.266  -2.815  -1.153  1.00  0.00     0.020 C 
HETATM   15  C16 UNL     1       1.079  -1.729   0.967  1.00  0.00     0.020 C 
ENDROOT
BRANCH   6  16
HETATM   16  C6  UNL     1       2.370   2.643  -0.055  1.00  0.00     0.264 C 
HETATM   17  N2  UNL     1       2.565   3.679   0.920  1.00  0.00    -0.060 NA
HETATM   18  O1  UNL     1       3.165   2.651  -1.021  1.00  0.00    -0.274 OA
ENDBRANCH   6  16
BRANCH  10  19
HETATM   19  C10 UNL     1      -3.216   0.329   0.670  1.00  0.00     0.070 C 
HETATM   20  C11 UNL     1      -3.993  -0.582   1.603  1.00  0.00     0.019 C 
HETATM   21  C12 UNL     1      -4.155   0.580  -0.499  1.00  0.00     0.019 C 
ENDBRANCH  10  19
TORSDOF 2
