REMARK  5 active torsions:
REMARK  status: ('A' for Active; 'I' for Inactive)
REMARK    1  A    between atoms: O1_2  and  C2_3 
REMARK    2  A    between atoms: C3_6  and  N2_7 
REMARK       I    between atoms: N2_7  and  C4_9 
REMARK       I    between atoms: C4_9  and  N3_11 
REMARK    3  A    between atoms: N3_11  and  N4_13 
REMARK       I    between atoms: N4_13  and  C5_15 
REMARK    4  A    between atoms: C5_15  and  C6_17 
REMARK    5  A    between atoms: C12_25  and  C13_26 
ROOT
HETATM    1  C2  UNL     1      -1.433  -1.180   0.257  1.00  0.00     0.171 A 
HETATM    2  N1  UNL     1      -0.231  -0.544   0.141  1.00  0.00    -0.169 N 
ATOM      3  H1  UNL     1       0.633  -1.081   0.218  1.00  0.00     0.186 HD
HETATM    4  C3  UNL     1      -0.172   0.781  -0.074  1.00  0.00     0.688 A 
HETATM    5  N5  UNL     1      -1.327   1.456  -0.171  1.00  0.00    -0.190 N 
ATOM      6  H5  UNL     1      -1.286   2.462  -0.335  1.00  0.00     0.184 HD
HETATM    7  C10 UNL     1      -2.538   0.877  -0.064  1.00  0.00     0.066 A 
HETATM    8  C11 UNL     1      -3.710   1.573  -0.164  1.00  0.00     0.046 A 
HETATM    9  C12 UNL     1      -4.985   1.006  -0.059  1.00  0.00     0.013 A 
HETATM   10  C16 UNL     1      -5.048  -0.343   0.161  1.00  0.00     0.043 A 
HETATM   11  C17 UNL     1      -3.844  -1.080   0.267  1.00  0.00     0.064 A 
HETATM   12  N9  UNL     1      -3.955  -2.479   0.495  1.00  0.00    -0.101 NA
HETATM   13  C18 UNL     1      -2.616  -0.480   0.156  1.00  0.00     0.067 A 
ENDROOT
BRANCH   4  14
HETATM   14  N2  UNL     1       0.981   1.395  -0.186  1.00  0.00    -0.140 N 
HETATM   15  C4  UNL     1       2.181   0.609  -0.071  1.00  0.00     0.353 C 
HETATM   16  O2  UNL     1       2.199  -0.583  -0.521  1.00  0.00    -0.245 OA
HETATM   17  N3  UNL     1       3.337   1.132   0.531  1.00  0.00    -0.248 N 
ATOM     18  H3  UNL     1       3.328   2.085   0.894  1.00  0.00     0.192 HD
ATOM     19  H2  UNL     1       1.026   2.401  -0.350  1.00  0.00     0.189 HD
BRANCH  17  20
HETATM   20  N4  UNL     1       4.493   0.368   0.639  1.00  0.00    -0.265 N 
HETATM   21  C5  UNL     1       5.603   0.659  -0.191  1.00  0.00     0.243 C 
HETATM   22  O3  UNL     1       5.520   1.608  -1.014  1.00  0.00    -0.271 OA
ATOM     23  H4  UNL     1       4.542  -0.397   1.312  1.00  0.00     0.190 HD
BRANCH  21  24
HETATM   24  C6  UNL     1       6.866  -0.109  -0.133  1.00  0.00     0.032 C 
HETATM   25  C7  UNL     1       6.667  -1.576  -0.432  1.00  0.00     0.025 C 
HETATM   26  C8  UNL     1       7.480  -0.016   1.256  1.00  0.00     0.025 C 
HETATM   27  C9  UNL     1       7.814   0.439  -1.171  1.00  0.00     0.025 C 
ENDBRANCH  21  24
ENDBRANCH  17  20
ENDBRANCH   4  14
BRANCH   1  28
HETATM   28  O1  UNL     1      -1.525  -2.548   0.479  1.00  0.00    -0.340 OA
HETATM   29  C1  UNL     1      -0.377  -3.373   0.600  1.00  0.00     0.211 C 
ENDBRANCH   1  28
BRANCH   9  30
HETATM   30  C13 UNL     1      -6.110   1.910  -0.164  1.00  0.00     0.133 A 
HETATM   31  N6  UNL     1      -5.986   3.292  -0.183  1.00  0.00    -0.284 N 
HETATM   32  N7  UNL     1      -7.177   3.824  -0.311  1.00  0.00    -0.294 N 
ATOM     33  H6  UNL     1      -5.110   3.810  -0.109  1.00  0.00     0.188 HD
HETATM   34  C14 UNL     1      -8.101   2.876  -0.380  1.00  0.00     0.201 A 
ATOM     35  H7  UNL     1      -7.366   4.825  -0.352  1.00  0.00     0.187 HD
HETATM   36  N8  UNL     1      -7.406   1.682  -0.286  1.00  0.00    -0.331 N 
HETATM   37  C15 UNL     1      -8.078   0.406  -0.348  1.00  0.00     0.158 C 
ENDBRANCH   9  30
TORSDOF 5
