REMARK  7 active torsions:
REMARK  status: ('A' for Active; 'I' for Inactive)
REMARK    1  A    between atoms: C3_3  and  C4_4 
REMARK    2  A    between atoms: C4_4  and  C5_5 
REMARK       I    between atoms: C5_5  and  N1_7 
REMARK    3  A    between atoms: N1_7  and  C6_9 
REMARK    4  A    between atoms: C10_18  and  N5_19 
REMARK    5  A    between atoms: N5_19  and  C11_21 
REMARK    6  A    between atoms: C14_28  and  N8_29 
REMARK    7  A    between atoms: C15_34  and  S1_35 
ROOT
HETATM    1  C1  UNL     1       6.912   2.132  -2.986  1.00  0.00     0.112 C 
HETATM    2  C2  UNL     1       5.599   1.550  -2.633  1.00  0.00    -0.111 C 
HETATM    3  C3  UNL     1       4.531   1.075  -2.337  1.00  0.00    -0.098 C 
ENDROOT
BRANCH   3   4
HETATM    4  C4  UNL     1       3.247   0.497  -1.962  1.00  0.00     0.197 C 
BRANCH   4   5
HETATM    5  C5  UNL     1       2.923   0.817  -0.551  1.00  0.00     0.234 C 
HETATM    6  O1  UNL     1       3.740   1.503   0.111  1.00  0.00    -0.272 OA
HETATM    7  N1  UNL     1       1.735   0.390   0.098  1.00  0.00    -0.309 N 
ATOM      8  H1  UNL     1       0.856   0.854  -0.131  1.00  0.00     0.170 HD
BRANCH   7   9
HETATM    9  C6  UNL     1       1.727  -0.566   0.970  1.00  0.00     0.153 A 
HETATM   10  N2  UNL     1       2.866  -1.221   1.317  1.00  0.00    -0.346 N 
HETATM   11  C7  UNL     1       2.824  -2.210   2.227  1.00  0.00     0.131 A 
ATOM     12  H2  UNL     1       3.754  -0.962   0.887  1.00  0.00     0.167 HD
HETATM   13  C8  UNL     1       1.627  -2.565   2.812  1.00  0.00     0.131 A 
HETATM   14  C9  UNL     1       1.557  -3.630   3.796  1.00  0.00     0.119 C 
HETATM   15  N4  UNL     1       0.524  -1.892   2.440  1.00  0.00    -0.330 N 
HETATM   16  N3  UNL     1       1.485  -4.478   4.582  1.00  0.00    -0.190 NA
HETATM   17  C10 UNL     1       0.513  -0.896   1.536  1.00  0.00     0.153 A 
ATOM     18  H4  UNL     1      -0.362  -2.154   2.872  1.00  0.00     0.168 HD
BRANCH  17  19
HETATM   19  N5  UNL     1      -0.659  -0.189   1.148  1.00  0.00    -0.324 N 
ATOM     20  H5  UNL     1      -0.883   0.725   1.543  1.00  0.00     0.169 HD
BRANCH  19  21
HETATM   21  C11 UNL     1      -1.428  -0.752   0.275  1.00  0.00     0.137 A 
HETATM   22  N6  UNL     1      -1.152  -1.967  -0.263  1.00  0.00    -0.337 N 
HETATM   23  C12 UNL     1      -1.957  -2.544  -1.170  1.00  0.00     0.182 A 
ATOM     24  H6  UNL     1      -0.307  -2.457   0.031  1.00  0.00     0.168 HD
HETATM   25  N7  UNL     1      -3.067  -1.879  -1.540  1.00  0.00    -0.347 N 
HETATM   26  C13 UNL     1      -3.392  -0.674  -1.041  1.00  0.00     0.108 A 
ATOM     27  H7  UNL     1      -3.687  -2.307  -2.227  1.00  0.00     0.167 HD
HETATM   28  C14 UNL     1      -4.542  -0.063  -1.471  1.00  0.00     0.130 A 
HETATM   29  C17 UNL     1      -2.557  -0.088  -0.109  1.00  0.00     0.109 A 
HETATM   30  N9  UNL     1      -4.825   1.146  -0.940  1.00  0.00    -0.321 N 
HETATM   31  C15 UNL     1      -4.016   1.721  -0.032  1.00  0.00     0.146 A 
ATOM     32  H9  UNL     1      -5.671   1.634  -1.234  1.00  0.00     0.169 HD
HETATM   33  N10 UNL     1      -2.873   1.128   0.404  1.00  0.00    -0.332 N 
ATOM     34  H10 UNL     1      -2.273   1.582   1.093  1.00  0.00     0.168 HD
BRANCH  28  35
HETATM   35  N8  UNL     1      -5.308  -0.637  -2.348  1.00  0.00    -0.384 N 
ATOM     36  H82 UNL     1      -5.094  -1.550  -2.749  1.00  0.00     0.157 HD
ATOM     37  H81 UNL     1      -6.163  -0.183  -2.668  1.00  0.00     0.157 HD
ENDBRANCH  28  35
BRANCH  31  38
HETATM   38  S1  UNL     1      -4.480   3.312   0.603  1.00  0.00    -0.098 SA
HETATM   39  C16 UNL     1      -5.507   3.060   2.071  1.00  0.00     0.099 C 
ENDBRANCH  31  38
ENDBRANCH  19  21
ENDBRANCH  17  19
ENDBRANCH   7   9
ENDBRANCH   4   5
ENDBRANCH   3   4
TORSDOF 7
