REMARK  6 active torsions:
REMARK  status: ('A' for Active; 'I' for Inactive)
REMARK    1  A    between atoms: C3_5  and  N2_6 
REMARK    2  A    between atoms: C4_10  and  C5_11 
REMARK    3  A    between atoms: C5_11  and  O1_12 
REMARK    4  A    between atoms: N4_18  and  C9_19 
REMARK    5  A    between atoms: C10_22  and  N6_23 
REMARK    6  A    between atoms: C15_31  and  N8_32 
ROOT
HETATM    1  C5  UNL     1       3.609  -1.124   0.644  1.00  0.00     0.157 C 
HETATM    2  N3  UNL     1       2.654  -1.615  -0.194  1.00  0.00    -0.359 N 
HETATM    3  C6  UNL     1       2.420  -1.418  -1.579  1.00  0.00     0.126 C 
HETATM    4  C7  UNL     1       1.377  -0.399  -1.880  1.00  0.00     0.040 C 
HETATM    5  C8  UNL     1       0.539   0.048  -0.738  1.00  0.00     0.143 C 
HETATM    6  N4  UNL     1      -0.108  -1.034  -0.057  1.00  0.00    -0.215 N 
HETATM    7  C16 UNL     1       0.308  -2.413  -0.025  1.00  0.00     0.161 C 
HETATM    8  C17 UNL     1       1.698  -2.553   0.554  1.00  0.00     0.145 C 
ENDROOT
BRANCH   6   9
HETATM    9  C9  UNL     1      -1.284  -0.716   0.643  1.00  0.00     0.709 A 
HETATM   10  N5  UNL     1      -2.417  -0.242   0.106  1.00  0.00    -0.021 N 
HETATM   11  C10 UNL     1      -3.509   0.067   0.844  1.00  0.00     0.709 A 
ATOM     12  H5  UNL     1      -2.458  -0.108  -0.904  1.00  0.00     0.203 HD
HETATM   13  N7  UNL     1      -3.424  -0.119   2.161  1.00  0.00    -0.022 N 
HETATM   14  C15 UNL     1      -2.306  -0.597   2.774  1.00  0.00     0.705 A 
ATOM     15  H7  UNL     1      -4.235   0.107   2.737  1.00  0.00     0.203 HD
HETATM   16  N9  UNL     1      -1.246  -0.891   2.003  1.00  0.00    -0.022 N 
ATOM     17  H9  UNL     1      -0.396  -1.251   2.437  1.00  0.00     0.203 HD
BRANCH  11  18
HETATM   18  N6  UNL     1      -4.687   0.543   0.240  1.00  0.00    -0.213 N 
HETATM   19  C11 UNL     1      -4.712   0.623  -1.203  1.00  0.00     0.167 C 
HETATM   20  C12 UNL     1      -5.618   1.654  -1.768  1.00  0.00     0.188 C 
HETATM   21  O2  UNL     1      -6.699   1.968  -0.957  1.00  0.00    -0.388 OA
HETATM   22  C13 UNL     1      -6.319   2.275   0.337  1.00  0.00     0.188 C 
HETATM   23  C14 UNL     1      -5.853   0.952   0.968  1.00  0.00     0.167 C 
ENDBRANCH  11  18
BRANCH  14  24
HETATM   24  N8  UNL     1      -2.290  -0.754   4.068  1.00  0.00    -0.234 N 
ATOM     25  H82 UNL     1      -3.095  -0.531   4.653  1.00  0.00     0.174 HD
ATOM     26  H81 UNL     1      -1.453  -1.112   4.527  1.00  0.00     0.174 HD
ENDBRANCH  14  24
ENDBRANCH   6   9
BRANCH   1  27
HETATM   27  C4  UNL     1       4.757  -0.249   0.714  1.00  0.00     0.081 A 
HETATM   28  C2  UNL     1       5.429   0.619  -0.079  1.00  0.00     0.029 A 
HETATM   29  C1  UNL     1       4.928   0.978  -1.478  1.00  0.00     0.070 C 
HETATM   30  N1  UNL     1       6.513   1.198   0.373  1.00  0.00    -0.339 N 
HETATM   31  C3  UNL     1       6.941   0.937   1.592  1.00  0.00     0.143 A 
ATOM     32  H1  UNL     1       7.026   1.851  -0.219  1.00  0.00     0.168 HD
HETATM   33  S1  UNL     1       5.801  -0.164   2.162  1.00  0.00    -0.048 SA
BRANCH  31  34
HETATM   34  N2  UNL     1       7.996   1.408   2.225  1.00  0.00    -0.380 N 
ATOM     35  H22 UNL     1       8.686   2.075   1.880  1.00  0.00     0.158 HD
ATOM     36  H21 UNL     1       8.327   1.206   3.168  1.00  0.00     0.158 HD
ENDBRANCH  31  34
ENDBRANCH   1  27
BRANCH   1  37
HETATM   37  O1  UNL     1       3.435  -1.649   1.903  1.00  0.00    -0.345 OA
ATOM     38  H1  UNL     1       2.680  -2.224   1.857  1.00  0.00     0.219 HD
ENDBRANCH   1  37
TORSDOF 6
