REMARK  9 active torsions:
REMARK  status: ('A' for Active; 'I' for Inactive)
REMARK    1  A    between atoms: C2_3  and  N2_4 
REMARK    2  A    between atoms: N2_4  and  C3_6 
REMARK    3  A    between atoms: C3_6  and  C4_7 
REMARK    4  A    between atoms: C4_7  and  N3_8 
REMARK    5  A    between atoms: N3_8  and  C5_10 
REMARK    6  A    between atoms: C5_10  and  C6_11 
REMARK    7  A    between atoms: C6_11  and  O1_12 
REMARK    8  A    between atoms: C7_14  and  N4_15 
REMARK    9  A    between atoms: C11_22  and  N5_23 
ROOT
HETATM    1  C1  UNL     1      -0.317  -2.669  -0.630  1.00  0.00     0.161 C 
HETATM    2  N1  UNL     1      -0.910  -1.401  -0.275  1.00  0.00    -0.302 N 
HETATM    3  C2  UNL     1      -0.262  -0.255  -0.473  1.00  0.00     0.141 A 
HETATM    4  C7  UNL     1      -0.895   0.962  -0.109  1.00  0.00     0.170 A 
HETATM    5  C8  UNL     1      -2.164   0.935   0.440  1.00  0.00     0.131 A 
HETATM    6  C9  UNL     1      -2.825  -0.240   0.642  1.00  0.00     0.075 A 
HETATM    7  C10 UNL     1      -2.167  -1.392   0.272  1.00  0.00     0.259 A 
HETATM    8  O4  UNL     1      -2.723  -2.520   0.433  1.00  0.00    -0.267 OA
HETATM    9  C11 UNL     1      -4.152  -0.370   1.193  1.00  0.00     0.315 C 
HETATM   10  C12 UNL     1      -5.061   0.767   1.067  1.00  0.00     0.266 C 
HETATM   11  O5  UNL     1      -6.300   0.535   1.021  1.00  0.00    -0.270 OA
HETATM   12  N6  UNL     1      -4.653   2.113   0.991  1.00  0.00    -0.248 N 
ATOM     13  H6  UNL     1      -5.332   2.874   0.985  1.00  0.00     0.182 HD
HETATM   14  S1  UNL     1      -2.969   2.418   0.909  1.00  0.00     0.268 S 
HETATM   15  O6  UNL     1      -2.492   2.824   2.275  1.00  0.00    -0.200 OA
HETATM   16  O7  UNL     1      -2.667   3.502  -0.105  1.00  0.00    -0.200 OA
ENDROOT
BRANCH   3  17
HETATM   17  N2  UNL     1       1.034  -0.128  -1.011  1.00  0.00    -0.372 N 
ATOM     18  H2  UNL     1       1.356   0.837  -1.092  1.00  0.00     0.161 HD
BRANCH  17  19
HETATM   19  C3  UNL     1       1.981  -1.093  -1.464  1.00  0.00     0.140 C 
BRANCH  19  20
HETATM   20  C4  UNL     1       3.284  -0.417  -1.915  1.00  0.00     0.133 C 
BRANCH  20  21
HETATM   21  N3  UNL     1       3.921   0.349  -0.921  1.00  0.00    -0.418 N 
ATOM     22  H3  UNL     1       3.983   1.363  -1.008  1.00  0.00     0.153 HD
BRANCH  21  23
HETATM   23  C5  UNL     1       4.474  -0.313   0.202  1.00  0.00     0.139 C 
BRANCH  23  24
HETATM   24  C6  UNL     1       5.178   0.770   1.036  1.00  0.00     0.183 C 
BRANCH  24  25
HETATM   25  O1  UNL     1       4.288   1.761   1.452  1.00  0.00    -0.399 OA
ATOM     26  H1  UNL     1       4.723   2.430   1.967  1.00  0.00     0.209 HD
ENDBRANCH  24  25
ENDBRANCH  23  24
ENDBRANCH  21  23
ENDBRANCH  20  21
ENDBRANCH  19  20
ENDBRANCH  17  19
ENDBRANCH   3  17
BRANCH   4  27
HETATM   27  N4  UNL     1      -0.264   2.204  -0.294  1.00  0.00    -0.110 N 
HETATM   28  O2  UNL     1      -0.135   2.763  -1.397  1.00  0.00    -0.532 OA
HETATM   29  O3  UNL     1       0.240   2.843   0.830  1.00  0.00    -0.532 OA
ENDBRANCH   4  27
BRANCH   9  30
HETATM   30  N5  UNL     1      -4.799  -1.482   0.465  1.00  0.00    -0.062 N 
ATOM     31  H53 UNL     1      -4.792  -1.361  -0.548  1.00  0.00     0.275 HD
ATOM     32  H52 UNL     1      -4.263  -2.349   0.492  1.00  0.00     0.275 HD
ATOM     33  H51 UNL     1      -5.737  -1.574   0.855  1.00  0.00     0.275 HD
ENDBRANCH   9  30
TORSDOF 9
