REMARK  11 active torsions:
REMARK  status: ('A' for Active; 'I' for Inactive)
REMARK    1  A    between atoms: O1_2  and  N1_3 
REMARK    2  A    between atoms: C2_5  and  N2_6 
REMARK    3  A    between atoms: C2_5  and  C7_16 
REMARK    4  A    between atoms: N2_6  and  C3_8 
REMARK    5  A    between atoms: C3_8  and  O2_9 
REMARK    6  A    between atoms: C3_8  and  C4_11 
REMARK    7  A    between atoms: C4_11  and  O3_14 
REMARK    8  A    between atoms: C7_16  and  N3_18 
REMARK    9  A    between atoms: N3_18  and  C9_20 
REMARK   10  A    between atoms: C9_20  and  C10_21 
REMARK   11  A    between atoms: C11_22  and  N4_23 
ROOT
HETATM    1  C9  UNL     1       1.647  -1.805   0.580  1.00  0.00     0.111 C 
HETATM    2  N6  UNL     1       2.002  -2.969   0.509  1.00  0.00    -0.280 N 
ATOM      3  H6  UNL     1       1.142  -3.514   0.572  1.00  0.00     0.179 HD
HETATM    4  C16 UNL     1       2.958  -3.854   0.391  1.00  0.00     0.183 C 
HETATM    5  N7  UNL     1       3.775  -4.643   0.290  1.00  0.00    -0.172 NA
ENDROOT
BRANCH   1   6
HETATM    6  N3  UNL     1       0.212  -1.503   0.722  1.00  0.00    -0.365 N 
ATOM      7  H3  UNL     1      -0.142  -1.189   1.625  1.00  0.00     0.162 HD
BRANCH   6   8
HETATM    8  C7  UNL     1      -0.700  -1.639  -0.376  1.00  0.00     0.148 C 
HETATM    9  C8  UNL     1      -0.200  -0.716  -1.484  1.00  0.00     0.040 C 
BRANCH   8  10
HETATM   10  C2  UNL     1      -2.068  -1.275   0.036  1.00  0.00     0.122 C 
HETATM   11  N1  UNL     1      -3.011  -2.137  -0.078  1.00  0.00    -0.253 N 
ATOM     12  H1  UNL     1      -3.947  -1.857   0.216  1.00  0.00     0.195 HD
BRANCH  11  13
HETATM   13  O1  UNL     1      -2.852  -3.402  -0.564  1.00  0.00    -0.284 OA
HETATM   14  C1  UNL     1      -3.965  -4.133  -1.042  1.00  0.00     0.237 C 
ENDBRANCH  11  13
BRANCH  10  15
HETATM   15  N2  UNL     1      -2.376   0.005   0.558  1.00  0.00    -0.348 N 
ATOM     16  H2  UNL     1      -1.887   0.377   1.372  1.00  0.00     0.163 HD
BRANCH  15  17
HETATM   17  C3  UNL     1      -3.414   0.765  -0.111  1.00  0.00     0.252 C 
BRANCH  17  18
HETATM   18  O2  UNL     1      -4.602   0.077  -0.170  1.00  0.00    -0.374 OA
ATOM     19  H2  UNL     1      -5.282   0.575  -0.608  1.00  0.00     0.212 HD
ENDBRANCH  17  18
BRANCH  17  20
HETATM   20  C4  UNL     1      -3.645   2.107   0.541  1.00  0.00     0.094 C 
HETATM   21  C5  UNL     1      -4.789   2.769  -0.221  1.00  0.00     0.050 C 
HETATM   22  C6  UNL     1      -2.396   2.963   0.512  1.00  0.00     0.050 C 
BRANCH  20  23
HETATM   23  O3  UNL     1      -4.036   1.979   1.872  1.00  0.00    -0.386 OA
ATOM     24  H3  UNL     1      -4.181   2.823   2.282  1.00  0.00     0.210 HD
ENDBRANCH  20  23
ENDBRANCH  17  20
ENDBRANCH  15  17
ENDBRANCH  10  15
ENDBRANCH   8  10
ENDBRANCH   6   8
ENDBRANCH   1   6
BRANCH   1  25
HETATM   25  C10 UNL     1       2.515  -0.607   0.540  1.00  0.00     0.066 C 
HETATM   26  C11 UNL     1       3.796  -0.648   0.421  1.00  0.00     0.105 C 
BRANCH  26  27
HETATM   27  N4  UNL     1       4.723   0.426   0.371  1.00  0.00    -0.285 N 
HETATM   28  C12 UNL     1       6.060   0.123   0.238  1.00  0.00     0.106 A 
HETATM   29  C13 UNL     1       7.022   1.097   0.182  1.00  0.00     0.092 A 
HETATM   30  C14 UNL     1       6.688   2.429   0.257  1.00  0.00     0.250 A 
HETATM   31  O4  UNL     1       7.561   3.330   0.206  1.00  0.00    -0.268 OA
HETATM   32  N5  UNL     1       5.389   2.710   0.386  1.00  0.00    -0.275 N 
HETATM   33  C15 UNL     1       4.437   1.719   0.441  1.00  0.00     0.333 A 
ATOM     34  H5  UNL     1       5.095   3.685   0.445  1.00  0.00     0.173 HD
HETATM   35  O5  UNL     1       3.257   2.109   0.562  1.00  0.00    -0.246 OA
ENDBRANCH  26  27
ENDBRANCH   1  25
TORSDOF 11
