REMARK  9 active torsions:
REMARK  status: ('A' for Active; 'I' for Inactive)
REMARK    1  A    between atoms: N1_1  and  N2_4 
REMARK    2  A    between atoms: C1_5  and  O1_6 
REMARK    3  A    between atoms: C2_8  and  N3_9 
REMARK    4  A    between atoms: N3_9  and  O2_11 
REMARK    5  A    between atoms: O2_11  and  S1_12 
REMARK    6  A    between atoms: S1_12  and  C3_15 
REMARK    7  A    between atoms: C3_15  and  C4_16 
REMARK       I    between atoms: C4_16  and  N4_18 
REMARK    8  A    between atoms: N4_18  and  N5_20 
REMARK    9  A    between atoms: C5_22  and  C6_23 
ROOT
HETATM    1  O2  UNL     1      -2.095  -0.946   0.716  1.00  0.00    -0.150 OA
ENDROOT
BRANCH   1   2
HETATM    2  N3  UNL     1      -2.421   0.338   0.591  1.00  0.00    -0.240 N 
ATOM      3  H3  UNL     1      -1.671   1.029   0.557  1.00  0.00     0.196 HD
BRANCH   2   4
HETATM    4  C2  UNL     1      -3.759   0.791   0.503  1.00  0.00     0.176 A 
HETATM    5  C1  UNL     1      -4.491   0.546  -0.652  1.00  0.00     0.200 A 
HETATM    6  N2  UNL     1      -5.773   0.966  -0.793  1.00  0.00    -0.186 N 
HETATM    7  C13 UNL     1      -6.358   1.644   0.220  1.00  0.00     0.350 A 
HETATM    8  N6  UNL     1      -5.686   1.902   1.354  1.00  0.00    -0.272 N 
HETATM    9  O7  UNL     1      -7.547   2.036   0.095  1.00  0.00    -0.244 OA
HETATM   10  C12 UNL     1      -4.394   1.483   1.505  1.00  0.00     0.282 A 
ATOM     11  H6  UNL     1      -6.143   2.414   2.108  1.00  0.00     0.174 HD
HETATM   12  O6  UNL     1      -3.785   1.734   2.569  1.00  0.00    -0.265 OA
BRANCH   5  13
HETATM   13  O1  UNL     1      -3.915  -0.138  -1.685  1.00  0.00    -0.343 OA
ATOM     14  H1  UNL     1      -3.017  -0.432  -1.586  1.00  0.00     0.219 HD
ENDBRANCH   5  13
BRANCH   6  15
HETATM   15  N1  UNL     1      -6.520   0.722  -1.946  1.00  0.00    -0.332 N 
ATOM     16  H12 UNL     1      -6.079   0.211  -2.710  1.00  0.00     0.177 HD
ATOM     17  H11 UNL     1      -7.484   1.038  -2.052  1.00  0.00     0.177 HD
ENDBRANCH   6  15
ENDBRANCH   2   4
ENDBRANCH   1   2
BRANCH   1  18
HETATM   18  S1  UNL     1      -1.418  -1.425   2.137  1.00  0.00     0.294 S 
HETATM   19  O3  UNL     1      -1.251  -0.357   3.164  1.00  0.00    -0.196 OA
HETATM   20  O4  UNL     1      -2.340  -2.516   2.702  1.00  0.00    -0.196 OA
BRANCH  18  21
HETATM   21  C3  UNL     1       0.169  -2.209   1.962  1.00  0.00     0.276 C 
BRANCH  21  22
HETATM   22  C4  UNL     1       1.189  -1.361   1.334  1.00  0.00     0.252 C 
HETATM   23  O5  UNL     1       1.502  -0.271   1.867  1.00  0.00    -0.271 OA
HETATM   24  N4  UNL     1       1.820  -1.768   0.135  1.00  0.00    -0.270 N 
ATOM     25  H4  UNL     1       1.574  -2.649  -0.316  1.00  0.00     0.190 HD
BRANCH  24  26
HETATM   26  N5  UNL     1       2.800  -0.916  -0.416  1.00  0.00    -0.308 N 
HETATM   27  C5  UNL     1       4.057  -1.227  -0.302  1.00  0.00     0.118 C 
ATOM     28  H5  UNL     1       2.524  -0.062  -0.901  1.00  0.00     0.186 HD
BRANCH  27  29
HETATM   29  C6  UNL     1       5.107  -0.382  -0.851  1.00  0.00    -0.019 A 
HETATM   30  C7  UNL     1       6.429  -0.738  -0.729  1.00  0.00     0.013 A 
HETATM   31  C8  UNL     1       7.435   0.049  -1.211  1.00  0.00     0.001 A 
HETATM   32  C9  UNL     1       7.150   1.239  -1.840  1.00  0.00     0.000 A 
HETATM   33  C10 UNL     1       5.823   1.585  -1.957  1.00  0.00     0.001 A 
HETATM   34  C11 UNL     1       4.801   0.807  -1.479  1.00  0.00     0.013 A 
ENDBRANCH  27  29
ENDBRANCH  24  26
ENDBRANCH  21  22
ENDBRANCH  18  21
ENDBRANCH   1  18
TORSDOF 9
