REMARK  13 active torsions:
REMARK  status: ('A' for Active; 'I' for Inactive)
REMARK       I    between atoms: C2_2  and  N1_4 
REMARK    1  A    between atoms: C3_6  and  O2_7 
REMARK    2  A    between atoms: C3_6  and  N2_9 
REMARK    3  A    between atoms: C4_11  and  O3_12 
REMARK    4  A    between atoms: C4_11  and  C5_14 
REMARK    5  A    between atoms: C9_20  and  O4_21 
REMARK    6  A    between atoms: O4_21  and  C10_22 
REMARK    7  A    between atoms: C10_22  and  C11_23 
REMARK    8  A    between atoms: C11_23  and  C12_25 
REMARK    9  A    between atoms: C12_25  and  O6_26 
REMARK   10  A    between atoms: C12_25  and  C13_28 
REMARK   11  A    between atoms: C13_28  and  C14_29 
REMARK   12  A    between atoms: C14_29  and  S1_30 
REMARK   13  A    between atoms: C15_32  and  O7_33 
ROOT
HETATM    1  C5  UNL     1       2.087   0.685   0.051  1.00  0.00     0.068 A 
HETATM    2  C6  UNL     1       2.233   1.203  -1.198  1.00  0.00     0.029 A 
HETATM    3 BR1  UNL     1       3.910   1.469  -2.065  1.00  0.00    -0.050 Br
HETATM    4  C7  UNL     1       1.105   1.528  -1.979  1.00  0.00     0.042 A 
HETATM    5  C8  UNL     1      -0.148   1.330  -1.511  1.00  0.00     0.048 A 
HETATM    6 BR2  UNL     1      -1.669   1.778  -2.589  1.00  0.00    -0.048 Br
HETATM    7  C9  UNL     1      -0.365   0.801  -0.248  1.00  0.00     0.120 A 
HETATM    8  C15 UNL     1       0.735   0.480   0.527  1.00  0.00     0.116 A 
ENDROOT
BRANCH   1   9
HETATM    9  C4  UNL     1       3.163   0.353   0.931  1.00  0.00     0.157 C 
HETATM   10  N2  UNL     1       4.475   0.318   1.176  1.00  0.00    -0.302 N 
ATOM     11  H2  UNL     1       4.534  -0.158   2.076  1.00  0.00     0.171 HD
BRANCH  10  12
HETATM   12  C3  UNL     1       5.816   0.584   0.861  1.00  0.00     0.225 C 
HETATM   13  N1  UNL     1       6.436   1.161  -0.180  1.00  0.00    -0.290 N 
HETATM   14  C2  UNL     1       7.769   0.076  -0.268  1.00  0.00     0.238 C 
ATOM     15  H1  UNL     1       6.195   1.979  -0.739  1.00  0.00     0.172 HD
HETATM   16  C1  UNL     1       7.714  -1.118   0.418  1.00  0.00     0.091 C 
HETATM   17  O1  UNL     1       8.596   0.592  -0.999  1.00  0.00    -0.269 OA
BRANCH  12  18
HETATM   18  O2  UNL     1       6.597   0.121   1.886  1.00  0.00    -0.332 OA
ATOM     19  H2  UNL     1       6.158  -0.287   2.623  1.00  0.00     0.221 HD
ENDBRANCH  12  18
ENDBRANCH  10  12
BRANCH   9  20
HETATM   20  O3  UNL     1       2.567  -0.174   2.085  1.00  0.00    -0.345 OA
ATOM     21  H3  UNL     1       1.633  -0.149   1.911  1.00  0.00     0.219 HD
ENDBRANCH   9  20
ENDBRANCH   1   9
BRANCH   8  22
HETATM   22  O7  UNL     1       0.471  -0.014   1.712  1.00  0.00    -0.357 OA
ATOM     23  H7  UNL     1      -0.416  -0.149   2.024  1.00  0.00     0.217 HD
ENDBRANCH   8  22
BRANCH   7  24
HETATM   24  O4  UNL     1      -1.623   0.642   0.163  1.00  0.00    -0.340 OA
BRANCH  24  25
HETATM   25  C10 UNL     1      -2.635  -0.265   0.052  1.00  0.00     0.257 C 
BRANCH  25  26
HETATM   26  C11 UNL     1      -3.804   0.274   0.802  1.00  0.00     0.179 C 
HETATM   27  O5  UNL     1      -3.590   1.060   1.700  1.00  0.00    -0.293 OA
BRANCH  26  28
HETATM   28  C12 UNL     1      -5.201  -0.097   0.488  1.00  0.00     0.190 C 
BRANCH  28  29
HETATM   29  O6  UNL     1      -6.090   0.466   1.419  1.00  0.00    -0.388 OA
ATOM     30  H6  UNL     1      -6.987   0.228   1.217  1.00  0.00     0.210 HD
ENDBRANCH  28  29
BRANCH  28  31
HETATM   31  C13 UNL     1      -5.396  -1.569   0.327  1.00  0.00     0.050 C 
BRANCH  31  32
HETATM   32  C14 UNL     1      -6.802  -1.942  -0.002  1.00  0.00     0.090 C 
BRANCH  32  33
HETATM   33  S1  UNL     1      -7.427  -1.329  -1.538  1.00  0.00    -0.085 SA
HETATM   34  S2  UNL     1      -7.739   0.718  -1.718  1.00  0.00    -0.013 SA
ENDBRANCH  32  33
ENDBRANCH  31  32
ENDBRANCH  28  31
ENDBRANCH  26  28
ENDBRANCH  25  26
ENDBRANCH  24  25
ENDBRANCH   7  24
TORSDOF 13
