REMARK  13 active torsions:
REMARK  status: ('A' for Active; 'I' for Inactive)
REMARK    1  A    between atoms: C3_3  and  C4_4 
REMARK    2  A    between atoms: C4_4  and  C5_5 
REMARK    3  A    between atoms: C5_5  and  C6_6 
REMARK    4  A    between atoms: C10_14  and  C11_15 
REMARK    5  A    between atoms: C11_15  and  C13_17 
REMARK    6  A    between atoms: C11_15  and  S1_20 
REMARK    7  A    between atoms: C13_17  and  O1_18 
REMARK    8  A    between atoms: S1_20  and  C14_21 
REMARK    9  A    between atoms: C15_22  and  O2_23 
REMARK   10  A    between atoms: C16_25  and  O3_26 
REMARK   11  A    between atoms: C18_29  and  O4_30 
REMARK   12  A    between atoms: C23_36  and  N2_37 
REMARK       I    between atoms: N2_37  and  C24_39 
REMARK   13  A    between atoms: C24_39  and  C25_41 
ROOT
HETATM    1  C1  UNL     1      -9.087   2.726   0.758  1.00  0.00     0.012 C 
HETATM    2  C2  UNL     1      -8.306   2.389  -0.090  1.00  0.00    -0.117 C 
HETATM    3  C3  UNL     1      -7.372   1.950  -1.118  1.00  0.00     0.093 C 
ENDROOT
BRANCH   3   4
HETATM    4  C4  UNL     1      -6.527   0.837  -0.801  1.00  0.00     0.018 C 
BRANCH   4   5
HETATM    5  C5  UNL     1      -5.457   0.724   0.192  1.00  0.00     0.060 C 
BRANCH   5   6
HETATM    6  C6  UNL     1      -4.263   1.538   0.074  1.00  0.00     0.043 A 
HETATM    7  C7  UNL     1      -4.176   2.924   0.395  1.00  0.00     0.082 A 
HETATM    8 CL1  UNL     1      -5.293   4.299   0.454  1.00  0.00    -0.080 Cl
HETATM    9  C8  UNL     1      -2.872   3.116   0.743  1.00  0.00     0.102 A 
HETATM   10 CL2  UNL     1      -2.169   4.614   1.249  1.00  0.00    -0.078 Cl
HETATM   11  C9  UNL     1      -2.103   1.856   0.619  1.00  0.00     0.138 A 
HETATM   12  N1  UNL     1      -0.803   1.561   0.801  1.00  0.00    -0.342 N 
HETATM   13  N3  UNL     1      -2.979   0.957   0.198  1.00  0.00    -0.284 N 
HETATM   14  C10 UNL     1      -0.282   0.316   0.567  1.00  0.00     0.035 A 
ATOM     15  H1  UNL     1      -0.177   2.297   1.128  1.00  0.00     0.167 HD
HETATM   16  C22 UNL     1      -1.169  -0.619   0.134  1.00  0.00     0.076 A 
HETATM   17  C23 UNL     1      -2.517  -0.320  -0.055  1.00  0.00     0.118 A 
BRANCH  14  18
HETATM   18  C11 UNL     1       1.124  -0.007   0.837  1.00  0.00     0.068 C 
HETATM   19  C12 UNL     1       1.360  -1.347   1.488  1.00  0.00     0.036 C 
BRANCH  18  20
HETATM   20  C13 UNL     1       1.612   1.057   1.923  1.00  0.00     0.190 C 
BRANCH  20  21
HETATM   21  O1  UNL     1       1.424   2.321   1.335  1.00  0.00    -0.399 OA
ATOM     22  H1  UNL     1       1.714   2.954   1.981  1.00  0.00     0.209 HD
ENDBRANCH  20  21
ENDBRANCH  18  20
BRANCH  18  23
HETATM   23  S1  UNL     1       2.336   0.241  -0.463  1.00  0.00    -0.143 SA
BRANCH  23  24
HETATM   24  C14 UNL     1       3.927  -0.296   0.136  1.00  0.00     0.084 C 
HETATM   25  C15 UNL     1       4.432  -1.640  -0.258  1.00  0.00     0.161 C 
HETATM   26  C16 UNL     1       5.976  -1.524  -0.169  1.00  0.00     0.154 C 
HETATM   27  C17 UNL     1       6.287  -0.159   0.342  1.00  0.00     0.051 C 
HETATM   28  C18 UNL     1       7.403   0.548  -0.346  1.00  0.00     0.125 C 
HETATM   29  C21 UNL     1       5.037   0.678   0.110  1.00  0.00     0.011 C 
HETATM   30  C19 UNL     1       6.766   1.779  -1.012  1.00  0.00     0.032 C 
HETATM   31  C20 UNL     1       5.304   1.396  -1.158  1.00  0.00     0.009 C 
BRANCH  25  32
HETATM   32  O2  UNL     1       4.111  -2.015  -1.567  1.00  0.00    -0.392 OA
ATOM     33  H2  UNL     1       4.433  -2.873  -1.818  1.00  0.00     0.210 HD
ENDBRANCH  25  32
BRANCH  26  34
HETATM   34  O3  UNL     1       6.505  -2.503   0.662  1.00  0.00    -0.392 OA
ATOM     35  H3  UNL     1       7.451  -2.432   0.717  1.00  0.00     0.210 HD
ENDBRANCH  26  34
BRANCH  28  36
HETATM   36  O4  UNL     1       8.356   1.012   0.598  1.00  0.00    -0.395 OA
ATOM     37  H4  UNL     1       9.068   1.463   0.159  1.00  0.00     0.210 HD
ENDBRANCH  28  36
ENDBRANCH  23  24
ENDBRANCH  18  23
ENDBRANCH  14  18
BRANCH  17  38
HETATM   38  N2  UNL     1      -3.357  -1.188  -0.430  1.00  0.00    -0.313 N 
HETATM   39  C24 UNL     1      -3.143  -2.533  -0.709  1.00  0.00     0.222 C 
HETATM   40  O5  UNL     1      -2.567  -2.994  -1.730  1.00  0.00    -0.273 OA
ATOM     41  H2  UNL     1      -4.316  -0.858  -0.542  1.00  0.00     0.170 HD
BRANCH  39  42
HETATM   42  C25 UNL     1      -3.650  -3.554   0.300  1.00  0.00     0.099 C 
HETATM   43  C26 UNL     1      -4.533  -4.577  -0.368  1.00  0.00     0.014 C 
ENDBRANCH  39  42
ENDBRANCH  17  38
ENDBRANCH   5   6
ENDBRANCH   4   5
ENDBRANCH   3   4
TORSDOF 13
