REMARK  11 active torsions:
REMARK  status: ('A' for Active; 'I' for Inactive)
REMARK    1  A    between atoms: C3_3  and  C4_4 
REMARK    2  A    between atoms: C4_4  and  C7_7 
REMARK    3  A    between atoms: C8_8  and  O1_9 
REMARK    4  A    between atoms: C9_11  and  S1_12 
REMARK    5  A    between atoms: S1_12  and  C10_15 
REMARK    6  A    between atoms: N2_26  and  C18_27 
REMARK    7  A    between atoms: C18_27  and  C19_28 
REMARK       I    between atoms: C19_28  and  N3_30 
REMARK    8  A    between atoms: N3_30  and  C20_32 
REMARK    9  A    between atoms: C20_32  and  C21_33 
REMARK   10  A    between atoms: C20_32  and  C25_37 
REMARK   11  A    between atoms: C21_33  and  C22_34 
ROOT
HETATM    1  C1  UNL     1      -1.727   4.052  -2.316  1.00  0.00     0.112 C 
HETATM    2  C2  UNL     1      -1.380   3.788  -0.936  1.00  0.00    -0.110 C 
HETATM    3  C3  UNL     1      -1.104   3.569   0.218  1.00  0.00    -0.091 C 
ENDROOT
BRANCH   3   4
HETATM    4  C4  UNL     1      -0.737   3.278   1.651  1.00  0.00     0.061 C 
HETATM    5  C5  UNL     1      -1.774   4.125   2.419  1.00  0.00     0.035 C 
HETATM    6  C6  UNL     1       0.636   3.839   1.823  1.00  0.00     0.035 C 
BRANCH   4   7
HETATM    7  C7  UNL     1      -0.933   1.858   1.858  1.00  0.00     0.068 A 
HETATM    8  C8  UNL     1      -2.154   1.223   1.477  1.00  0.00     0.115 A 
HETATM    9  C9  UNL     1      -2.090  -0.098   1.799  1.00  0.00     0.140 A 
HETATM   10  C17 UNL     1      -0.859  -0.280   2.367  1.00  0.00     0.144 A 
HETATM   11  N1  UNL     1      -0.419  -1.548   2.838  1.00  0.00    -0.081 NA
HETATM   12  N2  UNL     1      -0.171   0.914   2.394  1.00  0.00    -0.325 N 
BRANCH   8  13
HETATM   13  O1  UNL     1      -3.229   1.845   0.877  1.00  0.00    -0.357 OA
ATOM     14  H1  UNL     1      -4.041   1.423   0.624  1.00  0.00     0.217 HD
ENDBRANCH   8  13
BRANCH   9  15
HETATM   15  S1  UNL     1      -3.349  -1.303   1.535  1.00  0.00     0.213 S 
HETATM   16  O2  UNL     1      -4.726  -0.734   1.681  1.00  0.00    -0.217 OA
HETATM   17  O3  UNL     1      -3.220  -2.339   2.639  1.00  0.00    -0.217 OA
BRANCH  15  18
HETATM   18  C10 UNL     1      -3.211  -2.029  -0.030  1.00  0.00     0.072 A 
HETATM   19  C11 UNL     1      -2.200  -1.621  -0.865  1.00  0.00     0.050 A 
HETATM   20  C12 UNL     1      -2.019  -2.150  -2.133  1.00  0.00     0.057 A 
HETATM   21 CL1  UNL     1      -0.721  -1.619  -3.192  1.00  0.00    -0.083 Cl
HETATM   22  C13 UNL     1      -2.881  -3.125  -2.589  1.00  0.00     0.056 A 
HETATM   23 CL2  UNL     1      -2.680  -3.816  -4.188  1.00  0.00    -0.083 Cl
HETATM   24  C14 UNL     1      -3.895  -3.530  -1.744  1.00  0.00     0.033 A 
HETATM   25  C15 UNL     1      -4.076  -3.000  -0.473  1.00  0.00    -0.038 A 
HETATM   26  C16 UNL     1      -5.202  -3.481   0.406  1.00  0.00     0.050 C 
ENDBRANCH  15  18
ENDBRANCH   9  15
BRANCH  12  27
HETATM   27  C18 UNL     1       1.168   0.949   2.939  1.00  0.00     0.233 C 
BRANCH  27  28
HETATM   28  C19 UNL     1       2.222   0.606   1.957  1.00  0.00     0.236 C 
HETATM   29  O4  UNL     1       3.414   0.600   2.334  1.00  0.00    -0.272 OA
HETATM   30  N3  UNL     1       1.962   0.281   0.606  1.00  0.00    -0.344 N 
ATOM     31  H3  UNL     1       0.997   0.280   0.276  1.00  0.00     0.163 HD
BRANCH  30  32
HETATM   32  C20 UNL     1       3.054  -0.061  -0.354  1.00  0.00     0.197 C 
BRANCH  32  33
HETATM   33  C21 UNL     1       2.913  -1.478  -0.717  1.00  0.00     0.009 C 
BRANCH  33  34
HETATM   34  C22 UNL     1       3.810  -2.159  -1.648  1.00  0.00    -0.089 C 
HETATM   35  C23 UNL     1       5.285  -2.140  -1.237  1.00  0.00     0.042 C 
HETATM   36  C24 UNL     1       3.591  -2.019  -3.108  1.00  0.00     0.042 C 
ENDBRANCH  33  34
ENDBRANCH  32  33
BRANCH  32  37
HETATM   37  C25 UNL     1       3.183   0.956  -1.363  1.00  0.00     0.257 C 
HETATM   38  N4  UNL     1       4.188   1.005  -2.342  1.00  0.00    -0.060 NA
HETATM   39  O5  UNL     1       2.330   1.913  -1.399  1.00  0.00    -0.274 OA
ENDBRANCH  32  37
ENDBRANCH  30  32
ENDBRANCH  27  28
ENDBRANCH  12  27
ENDBRANCH   4   7
ENDBRANCH   3   4
TORSDOF 11
