REMARK  9 active torsions:
REMARK  status: ('A' for Active; 'I' for Inactive)
REMARK    1  A    between atoms: C2_2  and  C3_3 
REMARK    2  A    between atoms: C3_3  and  C4_5 
REMARK    3  A    between atoms: C4_5  and  N2_9 
REMARK    4  A    between atoms: N2_9  and  C5_11 
REMARK    5  A    between atoms: C7_13  and  O1_14 
REMARK    6  A    between atoms: C9_18  and  C10_19 
REMARK    7  A    between atoms: C10_19  and  N3_20 
REMARK    8  A    between atoms: N3_20  and  C13_23 
REMARK    9  A    between atoms: C15_25  and  O2_26 
ROOT
HETATM    1  C5  UNL     1       1.140  -0.790   0.537  1.00  0.00     0.114 C 
HETATM    2  C6  UNL     1       1.297  -2.259   0.237  1.00  0.00     0.061 C 
HETATM    3  C7  UNL     1      -0.128  -2.817   0.370  1.00  0.00     0.139 C 
HETATM    4  C8  UNL     1      -0.889  -2.291  -0.817  1.00  0.00     0.119 C 
HETATM    5 CL1  UNL     1      -2.460  -3.063  -0.874  1.00  0.00    -0.122 Cl
HETATM    6  C9  UNL     1      -0.989  -0.761  -0.801  1.00  0.00     0.063 C 
HETATM    7  C15 UNL     1       0.371  -0.173  -0.600  1.00  0.00     0.148 C 
ENDROOT
BRANCH   1   8
HETATM    8  N2  UNL     1       2.380  -0.100   0.673  1.00  0.00    -0.372 N 
ATOM      9  H2  UNL     1       2.580   0.360   1.561  1.00  0.00     0.161 HD
BRANCH   8  10
HETATM   10  C4  UNL     1       3.358  -0.017  -0.365  1.00  0.00     0.089 C 
HETATM   11  N1  UNL     1       3.889  -1.075  -0.856  1.00  0.00    -0.388 N 
ATOM     12  H12 UNL     1       4.587  -1.016  -1.597  1.00  0.00     0.157 HD
ATOM     13  H11 UNL     1       3.612  -1.991  -0.502  1.00  0.00     0.157 HD
BRANCH  10  14
HETATM   14  C3  UNL     1       3.757   1.304  -0.875  1.00  0.00     0.146 C 
HETATM   15 BR1  UNL     1       5.131   1.101  -2.215  1.00  0.00    -0.079 Br
BRANCH  14  16
HETATM   16  C2  UNL     1       4.341   2.164   0.201  1.00  0.00    -0.014 C 
HETATM   17  C1  UNL     1       4.943   1.689   1.272  1.00  0.00     0.008 C 
ENDBRANCH  14  16
ENDBRANCH  10  14
ENDBRANCH   8  10
ENDBRANCH   1   8
BRANCH   7  18
HETATM   18  O2  UNL     1       1.095  -0.420  -1.789  1.00  0.00    -0.393 OA
ATOM     19  H2  UNL     1       0.610  -0.031  -2.507  1.00  0.00     0.210 HD
ENDBRANCH   7  18
BRANCH   3  20
HETATM   20  O1  UNL     1      -0.014  -4.191   0.211  1.00  0.00    -0.394 OA
ATOM     21  H1  UNL     1      -0.895  -4.536   0.293  1.00  0.00     0.210 HD
ENDBRANCH   3  20
BRANCH   6  22
HETATM   22  C10 UNL     1      -2.017  -0.375   0.194  1.00  0.00     0.245 C 
BRANCH  22  23
HETATM   23  N3  UNL     1      -2.320   0.964   0.415  1.00  0.00    -0.075 N 
HETATM   24  C11 UNL     1      -2.054   1.920  -0.611  1.00  0.00     0.272 C 
HETATM   25  C12 UNL     1      -1.705   1.458   1.643  1.00  0.00     0.272 C 
BRANCH  23  26
HETATM   26  C13 UNL     1      -3.772   1.068   0.688  1.00  0.00     0.232 C 
HETATM   27  C14 UNL     1      -4.582   0.571  -0.473  1.00  0.00     0.034 C 
ENDBRANCH  23  26
ENDBRANCH  22  23
ENDBRANCH   6  22
TORSDOF 9
