REMARK  9 active torsions:
REMARK  status: ('A' for Active; 'I' for Inactive)
REMARK    1  A    between atoms: C8_10  and  N2_11 
REMARK    2  A    between atoms: N2_11  and  C9_13 
REMARK    3  A    between atoms: C9_13  and  N3_15 
REMARK    4  A    between atoms: N3_15  and  C10_17 
REMARK    5  A    between atoms: C10_17  and  C11_18 
REMARK    6  A    between atoms: N4_22  and  C15_23 
REMARK    7  A    between atoms: C15_23  and  O1_24 
REMARK    8  A    between atoms: C15_23  and  C16_26 
REMARK    9  A    between atoms: C16_26  and  C17_27 
ROOT
HETATM    1  C11 UNL     1       0.268  -1.069  -0.318  1.00  0.00     0.096 C 
HETATM    2  C12 UNL     1       0.860   0.273  -0.389  1.00  0.00     0.017 C 
HETATM    3  C13 UNL     1      -0.194   1.350  -0.606  1.00  0.00     0.021 C 
HETATM    4  C14 UNL     1      -1.546   0.767  -1.016  1.00  0.00     0.134 C 
HETATM    5  N4  UNL     1      -2.062  -0.179  -0.083  1.00  0.00    -0.301 N 
HETATM    6  C27 UNL     1      -1.028  -1.047   0.467  1.00  0.00     0.231 C 
HETATM    7  O2  UNL     1      -1.217  -1.704   1.493  1.00  0.00    -0.273 OA
ENDROOT
BRANCH   1   8
HETATM    8  C10 UNL     1       1.116  -2.209   0.053  1.00  0.00     0.136 C 
BRANCH   8   9
HETATM    9  N3  UNL     1       2.229  -2.511  -0.790  1.00  0.00    -0.366 N 
ATOM     10  H3  UNL     1       2.073  -3.285  -1.435  1.00  0.00     0.161 HD
BRANCH   9  11
HETATM   11  C9  UNL     1       3.495  -1.926  -0.881  1.00  0.00     0.168 C 
HETATM   12  S1  UNL     1       4.479  -2.505  -2.108  1.00  0.00    -0.041 SA
BRANCH  11  13
HETATM   13  N2  UNL     1       4.049  -0.890  -0.102  1.00  0.00    -0.361 N 
ATOM     14  H2  UNL     1       3.505  -0.471   0.652  1.00  0.00     0.162 HD
BRANCH  13  15
HETATM   15  C8  UNL     1       5.408  -0.416  -0.377  1.00  0.00     0.105 C 
HETATM   16  C2  UNL     1       5.630   0.874   0.406  1.00  0.00     0.095 C 
HETATM   17  C1  UNL     1       5.501   0.729   1.878  1.00  0.00     0.034 C 
HETATM   18  N1  UNL     1       6.758   1.608  -0.066  1.00  0.00    -0.415 N 
HETATM   19  C3  UNL     1       8.041   1.203   0.380  1.00  0.00     0.114 C 
ATOM     20  H1  UNL     1       6.645   2.397  -0.702  1.00  0.00     0.153 HD
HETATM   21  C4  UNL     1       8.845   0.482  -0.690  1.00  0.00     0.019 C 
HETATM   22  C5  UNL     1       8.809  -1.005  -0.425  1.00  0.00     0.002 C 
HETATM   23  C6  UNL     1       7.510  -1.533  -1.051  1.00  0.00     0.002 C 
HETATM   24  C7  UNL     1       6.421  -1.461   0.001  1.00  0.00     0.027 C 
ENDBRANCH  13  15
ENDBRANCH  11  13
ENDBRANCH   9  11
ENDBRANCH   8   9
ENDBRANCH   1   8
BRANCH   5  25
HETATM   25  C15 UNL     1      -3.395  -0.318   0.285  1.00  0.00     0.129 C 
BRANCH  25  26
HETATM   26  O1  UNL     1      -3.567  -1.280   1.151  1.00  0.00    -0.349 OA
ATOM     27  H1  UNL     1      -4.478  -1.375   1.403  1.00  0.00     0.219 HD
ENDBRANCH  25  26
BRANCH  25  28
HETATM   28  C16 UNL     1      -4.619   0.380  -0.098  1.00  0.00     0.029 C 
HETATM   29  C23 UNL     1      -4.600   1.846   0.148  1.00  0.00     0.018 C 
HETATM   30  C24 UNL     1      -5.104   2.547  -1.100  1.00  0.00     0.001 C 
HETATM   31  C25 UNL     1      -5.032   1.539  -2.217  1.00  0.00     0.001 C 
HETATM   32  C26 UNL     1      -4.763   0.208  -1.617  1.00  0.00     0.018 C 
BRANCH  28  33
HETATM   33  C17 UNL     1      -5.867  -0.260   0.510  1.00  0.00     0.002 C 
HETATM   34  C18 UNL     1      -7.122   0.431  -0.065  1.00  0.00     0.006 C 
HETATM   35  C19 UNL     1      -8.333  -0.432   0.343  1.00  0.00     0.000 C 
HETATM   36  C20 UNL     1      -8.476  -0.150   1.841  1.00  0.00     0.000 C 
HETATM   37  C21 UNL     1      -7.273  -0.755   2.479  1.00  0.00     0.000 C 
HETATM   38  C22 UNL     1      -5.958  -0.122   2.008  1.00  0.00     0.006 C 
ENDBRANCH  28  33
ENDBRANCH  25  28
ENDBRANCH   5  25
TORSDOF 9
