REMARK  6 active torsions:
REMARK  status: ('A' for Active; 'I' for Inactive)
REMARK    1  A    between atoms: C5_5  and  O1_6 
REMARK    2  A    between atoms: C16_18  and  C17_19 
REMARK    3  A    between atoms: C17_19  and  N1_20 
REMARK    4  A    between atoms: N1_20  and  C19_22 
REMARK       I    between atoms: N1_20  and  C22_27 
REMARK    5  A    between atoms: C19_22  and  C20_23 
REMARK    6  A    between atoms: C20_23  and  C21_24 
ROOT
HETATM    1  C1  UNL     1      -5.521  -0.288  -1.703  1.00  0.00     0.016 C 
HETATM    2  C2  UNL     1      -4.776   0.589  -0.729  1.00  0.00    -0.036 C 
HETATM    3  C3  UNL     1      -5.299   2.015  -0.958  1.00  0.00     0.012 C 
HETATM    4  C4  UNL     1      -6.764   2.082  -0.712  1.00  0.00     0.032 C 
HETATM    5  C5  UNL     1      -7.249   1.404   0.513  1.00  0.00     0.118 C 
HETATM    6  C6  UNL     1      -6.581   0.090   0.815  1.00  0.00     0.037 C 
HETATM    7  C7  UNL     1      -5.066   0.274   0.706  1.00  0.00    -0.004 C 
HETATM    8  C8  UNL     1      -4.286  -0.831   1.289  1.00  0.00     0.006 C 
HETATM    9  C9  UNL     1      -3.485  -1.654   0.350  1.00  0.00     0.006 C 
HETATM   10  C10 UNL     1      -2.896  -0.945  -0.808  1.00  0.00    -0.005 C 
HETATM   11  C11 UNL     1      -1.393  -1.008  -0.903  1.00  0.00    -0.005 C 
HETATM   12  C12 UNL     1      -0.867  -2.400  -0.980  1.00  0.00     0.006 C 
HETATM   13  C13 UNL     1       0.640  -2.390  -1.119  1.00  0.00     0.006 C 
HETATM   14  C14 UNL     1       1.163  -1.035  -0.808  1.00  0.00    -0.006 C 
HETATM   15  C15 UNL     1       2.646  -0.966  -0.512  1.00  0.00     0.011 C 
HETATM   16  C16 UNL     1       2.823  -0.276   0.791  1.00  0.00     0.013 C 
HETATM   17  C23 UNL     1       1.504   0.537   0.867  1.00  0.00     0.016 C 
HETATM   18  C24 UNL     1       0.553  -0.580   0.489  1.00  0.00    -0.036 C 
HETATM   19  C25 UNL     1       0.627  -1.619   1.586  1.00  0.00     0.016 C 
HETATM   20  C26 UNL     1      -0.842  -0.188   0.235  1.00  0.00    -0.002 C 
HETATM   21  C27 UNL     1      -1.064   1.253  -0.130  1.00  0.00     0.006 C 
HETATM   22  C28 UNL     1      -2.579   1.464  -0.120  1.00  0.00     0.006 C 
HETATM   23  C29 UNL     1      -3.311   0.489  -0.960  1.00  0.00    -0.002 C 
ENDROOT
BRANCH  16  24
HETATM   24  C17 UNL     1       3.919   0.686   0.934  1.00  0.00     0.253 C 
BRANCH  24  25
HETATM   25  N1  UNL     1       5.276   0.196   0.743  1.00  0.00     0.008 N 
HETATM   26  C18 UNL     1       5.435  -1.163   1.150  1.00  0.00     0.285 C 
HETATM   27  C22 UNL     1       5.540   0.396  -0.651  1.00  0.00     0.427 C 
HETATM   28  N3  UNL     1       6.063  -0.565  -1.526  1.00  0.00    -0.033 NA
HETATM   29  O3  UNL     1       5.261   1.559  -1.103  1.00  0.00    -0.243 OA
BRANCH  25  30
HETATM   30  C19 UNL     1       6.104   1.039   1.580  1.00  0.00     0.257 C 
BRANCH  30  31
HETATM   31  C20 UNL     1       7.306   1.638   0.977  1.00  0.00     0.128 C 
BRANCH  31  32
HETATM   32  C21 UNL     1       8.369   0.755   0.507  1.00  0.00     0.232 C 
HETATM   33  N2  UNL     1       9.302   1.247  -0.490  1.00  0.00    -0.062 NA
HETATM   34  O2  UNL     1       8.488  -0.412   0.952  1.00  0.00    -0.277 OA
ENDBRANCH  31  32
ENDBRANCH  30  31
ENDBRANCH  25  30
ENDBRANCH  24  25
ENDBRANCH  16  24
BRANCH   5  35
HETATM   35  O1  UNL     1      -8.618   1.158   0.375  1.00  0.00    -0.396 OA
ATOM     36  H1  UNL     1      -8.929   0.723   1.160  1.00  0.00     0.210 HD
ENDBRANCH   5  35
TORSDOF 6
