REMARK  5 active torsions:
REMARK  status: ('A' for Active; 'I' for Inactive)
REMARK    1  A    between atoms: C2_2  and  C4_4 
REMARK    2  A    between atoms: C4_4  and  C5_5 
REMARK    3  A    between atoms: C5_5  and  N1_6 
REMARK    4  A    between atoms: C5_5  and  C7_11 
REMARK       I    between atoms: C7_11  and  N4_13 
REMARK    5  A    between atoms: N4_13  and  C8_15 
ROOT
HETATM    1  C8  UNL     1       1.082  -2.069  -0.656  1.00  0.00     0.093 C 
HETATM    2  C9  UNL     1       0.578  -2.443  -2.046  1.00  0.00     0.026 C 
HETATM    3  C10 UNL     1      -0.830  -1.830  -2.157  1.00  0.00     0.008 C 
HETATM    4  C11 UNL     1      -0.861  -0.825  -1.009  1.00  0.00     0.003 C 
HETATM    5  C12 UNL     1      -2.238  -0.397  -0.610  1.00  0.00     0.034 C 
HETATM    6  C13 UNL     1      -2.450  -0.099   0.853  1.00  0.00    -0.032 C 
HETATM    7  C14 UNL     1      -1.986   1.283   1.262  1.00  0.00     0.010 C 
HETATM    8  C15 UNL     1      -2.169   2.335   0.256  1.00  0.00     0.008 C 
HETATM    9  C16 UNL     1      -3.113   1.979  -0.862  1.00  0.00     0.021 C 
HETATM   10  C17 UNL     1      -4.536   2.281  -0.520  1.00  0.00     0.009 C 
HETATM   11  C18 UNL     1      -5.063   1.674   0.743  1.00  0.00     0.020 C 
HETATM   12  C19 UNL     1      -5.002   0.151   0.693  1.00  0.00     0.045 C 
HETATM   13  C20 UNL     1      -6.245  -0.444   1.322  1.00  0.00     0.026 C 
HETATM   14  C21 UNL     1      -3.838  -0.429   1.347  1.00  0.00     0.029 C 
HETATM   15  C22 UNL     1      -5.099  -0.154  -0.777  1.00  0.00     0.268 C 
HETATM   16  O2  UNL     1      -6.106  -0.781  -1.191  1.00  0.00    -0.264 OA
HETATM   17  O3  UNL     1      -4.205   0.168  -1.787  1.00  0.00    -0.309 OA
HETATM   18  C23 UNL     1      -2.863   0.631  -1.481  1.00  0.00     0.075 C 
HETATM   19  C24 UNL     1      -2.229   0.823  -2.838  1.00  0.00     0.047 C 
HETATM   20  C25 UNL     1      -1.596  -0.999   1.763  1.00  0.00     0.011 C 
HETATM   21  C26 UNL     1      -0.176  -1.111   1.323  1.00  0.00     0.012 C 
HETATM   22  C27 UNL     1      -0.227  -1.755   0.009  1.00  0.00    -0.019 C 
HETATM   23  C28 UNL     1      -0.953  -3.076   0.137  1.00  0.00     0.018 C 
ENDROOT
BRANCH   1  24
HETATM   24  N4  UNL     1       2.034  -1.026  -0.677  1.00  0.00    -0.354 N 
HETATM   25  C7  UNL     1       3.302  -1.202  -0.081  1.00  0.00     0.240 C 
HETATM   26  O1  UNL     1       3.599  -2.303   0.481  1.00  0.00    -0.271 OA
ATOM     27  H4  UNL     1       1.804  -0.139  -1.126  1.00  0.00     0.162 HD
BRANCH  25  28
HETATM   28  C5  UNL     1       4.335  -0.111  -0.087  1.00  0.00     0.176 C 
BRANCH  28  29
HETATM   29  C4  UNL     1       3.743   1.148   0.507  1.00  0.00     0.038 C 
BRANCH  29  30
HETATM   30  C2  UNL     1       4.669   2.320   0.449  1.00  0.00    -0.020 C 
HETATM   31  C1  UNL     1       5.964   2.125   1.182  1.00  0.00     0.009 C 
HETATM   32  C3  UNL     1       3.956   3.494   1.121  1.00  0.00     0.009 C 
ENDBRANCH  29  30
ENDBRANCH  28  29
BRANCH  28  33
HETATM   33  N1  UNL     1       5.541  -0.544   0.578  1.00  0.00    -0.354 N 
HETATM   34  C6  UNL     1       6.356  -1.336  -0.031  1.00  0.00     0.197 C 
HETATM   35  N2  UNL     1       7.560  -1.803   0.559  1.00  0.00    -0.067 NA
HETATM   36  N3  UNL     1       6.071  -1.783  -1.351  1.00  0.00    -0.067 NA
ATOM     37  H1  UNL     1       5.747  -0.225   1.525  1.00  0.00     0.162 HD
ENDBRANCH  28  33
ENDBRANCH  25  28
ENDBRANCH   1  24
TORSDOF 5
