REMARK  9 active torsions:
REMARK  status: ('A' for Active; 'I' for Inactive)
REMARK    1  A    between atoms: C2_2  and  C4_4 
REMARK    2  A    between atoms: C4_4  and  C5_5 
REMARK    3  A    between atoms: C4_4  and  N1_8 
REMARK    4  A    between atoms: C9_12  and  N2_13 
REMARK       I    between atoms: N2_13  and  C10_15 
REMARK    5  A    between atoms: C10_15  and  C11_17 
REMARK    6  A    between atoms: C11_17  and  C12_18 
REMARK    7  A    between atoms: C17_24  and  C18_25 
REMARK    8  A    between atoms: C18_25  and  O4_26 
REMARK    9  A    between atoms: N3_28  and  O5_30 
ROOT
HETATM    1  C11 UNL     1      -1.678   0.001  -0.253  1.00  0.00     0.136 C 
ENDROOT
BRANCH   1   2
HETATM    2  C10 UNL     1      -0.669   1.064  -0.352  1.00  0.00     0.220 C 
HETATM    3  N2  UNL     1       0.598   0.875   0.299  1.00  0.00    -0.355 N 
ATOM      4  H2  UNL     1       0.778   0.014   0.816  1.00  0.00     0.162 HD
HETATM    5  O3  UNL     1      -0.894   2.136  -0.995  1.00  0.00    -0.274 OA
BRANCH   3   6
HETATM    6  C9  UNL     1       1.629   1.904   0.226  1.00  0.00     0.112 C 
HETATM    7  C8  UNL     1       2.045   2.405   1.590  1.00  0.00     0.029 C 
HETATM    8  C7  UNL     1       2.477   1.206   2.397  1.00  0.00     0.032 C 
HETATM    9  C6  UNL     1       3.556   0.428   1.616  1.00  0.00     0.273 C 
HETATM   10  N1  UNL     1       3.946   1.165   0.476  1.00  0.00     0.105 N 
HETATM   11  C19 UNL     1       2.865   1.366  -0.453  1.00  0.00     0.298 C 
BRANCH  10  12
HETATM   12  C4  UNL     1       5.119   0.734  -0.164  1.00  0.00     0.326 C 
BRANCH  12  13
HETATM   13  C2  UNL     1       5.181  -0.566  -0.858  1.00  0.00     0.021 C 
HETATM   14  C1  UNL     1       6.665  -0.862  -1.158  1.00  0.00     0.012 C 
HETATM   15  C3  UNL     1       4.660  -1.769  -0.158  1.00  0.00     0.012 C 
ENDBRANCH  12  13
BRANCH  12  16
HETATM   16  C5  UNL     1       5.688   1.802  -1.068  1.00  0.00     0.208 C 
HETATM   17  O1  UNL     1       5.225   2.979  -1.040  1.00  0.00    -0.646 OA
HETATM   18  O2  UNL     1       6.709   1.564  -1.944  1.00  0.00    -0.646 OA
ENDBRANCH  12  16
ENDBRANCH  10  12
ENDBRANCH   3   6
ENDBRANCH   1   2
BRANCH   1  19
HETATM   19  C12 UNL     1      -2.980   0.298  -0.924  1.00  0.00     0.205 C 
HETATM   20  C13 UNL     1      -3.611   1.506  -0.334  1.00  0.00     0.108 C 
HETATM   21  S1  UNL     1      -5.424   1.237  -0.480  1.00  0.00    -0.155 SA
HETATM   22  C14 UNL     1      -5.741  -0.287   0.432  1.00  0.00     0.037 C 
HETATM   23  C15 UNL     1      -6.854  -1.019  -0.294  1.00  0.00     0.029 C 
HETATM   24  C16 UNL     1      -6.146  -0.024   1.860  1.00  0.00     0.029 C 
HETATM   25  C17 UNL     1      -4.466  -1.111   0.356  1.00  0.00     0.279 C 
HETATM   26  N4  UNL     1      -3.814  -0.898  -0.884  1.00  0.00    -0.057 N 
ATOM     27  H42 UNL     1      -4.492  -0.886  -1.646  1.00  0.00     0.278 HD
ATOM     28  H41 UNL     1      -3.271  -1.720  -1.148  1.00  0.00     0.278 HD
BRANCH  25  29
HETATM   29  C18 UNL     1      -4.710  -2.516   0.662  1.00  0.00     0.168 C 
HETATM   30  N3  UNL     1      -4.793  -3.433  -0.178  1.00  0.00    -0.249 N 
ATOM     31  H3  UNL     1      -4.966  -4.340   0.255  1.00  0.00     0.196 HD
BRANCH  29  32
HETATM   32  O4  UNL     1      -4.872  -2.877   2.016  1.00  0.00    -0.346 OA
ATOM     33  H4  UNL     1      -5.031  -3.792   2.215  1.00  0.00     0.219 HD
ENDBRANCH  29  32
BRANCH  30  34
HETATM   34  O5  UNL     1      -4.710  -3.514  -1.502  1.00  0.00    -0.288 OA
ATOM     35  H5  UNL     1      -4.773  -4.213  -2.142  1.00  0.00     0.244 HD
ENDBRANCH  30  34
ENDBRANCH  25  29
ENDBRANCH   1  19
TORSDOF 9
