REMARK  10 active torsions:
REMARK  status: ('A' for Active; 'I' for Inactive)
REMARK    1  A    between atoms: C2_2  and  C4_4 
REMARK    2  A    between atoms: C4_4  and  N1_5 
REMARK    3  A    between atoms: C4_4  and  C21_31 
REMARK    4  A    between atoms: C10_13  and  O2_14 
REMARK    5  A    between atoms: C13_18  and  C14_19 
REMARK    6  A    between atoms: C14_19  and  C15_20 
REMARK    7  A    between atoms: C15_20  and  C16_21 
REMARK    8  A    between atoms: C16_21  and  C17_22 
REMARK    9  A    between atoms: C17_22  and  O3_23 
REMARK   10  A    between atoms: C21_31  and  O5_34 
ROOT
HETATM    1  N1  UNL     1      -3.006   0.877   0.402  1.00  0.00    -0.358 N 
ATOM      2  H1  UNL     1      -2.967   1.771   0.891  1.00  0.00     0.162 HD
HETATM    3  C5  UNL     1      -1.907   0.091   0.583  1.00  0.00     0.210 C 
HETATM    4  O1  UNL     1      -0.998  -0.157  -0.411  1.00  0.00    -0.299 OA
HETATM    5  C6  UNL     1      -0.120  -1.144   0.016  1.00  0.00     0.149 C 
HETATM    6  C7  UNL     1       0.086  -2.083  -1.177  1.00  0.00     0.062 C 
HETATM    7  C8  UNL     1       0.673  -3.411  -0.784  1.00  0.00     0.007 C 
HETATM    8  C9  UNL     1       2.158  -3.504  -0.967  1.00  0.00     0.032 C 
HETATM    9  C10 UNL     1       2.893  -2.370  -0.291  1.00  0.00     0.122 C 
HETATM   10  C11 UNL     1       2.109  -1.776   0.843  1.00  0.00     0.023 C 
HETATM   11  C12 UNL     1       3.039  -1.125   1.865  1.00  0.00     0.012 C 
HETATM   12  C13 UNL     1       2.869   0.357   1.701  1.00  0.00    -0.014 C 
HETATM   13  C18 UNL     1       1.375   0.421   1.348  1.00  0.00     0.014 C 
HETATM   14  C19 UNL     1       1.245  -0.658   0.350  1.00  0.00     0.049 C 
HETATM   15  N2  UNL     1      -0.798  -1.844   1.095  1.00  0.00    -0.321 N 
ATOM     16  H2  UNL     1      -0.433  -2.626   1.639  1.00  0.00     0.166 HD
HETATM   17  C20 UNL     1      -2.058  -1.231   1.241  1.00  0.00     0.294 C 
HETATM   18  O4  UNL     1      -3.064  -1.673   1.785  1.00  0.00    -0.264 OA
ENDROOT
BRANCH   1  19
HETATM   19  C4  UNL     1      -4.156   0.679  -0.322  1.00  0.00     0.120 C 
BRANCH  19  20
HETATM   20  C2  UNL     1      -4.038   0.604  -1.792  1.00  0.00     0.003 C 
HETATM   21  C1  UNL     1      -3.419   1.818  -2.431  1.00  0.00     0.011 C 
HETATM   22  C3  UNL     1      -3.441  -0.646  -2.336  1.00  0.00     0.011 C 
ENDBRANCH  19  20
BRANCH  19  23
HETATM   23  C21 UNL     1      -5.253   1.655   0.124  1.00  0.00     0.071 C 
HETATM   24  C22 UNL     1      -5.530   1.464   1.616  1.00  0.00     0.047 C 
HETATM   25  C23 UNL     1      -6.536   1.432  -0.594  1.00  0.00     0.047 C 
BRANCH  23  26
HETATM   26  O5  UNL     1      -4.874   2.981  -0.051  1.00  0.00    -0.389 OA
ATOM     27  H5  UNL     1      -5.553   3.585   0.225  1.00  0.00     0.210 HD
ENDBRANCH  23  26
ENDBRANCH  19  23
ENDBRANCH   1  19
BRANCH   9  28
HETATM   28  O2  UNL     1       4.101  -2.822   0.235  1.00  0.00    -0.395 OA
ATOM     29  H2  UNL     1       4.563  -2.109   0.660  1.00  0.00     0.210 HD
ENDBRANCH   9  28
BRANCH  12  30
HETATM   30  C14 UNL     1       3.718   0.980   0.647  1.00  0.00     0.005 C 
BRANCH  30  31
HETATM   31  C15 UNL     1       5.172   0.770   0.938  1.00  0.00     0.002 C 
BRANCH  31  32
HETATM   32  C16 UNL     1       6.086   1.377  -0.099  1.00  0.00     0.026 C 
BRANCH  32  33
HETATM   33  C17 UNL     1       5.945   2.852  -0.262  1.00  0.00     0.164 C 
BRANCH  33  34
HETATM   34  O3  UNL     1       6.870   3.230  -1.263  1.00  0.00    -0.401 OA
ATOM     35  H3  UNL     1       6.780   4.170  -1.367  1.00  0.00     0.209 HD
ENDBRANCH  33  34
ENDBRANCH  32  33
ENDBRANCH  31  32
ENDBRANCH  30  31
ENDBRANCH  12  30
TORSDOF 10
