REMARK  7 active torsions:
REMARK  status: ('A' for Active; 'I' for Inactive)
REMARK    1  A    between atoms: C2_2  and  C4_4 
REMARK    2  A    between atoms: C4_4  and  N1_5 
REMARK       I    between atoms: N1_5  and  C5_7 
REMARK    3  A    between atoms: C5_7  and  C6_9 
REMARK    4  A    between atoms: C6_9  and  N2_10 
REMARK    5  A    between atoms: N2_10  and  C7_12 
REMARK    6  A    between atoms: C7_12  and  C9_17 
REMARK    7  A    between atoms: C18_26  and  O2_27 
ROOT
HETATM    1  C7  UNL     1       2.036   1.122  -0.321  1.00  0.00     0.091 C 
HETATM    2  N3  UNL     1       2.550   2.330  -0.338  1.00  0.00    -0.283 N 
ATOM      3  H3  UNL     1       3.289   2.551  -1.006  1.00  0.00     0.179 HD
HETATM    4  C8  UNL     1       2.104   3.316   0.540  1.00  0.00     0.183 C 
HETATM    5  N4  UNL     1       1.729   4.158   1.262  1.00  0.00    -0.172 NA
ENDROOT
BRANCH   1   6
HETATM    6  N2  UNL     1       2.529   0.186  -1.227  1.00  0.00    -0.370 N 
ATOM      7  H2  UNL     1       1.994   0.020  -2.080  1.00  0.00     0.161 HD
BRANCH   6   8
HETATM    8  C6  UNL     1       3.725  -0.551  -1.041  1.00  0.00     0.223 C 
BRANCH   8   9
HETATM    9  C5  UNL     1       5.000   0.176  -1.146  1.00  0.00     0.235 C 
HETATM   10  N1  UNL     1       6.215  -0.548  -0.925  1.00  0.00    -0.359 N 
ATOM     11  H1  UNL     1       6.160  -1.542  -0.703  1.00  0.00     0.162 HD
HETATM   12  O1  UNL     1       5.017   1.396  -1.423  1.00  0.00    -0.272 OA
BRANCH  10  13
HETATM   13  C4  UNL     1       7.508   0.070  -1.003  1.00  0.00     0.126 C 
BRANCH  13  14
HETATM   14  C2  UNL     1       8.569  -0.972  -0.711  1.00  0.00    -0.005 C 
HETATM   15  C1  UNL     1       9.963  -0.384  -0.777  1.00  0.00     0.011 C 
HETATM   16  C3  UNL     1       8.368  -1.563   0.668  1.00  0.00     0.011 C 
ENDBRANCH  13  14
ENDBRANCH  10  13
ENDBRANCH   8   9
ENDBRANCH   6   8
ENDBRANCH   1   6
BRANCH   1  17
HETATM   17  C9  UNL     1       0.966   0.858   0.637  1.00  0.00     0.062 C 
HETATM   18  C10 UNL     1       1.176  -0.331   1.544  1.00  0.00     0.013 C 
HETATM   19  C11 UNL     1      -0.247  -0.724   2.004  1.00  0.00     0.010 C 
HETATM   20  C12 UNL     1      -1.121   0.304   1.371  1.00  0.00     0.023 C 
HETATM   21  C13 UNL     1      -2.486  -0.097   1.047  1.00  0.00    -0.074 C 
HETATM   22  C26 UNL     1      -0.378   0.515   0.040  1.00  0.00    -0.026 C 
HETATM   23  C14 UNL     1      -3.001  -1.182   1.601  1.00  0.00    -0.023 C 
HETATM   24  C23 UNL     1      -3.230   0.769   0.097  1.00  0.00     0.023 C 
HETATM   25  C15 UNL     1      -4.390  -1.646   1.312  1.00  0.00     0.033 C 
HETATM   26  C16 UNL     1      -5.177  -0.393   0.950  1.00  0.00     0.000 C 
HETATM   27  C17 UNL     1      -6.642  -0.569   0.928  1.00  0.00     0.037 C 
HETATM   28  C21 UNL     1      -4.575   0.253  -0.279  1.00  0.00    -0.033 C 
HETATM   29  C18 UNL     1      -7.350  -0.203  -0.329  1.00  0.00     0.118 C 
HETATM   30  C19 UNL     1      -6.846   1.022  -1.021  1.00  0.00     0.032 C 
HETATM   31  C20 UNL     1      -5.448   1.418  -0.676  1.00  0.00     0.012 C 
HETATM   32  C22 UNL     1      -4.443  -0.736  -1.418  1.00  0.00     0.016 C 
HETATM   33  C24 UNL     1      -2.408   1.217  -1.086  1.00  0.00     0.010 C 
HETATM   34  C25 UNL     1      -1.051   1.656  -0.642  1.00  0.00     0.011 C 
HETATM   35  C27 UNL     1      -0.411  -0.775  -0.704  1.00  0.00     0.016 C 
BRANCH  29  36
HETATM   36  O2  UNL     1      -8.701   0.054   0.008  1.00  0.00    -0.396 OA
ATOM     37  H2  UNL     1      -9.153   0.288  -0.794  1.00  0.00     0.210 HD
ENDBRANCH  29  36
ENDBRANCH   1  17
TORSDOF 7
