REMARK  6 active torsions:
REMARK  status: ('A' for Active; 'I' for Inactive)
REMARK    1  A    between atoms: O1_2  and  N1_3 
REMARK       I    between atoms: N1_3  and  C3_5 
REMARK    2  A    between atoms: C3_5  and  C4_7 
REMARK    3  A    between atoms: C10_13  and  N2_14 
REMARK       I    between atoms: N2_14  and  C11_16 
REMARK       I    between atoms: C11_16  and  N3_18 
REMARK    4  A    between atoms: N3_18  and  C12_20 
REMARK    5  A    between atoms: C16_24  and  C17_25 
REMARK       I    between atoms: C17_25  and  N4_27 
REMARK    6  A    between atoms: N4_27  and  C18_29 
ROOT
HETATM    1  N2  UNL     1      -1.485  -2.075   1.110  1.00  0.00    -0.334 N 
ATOM      2  H2  UNL     1      -1.285  -2.557   1.987  1.00  0.00     0.165 HD
HETATM    3  C11 UNL     1      -0.369  -1.652   0.367  1.00  0.00     0.317 C 
HETATM    4  O3  UNL     1      -0.529  -1.049  -0.715  1.00  0.00    -0.247 OA
HETATM    5  N3  UNL     1       0.956  -1.891   0.809  1.00  0.00    -0.338 N 
ATOM      6  H3  UNL     1       1.102  -2.383   1.690  1.00  0.00     0.164 HD
ENDROOT
BRANCH   1   7
HETATM    7  C10 UNL     1      -2.863  -1.910   0.783  1.00  0.00     0.036 C 
HETATM    8  C9  UNL     1      -3.181  -2.611  -0.497  1.00  0.00     0.035 C 
HETATM    9  C8  UNL     1      -4.635  -2.388  -0.928  1.00  0.00    -0.011 C 
HETATM   10  C7  UNL     1      -5.513  -2.982   0.120  1.00  0.00     0.009 C 
HETATM   11  C25 UNL     1      -4.776  -0.882  -1.069  1.00  0.00     0.024 C 
HETATM   12  C6  UNL     1      -5.198  -2.334   1.449  1.00  0.00    -0.011 C 
HETATM   13  C5  UNL     1      -5.535  -0.878   1.314  1.00  0.00     0.024 C 
HETATM   14  C23 UNL     1      -3.775  -2.498   1.855  1.00  0.00     0.035 C 
HETATM   15  C4  UNL     1      -4.631  -0.226   0.277  1.00  0.00     0.046 C 
HETATM   16  C24 UNL     1      -3.213  -0.423   0.750  1.00  0.00     0.050 C 
BRANCH  15  17
HETATM   17  C3  UNL     1      -4.993   1.193   0.218  1.00  0.00     0.251 C 
HETATM   18  N1  UNL     1      -4.353   2.134  -0.613  1.00  0.00    -0.231 N 
HETATM   19  C2  UNL     1      -4.762   3.547  -0.632  1.00  0.00     0.189 C 
HETATM   20  O2  UNL     1      -5.933   1.631   0.946  1.00  0.00    -0.270 OA
BRANCH  18  21
HETATM   21  O1  UNL     1      -3.344   1.756  -1.413  1.00  0.00    -0.281 OA
HETATM   22  C1  UNL     1      -3.224   2.669  -2.481  1.00  0.00     0.238 C 
ENDBRANCH  18  21
ENDBRANCH  15  17
ENDBRANCH   1   7
BRANCH   5  23
HETATM   23  C12 UNL     1       2.100  -1.462   0.055  1.00  0.00     0.087 C 
HETATM   24  C13 UNL     1       2.838  -2.706  -0.379  1.00  0.00     0.025 C 
HETATM   25  C14 UNL     1       3.945  -2.354  -1.322  1.00  0.00     0.003 C 
HETATM   26  C15 UNL     1       4.509  -0.981  -1.038  1.00  0.00     0.014 C 
HETATM   27  C16 UNL     1       4.408  -0.769   0.468  1.00  0.00     0.080 C 
HETATM   28  C22 UNL     1       2.964  -0.486   0.792  1.00  0.00     0.039 C 
BRANCH  27  29
HETATM   29  C17 UNL     1       5.299   0.363   0.794  1.00  0.00     0.222 C 
HETATM   30  O4  UNL     1       6.242   0.187   1.594  1.00  0.00    -0.273 OA
HETATM   31  N4  UNL     1       5.105   1.636   0.220  1.00  0.00    -0.353 N 
ATOM     32  H4  UNL     1       4.332   1.771  -0.432  1.00  0.00     0.163 HD
BRANCH  31  33
HETATM   33  C18 UNL     1       5.968   2.757   0.527  1.00  0.00     0.022 C 
HETATM   34  C19 UNL     1       7.408   2.480   0.161  1.00  0.00     0.037 C 
HETATM   35  C20 UNL     1       5.557   3.990  -0.270  1.00  0.00     0.037 C 
HETATM   36  C21 UNL     1       5.837   3.096   1.978  1.00  0.00     0.037 C 
ENDBRANCH  31  33
ENDBRANCH  27  29
ENDBRANCH   5  23
TORSDOF 6
