REMARK  9 active torsions:
REMARK  status: ('A' for Active; 'I' for Inactive)
REMARK    1  A    between atoms: N1_1  and  C1_5 
REMARK    2  A    between atoms: C1_5  and  C2_6 
REMARK    3  A    between atoms: C2_6  and  C3_7 
REMARK    4  A    between atoms: C3_7  and  C4_8 
REMARK    5  A    between atoms: C9_13  and  S1_14 
REMARK    6  A    between atoms: S1_14  and  C10_15 
REMARK    7  A    between atoms: C10_15  and  C11_16 
REMARK    8  A    between atoms: C11_16  and  N2_17 
REMARK    9  A    between atoms: N2_17  and  C12_19 
ROOT
HETATM    1  C4  UNL     1       2.577   0.636   0.701  1.00  0.00    -0.041 A 
HETATM    2  C5  UNL     1       3.403   1.363   1.564  1.00  0.00     0.008 A 
HETATM    3  C6  UNL     1       3.620   0.831   2.819  1.00  0.00     0.001 A 
HETATM    4  C7  UNL     1       3.059  -0.359   3.220  1.00  0.00     0.001 A 
HETATM    5  C8  UNL     1       2.241  -1.053   2.333  1.00  0.00     0.019 A 
HETATM    6  C9  UNL     1       2.011  -0.544   1.089  1.00  0.00     0.006 A 
ENDROOT
BRANCH   6   7
HETATM    7  S1  UNL     1       0.884  -1.404   0.018  1.00  0.00    -0.128 SA
BRANCH   7   8
HETATM    8  C10 UNL     1      -0.808  -0.976   0.426  1.00  0.00     0.099 C 
BRANCH   8   9
HETATM    9  C11 UNL     1      -1.148   0.487   0.245  1.00  0.00     0.130 C 
BRANCH   9  10
HETATM   10  N2  UNL     1      -2.522   0.695   0.586  1.00  0.00    -0.388 N 
ATOM     11  H2  UNL     1      -2.730   1.182   1.458  1.00  0.00     0.159 HD
BRANCH  10  12
HETATM   12  C12 UNL     1      -3.616   0.265  -0.216  1.00  0.00     0.052 A 
HETATM   13  C13 UNL     1      -3.469  -0.243  -1.485  1.00  0.00     0.031 A 
HETATM   14  C14 UNL     1      -4.555  -0.630  -2.262  1.00  0.00     0.002 A 
HETATM   15  C15 UNL     1      -5.832  -0.510  -1.764  1.00  0.00     0.002 A 
HETATM   16  C16 UNL     1      -6.002  -0.003  -0.496  1.00  0.00     0.029 A 
HETATM   17  C17 UNL     1      -4.907   0.372   0.249  1.00  0.00     0.072 A 
HETATM   18  N3  UNL     1      -5.098   0.895   1.568  1.00  0.00    -0.100 NA
ENDBRANCH  10  12
ENDBRANCH   9  10
ENDBRANCH   8   9
ENDBRANCH   7   8
ENDBRANCH   6   7
BRANCH   1  19
HETATM   19  C3  UNL     1       2.481   1.158  -0.679  1.00  0.00     0.041 C 
BRANCH  19  20
HETATM   20  C2  UNL     1       3.628   0.702  -1.518  1.00  0.00     0.032 C 
BRANCH  20  21
HETATM   21  C1  UNL     1       3.780  -0.769  -1.672  1.00  0.00     0.230 C 
BRANCH  21  22
HETATM   22  N1  UNL     1       4.984  -0.984  -2.506  1.00  0.00    -0.079 N 
ATOM     23  H13 UNL     1       4.952  -0.486  -3.396  1.00  0.00     0.274 HD
ATOM     24  H12 UNL     1       5.818  -0.529  -2.135  1.00  0.00     0.274 HD
ATOM     25  H11 UNL     1       5.088  -1.993  -2.612  1.00  0.00     0.274 HD
ENDBRANCH  21  22
ENDBRANCH  20  21
ENDBRANCH  19  20
ENDBRANCH   1  19
TORSDOF 9
