REMARK  12 active torsions:
REMARK  status: ('A' for Active; 'I' for Inactive)
REMARK    1  A    between atoms: C2_2  and  C4_4 
REMARK    2  A    between atoms: C4_4  and  C5_5 
REMARK    3  A    between atoms: C5_5  and  C6_6 
REMARK    4  A    between atoms: C6_6  and  N1_7 
REMARK    5  A    between atoms: C6_6  and  C22_26 
REMARK    6  A    between atoms: C6_6  and  C28_38 
REMARK    7  A    between atoms: N1_7  and  C7_9 
REMARK    8  A    between atoms: C7_9  and  C8_10 
REMARK    9  A    between atoms: C7_9  and  C12_14 
REMARK   10  A    between atoms: C8_10  and  C9_11 
REMARK       I    between atoms: C12_14  and  N2_16 
REMARK       I    between atoms: C22_26  and  N3_28 
REMARK   11  A    between atoms: N3_28  and  C23_30 
REMARK       I    between atoms: C28_38  and  N6_40 
REMARK   12  A    between atoms: N6_40  and  C29_42 
ROOT
HETATM    1  C6  UNL     1      -1.336   0.467   0.287  1.00  0.00     0.190 C 
ENDROOT
BRANCH   1   2
HETATM    2  C5  UNL     1      -1.894  -0.302   1.512  1.00  0.00     0.051 C 
BRANCH   2   3
HETATM    3  C4  UNL     1      -1.350  -1.669   1.657  1.00  0.00     0.007 C 
BRANCH   3   4
HETATM    4  C2  UNL     1      -2.008  -2.272   2.911  1.00  0.00    -0.023 C 
HETATM    5  C1  UNL     1      -3.503  -2.318   2.759  1.00  0.00     0.009 C 
HETATM    6  C3  UNL     1      -1.616  -1.505   4.140  1.00  0.00     0.009 C 
ENDBRANCH   3   4
ENDBRANCH   2   3
ENDBRANCH   1   2
BRANCH   1   7
HETATM    7  N1  UNL     1       0.034   0.554   0.473  1.00  0.00    -0.385 N 
ATOM      8  H1  UNL     1       0.380   0.506   1.431  1.00  0.00     0.155 HD
BRANCH   7   9
HETATM    9  C7  UNL     1       0.997   0.705  -0.560  1.00  0.00     0.171 C 
BRANCH   9  10
HETATM   10  C8  UNL     1       0.814   1.942  -1.351  1.00  0.00     0.038 C 
BRANCH  10  11
HETATM   11  C9  UNL     1       1.679   2.324  -2.457  1.00  0.00    -0.020 C 
HETATM   12  C10 UNL     1       3.111   2.588  -2.276  1.00  0.00     0.009 C 
HETATM   13  C11 UNL     1       1.582   1.314  -3.633  1.00  0.00     0.009 C 
ENDBRANCH  10  11
ENDBRANCH   9  10
BRANCH   9  14
HETATM   14  C12 UNL     1       2.303   0.850   0.181  1.00  0.00     0.242 C 
HETATM   15  O1  UNL     1       2.246   1.704   1.131  1.00  0.00    -0.271 OA
HETATM   16  N2  UNL     1       3.489   0.179  -0.053  1.00  0.00    -0.350 N 
HETATM   17  C13 UNL     1       3.740  -0.872  -1.014  1.00  0.00     0.126 C 
HETATM   18  C21 UNL     1       4.664   0.555   0.742  1.00  0.00     0.126 C 
HETATM   19  C14 UNL     1       4.375  -2.065  -0.324  1.00  0.00     0.029 C 
HETATM   20  C15 UNL     1       5.622  -1.664   0.430  1.00  0.00    -0.037 C 
HETATM   21  C16 UNL     1       6.215  -2.838   1.181  1.00  0.00     0.010 C 
HETATM   22  C19 UNL     1       6.759  -1.279  -0.493  1.00  0.00     0.010 C 
HETATM   23  C20 UNL     1       5.277  -0.615   1.434  1.00  0.00     0.029 C 
HETATM   24  C17 UNL     1       7.700  -2.512   1.329  1.00  0.00     0.001 C 
HETATM   25  C18 UNL     1       8.017  -1.447   0.332  1.00  0.00     0.001 C 
ENDBRANCH   9  14
ENDBRANCH   7   9
ENDBRANCH   1   7
BRANCH   1  26
HETATM   26  C22 UNL     1      -1.922   1.836   0.547  1.00  0.00     0.261 C 
HETATM   27  O2  UNL     1      -1.360   2.435   1.525  1.00  0.00    -0.270 OA
HETATM   28  N3  UNL     1      -2.925   2.471  -0.111  1.00  0.00    -0.310 N 
ATOM     29  H3  UNL     1      -2.739   2.695  -1.089  1.00  0.00     0.170 HD
BRANCH  28  30
HETATM   30  C23 UNL     1      -4.058   2.822   0.324  1.00  0.00     0.107 A 
HETATM   31  C24 UNL     1      -4.420   2.570   1.629  1.00  0.00     0.050 A 
HETATM   32  C25 UNL     1      -5.650   2.927   2.170  1.00  0.00     0.032 A 
HETATM   33  C26 UNL     1      -6.567   3.566   1.368  1.00  0.00     0.061 A 
HETATM   34  N4  UNL     1      -7.836   3.960   1.835  1.00  0.00    -0.101 NA
HETATM   35  C27 UNL     1      -6.189   3.813   0.055  1.00  0.00     0.116 A 
HETATM   36  N5  UNL     1      -4.989   3.452  -0.427  1.00  0.00    -0.350 N 
ATOM     37  H5  UNL     1      -4.771   3.662  -1.401  1.00  0.00     0.166 HD
ENDBRANCH  28  30
ENDBRANCH   1  26
BRANCH   1  38
HETATM   38  C28 UNL     1      -1.890  -0.230  -0.854  1.00  0.00     0.256 C 
HETATM   39  O3  UNL     1      -1.135  -0.683  -1.747  1.00  0.00    -0.270 OA
HETATM   40  N6  UNL     1      -3.268  -0.465  -1.076  1.00  0.00    -0.350 N 
ATOM     41  H6  UNL     1      -3.928  -0.121  -0.379  1.00  0.00     0.163 HD
BRANCH  40  42
HETATM   42  C29 UNL     1      -3.802  -1.160  -2.225  1.00  0.00     0.022 C 
HETATM   43  C30 UNL     1      -3.465  -0.471  -3.522  1.00  0.00     0.037 C 
HETATM   44  C31 UNL     1      -3.150  -2.550  -2.310  1.00  0.00     0.037 C 
HETATM   45  C32 UNL     1      -5.263  -1.396  -2.033  1.00  0.00     0.037 C 
ENDBRANCH  40  42
ENDBRANCH   1  38
TORSDOF 12
