REMARK  10 active torsions:
REMARK  status: ('A' for Active; 'I' for Inactive)
REMARK    1  A    between atoms: C2_2  and  C3_3 
REMARK    2  A    between atoms: C3_3  and  C4_4 
REMARK       I    between atoms: C4_4  and  N1_6 
REMARK    3  A    between atoms: N1_6  and  C5_8 
REMARK       I    between atoms: N2_20  and  C17_21 
REMARK       I    between atoms: C17_21  and  N3_23 
REMARK    4  A    between atoms: N3_23  and  C18_25 
REMARK    5  A    between atoms: C18_25  and  C19_26 
REMARK    6  A    between atoms: C18_25  and  C22_30 
REMARK    7  A    between atoms: C19_26  and  C20_27 
REMARK    8  A    between atoms: C20_27  and  S1_28 
REMARK       I    between atoms: C22_30  and  N4_32 
REMARK    9  A    between atoms: N4_32  and  C23_34 
REMARK   10  A    between atoms: C23_34  and  C24_35 
ROOT
HETATM    1  C5  UNL     1      -3.341   1.289   0.084  1.00  0.00     0.178 C 
HETATM    2  C6  UNL     1      -4.776   0.941   0.557  1.00  0.00     0.035 C 
HETATM    3  C7  UNL     1      -4.984  -0.518   0.747  1.00  0.00     0.002 C 
HETATM    4  C8  UNL     1      -6.087  -0.699   1.805  1.00  0.00     0.000 C 
HETATM    5  C9  UNL     1      -5.731  -1.992   2.557  1.00  0.00     0.000 C 
HETATM    6  C10 UNL     1      -6.045  -3.130   1.636  1.00  0.00     0.000 C 
HETATM    7  C11 UNL     1      -5.293  -4.390   1.887  1.00  0.00     0.000 C 
HETATM    8  C12 UNL     1      -4.338  -4.339   3.033  1.00  0.00     0.000 C 
HETATM    9  C13 UNL     1      -2.910  -4.098   2.673  1.00  0.00     0.000 C 
HETATM   10  C14 UNL     1      -2.625  -3.817   1.241  1.00  0.00     0.002 C 
HETATM   11  C15 UNL     1      -1.381  -2.925   1.180  1.00  0.00     0.022 C 
HETATM   12  C16 UNL     1      -1.373  -2.059  -0.065  1.00  0.00     0.154 C 
HETATM   13  N2  UNL     1      -0.637  -0.817   0.160  1.00  0.00    -0.240 N 
HETATM   14  C17 UNL     1       0.656  -0.677  -0.432  1.00  0.00     0.337 C 
HETATM   15  O2  UNL     1       1.090  -1.630  -1.121  1.00  0.00    -0.245 OA
HETATM   16  N3  UNL     1       1.489   0.458  -0.297  1.00  0.00    -0.328 N 
ATOM     17  H3  UNL     1       1.156   1.250   0.253  1.00  0.00     0.165 HD
HETATM   18  N5  UNL     1      -1.099   0.246   0.938  1.00  0.00    -0.262 N 
ATOM     19  H5  UNL     1      -0.388   0.715   1.499  1.00  0.00     0.190 HD
HETATM   20  C29 UNL     1      -2.394   0.764   1.062  1.00  0.00     0.259 C 
HETATM   21  O4  UNL     1      -2.846   0.790   2.277  1.00  0.00    -0.269 OA
ENDROOT
BRANCH  16  22
HETATM   22  C18 UNL     1       2.800   0.535  -0.913  1.00  0.00     0.179 C 
BRANCH  22  23
HETATM   23  C19 UNL     1       2.979   1.771  -1.769  1.00  0.00     0.045 C 
BRANCH  23  24
HETATM   24  C20 UNL     1       2.798   3.008  -0.902  1.00  0.00     0.076 C 
BRANCH  24  25
HETATM   25  S1  UNL     1       3.037   4.442  -1.990  1.00  0.00    -0.173 SA
HETATM   26  C21 UNL     1       1.723   4.531  -3.225  1.00  0.00     0.089 C 
ENDBRANCH  24  25
ENDBRANCH  23  24
ENDBRANCH  22  23
BRANCH  22  27
HETATM   27  C22 UNL     1       3.821   0.647   0.193  1.00  0.00     0.240 C 
HETATM   28  O3  UNL     1       3.387   0.731   1.390  1.00  0.00    -0.271 OA
HETATM   29  N4  UNL     1       5.206   0.661  -0.023  1.00  0.00    -0.359 N 
ATOM     30  H4  UNL     1       5.571   0.592  -0.973  1.00  0.00     0.162 HD
BRANCH  29  31
HETATM   31  C23 UNL     1       6.111   0.771   1.081  1.00  0.00     0.127 C 
BRANCH  31  32
HETATM   32  C24 UNL     1       7.576   0.741   0.680  1.00  0.00     0.003 C 
HETATM   33  C25 UNL     1       7.917  -0.558  -0.022  1.00  0.00     0.006 C 
HETATM   34  C26 UNL     1       8.963  -1.254   0.846  1.00  0.00     0.000 C 
HETATM   35  C27 UNL     1       9.575  -0.132   1.666  1.00  0.00     0.000 C 
HETATM   36  C28 UNL     1       8.362   0.700   1.968  1.00  0.00     0.006 C 
ENDBRANCH  31  32
ENDBRANCH  29  31
ENDBRANCH  22  27
ENDBRANCH  16  22
BRANCH   1  37
HETATM   37  N1  UNL     1      -3.163   0.973  -1.283  1.00  0.00    -0.348 N 
HETATM   38  C4  UNL     1      -3.235   2.010  -2.278  1.00  0.00     0.218 C 
HETATM   39  O1  UNL     1      -3.459   3.194  -1.876  1.00  0.00    -0.274 OA
ATOM     40  H1  UNL     1      -2.983   0.009  -1.564  1.00  0.00     0.163 HD
BRANCH  38  41
HETATM   41  C3  UNL     1      -3.074   1.806  -3.716  1.00  0.00     0.102 C 
BRANCH  41  42
HETATM   42  C2  UNL     1      -3.260   3.042  -4.531  1.00  0.00     0.005 C 
HETATM   43  C1  UNL     1      -2.324   4.161  -4.237  1.00  0.00     0.005 C 
ENDBRANCH  41  42
ENDBRANCH  38  41
ENDBRANCH   1  37
TORSDOF 10
