REMARK  10 active torsions:
REMARK  status: ('A' for Active; 'I' for Inactive)
REMARK    1  A    between atoms: C3_3  and  N1_4 
REMARK       I    between atoms: N1_4  and  C4_6 
REMARK    2  A    between atoms: C4_6  and  C5_8 
REMARK    3  A    between atoms: C5_8  and  C6_9 
REMARK    4  A    between atoms: C8_11  and  C10_13 
REMARK    5  A    between atoms: C19_24  and  C20_25 
REMARK       I    between atoms: C20_25  and  N2_27 
REMARK    6  A    between atoms: N2_27  and  C21_29 
REMARK    7  A    between atoms: C21_29  and  C22_30 
REMARK    8  A    between atoms: C22_30  and  C23_31 
REMARK    9  A    between atoms: C23_31  and  C24_32 
REMARK   10  A    between atoms: C24_32  and  C25_33 
ROOT
HETATM    1  C1  UNL     1      -8.482   4.161   1.720  1.00  0.00     0.014 C 
HETATM    2  C2  UNL     1      -8.193   4.089   0.557  1.00  0.00    -0.098 C 
HETATM    3  C3  UNL     1      -7.811   3.988  -0.871  1.00  0.00     0.216 C 
ENDROOT
BRANCH   3   4
HETATM    4  N1  UNL     1      -6.415   3.646  -0.996  1.00  0.00    -0.351 N 
HETATM    5  C4  UNL     1      -5.899   2.443  -0.440  1.00  0.00     0.220 C 
HETATM    6  O1  UNL     1      -6.687   1.682   0.166  1.00  0.00    -0.274 OA
ATOM      7  H1  UNL     1      -5.787   4.278  -1.492  1.00  0.00     0.163 HD
BRANCH   5   8
HETATM    8  C5  UNL     1      -4.473   2.067  -0.555  1.00  0.00     0.134 C 
BRANCH   8   9
HETATM    9  C6  UNL     1      -4.254   0.748   0.195  1.00  0.00     0.132 C 
HETATM   10  C7  UNL     1      -5.069  -0.375  -0.335  1.00  0.00     0.053 C 
HETATM   11  C8  UNL     1      -4.195  -1.583  -0.600  1.00  0.00     0.053 C 
HETATM   12  C9  UNL     1      -3.636  -1.378  -1.986  1.00  0.00     0.027 C 
HETATM   13  C11 UNL     1      -3.114  -1.798   0.436  1.00  0.00     0.039 C 
HETATM   14  C12 UNL     1      -2.178  -2.838  -0.111  1.00  0.00     0.009 C 
HETATM   15  C31 UNL     1      -2.492  -0.570   0.971  1.00  0.00     0.066 C 
HETATM   16  C13 UNL     1      -1.475  -3.639   0.956  1.00  0.00     0.001 C 
HETATM   17  C14 UNL     1      -0.625  -2.780   1.864  1.00  0.00     0.005 C 
HETATM   18  C15 UNL     1      -0.137  -1.578   1.137  1.00  0.00    -0.003 C 
HETATM   19  C16 UNL     1       1.149  -1.096   1.699  1.00  0.00    -0.001 C 
HETATM   20  C30 UNL     1      -1.052  -0.416   1.082  1.00  0.00     0.025 C 
HETATM   21  C17 UNL     1       2.230  -2.043   1.967  1.00  0.00     0.007 C 
HETATM   22  C26 UNL     1       1.851  -0.135   0.725  1.00  0.00    -0.028 C 
HETATM   23  C18 UNL     1       3.387  -1.074   2.277  1.00  0.00     0.015 C 
HETATM   24  C19 UNL     1       3.016   0.222   1.574  1.00  0.00     0.086 C 
HETATM   25  C27 UNL     1       2.299  -0.773  -0.532  1.00  0.00     0.016 C 
HETATM   26  C28 UNL     1       0.895   1.011   0.496  1.00  0.00     0.011 C 
HETATM   27  C29 UNL     1      -0.435   0.485  -0.018  1.00  0.00     0.009 C 
HETATM   28  C32 UNL     1      -3.161  -0.221   2.320  1.00  0.00     0.047 C 
HETATM   29  O7  UNL     1      -2.915   0.481   0.127  1.00  0.00    -0.374 OA
BRANCH  11  30
HETATM   30  C10 UNL     1      -5.110  -2.747  -0.596  1.00  0.00     0.182 C 
HETATM   31  O2  UNL     1      -5.060  -3.581   0.326  1.00  0.00    -0.647 OA
HETATM   32  O3  UNL     1      -6.016  -2.899  -1.617  1.00  0.00    -0.647 OA
ENDBRANCH  11  30
BRANCH  24  33
HETATM   33  C20 UNL     1       4.152   0.860   0.892  1.00  0.00     0.222 C 
HETATM   34  O4  UNL     1       4.193   2.139   0.916  1.00  0.00    -0.273 OA
HETATM   35  N2  UNL     1       5.195   0.187   0.215  1.00  0.00    -0.361 N 
ATOM     36  H2  UNL     1       5.198  -0.832   0.182  1.00  0.00     0.162 HD
BRANCH  35  37
HETATM   37  C21 UNL     1       6.271   0.936  -0.439  1.00  0.00     0.122 C 
BRANCH  37  38
HETATM   38  C22 UNL     1       7.221  -0.039  -1.059  1.00  0.00     0.020 C 
BRANCH  38  39
HETATM   39  C23 UNL     1       8.333   0.708  -1.749  1.00  0.00     0.012 C 
BRANCH  39  40
HETATM   40  C24 UNL     1       9.113   1.553  -0.770  1.00  0.00     0.113 C 
BRANCH  40  41
HETATM   41  C25 UNL     1      10.223   2.276  -1.467  1.00  0.00     0.172 C 
HETATM   42  O5  UNL     1      10.333   2.126  -2.718  1.00  0.00    -0.648 OA
HETATM   43  O6  UNL     1      11.105   3.084  -0.785  1.00  0.00    -0.648 OA
ENDBRANCH  40  41
ENDBRANCH  39  40
ENDBRANCH  38  39
ENDBRANCH  37  38
ENDBRANCH  35  37
ENDBRANCH  24  33
ENDBRANCH   8   9
ENDBRANCH   5   8
ENDBRANCH   3   4
TORSDOF 10
