REMARK  11 active torsions:
REMARK  status: ('A' for Active; 'I' for Inactive)
REMARK    1  A    between atoms: C2_2  and  N1_3 
REMARK       I    between atoms: N1_3  and  C3_5 
REMARK    2  A    between atoms: C3_5  and  C4_7 
REMARK    3  A    between atoms: C6_9  and  C7_10 
REMARK       I    between atoms: C7_10  and  N2_12 
REMARK    4  A    between atoms: N2_12  and  C8_14 
REMARK    5  A    between atoms: C8_14  and  C9_15 
REMARK    6  A    between atoms: C8_14  and  C16_22 
REMARK    7  A    between atoms: C9_15  and  C10_16 
REMARK    8  A    between atoms: C16_22  and  O3_23 
REMARK    9  A    between atoms: C16_22  and  C17_25 
REMARK   10  A    between atoms: C25_36  and  C26_37 
REMARK   11  A    between atoms: C26_37  and  C27_38 
ROOT
HETATM    1  C4  UNL     1       3.159  -0.312   2.047  1.00  0.00     0.179 C 
HETATM    2  C5  UNL     1       1.980   0.407   1.500  1.00  0.00     0.077 C 
HETATM    3  C6  UNL     1       1.713   0.338   0.053  1.00  0.00     0.280 C 
HETATM    4  N3  UNL     1       2.426  -0.606  -0.727  1.00  0.00    -0.049 N 
ATOM      5  H31 UNL     1       1.857  -0.964  -1.494  1.00  0.00     0.279 HD
ATOM      6  H32 UNL     1       2.571  -1.478  -0.219  1.00  0.00     0.279 HD
HETATM    7  C25 UNL     1       3.682  -0.054  -1.208  1.00  0.00     0.278 C 
HETATM    8  C33 UNL     1       4.570   0.222  -0.087  1.00  0.00     0.249 C 
HETATM    9  O4  UNL     1       5.629   0.825  -0.332  1.00  0.00    -0.271 OA
HETATM   10  N4  UNL     1       4.389  -0.111   1.273  1.00  0.00    -0.346 N 
ATOM     11  H4  UNL     1       5.252  -0.231   1.803  1.00  0.00     0.163 HD
ENDROOT
BRANCH   3  12
HETATM   12  C7  UNL     1       0.265   0.185  -0.274  1.00  0.00     0.249 C 
HETATM   13  O2  UNL     1      -0.070  -0.629  -1.209  1.00  0.00    -0.271 OA
HETATM   14  N2  UNL     1      -0.760   0.870   0.375  1.00  0.00    -0.352 N 
ATOM     15  H2  UNL     1      -0.541   1.523   1.127  1.00  0.00     0.163 HD
BRANCH  14  16
HETATM   16  C8  UNL     1      -2.213   0.643  -0.040  1.00  0.00     0.114 C 
BRANCH  16  17
HETATM   17  C9  UNL     1      -2.804   1.968  -0.235  1.00  0.00     0.032 C 
BRANCH  17  18
HETATM   18  C10 UNL     1      -4.165   2.025  -0.789  1.00  0.00    -0.013 C 
HETATM   19  C11 UNL     1      -4.694   3.460  -0.888  1.00  0.00     0.005 C 
HETATM   20  C12 UNL     1      -3.907   4.305  -1.841  1.00  0.00     0.000 C 
HETATM   21  C13 UNL     1      -4.075   3.713  -3.225  1.00  0.00     0.000 C 
HETATM   22  C14 UNL     1      -3.468   2.326  -3.205  1.00  0.00     0.000 C 
HETATM   23  C15 UNL     1      -4.197   1.468  -2.230  1.00  0.00     0.005 C 
ENDBRANCH  17  18
ENDBRANCH  16  17
BRANCH  16  24
HETATM   24  C16 UNL     1      -2.755  -0.320   0.922  1.00  0.00     0.149 C 
BRANCH  24  25
HETATM   25  O3  UNL     1      -1.833  -0.663   1.782  1.00  0.00    -0.393 OA
ATOM     26  H3  UNL     1      -2.184  -1.287   2.406  1.00  0.00     0.210 HD
ENDBRANCH  24  25
BRANCH  24  27
HETATM   27  C17 UNL     1      -3.962  -1.022   1.254  1.00  0.00    -0.016 C 
HETATM   28  C18 UNL     1      -4.573  -1.630   0.018  1.00  0.00     0.018 C 
HETATM   29  C19 UNL     1      -3.514  -2.265   2.097  1.00  0.00     0.012 C 
HETATM   30  C20 UNL     1      -4.309  -3.484   1.915  1.00  0.00     0.001 C 
HETATM   31  C21 UNL     1      -5.664  -3.553   2.516  1.00  0.00     0.000 C 
HETATM   32  C22 UNL     1      -6.172  -2.301   3.159  1.00  0.00     0.000 C 
HETATM   33  C23 UNL     1      -6.239  -1.117   2.224  1.00  0.00     0.001 C 
HETATM   34  C24 UNL     1      -4.944  -0.352   2.171  1.00  0.00     0.012 C 
ENDBRANCH  24  27
ENDBRANCH  16  24
ENDBRANCH  14  16
ENDBRANCH   3  12
BRANCH   1  35
HETATM   35  C3  UNL     1       3.425   0.241   3.397  1.00  0.00     0.240 C 
HETATM   36  N1  UNL     1       2.460   0.244   4.437  1.00  0.00    -0.360 N 
ATOM     37  H1  UNL     1       1.536  -0.152   4.264  1.00  0.00     0.162 HD
HETATM   38  O1  UNL     1       4.557   0.728   3.625  1.00  0.00    -0.271 OA
BRANCH  36  39
HETATM   39  C2  UNL     1       2.759   0.794   5.728  1.00  0.00     0.118 C 
HETATM   40  C1  UNL     1       3.918   0.104   6.428  1.00  0.00     0.026 C 
ENDBRANCH  36  39
ENDBRANCH   1  35
BRANCH   7  41
HETATM   41  C26 UNL     1       4.204  -1.062  -2.188  1.00  0.00     0.047 C 
BRANCH  41  42
HETATM   42  C27 UNL     1       5.491  -0.764  -2.847  1.00  0.00    -0.012 C 
HETATM   43  C28 UNL     1       5.776  -1.953  -3.780  1.00  0.00     0.005 C 
HETATM   44  C29 UNL     1       7.284  -1.972  -4.030  1.00  0.00     0.000 C 
HETATM   45  C30 UNL     1       7.675  -0.533  -4.296  1.00  0.00     0.000 C 
HETATM   46  C31 UNL     1       6.476   0.236  -4.863  1.00  0.00     0.000 C 
HETATM   47  C32 UNL     1       5.430   0.449  -3.782  1.00  0.00     0.005 C 
ENDBRANCH  41  42
ENDBRANCH   7  41
TORSDOF 11
