REMARK  11 active torsions:
REMARK  status: ('A' for Active; 'I' for Inactive)
REMARK    1  A    between atoms: C2_2  and  C3_3 
REMARK    2  A    between atoms: C3_3  and  C4_4 
REMARK    3  A    between atoms: C4_4  and  N1_5 
REMARK    4  A    between atoms: N1_5  and  C5_6 
REMARK    5  A    between atoms: N1_5  and  C7_8 
REMARK    6  A    between atoms: C16_17  and  O1_18 
REMARK    7  A    between atoms: O1_18  and  C17_19 
REMARK       I    between atoms: C17_19  and  N2_21 
REMARK    8  A    between atoms: N2_21  and  C18_23 
REMARK    9  A    between atoms: C18_23  and  C19_24 
REMARK   10  A    between atoms: C20_27  and  O4_28 
REMARK   11  A    between atoms: C31_39  and  O5_40 
ROOT
HETATM    1  C7  UNL     1      -3.418   0.687  -0.358  1.00  0.00     0.092 C 
HETATM    2  C8  UNL     1      -2.162  -0.010   0.011  1.00  0.00     0.014 C 
HETATM    3  C9  UNL     1      -1.632  -1.065  -0.866  1.00  0.00     0.007 C 
HETATM    4  C10 UNL     1      -0.315  -1.557  -0.382  1.00  0.00     0.006 C 
HETATM    5  C11 UNL     1       0.534  -0.649   0.441  1.00  0.00     0.003 C 
HETATM    6  C12 UNL     1       1.981  -1.132   0.274  1.00  0.00    -0.034 C 
HETATM    7  C13 UNL     1       1.959  -2.677   0.194  1.00  0.00     0.016 C 
HETATM    8  C14 UNL     1       2.842  -0.834   1.440  1.00  0.00     0.012 C 
HETATM    9  C15 UNL     1       4.150  -0.207   1.206  1.00  0.00     0.036 C 
HETATM   10  C16 UNL     1       4.793  -0.341  -0.119  1.00  0.00     0.163 C 
HETATM   11  C20 UNL     1       3.965  -1.050  -1.151  1.00  0.00     0.155 C 
HETATM   12  C22 UNL     1       2.509  -0.717  -1.060  1.00  0.00     0.026 C 
HETATM   13  C23 UNL     1       2.175   0.684  -1.479  1.00  0.00     0.009 C 
HETATM   14  C24 UNL     1       0.753   1.049  -1.272  1.00  0.00     0.010 C 
HETATM   15  C25 UNL     1       0.273   0.756   0.161  1.00  0.00    -0.035 C 
HETATM   16  C26 UNL     1       1.015   1.821   0.910  1.00  0.00     0.016 C 
HETATM   17  C27 UNL     1      -1.158   1.057   0.384  1.00  0.00     0.005 C 
HETATM   18  C28 UNL     1      -1.585   1.599   1.687  1.00  0.00     0.002 C 
HETATM   19  C29 UNL     1      -1.570   0.800   2.904  1.00  0.00     0.008 C 
HETATM   20  C30 UNL     1      -2.502   1.568   3.849  1.00  0.00     0.033 C 
HETATM   21  C31 UNL     1      -3.236   2.552   3.000  1.00  0.00     0.127 C 
HETATM   22  C32 UNL     1      -3.006   2.149   1.558  1.00  0.00    -0.009 C 
HETATM   23  C33 UNL     1      -3.019   3.474   0.809  1.00  0.00     0.018 C 
HETATM   24  C34 UNL     1      -3.992   1.245   0.954  1.00  0.00     0.016 C 
HETATM   25  C35 UNL     1      -4.648   0.227   1.798  1.00  0.00     0.013 C 
ENDROOT
BRANCH  10  26
HETATM   26  O1  UNL     1       6.014  -1.048  -0.028  1.00  0.00    -0.296 OA
BRANCH  26  27
HETATM   27  C17 UNL     1       7.206  -0.499  -0.471  1.00  0.00     0.361 C 
HETATM   28  O2  UNL     1       7.139   0.668  -0.963  1.00  0.00    -0.238 OA
HETATM   29  N2  UNL     1       8.428  -1.193  -0.383  1.00  0.00    -0.329 N 
ATOM     30  H2  UNL     1       8.426  -2.131   0.019  1.00  0.00     0.165 HD
BRANCH  29  31
HETATM   31  C18 UNL     1       9.680  -0.642  -0.833  1.00  0.00     0.224 C 
BRANCH  31  32
HETATM   32  C19 UNL     1      10.101   0.584  -0.139  1.00  0.00     0.248 C 
HETATM   33  N3  UNL     1       9.369   1.203   0.905  1.00  0.00    -0.061 NA
HETATM   34  O3  UNL     1      11.187   1.163  -0.462  1.00  0.00    -0.275 OA
ENDBRANCH  31  32
ENDBRANCH  29  31
ENDBRANCH  26  27
ENDBRANCH  10  26
BRANCH  11  35
HETATM   35  O4  UNL     1       4.427  -0.839  -2.435  1.00  0.00    -0.388 OA
HETATM   36  C21 UNL     1       4.853  -2.038  -3.040  1.00  0.00     0.202 C 
ENDBRANCH  11  35
BRANCH   1  37
HETATM   37  N1  UNL     1      -4.324   0.126  -1.242  1.00  0.00    -0.388 N 
BRANCH  37  38
HETATM   38  C4  UNL     1      -5.014  -1.068  -0.990  1.00  0.00     0.058 C 
BRANCH  38  39
HETATM   39  C3  UNL     1      -5.062  -1.951  -2.231  1.00  0.00     0.044 C 
BRANCH  39  40
HETATM   40  C2  UNL     1      -5.813  -3.248  -1.878  1.00  0.00     0.001 C 
HETATM   41  C1  UNL     1      -7.209  -3.003  -1.418  1.00  0.00     0.005 C 
ENDBRANCH  39  40
ENDBRANCH  38  39
ENDBRANCH  37  38
BRANCH  37  42
HETATM   42  C5  UNL     1      -5.043   0.944  -2.145  1.00  0.00     0.118 C 
HETATM   43  C6  UNL     1      -4.458   2.246  -2.550  1.00  0.00     0.026 C 
ENDBRANCH  37  42
ENDBRANCH   1  37
BRANCH  21  44
HETATM   44  O5  UNL     1      -4.522   2.840   3.338  1.00  0.00    -0.395 OA
ATOM     45  H5  UNL     1      -4.989   3.466   2.798  1.00  0.00     0.210 HD
ENDBRANCH  21  44
TORSDOF 11
