REMARK  14 active torsions:
REMARK  status: ('A' for Active; 'I' for Inactive)
REMARK    1  A    between atoms: C4_4  and  C5_5 
REMARK    2  A    between atoms: C10_10  and  C11_11 
REMARK    3  A    between atoms: C12_12  and  C13_13 
REMARK    4  A    between atoms: C15_15  and  O1_16 
REMARK    5  A    between atoms: C17_19  and  C18_20 
REMARK       I    between atoms: C18_20  and  N1_22 
REMARK    6  A    between atoms: C19_24  and  C20_25 
REMARK    7  A    between atoms: C19_24  and  C29_38 
REMARK    8  A    between atoms: C20_25  and  C21_26 
REMARK    9  A    between atoms: C21_26  and  C22_27 
REMARK   10  A    between atoms: C22_27  and  C23_28 
REMARK   11  A    between atoms: C23_28  and  N2_29 
REMARK       I    between atoms: N2_29  and  C24_31 
REMARK   12  A    between atoms: C24_31  and  O4_33 
REMARK   13  A    between atoms: O4_33  and  C25_34 
REMARK       I    between atoms: C29_38  and  N3_40 
REMARK   14  A    between atoms: N3_40  and  C30_42 
ROOT
HETATM    1  C18 UNL     1      -1.187  -1.792   0.420  1.00  0.00     0.227 C 
HETATM    2  O2  UNL     1      -2.403  -2.016   0.178  1.00  0.00    -0.273 OA
HETATM    3  N1  UNL     1      -0.277  -2.776  -0.031  1.00  0.00    -0.326 N 
ATOM      4  H1  UNL     1      -0.303  -3.664   0.470  1.00  0.00     0.168 HD
HETATM    5  C19 UNL     1       0.564  -2.704  -0.971  1.00  0.00     0.080 C 
ENDROOT
BRANCH   1   6
HETATM    6  C17 UNL     1      -0.681  -0.613   1.115  1.00  0.00     0.088 C 
HETATM    7  C13 UNL     1      -1.691   0.333   1.651  1.00  0.00     0.023 C 
HETATM    8  C14 UNL     1      -2.315  -0.431   2.801  1.00  0.00     0.041 C 
HETATM    9  C15 UNL     1      -1.078  -0.986   3.487  1.00  0.00     0.119 C 
HETATM   10  C16 UNL     1      -0.030  -1.128   2.412  1.00  0.00     0.046 C 
BRANCH   7  11
HETATM   11  C12 UNL     1      -2.667   0.875   0.707  1.00  0.00    -0.024 C 
HETATM   12  C11 UNL     1      -2.736   2.177   0.516  1.00  0.00    -0.012 C 
BRANCH  12  13
HETATM   13  C10 UNL     1      -3.689   2.738  -0.407  1.00  0.00     0.045 C 
HETATM   14  C5  UNL     1      -5.070   3.035   0.193  1.00  0.00     0.029 C 
HETATM   15  C6  UNL     1      -5.719   3.663  -0.998  1.00  0.00     0.022 C 
HETATM   16  C7  UNL     1      -4.556   4.234  -1.836  1.00  0.00     0.057 C 
HETATM   17  C8  UNL     1      -4.174   3.099  -2.778  1.00  0.00     0.013 C 
HETATM   18  C34 UNL     1      -3.430   4.116  -0.888  1.00  0.00     0.144 C 
HETATM   19  C9  UNL     1      -3.831   2.014  -1.740  1.00  0.00     0.023 C 
HETATM   20  O6  UNL     1      -2.587   4.878  -0.602  1.00  0.00    -0.296 OA
BRANCH  14  21
HETATM   21  C4  UNL     1      -5.689   1.949   0.890  1.00  0.00    -0.019 C 
HETATM   22  C2  UNL     1      -6.798   1.291   0.791  1.00  0.00    -0.091 C 
HETATM   23  C1  UNL     1      -7.837   1.547  -0.211  1.00  0.00     0.042 C 
HETATM   24  C3  UNL     1      -7.078   0.176   1.754  1.00  0.00     0.042 C 
ENDBRANCH  14  21
ENDBRANCH  12  13
ENDBRANCH   7  11
BRANCH   9  25
HETATM   25  O1  UNL     1      -0.623  -0.050   4.425  1.00  0.00    -0.396 OA
ATOM     26  H1  UNL     1       0.150  -0.397   4.854  1.00  0.00     0.210 HD
ENDBRANCH   9  25
ENDBRANCH   1   6
BRANCH   5  27
HETATM   27  C20 UNL     1       0.804  -1.536  -1.850  1.00  0.00     0.063 C 
BRANCH  27  28
HETATM   28  C21 UNL     1       2.171  -0.916  -1.664  1.00  0.00     0.008 C 
BRANCH  28  29
HETATM   29  C22 UNL     1       2.370   0.265  -2.578  1.00  0.00     0.020 C 
BRANCH  29  30
HETATM   30  C23 UNL     1       3.729   0.902  -2.390  1.00  0.00     0.125 C 
BRANCH  30  31
HETATM   31  N2  UNL     1       3.906   1.386  -1.039  1.00  0.00    -0.337 N 
HETATM   32  C24 UNL     1       5.100   2.022  -0.605  1.00  0.00     0.361 C 
HETATM   33  O3  UNL     1       6.079   2.203  -1.367  1.00  0.00    -0.238 OA
ATOM     34  H2  UNL     1       3.144   1.266  -0.372  1.00  0.00     0.164 HD
BRANCH  32  35
HETATM   35  O4  UNL     1       5.247   2.483   0.702  1.00  0.00    -0.294 OA
BRANCH  35  36
HETATM   36  C25 UNL     1       6.421   3.107   1.129  1.00  0.00     0.061 C 
HETATM   37  C26 UNL     1       6.258   3.497   2.601  1.00  0.00     0.046 C 
HETATM   38  C27 UNL     1       7.629   2.187   1.090  1.00  0.00     0.046 C 
HETATM   39  C28 UNL     1       6.765   4.350   0.367  1.00  0.00     0.046 C 
ENDBRANCH  35  36
ENDBRANCH  32  35
ENDBRANCH  30  31
ENDBRANCH  29  30
ENDBRANCH  28  29
ENDBRANCH  27  28
ENDBRANCH   5  27
BRANCH   5  40
HETATM   40  C29 UNL     1       1.394  -3.907  -1.190  1.00  0.00     0.264 C 
HETATM   41  O5  UNL     1       2.246  -3.932  -2.104  1.00  0.00    -0.266 OA
HETATM   42  N3  UNL     1       1.244  -5.069  -0.368  1.00  0.00    -0.348 N 
ATOM     43  H3  UNL     1       0.559  -5.075   0.388  1.00  0.00     0.163 HD
BRANCH  42  44
HETATM   44  C30 UNL     1       2.060  -6.226  -0.610  1.00  0.00     0.022 C 
HETATM   45  C31 UNL     1       1.831  -6.793  -2.004  1.00  0.00     0.037 C 
HETATM   46  C32 UNL     1       3.541  -5.909  -0.523  1.00  0.00     0.037 C 
HETATM   47  C33 UNL     1       1.773  -7.263   0.452  1.00  0.00     0.037 C 
ENDBRANCH  42  44
ENDBRANCH   5  40
TORSDOF 14
