REMARK  12 active torsions:
REMARK  status: ('A' for Active; 'I' for Inactive)
REMARK    1  A    between atoms: C2_2  and  N1_3 
REMARK       I    between atoms: N1_3  and  C3_5 
REMARK    2  A    between atoms: C3_5  and  C4_7 
REMARK    3  A    between atoms: N2_13  and  C10_14 
REMARK    4  A    between atoms: C10_14  and  C11_15 
REMARK    5  A    between atoms: C10_14  and  C12_18 
REMARK    6  A    between atoms: C11_15  and  O2_16 
REMARK       I    between atoms: C12_18  and  N3_20 
REMARK       I    between atoms: N3_20  and  C13_22 
REMARK    7  A    between atoms: C13_22  and  O5_24 
REMARK    8  A    between atoms: O5_24  and  C14_25 
REMARK    9  A    between atoms: C14_25  and  C15_26 
REMARK   10  A    between atoms: C15_26  and  C16_27 
REMARK   11  A    between atoms: C15_26  and  C22_33 
REMARK   12  A    between atoms: C25_36  and  C26_37 
ROOT
HETATM    1  C12 UNL     1       3.651  -0.248  -1.265  1.00  0.00     0.262 C 
HETATM    2  O3  UNL     1       2.709  -0.785  -1.874  1.00  0.00    -0.271 OA
HETATM    3  N3  UNL     1       3.379   0.612  -0.176  1.00  0.00    -0.271 N 
ATOM      4  H3  UNL     1       4.168   1.096   0.253  1.00  0.00     0.174 HD
HETATM    5  C13 UNL     1       2.083   0.851   0.366  1.00  0.00     0.367 C 
HETATM    6  O4  UNL     1       1.937   1.681   1.291  1.00  0.00    -0.238 OA
ENDROOT
BRANCH   5   7
HETATM    7  O5  UNL     1       0.953   0.189  -0.090  1.00  0.00    -0.303 OA
BRANCH   7   8
HETATM    8  C14 UNL     1      -0.317   0.509   0.533  1.00  0.00     0.185 C 
BRANCH   8   9
HETATM    9  C15 UNL     1      -1.391  -0.427   0.018  1.00  0.00     0.018 C 
BRANCH   9  10
HETATM   10  C16 UNL     1      -1.015  -1.848   0.320  1.00  0.00    -0.008 C 
HETATM   11  C17 UNL     1      -0.888  -2.204   1.763  1.00  0.00     0.005 C 
HETATM   12  C18 UNL     1      -0.099  -3.500   1.877  1.00  0.00     0.000 C 
HETATM   13  C19 UNL     1      -0.674  -4.551   0.982  1.00  0.00     0.000 C 
HETATM   14  C20 UNL     1      -1.910  -4.165   0.248  1.00  0.00     0.000 C 
HETATM   15  C21 UNL     1      -1.645  -2.884  -0.561  1.00  0.00     0.005 C 
ENDBRANCH   9  10
BRANCH   9  16
HETATM   16  C22 UNL     1      -2.679   0.045   0.627  1.00  0.00    -0.008 C 
HETATM   17  C23 UNL     1      -3.887  -0.818   0.316  1.00  0.00     0.005 C 
HETATM   18  C24 UNL     1      -5.034  -0.174   1.129  1.00  0.00     0.005 C 
HETATM   19  C25 UNL     1      -5.422   1.077   0.368  1.00  0.00    -0.010 C 
HETATM   20  C34 UNL     1      -4.252   2.027   0.506  1.00  0.00     0.005 C 
HETATM   21  C35 UNL     1      -3.036   1.368  -0.094  1.00  0.00     0.005 C 
BRANCH  19  22
HETATM   22  C26 UNL     1      -6.686   1.688   0.946  1.00  0.00    -0.010 C 
HETATM   23  C27 UNL     1      -7.751   0.585   0.941  1.00  0.00     0.005 C 
HETATM   24  C28 UNL     1      -9.123   1.272   0.924  1.00  0.00     0.009 C 
HETATM   25  C29 UNL     1      -9.377   1.597  -0.545  1.00  0.00    -0.048 C 
HETATM   26  C30 UNL     1     -10.494   2.595  -0.734  1.00  0.00     0.015 C 
HETATM   27  C31 UNL     1      -9.765   0.314  -1.260  1.00  0.00     0.015 C 
HETATM   28  C32 UNL     1      -8.080   2.156  -1.105  1.00  0.00     0.009 C 
HETATM   29  C33 UNL     1      -7.189   2.724  -0.037  1.00  0.00     0.005 C 
ENDBRANCH  19  22
ENDBRANCH   9  16
ENDBRANCH   8   9
ENDBRANCH   7   8
ENDBRANCH   5   7
BRANCH   1  30
HETATM   30  C10 UNL     1       5.099  -0.496  -1.663  1.00  0.00     0.338 C 
BRANCH  30  31
HETATM   31  N2  UNL     1       5.826  -0.493  -0.482  1.00  0.00     0.114 N 
HETATM   32  C6  UNL     1       6.401  -1.805  -0.115  1.00  0.00     0.225 C 
HETATM   33  C5  UNL     1       7.611  -1.891  -0.956  1.00  0.00     0.052 C 
HETATM   34  C7  UNL     1       6.793  -1.475   1.305  1.00  0.00     0.038 C 
HETATM   35  C4  UNL     1       8.082  -0.431  -0.989  1.00  0.00     0.113 C 
HETATM   36  C9  UNL     1       7.005   0.276  -0.283  1.00  0.00     0.237 C 
HETATM   37  C8  UNL     1       7.164   0.020   1.228  1.00  0.00     0.039 C 
BRANCH  35  38
HETATM   38  C3  UNL     1       9.442  -0.255  -0.442  1.00  0.00     0.224 C 
HETATM   39  N1  UNL     1       9.837   1.052  -0.050  1.00  0.00    -0.361 N 
ATOM     40  H1  UNL     1       9.154   1.804  -0.137  1.00  0.00     0.162 HD
HETATM   41  O1  UNL     1      10.283  -1.187  -0.307  1.00  0.00    -0.273 OA
BRANCH  39  42
HETATM   42  C2  UNL     1      11.148   1.382   0.465  1.00  0.00     0.118 C 
HETATM   43  C1  UNL     1      11.269   2.841   0.855  1.00  0.00     0.026 C 
ENDBRANCH  39  42
ENDBRANCH  35  38
ENDBRANCH  30  31
BRANCH  30  44
HETATM   44  C11 UNL     1       5.398   0.473  -2.743  1.00  0.00     0.210 C 
BRANCH  44  45
HETATM   45  O2  UNL     1       5.251   1.804  -2.351  1.00  0.00    -0.398 OA
ATOM     46  H2  UNL     1       5.443   2.425  -3.044  1.00  0.00     0.209 HD
ENDBRANCH  44  45
ENDBRANCH  30  44
ENDBRANCH   1  30
TORSDOF 12
