REMARK  8 active torsions:
REMARK  status: ('A' for Active; 'I' for Inactive)
REMARK       I    between atoms: C2_2  and  N1_4 
REMARK    1  A    between atoms: N1_4  and  C4_6 
REMARK    2  A    between atoms: C4_6  and  C5_7 
REMARK    3  A    between atoms: C5_7  and  C7_9 
REMARK       I    between atoms: C7_9  and  N2_11 
REMARK    4  A    between atoms: N2_11  and  C8_13 
REMARK    5  A    between atoms: C8_13  and  C9_14 
REMARK       I    between atoms: C9_14  and  N3_16 
REMARK    6  A    between atoms: N3_16  and  C10_18 
REMARK    7  A    between atoms: C10_18  and  C11_19 
REMARK    8  A    between atoms: C10_18  and  C12_22 
ROOT
HETATM    1  C8  UNL     1      -0.508  -0.988   0.231  1.00  0.00     0.113 C 
HETATM    2  C15 UNL     1      -0.774  -2.149   1.162  1.00  0.00     0.041 C 
HETATM    3  C16 UNL     1      -1.038  -3.440   0.445  1.00  0.00     0.003 C 
HETATM    4  C17 UNL     1       0.133  -3.776  -0.422  1.00  0.00     0.000 C 
HETATM    5  C18 UNL     1       0.503  -2.612  -1.301  1.00  0.00     0.003 C 
HETATM    6  C19 UNL     1      -0.584  -1.574  -1.188  1.00  0.00     0.041 C 
ENDROOT
BRANCH   1   7
HETATM    7  N2  UNL     1       0.775  -0.431   0.490  1.00  0.00    -0.343 N 
HETATM    8  C7  UNL     1       1.388   0.640  -0.224  1.00  0.00     0.224 C 
HETATM    9  O2  UNL     1       0.776   1.180  -1.186  1.00  0.00    -0.273 OA
ATOM     10  H2  UNL     1       1.307  -0.836   1.260  1.00  0.00     0.163 HD
BRANCH   8  11
HETATM   11  C5  UNL     1       2.725   1.164   0.108  1.00  0.00     0.092 C 
HETATM   12  C6  UNL     1       3.017   2.358  -0.734  1.00  0.00     0.021 C 
BRANCH  11  13
HETATM   13  C4  UNL     1       3.799   0.107  -0.018  1.00  0.00     0.139 C 
BRANCH  13  14
HETATM   14  N1  UNL     1       5.055   0.689   0.411  1.00  0.00    -0.356 N 
HETATM   15  C2  UNL     1       5.427   0.601   1.764  1.00  0.00     0.215 C 
HETATM   16  C1  UNL     1       6.698   1.185   2.220  1.00  0.00     0.117 C 
HETATM   17  O1  UNL     1       4.685   0.030   2.585  1.00  0.00    -0.274 OA
HETATM   18  C3  UNL     1       5.949   1.364  -0.513  1.00  0.00     0.152 C 
ENDBRANCH  13  14
ENDBRANCH  11  13
ENDBRANCH   8  11
ENDBRANCH   1   7
BRANCH   1  19
HETATM   19  C9  UNL     1      -1.622  -0.041   0.368  1.00  0.00     0.246 C 
HETATM   20  O3  UNL     1      -1.374   1.144   0.705  1.00  0.00    -0.271 OA
HETATM   21  N3  UNL     1      -2.979  -0.370   0.144  1.00  0.00    -0.346 N 
ATOM     22  H3  UNL     1      -3.190  -1.330  -0.130  1.00  0.00     0.163 HD
BRANCH  21  23
HETATM   23  C10 UNL     1      -4.089   0.543   0.272  1.00  0.00     0.177 C 
BRANCH  23  24
HETATM   24  C11 UNL     1      -5.054   0.122   1.301  1.00  0.00     0.254 C 
HETATM   25  N4  UNL     1      -6.227   0.826   1.639  1.00  0.00    -0.060 NA
HETATM   26  O4  UNL     1      -4.827  -0.956   1.945  1.00  0.00    -0.275 OA
ENDBRANCH  23  24
BRANCH  23  27
HETATM   27  C12 UNL     1      -4.756   0.786  -1.073  1.00  0.00     0.009 C 
HETATM   28  C13 UNL     1      -5.913   1.730  -0.985  1.00  0.00     0.012 C 
HETATM   29  C14 UNL     1      -3.763   1.356  -2.057  1.00  0.00     0.012 C 
ENDBRANCH  23  27
ENDBRANCH  21  23
ENDBRANCH   1  19
TORSDOF 8
