REMARK  9 active torsions:
REMARK  status: ('A' for Active; 'I' for Inactive)
REMARK    1  A    between atoms: C2_2  and  C3_3 
REMARK    2  A    between atoms: C3_3  and  N1_4 
REMARK    3  A    between atoms: N1_4  and  C4_5 
REMARK    4  A    between atoms: C4_5  and  C5_6 
REMARK    5  A    between atoms: C5_6  and  C6_7 
REMARK    6  A    between atoms: C6_7  and  C7_8 
REMARK    7  A    between atoms: C10_13  and  S1_14 
REMARK    8  A    between atoms: S1_14  and  N3_15 
REMARK    9  A    between atoms: C13_22  and  C14_23 
ROOT
HETATM    1  C7  UNL     1       1.354   0.390   0.095  1.00  0.00    -0.029 A 
HETATM    2  C8  UNL     1       1.752   1.552  -0.583  1.00  0.00     0.096 A 
HETATM    3  N2  UNL     1       3.072   1.548  -0.748  1.00  0.00    -0.363 N 
ATOM      4  H2  UNL     1       3.609   2.280  -1.212  1.00  0.00     0.165 HD
HETATM    5  C9  UNL     1       3.583   0.442  -0.214  1.00  0.00     0.067 A 
HETATM    6  C10 UNL     1       4.900   0.040  -0.187  1.00  0.00     0.106 A 
HETATM    7  C11 UNL     1       5.165  -1.169   0.412  1.00  0.00     0.028 A 
HETATM    8  C12 UNL     1       4.174  -1.936   0.956  1.00  0.00     0.017 A 
HETATM    9  C13 UNL     1       2.845  -1.508   0.918  1.00  0.00     0.015 A 
HETATM   10  C15 UNL     1       2.519  -0.307   0.328  1.00  0.00     0.013 A 
ENDROOT
BRANCH   1  11
HETATM   11  C6  UNL     1      -0.021  -0.011   0.414  1.00  0.00     0.042 C 
BRANCH  11  12
HETATM   12  C5  UNL     1      -0.602  -0.986  -0.560  1.00  0.00     0.033 C 
BRANCH  12  13
HETATM   13  C4  UNL     1      -1.989  -1.361  -0.233  1.00  0.00     0.240 C 
BRANCH  13  14
HETATM   14  N1  UNL     1      -3.048  -0.444  -0.248  1.00  0.00    -0.039 N 
HETATM   15  C16 UNL     1      -3.325   0.065   1.069  1.00  0.00     0.267 C 
HETATM   16  C17 UNL     1      -4.095  -1.086   1.710  1.00  0.00     0.262 C 
HETATM   17  N4  UNL     1      -4.943  -1.519   0.637  1.00  0.00    -0.049 N 
HETATM   18  C18 UNL     1      -4.268  -1.226  -0.567  1.00  0.00     0.468 C 
ATOM     19  H42 UNL     1      -5.218  -2.498   0.714  1.00  0.00     0.279 HD
ATOM     20  H41 UNL     1      -5.879  -1.117   0.679  1.00  0.00     0.279 HD
BRANCH  14  21
HETATM   21  C3  UNL     1      -2.968   0.637  -1.171  1.00  0.00     0.266 C 
BRANCH  21  22
HETATM   22  C2  UNL     1      -3.449   1.951  -0.681  1.00  0.00    -0.009 C 
HETATM   23  C1  UNL     1      -4.442   2.634  -1.227  1.00  0.00     0.008 C 
ENDBRANCH  21  22
ENDBRANCH  14  21
ENDBRANCH  13  14
ENDBRANCH  12  13
ENDBRANCH  11  12
ENDBRANCH   1  11
BRANCH   9  24
HETATM   24  C14 UNL     1       1.851  -2.303   1.596  1.00  0.00     0.271 C 
HETATM   25  O3  UNL     1       1.187  -1.911   2.548  1.00  0.00    -0.301 OA
ENDBRANCH   9  24
BRANCH   6  26
HETATM   26  S1  UNL     1       6.179   1.008  -0.872  1.00  0.00     0.259 S 
HETATM   27  O1  UNL     1       7.521   0.383  -0.648  1.00  0.00    -0.201 OA
HETATM   28  O2  UNL     1       5.960   1.311  -2.317  1.00  0.00    -0.201 OA
BRANCH  26  29
HETATM   29  N3  UNL     1       6.195   2.541  -0.039  1.00  0.00    -0.324 N 
ATOM     30  H32 UNL     1       5.561   2.809   0.714  1.00  0.00     0.169 HD
ATOM     31  H31 UNL     1       6.943   3.107  -0.440  1.00  0.00     0.169 HD
ENDBRANCH  26  29
ENDBRANCH   6  26
TORSDOF 9
