REMARK  11 active torsions:
REMARK  status: ('A' for Active; 'I' for Inactive)
REMARK    1  A    between atoms: C2_2  and  N1_3 
REMARK    2  A    between atoms: N1_3  and  C3_5 
REMARK    3  A    between atoms: C5_7  and  C6_8 
REMARK       I    between atoms: C6_8  and  N2_10 
REMARK    4  A    between atoms: N2_10  and  C7_12 
REMARK    5  A    between atoms: C7_12  and  C8_13 
REMARK    6  A    between atoms: C8_13  and  N3_14 
REMARK    7  A    between atoms: C12_20  and  N5_21 
REMARK    8  A    between atoms: N5_21  and  C13_23 
REMARK    9  A    between atoms: C13_23  and  C14_24 
REMARK   10  A    between atoms: C14_24  and  C15_25 
REMARK   11  A    between atoms: N6_28  and  O2_30 
ROOT
HETATM    1  C3  UNL     1      -0.828   2.749  -0.932  1.00  0.00     0.119 A 
HETATM    2  C4  UNL     1       0.276   1.928  -0.667  1.00  0.00     0.084 A 
HETATM    3  C5  UNL     1       0.067   0.599  -0.354  1.00  0.00     0.120 A 
HETATM    4  N4  UNL     1      -1.193   0.148  -0.318  1.00  0.00    -0.186 N 
ATOM      5  H4  UNL     1      -1.348  -0.833  -0.088  1.00  0.00     0.184 HD
HETATM    6  C12 UNL     1      -2.277   0.929  -0.572  1.00  0.00     0.685 A 
HETATM    7  N7  UNL     1      -2.047   2.205  -0.870  1.00  0.00    -0.177 N 
ATOM      8  H7  UNL     1      -2.850   2.804  -1.063  1.00  0.00     0.186 HD
ENDROOT
BRANCH   6   9
HETATM    9  N5  UNL     1      -3.457   0.411  -0.515  1.00  0.00    -0.179 N 
ATOM     10  H5  UNL     1      -4.276   0.989  -0.705  1.00  0.00     0.185 HD
BRANCH   9  11
HETATM   11  C13 UNL     1      -3.620  -0.960  -0.189  1.00  0.00     0.117 C 
HETATM   12  N6  UNL     1      -3.508  -1.845  -1.114  1.00  0.00    -0.254 N 
ATOM     13  H6  UNL     1      -3.304  -1.548  -2.068  1.00  0.00     0.195 HD
BRANCH  11  14
HETATM   14  C14 UNL     1      -3.915  -1.404   1.191  1.00  0.00     0.082 C 
BRANCH  14  15
HETATM   15  C15 UNL     1      -5.223  -0.819   1.702  1.00  0.00    -0.016 C 
HETATM   16  C16 UNL     1      -5.210   0.677   1.724  1.00  0.00     0.010 C 
HETATM   17  C17 UNL     1      -6.386  -1.269   0.846  1.00  0.00     0.010 C 
ENDBRANCH  14  15
ENDBRANCH  11  14
BRANCH  12  18
HETATM   18  O2  UNL     1      -3.656  -3.165  -0.847  1.00  0.00    -0.284 OA
HETATM   19  C18 UNL     1      -2.836  -4.101  -1.491  1.00  0.00     0.237 C 
ENDBRANCH  12  18
ENDBRANCH   9  11
ENDBRANCH   6   9
BRANCH   3  20
HETATM   20  C6  UNL     1       1.165  -0.306  -0.068  1.00  0.00     0.268 C 
HETATM   21  O1  UNL     1       0.881  -1.516   0.211  1.00  0.00    -0.266 OA
HETATM   22  N2  UNL     1       2.517   0.105  -0.090  1.00  0.00    -0.354 N 
ATOM     23  H2  UNL     1       2.765   1.069  -0.312  1.00  0.00     0.162 HD
BRANCH  22  24
HETATM   24  C7  UNL     1       3.540  -0.871   0.209  1.00  0.00     0.151 C 
BRANCH  24  25
HETATM   25  C8  UNL     1       4.928  -0.278   0.145  1.00  0.00     0.255 C 
BRANCH  25  26
HETATM   26  N3  UNL     1       5.869  -1.339   0.460  1.00  0.00    -0.077 N 
HETATM   27  C9  UNL     1       5.418  -2.155   1.550  1.00  0.00     0.271 C 
HETATM   28  C10 UNL     1       6.123  -2.093  -0.751  1.00  0.00     0.271 C 
HETATM   29  C11 UNL     1       7.153  -0.756   0.857  1.00  0.00     0.271 C 
ENDBRANCH  25  26
ENDBRANCH  24  25
ENDBRANCH  22  24
ENDBRANCH   3  20
BRANCH   1  30
HETATM   30  N1  UNL     1      -0.616   3.990  -1.223  1.00  0.00    -0.376 N 
ATOM     31  H1  UNL     1       0.342   4.340  -1.252  1.00  0.00     0.161 HD
BRANCH  30  32
HETATM   32  C2  UNL     1      -1.698   4.884  -1.505  1.00  0.00     0.116 C 
HETATM   33  C1  UNL     1      -1.205   6.326  -1.445  1.00  0.00     0.026 C 
ENDBRANCH  30  32
ENDBRANCH   1  30
TORSDOF 11
