REMARK  5 active torsions:
REMARK  status: ('A' for Active; 'I' for Inactive)
REMARK    1  A    between atoms: C4_4  and  N1_5 
REMARK    2  A    between atoms: N1_5  and  S1_7 
REMARK    3  A    between atoms: S1_7  and  C5_10 
REMARK    4  A    between atoms: C14_20  and  C15_21 
REMARK    5  A    between atoms: C20_28  and  N4_29 
ROOT
HETATM    1  C5  UNL     1      -5.425  -1.584  -0.521  1.00  0.00     0.081 A 
HETATM    2  C6  UNL     1      -5.167  -1.867   0.825  1.00  0.00     0.025 A 
HETATM    3  C7  UNL     1      -6.068  -1.576   1.818  1.00  0.00     0.003 A 
HETATM    4  C8  UNL     1      -7.278  -0.988   1.537  1.00  0.00     0.023 A 
HETATM    5  C9  UNL     1      -7.565  -0.692   0.208  1.00  0.00     0.046 A 
HETATM    6  C10 UNL     1      -8.837  -0.076  -0.062  1.00  0.00     0.099 C 
HETATM    7  N2  UNL     1      -9.853   0.437  -0.286  1.00  0.00    -0.191 NA
HETATM    8  C11 UNL     1      -6.648  -0.992  -0.777  1.00  0.00     0.048 A 
ENDROOT
BRANCH   1   9
HETATM    9  S1  UNL     1      -4.282  -1.952  -1.779  1.00  0.00     0.263 S 
HETATM   10  O1  UNL     1      -5.087  -2.531  -2.935  1.00  0.00    -0.200 OA
HETATM   11  O2  UNL     1      -3.381  -3.113  -1.346  1.00  0.00    -0.200 OA
BRANCH   9  12
HETATM   12  N1  UNL     1      -3.372  -0.648  -2.354  1.00  0.00    -0.281 N 
ATOM     13  H1  UNL     1      -3.488  -0.418  -3.341  1.00  0.00     0.179 HD
BRANCH  12  14
HETATM   14  C4  UNL     1      -2.464   0.166  -1.622  1.00  0.00     0.043 A 
HETATM   15  C3  UNL     1      -2.739   0.795  -0.438  1.00  0.00     0.037 A 
HETATM   16  C2  UNL     1      -1.789   1.595   0.209  1.00  0.00    -0.049 A 
HETATM   17  C1  UNL     1      -2.179   2.234   1.499  1.00  0.00     0.049 C 
HETATM   18  C14 UNL     1      -0.535   1.790  -0.312  1.00  0.00    -0.018 A 
HETATM   19  C13 UNL     1      -0.239   1.165  -1.505  1.00  0.00     0.015 A 
HETATM   20  C12 UNL     1      -1.172   0.380  -2.138  1.00  0.00     0.031 A 
BRANCH  18  21
HETATM   21  C15 UNL     1       0.429   2.636   0.385  1.00  0.00     0.003 A 
HETATM   22  C16 UNL     1       0.276   3.907   0.921  1.00  0.00     0.101 A 
HETATM   23  N3  UNL     1       1.442   4.306   1.463  1.00  0.00    -0.364 N 
HETATM   24  C17 UNL     1       2.341   3.315   1.284  1.00  0.00     0.043 A 
ATOM     25  H3  UNL     1       1.615   5.198   1.926  1.00  0.00     0.165 HD
HETATM   26  C18 UNL     1       3.682   3.181   1.634  1.00  0.00     0.033 A 
HETATM   27  C29 UNL     1       1.758   2.256   0.619  1.00  0.00     0.005 A 
HETATM   28  C19 UNL     1       4.399   2.044   1.331  1.00  0.00     0.034 A 
HETATM   29  C20 UNL     1       3.815   0.988   0.667  1.00  0.00     0.061 A 
HETATM   30  C28 UNL     1       2.488   1.118   0.320  1.00  0.00     0.046 A 
BRANCH  29  31
HETATM   31  N4  UNL     1       4.573  -0.200   0.348  1.00  0.00    -0.220 N 
HETATM   32  N5  UNL     1       5.370  -0.347  -0.694  1.00  0.00    -0.290 N 
HETATM   33  C21 UNL     1       5.945  -1.561  -0.734  1.00  0.00     0.064 A 
ATOM     34  H5  UNL     1       5.531   0.380  -1.391  1.00  0.00     0.187 HD
HETATM   35  C22 UNL     1       6.831  -2.178  -1.602  1.00  0.00     0.032 A 
HETATM   36  C26 UNL     1       5.477  -2.234   0.366  1.00  0.00     0.062 A 
HETATM   37  C23 UNL     1       7.269  -3.466  -1.399  1.00  0.00     0.002 A 
HETATM   38  C24 UNL     1       6.800  -4.145  -0.294  1.00  0.00     0.001 A 
HETATM   39  C25 UNL     1       5.917  -3.517   0.562  1.00  0.00     0.019 A 
HETATM   40  C27 UNL     1       4.629  -1.361   1.014  1.00  0.00     0.279 A 
HETATM   41  O3  UNL     1       3.994  -1.594   2.070  1.00  0.00    -0.265 OA
ENDBRANCH  29  31
ENDBRANCH  18  21
ENDBRANCH  12  14
ENDBRANCH   9  12
ENDBRANCH   1   9
TORSDOF 5
