REMARK  4 active torsions:
REMARK  status: ('A' for Active; 'I' for Inactive)
REMARK    1  A    between atoms: C2_2  and  C3_3 
REMARK    2  A    between atoms: C3_3  and  N1_4 
REMARK    3  A    between atoms: N1_4  and  C4_7 
REMARK    4  A    between atoms: C8_14  and  N3_15 
ROOT
HETATM    1  C4  UNL     1      -0.214  -0.095   0.281  1.00  0.00     0.219 C 
HETATM    2  C5  UNL     1      -0.800  -1.224  -0.486  1.00  0.00     0.062 C 
HETATM    3  C6  UNL     1      -2.291  -1.380  -0.338  1.00  0.00     0.234 C 
HETATM    4  N2  UNL     1      -2.924  -0.285   0.356  1.00  0.00    -0.073 N 
ATOM      5  H21 UNL     1      -2.775  -0.304   1.365  1.00  0.00     0.277 HD
ATOM      6  H22 UNL     1      -3.941  -0.353   0.378  1.00  0.00     0.277 HD
HETATM    7  C7  UNL     1      -2.438   0.934  -0.279  1.00  0.00     0.267 C 
HETATM    8  C8  UNL     1      -1.050   1.149   0.318  1.00  0.00     0.239 C 
ENDROOT
BRANCH   1   9
HETATM    9  N1  UNL     1       1.142   0.172  -0.115  1.00  0.00    -0.066 N 
ATOM     10  H12 UNL     1       1.501   1.018   0.328  1.00  0.00     0.278 HD
ATOM     11  H11 UNL     1       1.195   0.470  -1.089  1.00  0.00     0.278 HD
BRANCH   9  12
HETATM   12  C3  UNL     1       2.010  -0.975   0.141  1.00  0.00     0.259 C 
BRANCH  12  13
HETATM   13  C2  UNL     1       3.444  -0.618  -0.028  1.00  0.00    -0.010 C 
HETATM   14  C1  UNL     1       3.821   0.594  -0.350  1.00  0.00     0.008 C 
ENDBRANCH  12  13
ENDBRANCH   9  12
ENDBRANCH   1   9
BRANCH   8  15
HETATM   15  N3  UNL     1      -0.497   2.279  -0.355  1.00  0.00    -0.071 N 
ATOM     16  H33 UNL     1       0.438   2.475   0.002  1.00  0.00     0.274 HD
ATOM     17  H32 UNL     1      -0.274   2.036  -1.320  1.00  0.00     0.274 HD
ATOM     18  H31 UNL     1      -1.066   3.125  -0.330  1.00  0.00     0.274 HD
ENDBRANCH   8  15
TORSDOF 4
