REMARK  3 active torsions:
REMARK  status: ('A' for Active; 'I' for Inactive)
REMARK    1  A    between atoms: C2_2  and  C3_3 
REMARK    2  A    between atoms: C3_3  and  N1_4 
REMARK    3  A    between atoms: N1_4  and  C4_6 
ROOT
HETATM    1  C4  UNL     1       1.108   0.497   0.410  1.00  0.00     0.176 A 
HETATM    2  N2  UNL     1       1.952   1.456   0.655  1.00  0.00    -0.355 N 
ATOM      3  H2  UNL     1       1.692   2.409   0.908  1.00  0.00     0.163 HD
HETATM    4  C5  UNL     1       3.294   0.987   0.520  1.00  0.00     0.198 A 
HETATM    5  C6  UNL     1       3.158  -0.419   0.069  1.00  0.00     0.095 A 
HETATM    6  N3  UNL     1       4.102  -1.255  -0.239  1.00  0.00    -0.387 N 
ATOM      7  H31 UNL     1       4.008  -2.222  -0.549  1.00  0.00     0.157 HD
ATOM      8  H32 UNL     1       5.104  -1.064  -0.222  1.00  0.00     0.157 HD
HETATM    9  N4  UNL     1       1.755  -0.686   0.045  1.00  0.00    -0.317 N 
ATOM     10  H4  UNL     1       1.310  -1.572  -0.193  1.00  0.00     0.170 HD
ENDROOT
BRANCH   1  11
HETATM   11  N1  UNL     1      -0.322   0.722   0.483  1.00  0.00    -0.362 N 
ATOM     12  H1  UNL     1      -0.678   1.561   0.940  1.00  0.00     0.162 HD
BRANCH  11  13
HETATM   13  C3  UNL     1      -1.245  -0.227  -0.083  1.00  0.00     0.122 C 
BRANCH  13  14
HETATM   14  C2  UNL     1      -2.637   0.444  -0.034  1.00  0.00     0.015 C 
HETATM   15  C1  UNL     1      -3.699  -0.439  -0.614  1.00  0.00     0.006 C 
ENDBRANCH  13  14
ENDBRANCH  11  13
ENDBRANCH   1  11
TORSDOF 3
