REMARK  4 active torsions:
REMARK  status: ('A' for Active; 'I' for Inactive)
REMARK    1  A    between atoms: C2_2  and  N1_3 
REMARK    2  A    between atoms: C5_7  and  C6_8 
REMARK    3  A    between atoms: C6_8  and  C7_9 
REMARK    4  A    between atoms: C7_9  and  N2_10 
ROOT
HETATM    1  N1  UNL     1       2.243  -0.220  -0.687  1.00  0.00    -0.377 N 
ATOM      2  H1  UNL     1       2.124   0.103  -1.647  1.00  0.00     0.161 HD
HETATM    3  C3  UNL     1       1.176  -0.332   0.004  1.00  0.00     0.103 A 
HETATM    4  C4  UNL     1      -0.026  -0.001  -0.633  1.00  0.00     0.073 A 
HETATM    5  C5  UNL     1      -1.236  -0.084   0.013  1.00  0.00     0.015 A 
HETATM    6  N3  UNL     1      -1.222  -0.499   1.290  1.00  0.00    -0.356 N 
ATOM      7  H3  UNL     1      -2.100  -0.574   1.804  1.00  0.00     0.166 HD
HETATM    8  C8  UNL     1      -0.064  -0.818   1.901  1.00  0.00     0.182 A 
HETATM    9  N4  UNL     1       1.133  -0.743   1.285  1.00  0.00    -0.339 N 
ATOM     10  H4  UNL     1       1.989  -0.993   1.780  1.00  0.00     0.168 HD
ENDROOT
BRANCH   5  11
HETATM   11  C6  UNL     1      -2.475   0.282  -0.719  1.00  0.00     0.084 C 
BRANCH  11  12
HETATM   12  C7  UNL     1      -3.688   0.122   0.165  1.00  0.00     0.235 C 
BRANCH  12  13
HETATM   13  N2  UNL     1      -4.848   0.508  -0.654  1.00  0.00    -0.079 N 
ATOM     14  H23 UNL     1      -4.764   1.439  -1.063  1.00  0.00     0.274 HD
ATOM     15  H22 UNL     1      -4.915  -0.008  -1.531  1.00  0.00     0.274 HD
ATOM     16  H21 UNL     1      -5.668   0.400  -0.057  1.00  0.00     0.274 HD
ENDBRANCH  12  13
ENDBRANCH  11  12
ENDBRANCH   5  11
BRANCH   1  17
HETATM   17  C2  UNL     1       3.572  -0.490  -0.281  1.00  0.00     0.116 C 
HETATM   18  C1  UNL     1       4.327   0.824  -0.139  1.00  0.00     0.026 C 
ENDBRANCH   1  17
TORSDOF 4
