REMARK  6 active torsions:
REMARK  status: ('A' for Active; 'I' for Inactive)
REMARK    1  A    between atoms: N1_1  and  C1_5 
REMARK    2  A    between atoms: C1_5  and  C2_6 
REMARK    3  A    between atoms: N2_9  and  C5_10 
REMARK    4  A    between atoms: C5_10  and  C6_11 
REMARK    5  A    between atoms: C6_11  and  N3_12 
REMARK    6  A    between atoms: C6_11  and  N4_16 
ROOT
HETATM    1  C2  UNL     1      -1.521   0.189   0.012  1.00  0.00     0.041 C 
HETATM    2  C3  UNL     1      -1.339  -1.300   0.171  1.00  0.00     0.038 C 
HETATM    3  C4  UNL     1       0.059  -1.490  -0.385  1.00  0.00     0.273 C 
HETATM    4  N2  UNL     1       0.464  -0.301  -1.002  1.00  0.00     0.092 N 
HETATM    5  C7  UNL     1      -0.787   0.427  -1.290  1.00  0.00     0.279 C 
ENDROOT
BRANCH   4   6
HETATM    6  C5  UNL     1       1.355   0.583  -0.366  1.00  0.00     0.334 C 
BRANCH   6   7
HETATM    7  C6  UNL     1       2.775   0.164  -0.199  1.00  0.00     0.406 C 
BRANCH   7   8
HETATM    8  N3  UNL     1       2.984  -1.027   0.594  1.00  0.00    -0.049 N 
ATOM      9  H33 UNL     1       2.542  -0.920   1.507  1.00  0.00     0.276 HD
ATOM     10  H32 UNL     1       2.435  -1.799   0.216  1.00  0.00     0.276 HD
ATOM     11  H31 UNL     1       3.956  -1.314   0.708  1.00  0.00     0.276 HD
ENDBRANCH   7   8
BRANCH   7  12
HETATM   12  N4  UNL     1       3.480   1.245   0.487  1.00  0.00    -0.049 N 
ATOM     13  H43 UNL     1       3.385   2.143   0.013  1.00  0.00     0.276 HD
ATOM     14  H42 UNL     1       3.039   1.510   1.368  1.00  0.00     0.276 HD
ATOM     15  H41 UNL     1       4.452   0.958   0.601  1.00  0.00     0.276 HD
ENDBRANCH   7  12
ENDBRANCH   6   7
ENDBRANCH   4   6
BRANCH   1  16
HETATM   16  C1  UNL     1      -2.946   0.623  -0.107  1.00  0.00     0.236 C 
BRANCH  16  17
HETATM   17  N1  UNL     1      -3.735   0.269   1.041  1.00  0.00    -0.079 N 
ATOM     18  H13 UNL     1      -3.673  -0.731   1.232  1.00  0.00     0.274 HD
ATOM     19  H12 UNL     1      -3.314   0.628   1.898  1.00  0.00     0.274 HD
ATOM     20  H11 UNL     1      -4.708   0.565   0.960  1.00  0.00     0.274 HD
ENDBRANCH  16  17
ENDBRANCH   1  16
TORSDOF 6
