REMARK  11 active torsions:
REMARK  status: ('A' for Active; 'I' for Inactive)
REMARK    1  A    between atoms: C5_5  and  N1_6 
REMARK    2  A    between atoms: N1_6  and  C6_9 
REMARK    3  A    between atoms: N2_12  and  C9_13 
REMARK    4  A    between atoms: C9_13  and  C10_14 
REMARK    5  A    between atoms: C10_14  and  C11_15 
REMARK    6  A    between atoms: C15_21  and  C16_22 
REMARK    7  A    between atoms: C16_22  and  C17_23 
REMARK    8  A    between atoms: C17_23  and  C18_24 
REMARK    9  A    between atoms: C18_24  and  C19_25 
REMARK   10  A    between atoms: C19_25  and  C20_26 
REMARK   11  A    between atoms: C20_26  and  N4_27 
REMARK       I    between atoms: N4_27  and  C21_29 
ROOT
HETATM    1  C11 UNL     1       0.346  -0.705   1.907  1.00  0.00    -0.055 A 
HETATM    2  C12 UNL     1       1.138   0.130   2.702  1.00  0.00     0.009 A 
HETATM    3  C13 UNL     1       2.449   0.330   2.342  1.00  0.00     0.031 A 
HETATM    4  C14 UNL     1       3.010  -0.263   1.231  1.00  0.00     0.049 A 
HETATM    5  N3  UNL     1       4.282  -0.077   0.851  1.00  0.00    -0.345 N 
ATOM      6  H3  UNL     1       4.873   0.531   1.418  1.00  0.00     0.167 HD
HETATM    7  C15 UNL     1       4.814  -0.647  -0.231  1.00  0.00     0.084 A 
HETATM    8  N7  UNL     1       4.061  -1.452  -0.996  1.00  0.00    -0.312 N 
ATOM      9  H7  UNL     1       4.470  -1.887  -1.823  1.00  0.00     0.170 HD
HETATM   10  C22 UNL     1       2.775  -1.693  -0.688  1.00  0.00     0.259 A 
HETATM   11  O1  UNL     1       2.034  -2.439  -1.376  1.00  0.00    -0.267 OA
HETATM   12  C23 UNL     1       2.245  -1.096   0.430  1.00  0.00     0.059 A 
HETATM   13  C24 UNL     1       0.908  -1.294   0.804  1.00  0.00     0.026 A 
ENDROOT
BRANCH   1  14
HETATM   14  C10 UNL     1      -1.081  -0.933   2.272  1.00  0.00     0.068 C 
BRANCH  14  15
HETATM   15  C9  UNL     1      -1.906   0.176   1.669  1.00  0.00     0.277 C 
BRANCH  15  16
HETATM   16  N2  UNL     1      -1.819   0.175   0.252  1.00  0.00     0.088 N 
HETATM   17  C8  UNL     1      -2.492  -0.924  -0.407  1.00  0.00     0.274 C 
HETATM   18  C7  UNL     1      -3.980  -0.820  -0.328  1.00  0.00     0.063 C 
HETATM   19  C6  UNL     1      -4.441   0.592  -0.484  1.00  0.00     0.189 C 
HETATM   20  C26 UNL     1      -3.369   1.391  -1.192  1.00  0.00     0.063 C 
HETATM   21  C25 UNL     1      -2.085   1.423  -0.386  1.00  0.00     0.274 C 
BRANCH  19  22
HETATM   22  N1  UNL     1      -5.650   0.744  -1.260  1.00  0.00    -0.067 N 
ATOM     23  H12 UNL     1      -5.520   0.415  -2.217  1.00  0.00     0.278 HD
ATOM     24  H11 UNL     1      -5.846   1.726  -1.453  1.00  0.00     0.278 HD
BRANCH  22  25
HETATM   25  C5  UNL     1      -6.801   0.085  -0.619  1.00  0.00     0.186 C 
HETATM   26  C4  UNL     1      -7.027   0.762   0.683  1.00  0.00     0.033 C 
HETATM   27  C3  UNL     1      -8.410   0.785   1.208  1.00  0.00     0.006 C 
HETATM   28  C2  UNL     1      -9.472   0.286   0.258  1.00  0.00    -0.019 C 
HETATM   29  C1  UNL     1      -9.588  -1.200   0.215  1.00  0.00     0.010 C 
HETATM   30  C28 UNL     1      -9.159   0.846  -1.103  1.00  0.00     0.006 C 
HETATM   31  C27 UNL     1      -7.918   0.172  -1.606  1.00  0.00     0.033 C 
ENDBRANCH  22  25
ENDBRANCH  19  22
ENDBRANCH  15  16
ENDBRANCH  14  15
ENDBRANCH   1  14
BRANCH   7  32
HETATM   32  C16 UNL     1       6.263  -0.367  -0.619  1.00  0.00     0.076 C 
BRANCH  32  33
HETATM   33  C17 UNL     1       6.611  -1.122  -1.847  1.00  0.00     0.007 C 
BRANCH  33  34
HETATM   34  C18 UNL     1       7.944  -0.937  -2.440  1.00  0.00     0.002 C 
BRANCH  34  35
HETATM   35  C19 UNL     1       9.183  -1.280  -1.746  1.00  0.00     0.020 C 
BRANCH  35  36
HETATM   36  C20 UNL     1       9.561  -0.620  -0.478  1.00  0.00     0.122 C 
BRANCH  36  37
HETATM   37  N4  UNL     1       9.639   0.815  -0.572  1.00  0.00    -0.365 N 
HETATM   38  C21 UNL     1       9.994   1.673   0.490  1.00  0.00     0.181 C 
HETATM   39  N5  UNL     1      10.157   1.200   1.670  1.00  0.00    -0.374 N 
HETATM   40  N6  UNL     1      10.190   3.065   0.323  1.00  0.00    -0.064 NA
ATOM     41  H52 UNL     1      10.016   0.197   1.790  1.00  0.00     0.158 HD
ATOM     42  H51 UNL     1      10.414   1.820   2.438  1.00  0.00     0.158 HD
ATOM     43  H4  UNL     1       9.422   1.242  -1.472  1.00  0.00     0.162 HD
ENDBRANCH  36  37
ENDBRANCH  35  36
ENDBRANCH  34  35
ENDBRANCH  33  34
ENDBRANCH  32  33
ENDBRANCH   7  32
TORSDOF 11
