REMARK  13 active torsions:
REMARK  status: ('A' for Active; 'I' for Inactive)
REMARK    1  A    between atoms: C1_2  and  C2_4 
REMARK    2  A    between atoms: C2_4  and  C3_5 
REMARK    3  A    between atoms: C3_5  and  C4_6 
REMARK    4  A    between atoms: C4_6  and  C5_7 
REMARK    5  A    between atoms: C6_8  and  C7_9 
REMARK    6  A    between atoms: C7_9  and  C8_10 
REMARK    7  A    between atoms: C9_11  and  C10_12 
REMARK    8  A    between atoms: C11_13  and  C12_14 
REMARK    9  A    between atoms: C12_14  and  O3_15 
REMARK   10  A    between atoms: C12_14  and  C13_17 
REMARK   11  A    between atoms: C14_18  and  C15_19 
REMARK   12  A    between atoms: C19_23  and  O4_24 
REMARK   13  A    between atoms: C20_26  and  C21_27 
ROOT
HETATM    1  C8  UNL     1       0.893  -1.861  -0.160  1.00  0.00     0.013 C 
HETATM    2  C9  UNL     1      -0.381  -1.434  -0.927  1.00  0.00     0.015 C 
HETATM    3  C18 UNL     1      -1.261  -2.602  -0.621  1.00  0.00     0.041 C 
HETATM    4  C19 UNL     1      -0.325  -3.819  -0.662  1.00  0.00     0.133 C 
HETATM    5  C20 UNL     1       1.085  -3.223  -0.771  1.00  0.00     0.120 C 
ENDROOT
BRANCH   2   6
HETATM    6  C10 UNL     1      -0.878  -0.125  -0.550  1.00  0.00    -0.023 C 
HETATM    7  C11 UNL     1      -2.054   0.025   0.033  1.00  0.00     0.005 C 
BRANCH   7   8
HETATM    8  C12 UNL     1      -2.547   1.386   0.414  1.00  0.00     0.163 C 
BRANCH   8   9
HETATM    9  O3  UNL     1      -2.322   1.566   1.781  1.00  0.00    -0.388 OA
ATOM     10  H3  UNL     1      -2.635   2.430   2.023  1.00  0.00     0.210 HD
ENDBRANCH   8   9
BRANCH   8  11
HETATM   11  C13 UNL     1      -3.987   1.460   0.104  1.00  0.00     0.005 C 
HETATM   12  C14 UNL     1      -4.808   2.071   0.937  1.00  0.00    -0.023 C 
BRANCH  12  13
HETATM   13  C15 UNL     1      -6.273   2.177   0.676  1.00  0.00     0.008 A 
HETATM   14  C16 UNL     1      -6.600   3.065  -0.515  1.00  0.00     0.009 A 
HETATM   15  C17 UNL     1      -6.901   1.613  -0.518  1.00  0.00     0.009 A 
ENDBRANCH  12  13
ENDBRANCH   8  11
ENDBRANCH   7   8
ENDBRANCH   2   6
BRANCH   1  16
HETATM   16  C7  UNL     1       1.989  -0.872  -0.458  1.00  0.00     0.033 C 
BRANCH  16  17
HETATM   17  C6  UNL     1       3.264  -1.110   0.198  1.00  0.00    -0.030 C 
HETATM   18  C5  UNL     1       3.851  -0.278   1.034  1.00  0.00    -0.031 C 
BRANCH  18  19
HETATM   19  C4  UNL     1       3.301   1.040   1.444  1.00  0.00     0.027 C 
BRANCH  19  20
HETATM   20  C3  UNL     1       4.309   2.093   1.020  1.00  0.00     0.014 C 
BRANCH  20  21
HETATM   21  C2  UNL     1       4.538   2.083  -0.460  1.00  0.00     0.113 C 
BRANCH  21  22
HETATM   22  C1  UNL     1       5.531   3.137  -0.784  1.00  0.00     0.172 C 
HETATM   23  O1  UNL     1       5.881   3.315  -1.976  1.00  0.00    -0.648 OA
HETATM   24  O2  UNL     1       6.084   3.931   0.185  1.00  0.00    -0.648 OA
ENDBRANCH  21  22
ENDBRANCH  20  21
ENDBRANCH  19  20
ENDBRANCH  18  19
ENDBRANCH  16  17
ENDBRANCH   1  16
BRANCH   5  25
HETATM   25  C21 UNL     1       2.073  -4.078  -0.117  1.00  0.00     0.179 C 
HETATM   26  O5  UNL     1       2.997  -4.645  -0.795  1.00  0.00    -0.648 OA
HETATM   27  O6  UNL     1       2.079  -4.332   1.250  1.00  0.00    -0.648 OA
ENDBRANCH   5  25
BRANCH   4  28
HETATM   28  O4  UNL     1      -0.574  -4.621  -1.757  1.00  0.00    -0.395 OA
ATOM     29  H4  UNL     1       0.005  -5.374  -1.782  1.00  0.00     0.210 HD
ENDBRANCH   4  28
TORSDOF 13
