REMARK  13 active torsions:
REMARK  status: ('A' for Active; 'I' for Inactive)
REMARK    1  A    between atoms: C1_2  and  C2_4 
REMARK    2  A    between atoms: C2_4  and  C3_5 
REMARK    3  A    between atoms: C3_5  and  C4_6 
REMARK    4  A    between atoms: C6_11  and  C7_12 
REMARK    5  A    between atoms: C7_12  and  C8_13 
REMARK    6  A    between atoms: C9_14  and  C10_15 
REMARK    7  A    between atoms: C10_15  and  C11_16 
REMARK    8  A    between atoms: C11_16  and  C12_17 
REMARK    9  A    between atoms: C12_17  and  C13_18 
REMARK   10  A    between atoms: C13_18  and  C14_19 
REMARK   11  A    between atoms: C14_19  and  C15_20 
REMARK   12  A    between atoms: C20_25  and  O3_26 
REMARK   13  A    between atoms: C21_28  and  O4_29 
ROOT
HETATM    1  C4  UNL     1       4.759  -0.370   0.069  1.00  0.00     0.116 C 
HETATM    2  N2  UNL     1       4.843  -1.533   0.960  1.00  0.00    -0.353 N 
ATOM      3  H2  UNL     1       5.582  -1.591   1.661  1.00  0.00     0.163 HD
HETATM    4  C5  UNL     1       3.883  -2.584   0.839  1.00  0.00     0.225 C 
HETATM    5  O2  UNL     1       3.724  -3.332   1.837  1.00  0.00    -0.273 OA
HETATM    6  C6  UNL     1       3.084  -2.825  -0.387  1.00  0.00     0.112 C 
HETATM    7  C20 UNL     1       3.244  -1.673  -1.313  1.00  0.00     0.162 C 
HETATM    8  C21 UNL     1       3.352  -0.394  -0.485  1.00  0.00     0.170 C 
ENDROOT
BRANCH   6   9
HETATM    9  C7  UNL     1       1.645  -3.161  -0.055  1.00  0.00     0.043 C 
BRANCH   9  10
HETATM   10  C8  UNL     1       0.839  -3.404  -1.271  1.00  0.00    -0.030 C 
HETATM   11  C9  UNL     1      -0.226  -2.697  -1.608  1.00  0.00    -0.031 C 
BRANCH  11  12
HETATM   12  C10 UNL     1      -0.796  -1.560  -0.853  1.00  0.00     0.027 C 
BRANCH  12  13
HETATM   13  C11 UNL     1      -2.231  -1.968  -0.486  1.00  0.00     0.004 C 
BRANCH  13  14
HETATM   14  C12 UNL     1      -2.808  -0.791   0.290  1.00  0.00     0.000 C 
BRANCH  14  15
HETATM   15  C13 UNL     1      -4.212  -1.035   0.722  1.00  0.00     0.000 C 
BRANCH  15  16
HETATM   16  C14 UNL     1      -4.733   0.142   1.493  1.00  0.00     0.004 C 
BRANCH  16  17
HETATM   17  C15 UNL     1      -4.712   1.379   0.651  1.00  0.00    -0.014 C 
HETATM   18  C16 UNL     1      -5.243   2.578   1.415  1.00  0.00     0.004 C 
HETATM   19  C17 UNL     1      -6.216   3.279   0.521  1.00  0.00     0.000 C 
HETATM   20  C18 UNL     1      -6.242   2.564  -0.797  1.00  0.00     0.000 C 
HETATM   21  C19 UNL     1      -5.534   1.243  -0.590  1.00  0.00     0.004 C 
ENDBRANCH  16  17
ENDBRANCH  15  16
ENDBRANCH  14  15
ENDBRANCH  13  14
ENDBRANCH  12  13
ENDBRANCH  11  12
ENDBRANCH   9  10
ENDBRANCH   6   9
BRANCH   7  22
HETATM   22  O3  UNL     1       4.454  -1.812  -2.029  1.00  0.00    -0.392 OA
ATOM     23  H3  UNL     1       4.556  -1.076  -2.621  1.00  0.00     0.210 HD
ENDBRANCH   7  22
BRANCH   8  24
HETATM   24  O4  UNL     1       2.475  -0.401   0.580  1.00  0.00    -0.391 OA
ATOM     25  H4  UNL     1       1.591  -0.416   0.232  1.00  0.00     0.210 HD
ENDBRANCH   8  24
BRANCH   1  26
HETATM   26  C3  UNL     1       5.084   0.898   0.800  1.00  0.00     0.036 C 
BRANCH  26  27
HETATM   27  C2  UNL     1       5.008   2.102  -0.079  1.00  0.00     0.101 C 
BRANCH  27  28
HETATM   28  C1  UNL     1       5.330   3.359   0.645  1.00  0.00     0.231 C 
HETATM   29  N1  UNL     1       5.301   4.591  -0.063  1.00  0.00    -0.062 NA
HETATM   30  O1  UNL     1       5.631   3.399   1.866  1.00  0.00    -0.277 OA
ENDBRANCH  27  28
ENDBRANCH  26  27
ENDBRANCH   1  26
TORSDOF 13
