REMARK  11 active torsions:
REMARK  status: ('A' for Active; 'I' for Inactive)
REMARK    1  A    between atoms: O1_2  and  C2_3 
REMARK    2  A    between atoms: C2_3  and  C3_4 
REMARK    3  A    between atoms: C3_4  and  N1_5 
REMARK    4  A    between atoms: N1_5  and  C4_6 
REMARK       I    between atoms: N1_5  and  C11_14 
REMARK    5  A    between atoms: C4_6  and  C5_7 
REMARK    6  A    between atoms: C5_7  and  C6_8 
REMARK       I    between atoms: C11_14  and  N2_16 
REMARK    7  A    between atoms: N2_16  and  C12_18 
REMARK    8  A    between atoms: C12_18  and  C13_19 
REMARK    9  A    between atoms: C13_19  and  N3_20 
REMARK   10  A    between atoms: N3_20  and  C14_22 
REMARK   11  A    between atoms: C14_22  and  C15_23 
ROOT
HETATM    1  N1  UNL     1      -1.475   0.261  -1.092  1.00  0.00    -0.332 N 
HETATM    2  C11 UNL     1      -0.409  -0.442  -0.396  1.00  0.00     0.318 C 
HETATM    3  O2  UNL     1       0.092  -1.495  -0.934  1.00  0.00    -0.247 OA
HETATM    4  N2  UNL     1       0.119  -0.045   0.839  1.00  0.00    -0.341 N 
ATOM      5  H2  UNL     1      -0.263   0.783   1.296  1.00  0.00     0.164 HD
ENDROOT
BRANCH   1   6
HETATM    6  C3  UNL     1      -1.875  -0.316  -2.336  1.00  0.00     0.153 C 
BRANCH   6   7
HETATM    7  C2  UNL     1      -2.927  -1.348  -2.336  1.00  0.00     0.187 C 
BRANCH   7   8
HETATM    8  O1  UNL     1      -2.616  -2.477  -1.578  1.00  0.00    -0.394 OA
HETATM    9  C1  UNL     1      -3.708  -3.342  -1.679  1.00  0.00     0.201 C 
ENDBRANCH   7   8
ENDBRANCH   6   7
ENDBRANCH   1   6
BRANCH   1  10
HETATM   10  C4  UNL     1      -1.928   1.468  -0.506  1.00  0.00     0.128 C 
BRANCH  10  11
HETATM   11  C5  UNL     1      -2.970   1.475   0.516  1.00  0.00     0.025 C 
BRANCH  11  12
HETATM   12  C6  UNL     1      -4.319   0.950   0.228  1.00  0.00    -0.004 C 
HETATM   13  C7  UNL     1      -5.141   1.142   1.520  1.00  0.00     0.006 C 
HETATM   14  C8  UNL     1      -6.264   0.143   1.546  1.00  0.00     0.010 C 
HETATM   15  C9  UNL     1      -7.378   0.537   0.592  1.00  0.00     0.074 C 
HETATM   16  S1  UNL     1      -6.696   0.985  -1.031  1.00  0.00    -0.169 SA
HETATM   17  C10 UNL     1      -5.042   1.704  -0.857  1.00  0.00     0.078 C 
ENDBRANCH  11  12
ENDBRANCH  10  11
ENDBRANCH   1  10
BRANCH   4  18
HETATM   18  C12 UNL     1       1.184  -0.768   1.485  1.00  0.00     0.144 C 
BRANCH  18  19
HETATM   19  C13 UNL     1       2.467  -0.792   0.622  1.00  0.00     0.138 C 
BRANCH  19  20
HETATM   20  N3  UNL     1       2.902   0.533   0.379  1.00  0.00    -0.399 N 
ATOM     21  H3  UNL     1       2.447   1.299   0.876  1.00  0.00     0.158 HD
BRANCH  20  22
HETATM   22  C14 UNL     1       3.927   0.829  -0.513  1.00  0.00     0.088 C 
BRANCH  22  23
HETATM   23  C15 UNL     1       5.310   0.473  -0.170  1.00  0.00     0.223 C 
HETATM   24  C16 UNL     1       5.595  -0.983   0.044  1.00  0.00     0.038 C 
HETATM   25  C17 UNL     1       7.132  -1.147  -0.109  1.00  0.00     0.004 C 
HETATM   26  C18 UNL     1       7.824  -0.200   0.832  1.00  0.00     0.027 C 
HETATM   27  C19 UNL     1       7.197   1.130   1.006  1.00  0.00     0.233 C 
HETATM   28  N4  UNL     1       5.745   1.148   1.057  1.00  0.00    -0.066 N 
ATOM     29  H42 UNL     1       5.348   2.080   1.178  1.00  0.00     0.278 HD
ATOM     30  H41 UNL     1       5.357   0.744   1.909  1.00  0.00     0.278 HD
ENDBRANCH  22  23
ENDBRANCH  20  22
ENDBRANCH  19  20
ENDBRANCH  18  19
ENDBRANCH   4  18
TORSDOF 11
