REMARK  13 active torsions:
REMARK  status: ('A' for Active; 'I' for Inactive)
REMARK    1  A    between atoms: C3_3  and  C4_4 
REMARK    2  A    between atoms: C4_4  and  C5_5 
REMARK    3  A    between atoms: C5_5  and  C6_6 
REMARK    4  A    between atoms: C6_6  and  C7_7 
REMARK    5  A    between atoms: C7_7  and  N1_8 
REMARK    6  A    between atoms: N1_8  and  S1_10 
REMARK    7  A    between atoms: S1_10  and  N2_13 
REMARK    8  A    between atoms: N2_13  and  C8_15 
REMARK    9  A    between atoms: C8_15  and  C9_16 
REMARK   10  A    between atoms: C11_18  and  C12_19 
REMARK   11  A    between atoms: C15_22  and  C16_23 
REMARK   12  A    between atoms: C16_23  and  O3_24 
REMARK   13  A    between atoms: N3_26  and  O4_28 
ROOT
HETATM    1  C1  UNL     1       6.990   2.128  -0.737  1.00  0.00     0.012 C 
HETATM    2  C2  UNL     1       6.026   2.023  -1.475  1.00  0.00    -0.117 C 
HETATM    3  C3  UNL     1       4.870   1.921  -2.365  1.00  0.00     0.093 C 
ENDROOT
BRANCH   3   4
HETATM    4  C4  UNL     1       4.043   0.726  -1.859  1.00  0.00     0.012 C 
BRANCH   4   5
HETATM    5  C5  UNL     1       4.940  -0.482  -1.943  1.00  0.00     0.002 C 
BRANCH   5   6
HETATM    6  C6  UNL     1       4.196  -1.688  -1.483  1.00  0.00     0.020 C 
BRANCH   6   7
HETATM    7  C7  UNL     1       3.756  -1.495  -0.051  1.00  0.00     0.133 C 
BRANCH   7   8
HETATM    8  N1  UNL     1       3.051  -2.735   0.304  1.00  0.00    -0.303 N 
ATOM      9  H1  UNL     1       2.908  -3.535  -0.313  1.00  0.00     0.173 HD
BRANCH   8  10
HETATM   10  S1  UNL     1       2.512  -2.615   1.917  1.00  0.00     0.314 S 
HETATM   11  O1  UNL     1       2.736  -3.908   2.674  1.00  0.00    -0.183 OA
HETATM   12  O2  UNL     1       3.316  -1.575   2.691  1.00  0.00    -0.183 OA
BRANCH  10  13
HETATM   13  N2  UNL     1       0.892  -2.123   1.959  1.00  0.00    -0.302 N 
ATOM     14  H2  UNL     1       0.121  -2.785   1.875  1.00  0.00     0.173 HD
BRANCH  13  15
HETATM   15  C8  UNL     1       0.674  -0.702   2.122  1.00  0.00     0.138 C 
BRANCH  15  16
HETATM   16  C9  UNL     1      -0.819  -0.488   2.134  1.00  0.00     0.009 A 
HETATM   17  C10 UNL     1      -1.409   0.856   2.284  1.00  0.00     0.012 A 
HETATM   18  C11 UNL     1      -1.345   0.297   0.926  1.00  0.00    -0.004 A 
BRANCH  18  19
HETATM   19  C12 UNL     1      -2.507  -0.304   0.213  1.00  0.00    -0.010 C 
HETATM   20  C13 UNL     1      -2.859   0.633  -0.963  1.00  0.00     0.006 C 
HETATM   21  C14 UNL     1      -3.423   1.890  -0.342  1.00  0.00     0.013 C 
HETATM   22  C15 UNL     1      -4.717   1.586   0.295  1.00  0.00     0.062 C 
HETATM   23  C17 UNL     1      -4.686   0.444   1.281  1.00  0.00     0.013 C 
HETATM   24  C18 UNL     1      -3.697  -0.621   1.031  1.00  0.00     0.006 C 
BRANCH  22  25
HETATM   25  C16 UNL     1      -5.815   1.466  -0.659  1.00  0.00     0.139 C 
HETATM   26  N3  UNL     1      -5.783   1.758  -1.857  1.00  0.00    -0.251 N 
ATOM     27  H3  UNL     1      -6.700   1.564  -2.258  1.00  0.00     0.196 HD
BRANCH  25  28
HETATM   28  O3  UNL     1      -7.066   0.967  -0.190  1.00  0.00    -0.348 OA
ATOM     29  H3  UNL     1      -7.781   0.889  -0.811  1.00  0.00     0.219 HD
ENDBRANCH  25  28
BRANCH  26  30
HETATM   30  O4  UNL     1      -5.016   2.221  -2.799  1.00  0.00    -0.288 OA
ATOM     31  H4  UNL     1      -4.991   2.446  -3.722  1.00  0.00     0.244 HD
ENDBRANCH  26  30
ENDBRANCH  22  25
ENDBRANCH  18  19
ENDBRANCH  15  16
ENDBRANCH  13  15
ENDBRANCH  10  13
ENDBRANCH   8  10
ENDBRANCH   7   8
ENDBRANCH   6   7
ENDBRANCH   5   6
ENDBRANCH   4   5
ENDBRANCH   3   4
TORSDOF 13
