REMARK  14 active torsions:
REMARK  status: ('A' for Active; 'I' for Inactive)
REMARK    1  A    between atoms: C2_2  and  C3_3 
REMARK    2  A    between atoms: C3_3  and  N1_4 
REMARK    3  A    between atoms: N1_4  and  C6_7 
REMARK    4  A    between atoms: C6_7  and  C7_8 
REMARK    5  A    between atoms: C7_8  and  C8_9 
REMARK    6  A    between atoms: C8_9  and  C9_10 
REMARK    7  A    between atoms: C9_10  and  C10_11 
REMARK    8  A    between atoms: C10_11  and  C11_12 
REMARK    9  A    between atoms: C11_12  and  N2_13 
REMARK   10  A    between atoms: N2_13  and  C12_15 
REMARK   11  A    between atoms: C12_15  and  C13_16 
REMARK   12  A    between atoms: C13_16  and  N3_17 
REMARK   13  A    between atoms: C19_26  and  O1_27 
REMARK   14  A    between atoms: C21_30  and  O2_31 
ROOT
HETATM    1  N1  UNL     1      -0.011  -0.608  -0.038  1.00  0.00    -0.074 N 
HETATM    2  C4  UNL     1       0.548  -0.340   1.301  1.00  0.00     0.272 C 
HETATM    3  C5  UNL     1       0.532  -1.937  -0.363  1.00  0.00     0.272 C 
ENDROOT
BRANCH   1   4
HETATM    4  C3  UNL     1      -1.396  -0.756   0.031  1.00  0.00     0.246 C 
BRANCH   4   5
HETATM    5  C2  UNL     1      -2.343   0.307  -0.343  1.00  0.00    -0.013 C 
HETATM    6  C1  UNL     1      -2.135   0.656  -1.804  1.00  0.00     0.017 C 
HETATM    7  C14 UNL     1      -2.309   1.529   0.528  1.00  0.00     0.011 C 
HETATM    8  C15 UNL     1      -3.172   2.599  -0.093  1.00  0.00     0.001 C 
HETATM    9  C16 UNL     1      -4.543   2.146  -0.432  1.00  0.00     0.005 C 
HETATM   10  C17 UNL     1      -4.843   0.706  -0.186  1.00  0.00    -0.005 C 
HETATM   11  C18 UNL     1      -5.684   0.627   1.100  1.00  0.00     0.037 C 
HETATM   12  C22 UNL     1      -3.749  -0.266  -0.247  1.00  0.00     0.028 C 
HETATM   13  C19 UNL     1      -6.204  -0.738   1.376  1.00  0.00     0.120 C 
HETATM   14  C20 UNL     1      -5.365  -1.780   0.704  1.00  0.00     0.063 C 
HETATM   15  C21 UNL     1      -3.906  -1.297   0.846  1.00  0.00     0.125 C 
BRANCH  13  16
HETATM   16  O1  UNL     1      -7.538  -0.896   0.977  1.00  0.00    -0.395 OA
ATOM     17  H1  UNL     1      -7.870  -1.768   1.153  1.00  0.00     0.210 HD
ENDBRANCH  13  16
BRANCH  15  18
HETATM   18  O2  UNL     1      -3.794  -0.836   2.125  1.00  0.00    -0.395 OA
ATOM     19  H2  UNL     1      -2.896  -0.539   2.212  1.00  0.00     0.210 HD
ENDBRANCH  15  18
ENDBRANCH   4   5
ENDBRANCH   1   4
BRANCH   1  20
HETATM   20  C6  UNL     1       0.604   0.279  -0.955  1.00  0.00     0.236 C 
BRANCH  20  21
HETATM   21  C7  UNL     1       2.131   0.090  -0.784  1.00  0.00     0.028 C 
BRANCH  21  22
HETATM   22  C8  UNL     1       2.842   1.039  -1.756  1.00  0.00     0.002 C 
BRANCH  22  23
HETATM   23  C9  UNL     1       4.344   0.910  -1.643  1.00  0.00     0.002 C 
BRANCH  23  24
HETATM   24  C10 UNL     1       4.826  -0.475  -1.953  1.00  0.00     0.019 C 
BRANCH  24  25
HETATM   25  C11 UNL     1       6.329  -0.505  -1.828  1.00  0.00     0.113 C 
BRANCH  25  26
HETATM   26  N2  UNL     1       6.704  -0.151  -0.495  1.00  0.00    -0.420 N 
ATOM     27  H2  UNL     1       7.192   0.721  -0.291  1.00  0.00     0.153 HD
BRANCH  26  28
HETATM   28  C12 UNL     1       6.366  -1.069   0.529  1.00  0.00     0.141 C 
BRANCH  28  29
HETATM   29  C13 UNL     1       6.860  -0.536   1.872  1.00  0.00     0.248 C 
BRANCH  29  30
HETATM   30  N3  UNL     1       6.279   0.736   2.207  1.00  0.00    -0.078 N 
ATOM     31  H33 UNL     1       6.432   1.417   1.463  1.00  0.00     0.274 HD
ATOM     32  H32 UNL     1       5.260   0.692   2.182  1.00  0.00     0.274 HD
ATOM     33  H31 UNL     1       6.609   1.092   3.104  1.00  0.00     0.274 HD
ENDBRANCH  29  30
ENDBRANCH  28  29
ENDBRANCH  26  28
ENDBRANCH  25  26
ENDBRANCH  24  25
ENDBRANCH  23  24
ENDBRANCH  22  23
ENDBRANCH  21  22
ENDBRANCH  20  21
ENDBRANCH   1  20
TORSDOF 14
