REMARK  13 active torsions:
REMARK  status: ('A' for Active; 'I' for Inactive)
REMARK    1  A    between atoms: C1_2  and  C2_3 
REMARK       I    between atoms: C1_2  and  N1_23 
REMARK    2  A    between atoms: C2_3  and  C3_4 
REMARK    3  A    between atoms: C3_4  and  C4_5 
REMARK    4  A    between atoms: C4_5  and  C5_6 
REMARK    5  A    between atoms: C6_7  and  C7_8 
REMARK    6  A    between atoms: C7_8  and  C8_9 
REMARK    7  A    between atoms: C13_14  and  C14_15 
REMARK    8  A    between atoms: C14_15  and  C15_16 
REMARK    9  A    between atoms: C15_16  and  C16_17 
REMARK   10  A    between atoms: C16_17  and  O2_18 
REMARK   11  A    between atoms: C17_20  and  O3_21 
REMARK   12  A    between atoms: N1_23  and  C18_25 
REMARK   13  A    between atoms: C18_25  and  C19_26 
ROOT
HETATM    1  C5  UNL     1       0.495   0.397   0.616  1.00  0.00    -0.031 C 
HETATM    2  C6  UNL     1      -0.766   0.358   0.880  1.00  0.00    -0.030 C 
ENDROOT
BRANCH   1   3
HETATM    3  C4  UNL     1       1.385  -0.774   0.583  1.00  0.00     0.027 C 
BRANCH   3   4
HETATM    4  C3  UNL     1       2.490  -0.617   1.597  1.00  0.00     0.013 C 
BRANCH   4   5
HETATM    5  C2  UNL     1       3.355   0.561   1.421  1.00  0.00     0.103 C 
BRANCH   5   6
HETATM    6  C1  UNL     1       4.110   0.494   0.116  1.00  0.00     0.221 C 
HETATM    7  O1  UNL     1       4.028  -0.577  -0.502  1.00  0.00    -0.273 OA
HETATM    8  N1  UNL     1       4.815   1.635  -0.251  1.00  0.00    -0.339 N 
ATOM      9  H1  UNL     1       4.718   2.405   0.411  1.00  0.00     0.167 HD
BRANCH   8  10
HETATM   10  C18 UNL     1       5.628   1.936  -1.343  1.00  0.00     0.096 C 
BRANCH  10  11
HETATM   11  C19 UNL     1       6.934   1.264  -1.466  1.00  0.00     0.224 C 
HETATM   12  C20 UNL     1       7.065  -0.179  -1.596  1.00  0.00     0.040 C 
HETATM   13  C21 UNL     1       7.521  -0.675  -0.244  1.00  0.00     0.030 C 
HETATM   14  C22 UNL     1       7.745   0.550   0.587  1.00  0.00     0.233 C 
HETATM   15  N2  UNL     1       7.801   1.667  -0.339  1.00  0.00    -0.066 N 
ATOM     16  H22 UNL     1       8.747   1.929  -0.616  1.00  0.00     0.278 HD
ATOM     17  H21 UNL     1       7.551   2.564   0.077  1.00  0.00     0.278 HD
ENDBRANCH  10  11
ENDBRANCH   8  10
ENDBRANCH   5   6
ENDBRANCH   4   5
ENDBRANCH   3   4
ENDBRANCH   1   3
BRANCH   2  18
HETATM   18  C7  UNL     1      -1.607  -0.830   1.205  1.00  0.00     0.032 C 
BRANCH  18  19
HETATM   19  C8  UNL     1      -2.663  -0.916   0.169  1.00  0.00    -0.000 C 
HETATM   20  C9  UNL     1      -3.631  -2.073   0.332  1.00  0.00     0.019 C 
HETATM   21  C10 UNL     1      -4.259  -1.724   1.659  1.00  0.00     0.008 C 
HETATM   22  C17 UNL     1      -4.670  -1.709  -0.732  1.00  0.00     0.127 C 
HETATM   23  C11 UNL     1      -4.382  -0.194   1.574  1.00  0.00     0.006 C 
HETATM   24  C12 UNL     1      -3.746   0.180   0.289  1.00  0.00    -0.003 C 
HETATM   25  C13 UNL     1      -4.536  -0.263  -0.950  1.00  0.00     0.019 C 
BRANCH  25  26
HETATM   26  C14 UNL     1      -5.611   0.586  -1.386  1.00  0.00     0.009 C 
BRANCH  26  27
HETATM   27  C15 UNL     1      -6.791   0.933  -0.606  1.00  0.00     0.027 C 
BRANCH  27  28
HETATM   28  C16 UNL     1      -7.697  -0.210  -0.214  1.00  0.00     0.164 C 
BRANCH  28  29
HETATM   29  O2  UNL     1      -8.205  -0.911  -1.296  1.00  0.00    -0.401 OA
ATOM     30  H2  UNL     1      -8.775  -1.630  -1.049  1.00  0.00     0.209 HD
ENDBRANCH  28  29
ENDBRANCH  27  28
ENDBRANCH  26  27
ENDBRANCH  25  26
BRANCH  22  31
HETATM   31  O3  UNL     1      -4.251  -2.446  -1.873  1.00  0.00    -0.395 OA
ATOM     32  H3  UNL     1      -4.896  -2.220  -2.533  1.00  0.00     0.210 HD
ENDBRANCH  22  31
ENDBRANCH  18  19
ENDBRANCH   2  18
TORSDOF 13
