REMARK  8 active torsions:
REMARK  status: ('A' for Active; 'I' for Inactive)
REMARK    1  A    between atoms: C2_2  and  C3_3 
REMARK    2  A    between atoms: C3_3  and  C4_4 
REMARK    3  A    between atoms: C4_4  and  N1_5 
REMARK    4  A    between atoms: N1_5  and  C5_7 
REMARK    5  A    between atoms: C6_10  and  C7_11 
REMARK    6  A    between atoms: N3_15  and  C11_16 
REMARK    7  A    between atoms: C15_25  and  C16_26 
REMARK       I    between atoms: C16_26  and  N6_28 
REMARK    8  A    between atoms: N6_28  and  C17_30 
ROOT
HETATM    1  C5  UNL     1      -0.579   1.143   0.646  1.00  0.00     0.117 A 
HETATM    2  N2  UNL     1       0.760   0.840   0.597  1.00  0.00    -0.327 N 
ATOM      3  H2  UNL     1       1.432   1.584   0.784  1.00  0.00     0.169 HD
HETATM    4  C6  UNL     1       1.225  -0.374   0.318  1.00  0.00     0.123 A 
HETATM    5  N4  UNL     1       0.271  -1.319   0.079  1.00  0.00    -0.327 N 
ATOM      6  H4  UNL     1       0.584  -2.265  -0.139  1.00  0.00     0.169 HD
HETATM    7  C14 UNL     1      -1.044  -1.091   0.111  1.00  0.00     0.122 A 
HETATM    8  N5  UNL     1      -2.133  -1.854  -0.087  1.00  0.00    -0.337 N 
ATOM      9  H5  UNL     1      -2.106  -2.846  -0.322  1.00  0.00     0.167 HD
HETATM   10  C15 UNL     1      -3.262  -1.142   0.065  1.00  0.00     0.109 A 
HETATM   11  C20 UNL     1      -2.919   0.163   0.379  1.00  0.00    -0.012 A 
HETATM   12  C21 UNL     1      -3.820   1.292   0.639  1.00  0.00     0.052 C 
HETATM   13  C22 UNL     1      -1.516   0.163   0.400  1.00  0.00     0.060 A 
ENDROOT
BRANCH   4  14
HETATM   14  C7  UNL     1       2.628  -0.773   0.276  1.00  0.00     0.072 C 
HETATM   15  C8  UNL     1       2.955  -2.014  -0.083  1.00  0.00    -0.004 C 
HETATM   16  C9  UNL     1       4.303  -2.562  -0.172  1.00  0.00     0.048 C 
HETATM   17  C10 UNL     1       5.295  -1.476  -0.453  1.00  0.00     0.130 C 
HETATM   18  N3  UNL     1       5.072  -0.440   0.535  1.00  0.00    -0.348 N 
HETATM   19  C13 UNL     1       3.732   0.095   0.613  1.00  0.00     0.257 C 
HETATM   20  O1  UNL     1       3.597   1.278   0.969  1.00  0.00    -0.267 OA
BRANCH  18  21
HETATM   21  C11 UNL     1       6.105   0.053   1.417  1.00  0.00     0.121 C 
HETATM   22  C12 UNL     1       6.837   1.211   0.827  1.00  0.00     0.026 C 
ENDBRANCH  18  21
ENDBRANCH   4  14
BRANCH   1  23
HETATM   23  N1  UNL     1      -0.996   2.302   0.894  1.00  0.00    -0.375 N 
ATOM     24  H1  UNL     1      -2.013   2.375   0.898  1.00  0.00     0.161 HD
BRANCH  23  25
HETATM   25  C4  UNL     1      -0.345   3.524   1.168  1.00  0.00     0.121 C 
BRANCH  25  26
HETATM   26  C3  UNL     1      -0.739   4.564   0.159  1.00  0.00     0.019 C 
BRANCH  26  27
HETATM   27  C2  UNL     1      -0.358   4.184  -1.242  1.00  0.00    -0.003 C 
HETATM   28  C1  UNL     1       1.140   4.013  -1.385  1.00  0.00     0.005 C 
ENDBRANCH  26  27
ENDBRANCH  25  26
ENDBRANCH  23  25
ENDBRANCH   1  23
BRANCH  10  29
HETATM   29  C16 UNL     1      -4.625  -1.686  -0.097  1.00  0.00     0.269 C 
HETATM   30  O2  UNL     1      -5.656  -1.003   0.091  1.00  0.00    -0.266 OA
HETATM   31  N6  UNL     1      -4.781  -3.043  -0.481  1.00  0.00    -0.351 N 
ATOM     32  H6  UNL     1      -3.963  -3.630  -0.645  1.00  0.00     0.163 HD
BRANCH  31  33
HETATM   33  C17 UNL     1      -6.113  -3.585  -0.637  1.00  0.00     0.085 A 
HETATM   34  C18 UNL     1      -6.280  -5.033  -0.501  1.00  0.00     0.027 A 
HETATM   35  C19 UNL     1      -6.435  -4.396  -1.846  1.00  0.00     0.027 A 
ENDBRANCH  31  33
ENDBRANCH  10  29
TORSDOF 8
