REMARK  8 active torsions:
REMARK  status: ('A' for Active; 'I' for Inactive)
REMARK    1  A    between atoms: C2_2  and  O1_3 
REMARK    2  A    between atoms: O1_3  and  C3_4 
REMARK    3  A    between atoms: C3_4  and  C4_5 
REMARK    4  A    between atoms: C4_5  and  O2_6 
REMARK    5  A    between atoms: C4_5  and  C5_8 
REMARK    6  A    between atoms: C5_8  and  N1_9 
REMARK    7  A    between atoms: N1_9  and  C6_11 
REMARK    8  A    between atoms: C8_13  and  C9_14 
REMARK       I    between atoms: C9_14  and  N2_16 
ROOT
HETATM    1  C6  UNL     1      -1.569  -0.394  -1.444  1.00  0.00     0.117 C 
HETATM    2  C7  UNL     1      -0.393   0.214  -2.243  1.00  0.00     0.050 C 
HETATM    3  C8  UNL     1       0.648   0.253  -1.144  1.00  0.00     0.130 C 
HETATM    4  C17 UNL     1       0.506  -1.060  -0.504  1.00  0.00     0.031 A 
HETATM    5  N3  UNL     1       1.166  -2.010   0.175  1.00  0.00    -0.361 N 
ATOM      6  H3  UNL     1       2.151  -1.995   0.441  1.00  0.00     0.165 HD
HETATM    7  C18 UNL     1       0.281  -2.985   0.437  1.00  0.00     0.016 A 
HETATM    8  C19 UNL     1      -0.938  -2.677  -0.063  1.00  0.00    -0.025 A 
HETATM    9  C20 UNL     1      -0.828  -1.455  -0.670  1.00  0.00    -0.004 A 
HETATM   10  C21 UNL     1      -2.149  -3.529   0.045  1.00  0.00     0.041 C 
HETATM   11  C22 UNL     1      -2.041  -4.618   1.068  1.00  0.00     0.005 C 
HETATM   12  C23 UNL     1      -0.836  -4.467   1.964  1.00  0.00     0.006 C 
HETATM   13  C24 UNL     1       0.436  -4.296   1.164  1.00  0.00     0.057 C 
ENDROOT
BRANCH   1  14
HETATM   14  N1  UNL     1      -2.027   0.596  -0.567  1.00  0.00    -0.391 N 
ATOM     15  H1  UNL     1      -1.540   1.491  -0.519  1.00  0.00     0.159 HD
BRANCH  14  16
HETATM   16  C5  UNL     1      -3.146   0.372   0.246  1.00  0.00     0.089 C 
BRANCH  16  17
HETATM   17  C4  UNL     1      -4.482   0.261  -0.406  1.00  0.00     0.179 C 
BRANCH  17  18
HETATM   18  C3  UNL     1      -4.953   1.513  -1.061  1.00  0.00     0.204 C 
BRANCH  18  19
HETATM   19  O1  UNL     1      -4.950   2.576  -0.207  1.00  0.00    -0.389 OA
BRANCH  19  20
HETATM   20  C2  UNL     1      -5.774   2.459   0.897  1.00  0.00     0.163 C 
HETATM   21  C1  UNL     1      -5.654   3.739   1.735  1.00  0.00     0.033 C 
ENDBRANCH  19  20
ENDBRANCH  18  19
ENDBRANCH  17  18
BRANCH  17  22
HETATM   22  O2  UNL     1      -4.513  -0.815  -1.331  1.00  0.00    -0.388 OA
ATOM     23  H2  UNL     1      -4.213  -1.614  -0.913  1.00  0.00     0.210 HD
ENDBRANCH  17  22
ENDBRANCH  16  17
ENDBRANCH  14  16
ENDBRANCH   1  14
BRANCH   3  24
HETATM   24  C9  UNL     1       1.981   0.570  -1.673  1.00  0.00     0.230 C 
HETATM   25  O3  UNL     1       2.118   0.600  -2.955  1.00  0.00    -0.273 OA
HETATM   26  N2  UNL     1       3.135   0.849  -0.915  1.00  0.00    -0.351 N 
HETATM   27  C10 UNL     1       3.083   0.870   0.518  1.00  0.00     0.130 C 
HETATM   28  C16 UNL     1       4.389   1.120  -1.569  1.00  0.00     0.130 C 
HETATM   29  C11 UNL     1       4.028   1.956   0.995  1.00  0.00    -0.000 C 
HETATM   30  C12 UNL     1       3.936   2.182   2.479  1.00  0.00     0.011 C 
HETATM   31  C13 UNL     1       5.444   1.540   0.669  1.00  0.00     0.011 C 
HETATM   32  C14 UNL     1       5.574   0.883  -0.667  1.00  0.00    -0.000 C 
HETATM   33  C15 UNL     1       6.795   1.494  -1.360  1.00  0.00     0.011 C 
ENDBRANCH   3  24
TORSDOF 8
