REMARK  8 active torsions:
REMARK  status: ('A' for Active; 'I' for Inactive)
REMARK    1  A    between atoms: C2_2  and  N1_3 
REMARK       I    between atoms: N1_3  and  C3_5 
REMARK    2  A    between atoms: C3_5  and  C4_7 
REMARK    3  A    between atoms: C5_8  and  C6_9 
REMARK    4  A    between atoms: C11_14  and  C12_15 
REMARK    5  A    between atoms: C12_15  and  C13_16 
REMARK    6  A    between atoms: C13_16  and  C14_17 
REMARK    7  A    between atoms: C14_17  and  C15_18 
REMARK    8  A    between atoms: C15_18  and  N2_19 
ROOT
HETATM    1  C4  UNL     1      -0.821  -1.168  -0.910  1.00  0.00     0.022 C 
HETATM    2  C5  UNL     1       0.570  -1.431  -0.739  1.00  0.00    -0.043 C 
HETATM    3  C16 UNL     1       0.769  -2.861  -1.299  1.00  0.00     0.045 C 
HETATM    4  C17 UNL     1      -0.565  -3.471  -1.476  1.00  0.00     0.001 C 
HETATM    5  C18 UNL     1      -1.040  -4.376  -0.360  1.00  0.00     0.025 C 
HETATM    6  C19 UNL     1      -1.977  -3.245   0.078  1.00  0.00     0.102 C 
HETATM    7  C20 UNL     1      -3.350  -3.759   0.102  1.00  0.00     0.064 C 
HETATM    8  N3  UNL     1      -4.440  -4.156   0.122  1.00  0.00    -0.197 NA
HETATM    9  C21 UNL     1      -1.589  -2.470  -1.110  1.00  0.00     0.046 C 
ENDROOT
BRANCH   1  10
HETATM   10  C3  UNL     1      -1.581  -0.212  -0.111  1.00  0.00     0.249 C 
HETATM   11  N1  UNL     1      -2.946  -0.005  -0.421  1.00  0.00    -0.339 N 
ATOM     12  H1  UNL     1      -3.356  -0.530  -1.193  1.00  0.00     0.164 HD
HETATM   13  O1  UNL     1      -1.107   0.429   0.822  1.00  0.00    -0.268 OA
BRANCH  11  14
HETATM   14  C2  UNL     1      -3.779   0.913   0.305  1.00  0.00     0.112 C 
HETATM   15  C1  UNL     1      -3.880   0.559   1.775  1.00  0.00     0.049 C 
HETATM   16  C22 UNL     1      -3.293   2.339   0.227  1.00  0.00     0.060 C 
HETATM   17  C23 UNL     1      -4.542   3.110   0.604  1.00  0.00     0.125 C 
HETATM   18  N4  UNL     1      -5.577   2.324  -0.079  1.00  0.00    -0.359 N 
HETATM   19  C24 UNL     1      -5.122   0.996  -0.247  1.00  0.00     0.245 C 
ATOM     20  H4  UNL     1      -6.483   2.680  -0.385  1.00  0.00     0.162 HD
HETATM   21  O2  UNL     1      -5.768   0.072  -0.776  1.00  0.00    -0.271 OA
ENDBRANCH  11  14
ENDBRANCH   1  10
BRANCH   2  22
HETATM   22  C6  UNL     1       1.440  -1.235   0.408  1.00  0.00    -0.069 C 
HETATM   23  C7  UNL     1       1.176  -1.797   1.739  1.00  0.00     0.035 C 
HETATM   24  C8  UNL     1       2.502  -2.094   2.441  1.00  0.00     0.004 C 
HETATM   25  C9  UNL     1       3.680  -1.469   1.809  1.00  0.00     0.001 C 
HETATM   26  C10 UNL     1       3.495  -0.122   1.210  1.00  0.00     0.009 C 
HETATM   27  C11 UNL     1       2.073   0.108   0.646  1.00  0.00     0.015 C 
BRANCH  27  28
HETATM   28  C12 UNL     1       2.168   0.975  -0.572  1.00  0.00     0.009 C 
BRANCH  28  29
HETATM   29  C13 UNL     1       2.815   2.271  -0.181  1.00  0.00     0.002 C 
BRANCH  29  30
HETATM   30  C14 UNL     1       2.905   3.136  -1.421  1.00  0.00     0.027 C 
BRANCH  30  31
HETATM   31  C15 UNL     1       3.548   4.471  -1.123  1.00  0.00     0.229 C 
BRANCH  31  32
HETATM   32  N2  UNL     1       4.888   4.266  -0.615  1.00  0.00    -0.079 N 
ATOM     33  H23 UNL     1       4.901   3.645   0.194  1.00  0.00     0.274 HD
ATOM     34  H22 UNL     1       5.455   3.699  -1.246  1.00  0.00     0.274 HD
ATOM     35  H21 UNL     1       5.322   5.167  -0.414  1.00  0.00     0.274 HD
ENDBRANCH  31  32
ENDBRANCH  30  31
ENDBRANCH  29  30
ENDBRANCH  28  29
ENDBRANCH  27  28
ENDBRANCH   2  22
TORSDOF 8
