REMARK  8 active torsions:
REMARK  status: ('A' for Active; 'I' for Inactive)
REMARK    1  A    between atoms: C4_6  and  S1_7 
REMARK    2  A    between atoms: S1_7  and  N2_8 
REMARK    3  A    between atoms: N2_8  and  N3_9 
REMARK    4  A    between atoms: C6_13  and  C7_14 
REMARK       I    between atoms: C7_14  and  N4_16 
REMARK    5  A    between atoms: N4_16  and  N5_18 
REMARK    6  A    between atoms: N5_18  and  C8_20 
REMARK    7  A    between atoms: C10_22  and  C11_23 
REMARK       I    between atoms: C11_23  and  N6_25 
REMARK    8  A    between atoms: N6_25  and  C12_27 
ROOT
HETATM    1  C1  UNL     1      -6.987  -0.753   0.161  1.00  0.00     0.164 C 
HETATM    2  N1  UNL     1      -5.545  -0.723   0.044  1.00  0.00    -0.270 N 
HETATM    3  C2  UNL     1      -4.803   0.110   0.812  1.00  0.00     0.266 A 
HETATM    4  O1  UNL     1      -5.408   0.858   1.654  1.00  0.00    -0.267 OA
HETATM    5  C3  UNL     1      -3.434   0.159   0.695  1.00  0.00     0.095 A 
HETATM    6  C4  UNL     1      -2.664   1.006   1.453  1.00  0.00     0.041 A 
HETATM    7  C5  UNL     1      -1.275   1.053   1.314  1.00  0.00     0.056 A 
HETATM    8  C6  UNL     1      -0.645   0.245   0.406  1.00  0.00     0.105 A 
HETATM    9  N8  UNL     1      -1.410  -0.585  -0.334  1.00  0.00    -0.337 N 
ATOM     10  H8  UNL     1      -0.954  -1.193  -1.014  1.00  0.00     0.167 HD
HETATM   11  C14 UNL     1      -2.754  -0.644  -0.212  1.00  0.00     0.129 A 
HETATM   12  N9  UNL     1      -3.524  -1.462  -0.959  1.00  0.00    -0.289 N 
HETATM   13  C15 UNL     1      -2.851  -2.320  -1.922  1.00  0.00     0.163 C 
HETATM   14  C16 UNL     1      -4.874  -1.490  -0.826  1.00  0.00     0.332 A 
HETATM   15  O5  UNL     1      -5.510  -2.288  -1.568  1.00  0.00    -0.246 OA
ENDROOT
BRANCH   8  16
HETATM   16  C7  UNL     1       0.821   0.275   0.196  1.00  0.00     0.286 C 
HETATM   17  O2  UNL     1       1.287  -0.564  -0.627  1.00  0.00    -0.264 OA
HETATM   18  N4  UNL     1       1.666   1.168   0.854  1.00  0.00    -0.263 N 
ATOM     19  H4  UNL     1       1.233   1.813   1.515  1.00  0.00     0.190 HD
BRANCH  18  20
HETATM   20  N5  UNL     1       3.005   1.259   0.697  1.00  0.00    -0.283 N 
ATOM     21  H5  UNL     1       3.494   1.901   1.321  1.00  0.00     0.188 HD
BRANCH  20  22
HETATM   22  C8  UNL     1       3.795   0.565  -0.232  1.00  0.00     0.120 A 
HETATM   23  C9  UNL     1       4.865  -0.284   0.129  1.00  0.00     0.068 A 
HETATM   24  C10 UNL     1       5.453  -0.780  -1.034  1.00  0.00     0.051 A 
HETATM   25  C13 UNL     1       4.752  -0.243  -2.075  1.00  0.00     0.106 A 
HETATM   26  N7  UNL     1       3.786   0.544  -1.556  1.00  0.00    -0.350 N 
ATOM     27  H7  UNL     1       3.119   1.067  -2.124  1.00  0.00     0.166 HD
BRANCH  24  28
HETATM   28  C11 UNL     1       6.616  -1.644  -1.031  1.00  0.00     0.259 C 
HETATM   29  O3  UNL     1       6.756  -2.495  -1.925  1.00  0.00    -0.267 OA
HETATM   30  N6  UNL     1       7.574  -1.507  -0.017  1.00  0.00    -0.301 N 
ATOM     31  H6  UNL     1       7.420  -0.830   0.730  1.00  0.00     0.171 HD
BRANCH  30  32
HETATM   32  C12 UNL     1       8.748  -2.291  -0.014  1.00  0.00     0.355 C 
HETATM   33  O4  UNL     1       8.874  -3.144  -0.955  1.00  0.00    -0.283 OA
ENDBRANCH  30  32
ENDBRANCH  24  28
ENDBRANCH  20  22
ENDBRANCH  18  20
ENDBRANCH   8  16
BRANCH   6  34
HETATM   34  S1  UNL     1      -3.538   2.036   2.630  1.00  0.00    -0.000 SA
BRANCH  34  35
HETATM   35  N2  UNL     1      -3.948   3.522   1.777  1.00  0.00    -0.068 NA
BRANCH  35  36
HETATM   36  N3  UNL     1      -2.967   4.490   1.845  1.00  0.00    -0.337 N 
ATOM     37  H32 UNL     1      -2.091   4.343   2.347  1.00  0.00     0.173 HD
ATOM     38  H31 UNL     1      -3.204   5.350   1.351  1.00  0.00     0.173 HD
ENDBRANCH  35  36
ENDBRANCH  34  35
ENDBRANCH   6  34
TORSDOF 8
