REMARK  10 active torsions:
REMARK  status: ('A' for Active; 'I' for Inactive)
REMARK    1  A    between atoms: C6_9  and  N3_10 
REMARK    2  A    between atoms: C7_13  and  N5_14 
REMARK    3  A    between atoms: C8_19  and  N7_20 
REMARK    4  A    between atoms: N8_23  and  C9_24 
REMARK    5  A    between atoms: C9_24  and  C10_25 
REMARK    6  A    between atoms: C10_25  and  C11_26 
REMARK    7  A    between atoms: C11_26  and  C12_27 
REMARK    8  A    between atoms: C12_27  and  O1_28 
REMARK    9  A    between atoms: C12_27  and  C13_30 
REMARK       I    between atoms: C13_30  and  N9_32 
REMARK   10  A    between atoms: N9_32  and  C14_34 
ROOT
HETATM    1  C1  UNL     1      -3.752  -4.288   0.266  1.00  0.00     0.157 C 
HETATM    2  N1  UNL     1      -2.903  -3.245  -0.324  1.00  0.00    -0.344 N 
HETATM    3  C2  UNL     1      -1.737  -3.419  -0.971  1.00  0.00     0.184 A 
HETATM    4  N2  UNL     1      -1.261  -2.224  -1.364  1.00  0.00    -0.336 N 
ATOM      5  H2  UNL     1      -0.391  -2.071  -1.875  1.00  0.00     0.168 HD
HETATM    6  C3  UNL     1      -2.125  -1.254  -0.971  1.00  0.00     0.137 A 
HETATM    7  C4  UNL     1      -3.146  -1.917  -0.321  1.00  0.00     0.083 A 
HETATM    8  C5  UNL     1      -4.042  -0.951   0.091  1.00  0.00     0.085 A 
HETATM    9  C6  UNL     1      -3.569   0.281  -0.304  1.00  0.00     0.152 A 
HETATM   10  N8  UNL     1      -2.407   0.063  -0.944  1.00  0.00    -0.315 N 
ENDROOT
BRANCH  10  11
HETATM   11  C9  UNL     1      -1.593   1.121  -1.515  1.00  0.00     0.132 C 
BRANCH  11  12
HETATM   12  C10 UNL     1      -0.590   1.678  -0.562  1.00  0.00     0.023 C 
BRANCH  12  13
HETATM   13  C11 UNL     1       0.381   0.641  -0.068  1.00  0.00     0.043 C 
BRANCH  13  14
HETATM   14  C12 UNL     1       1.380   1.273   0.899  1.00  0.00     0.211 C 
BRANCH  14  15
HETATM   15  O1  UNL     1       2.090   2.275   0.278  1.00  0.00    -0.386 OA
ATOM     16  H1  UNL     1       2.711   2.668   0.880  1.00  0.00     0.210 HD
ENDBRANCH  14  15
BRANCH  14  17
HETATM   17  C13 UNL     1       2.258   0.214   1.436  1.00  0.00     0.264 C 
HETATM   18  O2  UNL     1       1.773  -0.779   2.035  1.00  0.00    -0.270 OA
HETATM   19  N9  UNL     1       3.670   0.273   1.299  1.00  0.00    -0.156 N 
ATOM     20  H9  UNL     1       4.226   0.904   1.876  1.00  0.00     0.187 HD
BRANCH  19  21
HETATM   21  C14 UNL     1       4.232  -0.495   0.423  1.00  0.00     0.704 A 
HETATM   22  N10 UNL     1       3.661  -1.380  -0.414  1.00  0.00    -0.129 N 
HETATM   23  N11 UNL     1       4.647  -1.913  -1.106  1.00  0.00    -0.256 N 
ATOM     24  H10 UNL     1       2.667  -1.595  -0.496  1.00  0.00     0.205 HD
HETATM   25  C15 UNL     1       5.835  -1.399  -0.742  1.00  0.00     0.212 A 
ATOM     26  H11 UNL     1       4.525  -2.625  -1.826  1.00  0.00     0.190 HD
HETATM   27  N12 UNL     1       5.574  -0.502   0.226  1.00  0.00    -0.148 N 
HETATM   28  N13 UNL     1       7.255  -1.434  -0.978  1.00  0.00    -0.359 N 
HETATM   29  C16 UNL     1       6.827   0.101   0.675  1.00  0.00     0.170 C 
HETATM   30  C17 UNL     1       7.845  -0.942   0.255  1.00  0.00     0.143 C 
ATOM     31  H13 UNL     1       7.739  -1.737  -1.823  1.00  0.00     0.162 HD
ENDBRANCH  19  21
ENDBRANCH  14  17
ENDBRANCH  13  14
ENDBRANCH  12  13
ENDBRANCH  11  12
ENDBRANCH  10  11
BRANCH   9  32
HETATM   32  N3  UNL     1      -4.184   1.568  -0.085  1.00  0.00    -0.055 N 
HETATM   33  N4  UNL     1      -4.014   2.310   0.987  1.00  0.00    -0.109 N 
HETATM   34  C7  UNL     1      -4.737   3.424   0.835  1.00  0.00     0.706 A 
ATOM     35  H4  UNL     1      -3.433   2.077   1.792  1.00  0.00     0.207 HD
HETATM   36  N6  UNL     1      -5.366   3.379  -0.345  1.00  0.00    -0.020 N 
HETATM   37  C8  UNL     1      -5.016   2.226  -0.905  1.00  0.00     0.714 A 
ATOM     38  H6  UNL     1      -5.988   4.087  -0.736  1.00  0.00     0.203 HD
BRANCH  34  39
HETATM   39  N5  UNL     1      -4.820   4.385   1.676  1.00  0.00    -0.233 N 
ATOM     40  H52 UNL     1      -4.340   4.419   2.576  1.00  0.00     0.174 HD
ATOM     41  H51 UNL     1      -5.372   5.235   1.560  1.00  0.00     0.174 HD
ENDBRANCH  34  39
BRANCH  37  42
HETATM   42  N7  UNL     1      -5.433   1.816  -2.078  1.00  0.00    -0.232 N 
ATOM     43  H72 UNL     1      -5.164   0.931  -2.508  1.00  0.00     0.174 HD
ATOM     44  H71 UNL     1      -6.066   2.317  -2.702  1.00  0.00     0.174 HD
ENDBRANCH  37  42
ENDBRANCH   9  32
TORSDOF 10
