REMARK  10 active torsions:
REMARK  status: ('A' for Active; 'I' for Inactive)
REMARK    1  A    between atoms: C3_6  and  C4_7 
REMARK    2  A    between atoms: C4_7  and  O1_8 
REMARK    3  A    between atoms: C4_7  and  N3_10 
REMARK    4  A    between atoms: N3_10  and  C5_11 
REMARK    5  A    between atoms: C5_11  and  O2_13 
REMARK    6  A    between atoms: C6_15  and  C7_16 
REMARK    7  A    between atoms: C7_16  and  N5_17 
REMARK    8  A    between atoms: C7_16  and  C16_41 
REMARK    9  A    between atoms: N5_17  and  N6_19 
REMARK       I    between atoms: N6_19  and  C8_21 
REMARK   10  A    between atoms: C8_21  and  C9_23 
ROOT
HETATM    1  N6  UNL     1       0.478   0.406  -0.286  1.00  0.00    -0.264 N 
ATOM      2  H6  UNL     1       0.581  -0.417  -0.879  1.00  0.00     0.190 HD
HETATM    3  C8  UNL     1       1.648   0.951   0.230  1.00  0.00     0.286 C 
HETATM    4  O3  UNL     1       1.593   1.939   0.979  1.00  0.00    -0.264 OA
ENDROOT
BRANCH   1   5
HETATM    5  N5  UNL     1      -0.808   0.861  -0.081  1.00  0.00    -0.290 N 
ATOM      6  H5  UNL     1      -1.123   1.207   0.825  1.00  0.00     0.187 HD
BRANCH   5   7
HETATM    7  C7  UNL     1      -1.674   0.816  -1.223  1.00  0.00     0.154 C 
BRANCH   7   8
HETATM    8  C6  UNL     1      -3.067   0.480  -1.083  1.00  0.00     0.098 A 
HETATM    9  N1  UNL     1      -3.960   0.494  -2.155  1.00  0.00    -0.294 N 
HETATM   10  C1  UNL     1      -3.703   0.917  -3.499  1.00  0.00     0.178 C 
HETATM   11  N2  UNL     1      -5.104   0.113  -1.689  1.00  0.00    -0.309 N 
HETATM   12  C2  UNL     1      -5.053  -0.145  -0.388  1.00  0.00     0.122 A 
ATOM     13  H2  UNL     1      -5.948   0.021  -2.255  1.00  0.00     0.186 HD
HETATM   14  C3  UNL     1      -3.744   0.088   0.028  1.00  0.00     0.051 A 
BRANCH  14  15
HETATM   15  C4  UNL     1      -3.390   0.009   1.480  1.00  0.00     0.340 C 
BRANCH  15  16
HETATM   16  O1  UNL     1      -2.207  -0.517   1.862  1.00  0.00    -0.362 OA
ATOM     17  H1  UNL     1      -1.982  -0.567   2.784  1.00  0.00     0.213 HD
ENDBRANCH  15  16
BRANCH  15  18
HETATM   18  N3  UNL     1      -4.438  -0.670   2.142  1.00  0.00    -0.375 NA
BRANCH  18  19
HETATM   19  C5  UNL     1      -5.440  -1.317   2.774  1.00  0.00     0.303 C 
HETATM   20  N4  UNL     1      -5.646  -2.701   2.778  1.00  0.00    -0.042 NA
BRANCH  19  21
HETATM   21  O2  UNL     1      -6.320  -0.625   3.461  1.00  0.00    -0.324 OA
ATOM     22  H2  UNL     1      -7.025  -1.080   3.906  1.00  0.00     0.221 HD
ENDBRANCH  19  21
ENDBRANCH  18  19
ENDBRANCH  15  18
ENDBRANCH  14  15
ENDBRANCH   7   8
BRANCH   7  23
HETATM   23  C16 UNL     1      -0.903   0.341  -2.362  1.00  0.00     0.230 C 
HETATM   24  O4  UNL     1       0.218   0.940  -2.614  1.00  0.00    -0.643 OA
HETATM   25  O5  UNL     1      -1.193  -0.686  -3.238  1.00  0.00    -0.643 OA
ENDBRANCH   7  23
ENDBRANCH   5   7
ENDBRANCH   1   5
BRANCH   3  26
HETATM   26  C9  UNL     1       2.974   0.396  -0.080  1.00  0.00     0.103 A 
HETATM   27  C10 UNL     1       4.086   0.715   0.661  1.00  0.00     0.051 A 
HETATM   28  C11 UNL     1       5.339   0.247   0.330  1.00  0.00     0.027 A 
HETATM   29  C12 UNL     1       5.454  -0.571  -0.790  1.00  0.00     0.076 A 
HETATM   30  C15 UNL     1       6.446   0.562   1.090  1.00  0.00     0.105 A 
HETATM   31  C13 UNL     1       4.308  -0.875  -1.518  1.00  0.00     0.120 A 
HETATM   32  N8  UNL     1       6.677  -1.013  -1.079  1.00  0.00    -0.297 N 
HETATM   33  N7  UNL     1       3.106  -0.407  -1.175  1.00  0.00    -0.359 N 
ATOM     34  H7  UNL     1       2.286  -0.650  -1.731  1.00  0.00     0.165 HD
HETATM   35  N9  UNL     1       7.765  -0.721  -0.361  1.00  0.00    -0.282 N 
ATOM     36  H8  UNL     1       6.789  -1.610  -1.898  1.00  0.00     0.187 HD
HETATM   37  C14 UNL     1       7.686   0.074   0.748  1.00  0.00     0.162 A 
ATOM     38  H9  UNL     1       8.669  -1.097  -0.645  1.00  0.00     0.188 HD
HETATM   39  N10 UNL     1       8.587   0.508   1.633  1.00  0.00    -0.266 N 
HETATM   40  N11 UNL     1       7.951   1.267   2.542  1.00  0.00    -0.021 NA
ATOM     41  H10 UNL     1       9.585   0.300   1.621  1.00  0.00     0.186 HD
HETATM   42  N12 UNL     1       6.650   1.296   2.208  1.00  0.00    -0.280 N 
ATOM     43  H12 UNL     1       5.924   1.797   2.721  1.00  0.00     0.184 HD
ENDBRANCH   3  26
TORSDOF 10
