REMARK  1 active torsions:
REMARK  status: ('A' for Active; 'I' for Inactive)
REMARK    1  A    between atoms: C2_2  and  C3_3 
REMARK       I    between atoms: C3_3  and  N1_5 
ROOT
HETATM    1  C3  UNL     1       0.901  -0.828  -0.496  1.00  0.00     0.246 C 
HETATM    2  O1  UNL     1       0.692  -2.052  -0.713  1.00  0.00    -0.268 OA
HETATM    3  N1  UNL     1      -0.120   0.122  -0.750  1.00  0.00    -0.300 N 
ATOM      4  H1  UNL     1       0.102   0.908  -1.360  1.00  0.00     0.171 HD
HETATM    5  C4  UNL     1      -1.299   0.058  -0.265  1.00  0.00     0.203 C 
HETATM    6  N2  UNL     1      -1.619  -1.022   0.580  1.00  0.00    -0.066 NA
HETATM    7  N3  UNL     1      -2.222   1.068  -0.595  1.00  0.00    -0.066 NA
ENDROOT
BRANCH   1   8
HETATM    8  C2  UNL     1       2.169  -0.327   0.014  1.00  0.00     0.064 C 
HETATM    9  C1  UNL     1       2.352   0.963   0.229  1.00  0.00     0.017 C 
ENDBRANCH   1   8
TORSDOF 1
