REMARK  2 active torsions:
REMARK  status: ('A' for Active; 'I' for Inactive)
REMARK       I    between atoms: C1_2  and  N2_4 
REMARK    1  A    between atoms: N2_4  and  C2_6 
REMARK    2  A    between atoms: C4_8  and  O2_9 
ROOT
HETATM    1  C2  UNL     1      -0.521   0.359   0.634  1.00  0.00     0.117 A 
HETATM    2  C3  UNL     1      -1.974  -0.053   0.348  1.00  0.00     0.061 A 
HETATM    3  C4  UNL     1      -1.292  -0.388   1.634  1.00  0.00     0.143 A 
ENDROOT
BRANCH   1   4
HETATM    4  N2  UNL     1       0.438  -0.236  -0.238  1.00  0.00    -0.338 N 
HETATM    5  C1  UNL     1       1.500   0.468  -0.863  1.00  0.00     0.329 C 
HETATM    6  N1  UNL     1       2.443  -0.112  -1.720  1.00  0.00    -0.040 NA
HETATM    7  O1  UNL     1       1.584   1.716  -0.614  1.00  0.00    -0.251 OA
ATOM      8  H2  UNL     1       0.355  -1.235  -0.425  1.00  0.00     0.164 HD
ENDBRANCH   1   4
BRANCH   3   9
HETATM    9  O2  UNL     1      -1.754   0.338   2.742  1.00  0.00    -0.393 OA
ATOM     10  H2  UNL     1      -2.253  -0.146   3.390  1.00  0.00     0.210 HD
ENDBRANCH   3   9
TORSDOF 2
