REMARK  15 active torsions:
REMARK  status: ('A' for Active; 'I' for Inactive)
REMARK    1  A    between atoms: O1_2  and  C2_3 
REMARK    2  A    between atoms: C2_3  and  C3_5 
REMARK    3  A    between atoms: C3_5  and  C4_6 
REMARK    4  A    between atoms: C5_9  and  N2_10 
REMARK    5  A    between atoms: C6_14  and  S2_15 
REMARK    6  A    between atoms: S2_15  and  N3_18 
REMARK       I    between atoms: N3_18  and  C7_20 
REMARK    7  A    between atoms: C7_20  and  C8_22 
REMARK    8  A    between atoms: C8_22  and  N4_23 
REMARK    9  A    between atoms: N4_23  and  C9_25 
REMARK   10  A    between atoms: C11_28  and  C12_29 
REMARK   11  A    between atoms: C13_32  and  C14_33 
REMARK   12  A    between atoms: C13_32  and  C17_41 
REMARK   13  A    between atoms: C14_33  and  N6_34 
REMARK   14  A    between atoms: C18_44  and  O8_45 
REMARK   15  A    between atoms: C18_44  and  C19_47 
ROOT
HETATM    1  C9  UNL     1      -0.142   0.386   1.625  1.00  0.00     0.113 A 
HETATM    2  S3  UNL     1      -0.430   1.753   0.655  1.00  0.00    -0.076 SA
HETATM    3  C10 UNL     1      -2.094   1.819   0.336  1.00  0.00     0.075 A 
HETATM    4  C11 UNL     1      -2.806   0.790   0.912  1.00  0.00     0.057 A 
HETATM    5  S4  UNL     1      -1.719  -0.200   1.760  1.00  0.00    -0.061 SA
ENDROOT
BRANCH   1   6
HETATM    6  N4  UNL     1       0.991  -0.058   2.119  1.00  0.00    -0.370 N 
ATOM      7  H4  UNL     1       0.990  -0.905   2.688  1.00  0.00     0.161 HD
BRANCH   6   8
HETATM    8  C8  UNL     1       2.230   0.623   1.875  1.00  0.00     0.224 C 
BRANCH   8   9
HETATM    9  C7  UNL     1       2.873   0.071   0.680  1.00  0.00     0.248 C 
HETATM   10  N3  UNL     1       4.129   0.660   0.302  1.00  0.00    -0.248 N 
ATOM     11  H3  UNL     1       4.542   1.419   0.844  1.00  0.00     0.182 HD
HETATM   12  O5  UNL     1       2.350  -0.852   0.041  1.00  0.00    -0.271 OA
BRANCH  10  13
HETATM   13  S2  UNL     1       4.910   0.035  -1.101  1.00  0.00     0.273 S 
HETATM   14  O3  UNL     1       5.791   1.045  -1.717  1.00  0.00    -0.200 OA
HETATM   15  O4  UNL     1       3.844  -0.453  -2.042  1.00  0.00    -0.200 OA
BRANCH  13  16
HETATM   16  C6  UNL     1       5.822  -1.387  -0.593  1.00  0.00     0.146 A 
HETATM   17  C4  UNL     1       7.098  -1.516  -0.126  1.00  0.00     0.051 A 
HETATM   18  N1  UNL     1       7.518  -2.703   0.210  1.00  0.00    -0.338 N 
HETATM   19  C5  UNL     1       6.686  -3.739   0.082  1.00  0.00     0.143 A 
ATOM     20  H1  UNL     1       8.465  -2.838   0.564  1.00  0.00     0.168 HD
HETATM   21  S1  UNL     1       5.269  -3.027  -0.529  1.00  0.00    -0.039 SA
BRANCH  17  22
HETATM   22  C3  UNL     1       8.001  -0.288  -0.048  1.00  0.00     0.170 C 
BRANCH  22  23
HETATM   23  C2  UNL     1       8.648  -0.021  -1.351  1.00  0.00     0.264 C 
HETATM   24  O2  UNL     1       8.438  -0.841  -2.295  1.00  0.00    -0.265 OA
BRANCH  23  25
HETATM   25  O1  UNL     1       9.456   1.044  -1.615  1.00  0.00    -0.326 OA
HETATM   26  C1  UNL     1      10.037   1.227  -2.889  1.00  0.00     0.213 C 
ENDBRANCH  23  25
ENDBRANCH  22  23
ENDBRANCH  17  22
BRANCH  19  27
HETATM   27  N2  UNL     1       6.945  -5.001   0.369  1.00  0.00    -0.380 N 
ATOM     28  H22 UNL     1       7.795  -5.428   0.736  1.00  0.00     0.158 HD
ATOM     29  H21 UNL     1       6.309  -5.793   0.271  1.00  0.00     0.158 HD
ENDBRANCH  19  27
ENDBRANCH  13  16
ENDBRANCH  10  13
ENDBRANCH   8   9
ENDBRANCH   6   8
ENDBRANCH   1   6
BRANCH   4  30
HETATM   30  C12 UNL     1      -4.272   0.659   0.759  1.00  0.00     0.118 C 
HETATM   31  N5  UNL     1      -4.995  -0.232   1.363  1.00  0.00    -0.351 N 
HETATM   32  C13 UNL     1      -6.437  -0.042   0.945  1.00  0.00     0.198 C 
ATOM     33  H5  UNL     1      -4.650  -0.941   2.010  1.00  0.00     0.162 HD
HETATM   34  C18 UNL     1      -6.450   1.396   0.653  1.00  0.00     0.252 C 
HETATM   35  N10 UNL     1      -5.136   1.469  -0.030  1.00  0.00    -0.334 N 
ATOM     36  H10 UNL     1      -4.903   1.986  -0.878  1.00  0.00     0.164 HD
BRANCH  32  37
HETATM   37  C14 UNL     1      -6.775  -1.072  -0.037  1.00  0.00     0.198 C 
BRANCH  37  38
HETATM   38  N6  UNL     1      -5.965  -1.193  -1.213  1.00  0.00    -0.285 N 
HETATM   39  C15 UNL     1      -6.104  -0.648  -2.404  1.00  0.00     0.130 A 
HETATM   40  C16 UNL     1      -5.057  -1.043  -3.247  1.00  0.00     0.127 A 
HETATM   41  N7  UNL     1      -4.315  -1.841  -2.480  1.00  0.00    -0.296 N 
HETATM   42  N8  UNL     1      -4.829  -1.941  -1.285  1.00  0.00    -0.241 N 
ATOM     43  H7  UNL     1      -3.462  -2.310  -2.785  1.00  0.00     0.187 HD
ATOM     44  H8  UNL     1      -4.440  -2.494  -0.522  1.00  0.00     0.208 HD
ENDBRANCH  37  38
ENDBRANCH  32  37
BRANCH  32  45
HETATM   45  C17 UNL     1      -7.200  -0.371   2.211  1.00  0.00     0.210 C 
HETATM   46  O6  UNL     1      -8.471  -0.304   2.243  1.00  0.00    -0.646 OA
HETATM   47  O7  UNL     1      -6.569  -0.757   3.380  1.00  0.00    -0.646 OA
ENDBRANCH  32  45
BRANCH  34  48
HETATM   48  O8  UNL     1      -6.121   2.125   1.882  1.00  0.00    -0.361 OA
ATOM     49  H8  UNL     1      -6.129   3.056   1.693  1.00  0.00     0.213 HD
ENDBRANCH  34  48
BRANCH  34  50
HETATM   50  C19 UNL     1      -7.555   2.050   0.050  1.00  0.00     0.290 C 
HETATM   51  N9  UNL     1      -8.016   3.300   0.637  1.00  0.00    -0.057 NA
HETATM   52  O9  UNL     1      -8.213   1.697  -0.947  1.00  0.00    -0.271 OA
ENDBRANCH  34  50
ENDBRANCH   4  30
TORSDOF 15
