REMARK  13 active torsions:
REMARK  status: ('A' for Active; 'I' for Inactive)
REMARK    1  A    between atoms: O1_2  and  C2_3 
REMARK    2  A    between atoms: C2_3  and  C3_5 
REMARK    3  A    between atoms: C5_7  and  C6_8 
REMARK    4  A    between atoms: C6_8  and  N1_9 
REMARK    5  A    between atoms: C6_8  and  C25_55 
REMARK       I    between atoms: N1_9  and  C7_10 
REMARK    6  A    between atoms: C7_10  and  C8_12 
REMARK    7  A    between atoms: C9_15  and  C10_16 
REMARK    8  A    between atoms: C10_16  and  C11_17 
REMARK    9  A    between atoms: C13_22  and  C14_23 
REMARK   10  A    between atoms: C14_23  and  C15_24 
REMARK   11  A    between atoms: C16_27  and  C17_28 
REMARK       I    between atoms: C17_28  and  N6_30 
REMARK   12  A    between atoms: N6_30  and  C18_32 
REMARK   13  A    between atoms: C21_38  and  N8_39 
ROOT
HETATM    1  C11 UNL     1       0.132  -1.557  -0.988  1.00  0.00     0.011 A 
HETATM    2  C12 UNL     1       1.177  -0.722  -0.676  1.00  0.00     0.134 A 
HETATM    3  N3  UNL     1       2.242  -1.260  -0.124  1.00  0.00    -0.243 N 
HETATM    4  N4  UNL     1       3.437  -0.809   0.329  1.00  0.00    -0.280 N 
ATOM      5  H4  UNL     1       3.726   0.168   0.289  1.00  0.00     0.189 HD
HETATM    6  C13 UNL     1       4.185  -1.774   0.828  1.00  0.00     0.105 A 
HETATM    7  N11 UNL     1       3.434  -2.923   0.691  1.00  0.00    -0.323 N 
ATOM      8  H11 UNL     1       3.698  -3.867   0.972  1.00  0.00     0.169 HD
HETATM    9  C23 UNL     1       2.284  -2.542   0.112  1.00  0.00     0.171 A 
HETATM   10  S1  UNL     1       0.726  -3.055  -0.473  1.00  0.00    -0.055 SA
ENDROOT
BRANCH   6  11
HETATM   11  C14 UNL     1       5.502  -1.675   1.485  1.00  0.00     0.155 C 
BRANCH  11  12
HETATM   12  C15 UNL     1       6.546  -0.926   0.788  1.00  0.00     0.102 A 
HETATM   13  N5  UNL     1       7.399  -1.326  -0.128  1.00  0.00    -0.337 N 
HETATM   14  C16 UNL     1       8.265  -0.323  -0.493  1.00  0.00     0.147 A 
ATOM     15  H5  UNL     1       7.416  -2.267  -0.521  1.00  0.00     0.167 HD
HETATM   16  C20 UNL     1       7.905   0.776   0.271  1.00  0.00     0.165 A 
HETATM   17  N7  UNL     1       8.384   2.030   0.377  1.00  0.00    -0.174 N 
HETATM   18  N10 UNL     1       6.853   0.376   1.041  1.00  0.00    -0.234 N 
HETATM   19  C21 UNL     1       7.865   2.934   1.225  1.00  0.00     0.681 A 
ATOM     20  H7  UNL     1       9.172   2.305  -0.210  1.00  0.00     0.186 HD
HETATM   21  N9  UNL     1       6.842   2.557   1.982  1.00  0.00    -0.141 N 
HETATM   22  C22 UNL     1       6.350   1.302   1.887  1.00  0.00     0.348 A 
ATOM     23  H9  UNL     1       6.425   3.217   2.638  1.00  0.00     0.189 HD
HETATM   24  O6  UNL     1       5.385   0.989   2.615  1.00  0.00    -0.245 OA
BRANCH  14  25
HETATM   25  C17 UNL     1       9.380  -0.479  -1.398  1.00  0.00     0.274 C 
HETATM   26  O4  UNL     1       9.669  -1.711  -1.687  1.00  0.00    -0.266 OA
HETATM   27  N6  UNL     1      10.175   0.528  -1.979  1.00  0.00    -0.327 N 
ATOM     28  H6  UNL     1       9.992   1.518  -1.817  1.00  0.00     0.165 HD
BRANCH  27  29
HETATM   29  C18 UNL     1      11.292   0.069  -2.839  1.00  0.00     0.247 A 
HETATM   30  C19 UNL     1      12.327   1.088  -3.185  1.00  0.00     0.224 A 
HETATM   31  O5  UNL     1      11.377   0.732  -4.133  1.00  0.00    -0.360 OA
ENDBRANCH  27  29
ENDBRANCH  14  25
BRANCH  19  32
HETATM   32  N8  UNL     1       8.375   4.154   1.277  1.00  0.00    -0.234 N 
ATOM     33  H82 UNL     1       9.161   4.444   0.695  1.00  0.00     0.174 HD
ATOM     34  H81 UNL     1       7.981   4.840   1.921  1.00  0.00     0.174 HD
ENDBRANCH  19  32
ENDBRANCH  11  12
ENDBRANCH   6  11
BRANCH   1  35
HETATM   35  C10 UNL     1      -1.145  -1.118  -1.625  1.00  0.00     0.126 C 
BRANCH  35  36
HETATM   36  C9  UNL     1      -2.276  -0.987  -0.744  1.00  0.00     0.104 A 
HETATM   37  N2  UNL     1      -3.546  -1.440  -1.015  1.00  0.00    -0.324 N 
HETATM   38  C8  UNL     1      -4.387  -1.164  -0.046  1.00  0.00     0.206 A 
ATOM     39  H2  UNL     1      -3.804  -1.933  -1.870  1.00  0.00     0.169 HD
HETATM   40  N13 UNL     1      -3.657  -0.521   0.870  1.00  0.00    -0.277 N 
HETATM   41  N12 UNL     1      -2.376  -0.405   0.464  1.00  0.00    -0.282 N 
ATOM     42  H13 UNL     1      -4.019  -0.166   1.755  1.00  0.00     0.189 HD
HETATM   43  C24 UNL     1      -1.359   0.219   1.286  1.00  0.00     0.179 C 
BRANCH  38  44
HETATM   44  C7  UNL     1      -5.866  -1.482   0.096  1.00  0.00     0.362 C 
HETATM   45  N1  UNL     1      -6.627  -0.768   0.972  1.00  0.00    -0.357 NA
HETATM   46  O3  UNL     1      -6.214  -2.424  -0.670  1.00  0.00    -0.248 OA
BRANCH  45  47
HETATM   47  C6  UNL     1      -7.406  -0.052   1.856  1.00  0.00     0.188 C 
BRANCH  47  48
HETATM   48  C5  UNL     1      -8.872  -0.186   1.999  1.00  0.00     0.065 C 
HETATM   49  C3  UNL     1      -9.865   0.051   0.976  1.00  0.00     0.017 C 
HETATM   50  C4  UNL     1     -10.235   1.541   0.746  1.00  0.00     0.055 C 
BRANCH  49  51
HETATM   51  C2  UNL     1      -9.898  -0.695  -0.276  1.00  0.00     0.288 C 
HETATM   52  O2  UNL     1     -10.591  -1.778  -0.384  1.00  0.00    -0.260 OA
BRANCH  51  53
HETATM   53  O1  UNL     1      -9.205  -0.301  -1.410  1.00  0.00    -0.323 OA
HETATM   54  C1  UNL     1      -9.352  -1.128  -2.571  1.00  0.00     0.213 C 
ENDBRANCH  51  53
ENDBRANCH  49  51
ENDBRANCH  47  48
BRANCH  47  55
HETATM   55  C25 UNL     1      -7.008   1.405   1.953  1.00  0.00     0.241 C 
HETATM   56  O7  UNL     1      -5.994   1.877   1.411  1.00  0.00    -0.642 OA
HETATM   57  O8  UNL     1      -7.817   2.273   2.690  1.00  0.00    -0.642 OA
ENDBRANCH  47  55
ENDBRANCH  45  47
ENDBRANCH  38  44
ENDBRANCH  35  36
ENDBRANCH   1  35
TORSDOF 13
