REMARK  12 active torsions:
REMARK  status: ('A' for Active; 'I' for Inactive)
REMARK    1  A    between atoms: C5_7  and  N1_8 
REMARK       I    between atoms: N1_8  and  C6_10 
REMARK    2  A    between atoms: C6_10  and  C7_12 
REMARK    3  A    between atoms: C7_12  and  C8_13 
REMARK    4  A    between atoms: C9_15  and  C10_16 
REMARK    5  A    between atoms: C10_16  and  C11_17 
REMARK    6  A    between atoms: C11_17  and  C12_18 
REMARK    7  A    between atoms: C12_18  and  N2_19 
REMARK    8  A    between atoms: C13_23  and  C14_24 
REMARK    9  A    between atoms: C14_24  and  C15_25 
REMARK   10  A    between atoms: C15_25  and  C16_26 
REMARK   11  A    between atoms: C16_26  and  N3_27 
REMARK   12  A    between atoms: C19_36  and  C20_37 
ROOT
HETATM    1  C1  UNL     1      -2.959  -4.644   0.470  1.00  0.00     0.030 C 
HETATM    2  C2  UNL     1      -2.131  -3.365   0.219  1.00  0.00     0.040 C 
HETATM    3  C3  UNL     1      -2.604  -2.421   1.333  1.00  0.00     0.030 C 
HETATM    4  S1  UNL     1      -0.428  -3.881   0.476  1.00  0.00    -0.086 SA
HETATM    5  S2  UNL     1       1.041  -2.763  -0.470  1.00  0.00    -0.095 SA
HETATM    6  C4  UNL     1       1.735  -1.591   0.688  1.00  0.00     0.111 C 
HETATM    7  C5  UNL     1       2.083  -0.310  -0.066  1.00  0.00     0.099 C 
HETATM    8  C9  UNL     1       1.124  -0.019  -1.162  1.00  0.00     0.022 C 
HETATM    9  C13 UNL     1      -0.342  -0.081  -0.676  1.00  0.00     0.084 C 
HETATM   10  C18 UNL     1      -1.171  -0.727  -1.737  1.00  0.00     0.223 C 
HETATM   11  O2  UNL     1      -1.521   0.135  -2.623  1.00  0.00    -0.273 OA
HETATM   12  N6  UNL     1      -1.570  -2.065  -1.861  1.00  0.00    -0.346 N 
ATOM     13  H6  UNL     1      -1.121  -2.542  -2.643  1.00  0.00     0.163 HD
HETATM   14  C19 UNL     1      -2.455  -2.899  -1.144  1.00  0.00     0.192 C 
ENDROOT
BRANCH   9  15
HETATM   15  C14 UNL     1      -0.812   1.337  -0.501  1.00  0.00     0.019 C 
BRANCH  15  16
HETATM   16  C15 UNL     1      -2.240   1.423   0.008  1.00  0.00     0.045 C 
BRANCH  16  17
HETATM   17  C16 UNL     1      -2.705   2.827   0.197  1.00  0.00     0.063 C 
BRANCH  17  18
HETATM   18  N3  UNL     1      -1.939   3.582   1.098  1.00  0.00    -0.347 N 
HETATM   19  C17 UNL     1      -1.558   3.329   2.270  1.00  0.00     0.200 C 
HETATM   20  N4  UNL     1      -1.818   2.155   3.022  1.00  0.00    -0.067 NA
HETATM   21  N5  UNL     1      -0.768   4.322   2.945  1.00  0.00    -0.067 NA
ATOM     22  H3  UNL     1      -1.640   4.490   0.742  1.00  0.00     0.167 HD
ENDBRANCH  17  18
ENDBRANCH  16  17
ENDBRANCH  15  16
ENDBRANCH   9  15
BRANCH   8  23
HETATM   23  C10 UNL     1       1.440   1.210  -1.880  1.00  0.00     0.009 C 
BRANCH  23  24
HETATM   24  C11 UNL     1       2.752   1.280  -2.566  1.00  0.00     0.028 C 
BRANCH  24  25
HETATM   25  C12 UNL     1       3.014   0.348  -3.694  1.00  0.00     0.229 C 
BRANCH  25  26
HETATM   26  N2  UNL     1       3.001  -1.034  -3.374  1.00  0.00    -0.079 N 
ATOM     27  H23 UNL     1       3.654  -1.219  -2.613  1.00  0.00     0.274 HD
ATOM     28  H22 UNL     1       2.119  -1.277  -2.922  1.00  0.00     0.274 HD
ATOM     29  H21 UNL     1       3.181  -1.674  -4.148  1.00  0.00     0.274 HD
ENDBRANCH  25  26
ENDBRANCH  24  25
ENDBRANCH  23  24
ENDBRANCH   8  23
BRANCH   7  30
HETATM   30  N1  UNL     1       2.258   0.690   0.937  1.00  0.00    -0.355 N 
HETATM   31  C6  UNL     1       3.563   1.113   1.334  1.00  0.00     0.218 C 
HETATM   32  O1  UNL     1       4.574   0.595   0.797  1.00  0.00    -0.274 OA
ATOM     33  H1  UNL     1       1.439   1.109   1.377  1.00  0.00     0.162 HD
BRANCH  31  34
HETATM   34  C7  UNL     1       3.778   2.149   2.368  1.00  0.00     0.113 C 
BRANCH  34  35
HETATM   35  C8  UNL     1       5.247   2.357   2.607  1.00  0.00     0.094 C 
HETATM   36 BR1  UNL     1       5.592   3.696   3.937  1.00  0.00    -0.096 Br
ENDBRANCH  34  35
ENDBRANCH  31  34
ENDBRANCH   7  30
BRANCH  14  37
HETATM   37  C20 UNL     1      -3.876  -2.429  -1.164  1.00  0.00     0.255 C 
HETATM   38  N7  UNL     1      -4.966  -3.040  -0.534  1.00  0.00    -0.060 NA
HETATM   39  O3  UNL     1      -4.106  -1.378  -1.816  1.00  0.00    -0.275 OA
ENDBRANCH  14  37
TORSDOF 12
