REMARK  6 active torsions:
REMARK  status: ('A' for Active; 'I' for Inactive)
REMARK    1  A    between atoms: C5_13  and  C6_14 
REMARK    2  A    between atoms: N3_15  and  O5_17 
REMARK    3  A    between atoms: C7_21  and  N5_22 
REMARK    4  A    between atoms: N5_22  and  N6_24 
REMARK    5  A    between atoms: C8_26  and  C9_27 
REMARK    6  A    between atoms: C11_33  and  O8_34 
ROOT
HETATM    1  O1  UNL     1      -2.207  -4.407   1.387  1.00  0.00    -0.247 OA
HETATM    2  C1  UNL     1      -1.989  -3.400   0.657  1.00  0.00     0.325 C 
HETATM    3  N1  UNL     1      -1.207  -3.380  -0.534  1.00  0.00    -0.275 N 
ATOM      4  H1  UNL     1      -0.729  -4.186  -0.937  1.00  0.00     0.173 HD
HETATM    5  C2  UNL     1      -1.195  -2.065  -1.076  1.00  0.00     0.286 C 
HETATM    6  O2  UNL     1      -0.659  -1.779  -2.172  1.00  0.00    -0.267 OA
HETATM    7  C3  UNL     1      -1.907  -1.181  -0.118  1.00  0.00     0.268 C 
HETATM    8  N2  UNL     1      -2.474  -2.081   0.866  1.00  0.00    -0.299 N 
ATOM      9  H2  UNL     1      -3.126  -1.808   1.601  1.00  0.00     0.168 HD
HETATM   10  O3  UNL     1      -2.984  -0.589  -0.818  1.00  0.00    -0.273 OA
HETATM   11  C4  UNL     1      -2.971   0.791  -1.109  1.00  0.00     0.289 C 
HETATM   12  O4  UNL     1      -4.033   1.443  -1.179  1.00  0.00    -0.262 OA
HETATM   13  C5  UNL     1      -1.615   1.342  -1.312  1.00  0.00     0.220 C 
HETATM   14  N4  UNL     1      -0.758   1.007  -0.247  1.00  0.00    -0.379 N 
ATOM     15  H4  UNL     1       0.046   1.597  -0.033  1.00  0.00     0.156 HD
HETATM   16  C7  UNL     1      -1.013  -0.149   0.525  1.00  0.00     0.261 C 
ENDROOT
BRANCH  16  17
HETATM   17  N5  UNL     1       0.202  -0.789   1.062  1.00  0.00    -0.308 N 
ATOM     18  H5  UNL     1       0.364  -0.735   2.068  1.00  0.00     0.182 HD
BRANCH  17  19
HETATM   19  N6  UNL     1       1.114  -1.441   0.311  1.00  0.00    -0.311 N 
HETATM   20  C8  UNL     1       2.282  -1.338  -0.071  1.00  0.00     0.148 C 
ATOM     21  H6  UNL     1       0.704  -2.297  -0.062  1.00  0.00     0.185 HD
BRANCH  20  22
HETATM   22  C9  UNL     1       3.297  -0.338   0.162  1.00  0.00     0.148 A 
HETATM   23  O6  UNL     1       4.534  -0.399  -0.346  1.00  0.00    -0.255 OA
HETATM   24  C10 UNL     1       5.233   0.625   0.022  1.00  0.00     0.372 A 
HETATM   25  O7  UNL     1       6.431   0.921  -0.249  1.00  0.00    -0.238 OA
HETATM   26  N7  UNL     1       4.472   1.414   0.798  1.00  0.00    -0.280 N 
HETATM   27  C11 UNL     1       3.262   0.802   0.880  1.00  0.00     0.180 A 
ATOM     28  H7  UNL     1       4.747   2.293   1.236  1.00  0.00     0.173 HD
BRANCH  27  29
HETATM   29  O8  UNL     1       2.211   1.324   1.601  1.00  0.00    -0.344 OA
ATOM     30  H8  UNL     1       2.186   2.128   2.107  1.00  0.00     0.219 HD
ENDBRANCH  27  29
ENDBRANCH  20  22
ENDBRANCH  17  19
ENDBRANCH  16  17
BRANCH  13  31
HETATM   31  C6  UNL     1      -1.754   2.843  -1.323  1.00  0.00     0.121 C 
HETATM   32  N3  UNL     1      -2.158   3.452  -0.282  1.00  0.00    -0.282 N 
ATOM     33  H3  UNL     1      -2.233   4.467  -0.345  1.00  0.00     0.193 HD
BRANCH  32  34
HETATM   34  O5  UNL     1      -2.499   2.889   0.902  1.00  0.00    -0.290 OA
ATOM     35  H5  UNL     1      -2.801   3.344   1.680  1.00  0.00     0.244 HD
ENDBRANCH  32  34
ENDBRANCH  13  31
TORSDOF 6
