REMARK  8 active torsions:
REMARK  status: ('A' for Active; 'I' for Inactive)
REMARK    1  A    between atoms: C3_6  and  C4_7 
REMARK    2  A    between atoms: C4_7  and  N2_8 
REMARK    3  A    between atoms: N2_8  and  N3_10 
REMARK    4  A    between atoms: N3_10  and  C5_12 
REMARK    5  A    between atoms: N7_21  and  C8_22 
REMARK       I    between atoms: N8_27  and  C12_28 
REMARK    6  A    between atoms: C12_28  and  C13_30 
REMARK    7  A    between atoms: C13_30  and  O3_31 
REMARK    8  A    between atoms: C13_30  and  O4_33 
ROOT
HETATM    1  N1  UNL     1       2.039  -2.028  -0.202  1.00  0.00    -0.384 N 
ATOM      2  H11 UNL     1       3.001  -1.764  -0.415  1.00  0.00     0.157 HD
ATOM      3  H12 UNL     1       1.988  -3.047  -0.196  1.00  0.00     0.157 HD
HETATM    4  C1  UNL     1       1.014  -1.240   0.030  1.00  0.00     0.125 A 
HETATM    5  C2  UNL     1      -0.270  -1.593   0.314  1.00  0.00     0.082 A 
HETATM    6  C3  UNL     1      -1.001  -0.438   0.483  1.00  0.00     0.069 A 
HETATM    7  N6  UNL     1      -0.125   0.562   0.293  1.00  0.00    -0.289 N 
ATOM      8  H6  UNL     1      -0.362   1.552   0.351  1.00  0.00     0.188 HD
HETATM    9  N7  UNL     1       1.081   0.101   0.022  1.00  0.00    -0.222 N 
ENDROOT
BRANCH   9  10
HETATM   10  C8  UNL     1       2.265   0.859  -0.237  1.00  0.00     0.144 A 
HETATM   11  C9  UNL     1       2.182   2.214  -0.490  1.00  0.00     0.057 A 
HETATM   12  C10 UNL     1       3.351   2.902  -0.735  1.00  0.00     0.080 A 
HETATM   13  C11 UNL     1       4.550   2.223  -0.719  1.00  0.00     0.269 A 
HETATM   14  O1  UNL     1       5.645   2.817  -0.939  1.00  0.00    -0.266 OA
HETATM   15  N8  UNL     1       4.617   0.888  -0.469  1.00  0.00    -0.181 N 
HETATM   16  C12 UNL     1       5.844   0.190  -0.453  1.00  0.00     0.300 C 
HETATM   17  N9  UNL     1       3.464   0.282  -0.242  1.00  0.00    -0.272 N 
HETATM   18  O2  UNL     1       6.901   0.803  -0.672  1.00  0.00    -0.266 OA
ATOM     19  H9  UNL     1       3.497  -0.720  -0.053  1.00  0.00     0.189 HD
BRANCH  16  20
HETATM   20  C13 UNL     1       5.861  -1.252  -0.177  1.00  0.00     0.351 C 
BRANCH  20  21
HETATM   21  O3  UNL     1       7.121  -1.804  -0.192  1.00  0.00    -0.363 OA
ATOM     22  H3  UNL     1       7.132  -2.737  -0.013  1.00  0.00     0.213 HD
ENDBRANCH  20  21
BRANCH  20  23
HETATM   23  O4  UNL     1       5.319  -1.515   1.101  1.00  0.00    -0.363 OA
ATOM     24  H4  UNL     1       5.330  -2.448   1.280  1.00  0.00     0.213 HD
ENDBRANCH  20  23
ENDBRANCH  16  20
ENDBRANCH   9  10
BRANCH   6  25
HETATM   25  C4  UNL     1      -2.417  -0.381   0.798  1.00  0.00     0.138 C 
BRANCH  25  26
HETATM   26  N2  UNL     1      -3.112  -1.443   0.947  1.00  0.00    -0.307 N 
ATOM     27  H2  UNL     1      -2.669  -2.356   0.843  1.00  0.00     0.186 HD
BRANCH  26  28
HETATM   28  N3  UNL     1      -4.473  -1.364   1.251  1.00  0.00    -0.272 N 
ATOM     29  H3  UNL     1      -4.820  -1.897   2.048  1.00  0.00     0.190 HD
BRANCH  28  30
HETATM   30  C5  UNL     1      -5.393  -0.589   0.517  1.00  0.00     0.190 C 
HETATM   31  N4  UNL     1      -5.446   0.690   0.499  1.00  0.00    -0.360 N 
HETATM   32  C6  UNL     1      -6.484   1.200  -0.336  1.00  0.00     0.142 C 
ATOM     33  H4  UNL     1      -4.809   1.285   1.029  1.00  0.00     0.162 HD
HETATM   34  C7  UNL     1      -7.003   0.004  -1.071  1.00  0.00     0.142 C 
HETATM   35  N5  UNL     1      -6.412  -1.098  -0.323  1.00  0.00    -0.360 N 
ATOM     36  H5  UNL     1      -6.688  -2.077  -0.393  1.00  0.00     0.162 HD
ENDBRANCH  28  30
ENDBRANCH  26  28
ENDBRANCH  25  26
ENDBRANCH   6  25
TORSDOF 8
