REMARK  5 active torsions:
REMARK  status: ('A' for Active; 'I' for Inactive)
REMARK       I    between atoms: N1_2  and  C2_4 
REMARK    1  A    between atoms: C2_4  and  C3_6 
REMARK    2  A    between atoms: N2_8  and  N3_9 
REMARK    3  A    between atoms: C7_14  and  N5_15 
REMARK    4  A    between atoms: C10_25  and  N9_26 
REMARK    5  A    between atoms: N9_26  and  C11_29 
ROOT
HETATM    1  N3  UNL     1       0.172  -0.141   0.274  1.00  0.00    -0.255 N 
HETATM    2  C5  UNL     1       0.169  -1.582   0.186  1.00  0.00     0.208 C 
HETATM    3  C6  UNL     1      -1.131  -2.189  -0.071  1.00  0.00     0.076 A 
HETATM    4  N4  UNL     1      -1.241  -3.524  -0.111  1.00  0.00    -0.192 N 
ATOM      5  H4  UNL     1      -0.417  -4.106   0.038  1.00  0.00     0.184 HD
HETATM    6  C7  UNL     1      -2.451  -4.108  -0.350  1.00  0.00     0.677 A 
HETATM    7  N6  UNL     1      -3.563  -3.379  -0.551  1.00  0.00    -0.177 N 
ATOM      8  H6  UNL     1      -4.459  -3.834  -0.728  1.00  0.00     0.185 HD
HETATM    9  C8  UNL     1      -3.469  -2.032  -0.514  1.00  0.00     0.160 A 
HETATM   10  N7  UNL     1      -4.601  -1.229  -0.717  1.00  0.00    -0.080 NA
HETATM   11  C9  UNL     1      -2.246  -1.397  -0.272  1.00  0.00     0.098 A 
HETATM   12  N8  UNL     1      -2.175   0.019  -0.238  1.00  0.00    -0.341 N 
ATOM     13  H8  UNL     1      -2.963   0.570  -0.577  1.00  0.00     0.163 HD
HETATM   14  C10 UNL     1      -1.009   0.688   0.267  1.00  0.00     0.408 C 
ENDROOT
BRANCH   1  15
HETATM   15  N2  UNL     1       1.442   0.472   0.376  1.00  0.00    -0.188 N 
HETATM   16  C4  UNL     1       2.642  -0.124   0.393  1.00  0.00     0.170 A 
HETATM   17  C3  UNL     1       3.644   0.845   0.508  1.00  0.00     0.132 A 
HETATM   18  N11 UNL     1       2.986   1.999   0.555  1.00  0.00    -0.276 N 
HETATM   19  N10 UNL     1       1.682   1.792   0.477  1.00  0.00     0.001 NA
ATOM     20  H11 UNL     1       3.425   2.916   0.639  1.00  0.00     0.184 HD
BRANCH  17  21
HETATM   21  C2  UNL     1       5.067   0.562   0.556  1.00  0.00     0.270 C 
HETATM   22  N1  UNL     1       5.583  -0.752   0.478  1.00  0.00    -0.360 N 
HETATM   23  C1  UNL     1       6.979  -1.046   0.524  1.00  0.00     0.149 C 
ATOM     24  H1  UNL     1       4.926  -1.527   0.384  1.00  0.00     0.162 HD
HETATM   25  O1  UNL     1       5.871   1.513   0.670  1.00  0.00    -0.266 OA
ENDBRANCH  17  21
ENDBRANCH   1  15
BRANCH  14  26
HETATM   26  N9  UNL     1      -0.733   1.887  -0.494  1.00  0.00    -0.032 N 
ATOM     27  H92 UNL     1       0.096   2.361  -0.134  1.00  0.00     0.282 HD
ATOM     28  H91 UNL     1      -0.401   1.653  -1.430  1.00  0.00     0.282 HD
BRANCH  26  29
HETATM   29  C11 UNL     1      -1.841   2.785  -0.560  1.00  0.00     0.182 C 
HETATM   30  C12 UNL     1      -1.346   4.079  -1.224  1.00  0.00     0.039 C 
HETATM   31  C13 UNL     1      -2.409   3.155   0.770  1.00  0.00     0.039 C 
ENDBRANCH  26  29
ENDBRANCH  14  26
BRANCH   6  32
HETATM   32  N5  UNL     1      -2.537  -5.400  -0.384  1.00  0.00    -0.234 N 
ATOM     33  H52 UNL     1      -1.694  -5.953  -0.232  1.00  0.00     0.174 HD
ATOM     34  H51 UNL     1      -3.441  -5.837  -0.563  1.00  0.00     0.174 HD
ENDBRANCH   6  32
TORSDOF 5
