REMARK  8 active torsions:
REMARK  status: ('A' for Active; 'I' for Inactive)
REMARK    1  A    between atoms: S1_2  and  C2_3 
REMARK    2  A    between atoms: C3_6  and  N2_7 
REMARK    3  A    between atoms: N2_7  and  C4_9 
REMARK    4  A    between atoms: C4_9  and  C5_10 
REMARK    5  A    between atoms: C7_19  and  O1_20 
REMARK    6  A    between atoms: C7_19  and  C8_22 
REMARK    7  A    between atoms: C8_22  and  N8_26 
REMARK    8  A    between atoms: N8_26  and  N9_28 
ROOT
HETATM    1  C5  UNL     1      -0.186  -0.946   0.468  1.00  0.00     0.090 A 
HETATM    2  N3  UNL     1       0.252  -0.180   1.465  1.00  0.00    -0.285 N 
ATOM      3  H3  UNL     1       1.164  -0.241   1.918  1.00  0.00     0.188 HD
HETATM    4  N4  UNL     1      -0.707   0.669   1.757  1.00  0.00    -0.238 N 
ATOM      5  H4  UNL     1      -0.651   1.380   2.486  1.00  0.00     0.208 HD
HETATM    6  N5  UNL     1      -1.761   0.472   0.970  1.00  0.00    -0.255 N 
HETATM    7  C6  UNL     1      -1.458  -0.541   0.149  1.00  0.00     0.148 A 
HETATM    8  N6  UNL     1      -2.593  -0.784  -0.725  1.00  0.00    -0.334 N 
ATOM      9  H6  UNL     1      -2.593  -1.193  -1.660  1.00  0.00     0.164 HD
HETATM   10  C7  UNL     1      -3.720  -0.310   0.043  1.00  0.00     0.212 C 
HETATM   11  C9  UNL     1      -3.111   0.947   0.670  1.00  0.00     0.222 C 
ENDROOT
BRANCH   1  12
HETATM   12  C4  UNL     1       0.576  -2.030  -0.166  1.00  0.00     0.200 C 
BRANCH  12  13
HETATM   13  N2  UNL     1       1.883  -2.214   0.389  1.00  0.00    -0.220 N 
ATOM     14  H2  UNL     1       1.999  -2.961   1.074  1.00  0.00     0.178 HD
BRANCH  13  15
HETATM   15  C3  UNL     1       2.912  -1.523   0.098  1.00  0.00     0.681 A 
HETATM   16  N1  UNL     1       2.905  -0.506  -0.786  1.00  0.00    -0.170 N 
HETATM   17  C2  UNL     1       3.997   0.220  -1.088  1.00  0.00     0.160 A 
ATOM     18  H1  UNL     1       2.027  -0.275  -1.250  1.00  0.00     0.186 HD
HETATM   19  N11 UNL     1       5.147  -0.098  -0.466  1.00  0.00    -0.326 N 
HETATM   20  C10 UNL     1       5.203  -1.106   0.426  1.00  0.00     0.095 A 
ATOM     21  H11 UNL     1       5.992   0.434  -0.674  1.00  0.00     0.169 HD
HETATM   22  N10 UNL     1       4.081  -1.812   0.701  1.00  0.00    -0.181 N 
HETATM   23  C11 UNL     1       6.510  -1.393   1.069  1.00  0.00     0.089 C 
ATOM     24  H10 UNL     1       4.122  -2.576   1.376  1.00  0.00     0.185 HD
BRANCH  17  25
HETATM   25  S1  UNL     1       3.927   1.568  -2.279  1.00  0.00    -0.098 SA
HETATM   26  C1  UNL     1       3.523   3.105  -1.401  1.00  0.00     0.099 C 
ENDBRANCH  17  25
ENDBRANCH  13  15
ENDBRANCH  12  13
ENDBRANCH   1  12
BRANCH  10  27
HETATM   27  O1  UNL     1      -3.911  -1.232   1.069  1.00  0.00    -0.363 OA
ATOM     28  H1  UNL     1      -4.653  -0.920   1.574  1.00  0.00     0.213 HD
ENDBRANCH  10  27
BRANCH  10  29
HETATM   29  C8  UNL     1      -4.924  -0.023  -0.717  1.00  0.00     0.147 C 
HETATM   30  N7  UNL     1      -4.966  -0.165  -1.986  1.00  0.00    -0.384 N 
ATOM     31  H72 UNL     1      -4.130  -0.490  -2.472  1.00  0.00     0.157 HD
ATOM     32  H71 UNL     1      -5.812   0.037  -2.520  1.00  0.00     0.157 HD
BRANCH  29  33
HETATM   33  N8  UNL     1      -6.085   0.429  -0.042  1.00  0.00    -0.292 N 
ATOM     34  H8  UNL     1      -6.210   0.179   0.939  1.00  0.00     0.188 HD
BRANCH  33  35
HETATM   35  N9  UNL     1      -7.067   1.204  -0.668  1.00  0.00    -0.344 N 
ATOM     36  H92 UNL     1      -6.926   1.444  -1.649  1.00  0.00     0.176 HD
ATOM     37  H91 UNL     1      -7.903   1.529  -0.182  1.00  0.00     0.176 HD
ENDBRANCH  33  35
ENDBRANCH  29  33
ENDBRANCH  10  29
TORSDOF 8
