REMARK  6 active torsions:
REMARK  status: ('A' for Active; 'I' for Inactive)
REMARK    1  A    between atoms: C3_4  and  N2_5 
REMARK    2  A    between atoms: N2_5  and  N3_7 
REMARK    3  A    between atoms: N3_7  and  C4_9 
REMARK    4  A    between atoms: C4_9  and  C5_13 
REMARK    5  A    between atoms: C6_21  and  S2_22 
REMARK    6  A    between atoms: S2_22  and  N9_23 
ROOT
HETATM    1  N1  UNL     1       1.335   2.867  -1.783  1.00  0.00    -0.191 NA
HETATM    2  C1  UNL     1       0.437   2.286  -1.344  1.00  0.00     0.108 C 
HETATM    3  C2  UNL     1      -0.693   1.529  -0.796  1.00  0.00     0.147 A 
HETATM    4  C3  UNL     1      -0.447   0.408  -0.043  1.00  0.00     0.118 A 
HETATM    5  S1  UNL     1      -1.815  -0.402   0.547  1.00  0.00    -0.038 SA
HETATM    6  C6  UNL     1      -3.282   0.340   0.089  1.00  0.00     0.195 A 
HETATM    7  N10 UNL     1      -3.111   1.429  -0.655  1.00  0.00    -0.305 N 
ATOM      8  H10 UNL     1      -3.960   1.908  -0.956  1.00  0.00     0.170 HD
HETATM    9  C7  UNL     1      -1.967   1.962  -1.050  1.00  0.00     0.270 A 
HETATM   10  O3  UNL     1      -2.082   3.024  -1.766  1.00  0.00    -0.266 OA
ENDROOT
BRANCH   4  11
HETATM   11  N2  UNL     1       0.907  -0.024   0.208  1.00  0.00    -0.291 N 
ATOM     12  H2  UNL     1       1.413   0.293   1.035  1.00  0.00     0.187 HD
BRANCH  11  13
HETATM   13  N3  UNL     1       1.505  -0.885  -0.710  1.00  0.00    -0.282 N 
ATOM     14  H3  UNL     1       1.079  -1.045  -1.623  1.00  0.00     0.188 HD
BRANCH  13  15
HETATM   15  C4  UNL     1       2.706  -1.531  -0.359  1.00  0.00     0.160 C 
HETATM   16  N4  UNL     1       2.825  -2.791  -0.539  1.00  0.00    -0.381 N 
ATOM     17  H42 UNL     1       2.046  -3.317  -0.935  1.00  0.00     0.157 HD
ATOM     18  H41 UNL     1       3.695  -3.259  -0.285  1.00  0.00     0.157 HD
BRANCH  15  19
HETATM   19  C5  UNL     1       3.811  -0.785   0.203  1.00  0.00     0.177 A 
HETATM   20  N5  UNL     1       5.031  -1.258   0.590  1.00  0.00    -0.267 N 
HETATM   21  N6  UNL     1       5.764  -0.254   1.056  1.00  0.00    -0.007 NA
ATOM     22  H5  UNL     1       5.333  -2.231   0.531  1.00  0.00     0.185 HD
HETATM   23  N7  UNL     1       5.051   0.855   0.979  1.00  0.00    -0.007 NA
HETATM   24  N8  UNL     1       3.873   0.539   0.466  1.00  0.00    -0.267 N 
ATOM     25  H8  UNL     1       3.117   1.202   0.293  1.00  0.00     0.185 HD
ENDBRANCH  15  19
ENDBRANCH  13  15
ENDBRANCH  11  13
ENDBRANCH   4  11
BRANCH   6  26
HETATM   26  S2  UNL     1      -4.875  -0.241   0.529  1.00  0.00     0.279 S 
HETATM   27  O1  UNL     1      -4.893  -0.908   1.856  1.00  0.00    -0.199 OA
HETATM   28  O2  UNL     1      -5.839   0.938   0.526  1.00  0.00    -0.199 OA
BRANCH  26  29
HETATM   29  N9  UNL     1      -5.467  -1.341  -0.659  1.00  0.00    -0.323 N 
ATOM     30  H92 UNL     1      -4.949  -1.607  -1.497  1.00  0.00     0.169 HD
ATOM     31  H91 UNL     1      -6.395  -1.679  -0.403  1.00  0.00     0.169 HD
ENDBRANCH  26  29
ENDBRANCH   6  26
TORSDOF 6
