REMARK  0 active torsions:
REMARK  status: ('A' for Active; 'I' for Inactive)
ROOT
HETATM    1  O1  UNL     1       1.187  -2.987  -0.602  1.00  0.00    -0.259 OA
HETATM    2  C1  UNL     1       0.557  -1.939  -0.347  1.00  0.00     0.302 A 
HETATM    3  O2  UNL     1      -0.774  -1.935  -0.292  1.00  0.00    -0.271 OA
HETATM    4  C2  UNL     1      -1.390  -0.810  -0.020  1.00  0.00     0.121 A 
HETATM    5  C3  UNL     1      -2.737  -0.498   0.104  1.00  0.00     0.027 A 
HETATM    6  C4  UNL     1      -3.832  -1.324  -0.033  1.00  0.00     0.017 A 
HETATM    7  C5  UNL     1      -5.119  -0.810   0.133  1.00  0.00     0.001 A 
HETATM    8  C6  UNL     1      -5.213   0.528   0.430  1.00  0.00     0.002 A 
HETATM    9  C7  UNL     1      -4.130   1.360   0.568  1.00  0.00     0.030 A 
HETATM   10  C8  UNL     1      -2.848   0.843   0.402  1.00  0.00     0.045 A 
HETATM   11  N1  UNL     1      -1.611   1.360   0.465  1.00  0.00    -0.351 N 
ATOM     12  H1  UNL     1      -1.380   2.332   0.669  1.00  0.00     0.166 HD
HETATM   13  C9  UNL     1      -0.730   0.378   0.214  1.00  0.00     0.096 A 
HETATM   14  C10 UNL     1       0.638   0.397   0.162  1.00  0.00     0.080 A 
HETATM   15  N2  UNL     1       1.553   1.365   0.337  1.00  0.00    -0.353 N 
ATOM     16  H2  UNL     1       1.334   2.336   0.559  1.00  0.00     0.166 HD
HETATM   17  C11 UNL     1       2.802   0.877   0.179  1.00  0.00     0.044 A 
HETATM   18  C12 UNL     1       4.049   1.464   0.257  1.00  0.00     0.030 A 
HETATM   19  C13 UNL     1       5.160   0.678   0.039  1.00  0.00     0.002 A 
HETATM   20  C14 UNL     1       5.006  -0.665  -0.249  1.00  0.00     0.001 A 
HETATM   21  C15 UNL     1       3.748  -1.242  -0.324  1.00  0.00     0.015 A 
HETATM   22  C16 UNL     1       2.635  -0.465  -0.108  1.00  0.00     0.009 A 
HETATM   23  C17 UNL     1       1.290  -0.791  -0.125  1.00  0.00     0.081 A 
ENDROOT
TORSDOF 0
