REMARK  1 active torsions:
REMARK  status: ('A' for Active; 'I' for Inactive)
REMARK    1  A    between atoms: C5_7  and  N2_8 
ROOT
HETATM    1  C1  UNL     1       3.209  -0.093   0.058  1.00  0.00     0.050 C 
HETATM    2  C2  UNL     1       2.049   0.790   0.074  1.00  0.00    -0.029 A 
HETATM    3  C3  UNL     1       0.747   0.287  -0.052  1.00  0.00    -0.018 A 
HETATM    4  C4  UNL     1      -0.307   1.182  -0.067  1.00  0.00     0.026 A 
HETATM    5  N1  UNL     1      -0.082   2.527   0.041  1.00  0.00    -0.344 N 
ATOM      6  H1  UNL     1      -0.879   3.164   0.027  1.00  0.00     0.167 HD
HETATM    7  C5  UNL     1       1.153   3.034   0.165  1.00  0.00     0.120 A 
HETATM    8  C6  UNL     1       2.223   2.177   0.182  1.00  0.00     0.094 A 
HETATM    9  C7  UNL     1       3.569   2.655   0.312  1.00  0.00     0.104 C 
HETATM   10  N3  UNL     1       4.654   3.059   0.406  1.00  0.00    -0.191 NA
HETATM   11  C8  UNL     1      -1.731   0.793  -0.235  1.00  0.00    -0.004 C 
HETATM   12  C9  UNL     1      -2.605   1.142   0.916  1.00  0.00     0.021 C 
HETATM   13  C10 UNL     1      -2.226   1.656  -1.412  1.00  0.00     0.021 C 
HETATM   14  C11 UNL     1      -1.809  -0.634  -0.598  1.00  0.00     0.024 C 
HETATM   15  C12 UNL     1      -0.864  -1.518   0.158  1.00  0.00    -0.035 C 
HETATM   16  C13 UNL     1      -1.179  -2.938  -0.338  1.00  0.00     0.016 C 
HETATM   17  C14 UNL     1      -1.164  -1.552   1.631  1.00  0.00     0.016 C 
HETATM   18  C15 UNL     1       0.605  -1.184  -0.145  1.00  0.00    -0.011 C 
HETATM   19  C16 UNL     1       1.373  -1.955   0.907  1.00  0.00     0.021 C 
HETATM   20  C17 UNL     1       0.866  -1.731  -1.527  1.00  0.00     0.021 C 
ENDROOT
BRANCH   7  21
HETATM   21  N2  UNL     1       1.367   4.310   0.269  1.00  0.00    -0.384 N 
ATOM     22  H22 UNL     1       0.571   4.948   0.256  1.00  0.00     0.157 HD
ATOM     23  H21 UNL     1       2.307   4.696   0.363  1.00  0.00     0.157 HD
ENDBRANCH   7  21
TORSDOF 1
