REMARK  0 active torsions:
REMARK  status: ('A' for Active; 'I' for Inactive)
ROOT
HETATM    1  O1  UNL     1      -3.336  -3.012   0.011  1.00  0.00    -0.267 OA
HETATM    2  C1  UNL     1      -2.560  -2.009   0.045  1.00  0.00     0.257 A 
HETATM    3  N1  UNL     1      -1.223  -2.224   0.020  1.00  0.00    -0.319 N 
ATOM      4  H1  UNL     1      -0.853  -3.173  -0.025  1.00  0.00     0.169 HD
HETATM    5  C2  UNL     1      -0.393  -1.173   0.055  1.00  0.00     0.099 A 
HETATM    6  C3  UNL     1      -0.899   0.109   0.116  1.00  0.00     0.074 A 
HETATM    7  N2  UNL     1       0.151   0.950   0.140  1.00  0.00    -0.351 N 
ATOM      8  H2  UNL     1       0.092   1.967   0.185  1.00  0.00     0.166 HD
HETATM    9  C4  UNL     1       1.288   0.239   0.096  1.00  0.00     0.082 A 
HETATM   10  C5  UNL     1       2.684   0.313   0.083  1.00  0.00     0.027 A 
HETATM   11  C6  UNL     1       3.480   1.440   0.122  1.00  0.00     0.017 A 
HETATM   12  C7  UNL     1       4.849   1.234   0.097  1.00  0.00     0.001 A 
HETATM   13  C8  UNL     1       5.359  -0.056   0.036  1.00  0.00     0.003 A 
HETATM   14  C9  UNL     1       4.522  -1.169  -0.002  1.00  0.00     0.038 A 
HETATM   15  C10 UNL     1       3.151  -0.962   0.023  1.00  0.00     0.088 A 
HETATM   16  O2  UNL     1       2.126  -1.781  -0.001  1.00  0.00    -0.305 OA
HETATM   17  C11 UNL     1       0.997  -1.109   0.042  1.00  0.00     0.132 A 
HETATM   18  C12 UNL     1      -2.279   0.337   0.142  1.00  0.00     0.009 A 
HETATM   19  C13 UNL     1      -2.728   1.642   0.204  1.00  0.00     0.015 A 
HETATM   20  C14 UNL     1      -4.091   1.856   0.229  1.00  0.00     0.001 A 
HETATM   21  C15 UNL     1      -4.942   0.770   0.192  1.00  0.00     0.001 A 
HETATM   22  C16 UNL     1      -4.478  -0.531   0.131  1.00  0.00     0.018 A 
HETATM   23  C17 UNL     1      -3.111  -0.745   0.106  1.00  0.00     0.044 A 
ENDROOT
TORSDOF 0
