REMARK  6 active torsions:
REMARK  status: ('A' for Active; 'I' for Inactive)
REMARK    1  A    between atoms: C7_7  and  C8_8 
REMARK       I    between atoms: C8_8  and  N1_10 
REMARK    2  A    between atoms: N1_10  and  C9_11 
REMARK    3  A    between atoms: N1_10  and  C14_19 
REMARK    4  A    between atoms: C9_11  and  C10_12 
REMARK       I    between atoms: N2_27  and  C21_28 
REMARK    5  A    between atoms: C21_28  and  O5_30 
REMARK    6  A    between atoms: O5_30  and  C22_31 
ROOT
HETATM    1  C8  UNL     1      -2.412  -0.302  -0.962  1.00  0.00     0.258 C 
HETATM    2  O1  UNL     1      -3.622  -0.338  -1.294  1.00  0.00    -0.267 OA
HETATM    3  N1  UNL     1      -1.745   0.967  -0.732  1.00  0.00    -0.322 N 
ENDROOT
BRANCH   3   4
HETATM    4  C9  UNL     1      -2.533   2.122  -0.903  1.00  0.00     0.073 C 
BRANCH   4   5
HETATM    5  C10 UNL     1      -3.445   2.608   0.129  1.00  0.00     0.039 C 
HETATM    6  C11 UNL     1      -2.990   2.983   1.468  1.00  0.00     0.026 C 
HETATM    7  C12 UNL     1      -4.279   3.370   2.235  1.00  0.00     0.141 C 
HETATM    8  S1  UNL     1      -5.157   4.254   0.971  1.00  0.00     0.145 S 
HETATM    9  O2  UNL     1      -6.461   3.593   0.634  1.00  0.00    -0.228 OA
HETATM   10  O3  UNL     1      -5.305   5.704   1.285  1.00  0.00    -0.228 OA
HETATM   11  C13 UNL     1      -4.030   3.969  -0.375  1.00  0.00     0.150 C 
ENDBRANCH   4   5
ENDBRANCH   3   4
BRANCH   3  12
HETATM   12  C14 UNL     1      -0.357   0.936  -0.463  1.00  0.00     0.096 C 
HETATM   13  C15 UNL     1       0.409   1.476  -1.686  1.00  0.00     0.051 C 
HETATM   14  C16 UNL     1       1.890   1.533  -1.382  1.00  0.00     0.094 C 
HETATM   15  C17 UNL     1       2.233   2.910  -0.839  1.00  0.00     0.065 C 
HETATM   16  N2  UNL     1       2.240   0.683  -0.263  1.00  0.00    -0.316 N 
HETATM   17  C18 UNL     1       2.321   2.764   0.678  1.00  0.00     0.195 C 
HETATM   18  F1  UNL     1       1.580   3.740   1.295  1.00  0.00    -0.247 F 
HETATM   19  C19 UNL     1       1.685   1.390   0.888  1.00  0.00     0.125 C 
HETATM   20  C20 UNL     1       0.171   1.522   0.785  1.00  0.00     0.054 C 
HETATM   21  C21 UNL     1       2.959  -0.526  -0.349  1.00  0.00     0.364 C 
HETATM   22  O4  UNL     1       3.338  -0.922  -1.476  1.00  0.00    -0.238 OA
BRANCH  21  23
HETATM   23  O5  UNL     1       3.279  -1.312   0.738  1.00  0.00    -0.294 OA
BRANCH  23  24
HETATM   24  C22 UNL     1       3.998  -2.518   0.684  1.00  0.00     0.061 C 
HETATM   25  C23 UNL     1       4.108  -3.030   2.112  1.00  0.00     0.046 C 
HETATM   26  C24 UNL     1       3.365  -3.591  -0.135  1.00  0.00     0.046 C 
HETATM   27  C25 UNL     1       5.445  -2.272   0.232  1.00  0.00     0.046 C 
ENDBRANCH  23  24
ENDBRANCH  21  23
ENDBRANCH   3  12
BRANCH   1  28
HETATM   28  C7  UNL     1      -1.741  -1.581  -0.826  1.00  0.00     0.038 A 
HETATM   29  C5  UNL     1      -1.735  -2.231   0.388  1.00  0.00    -0.046 A 
HETATM   30  C4  UNL     1      -1.129  -3.439   0.592  1.00  0.00     0.008 A 
HETATM   31  C6  UNL     1      -2.427  -1.589   1.559  1.00  0.00     0.049 C 
HETATM   32  C3  UNL     1      -0.486  -4.063  -0.442  1.00  0.00     0.007 A 
HETATM   33  C2  UNL     1      -0.471  -3.442  -1.675  1.00  0.00    -0.061 A 
HETATM   34  C1  UNL     1       0.220  -4.098  -2.812  1.00  0.00     0.048 C 
HETATM   35  C26 UNL     1      -1.093  -2.211  -1.865  1.00  0.00     0.024 A 
ENDBRANCH   1  28
TORSDOF 6
