REMARK  5 active torsions:
REMARK  status: ('A' for Active; 'I' for Inactive)
REMARK    1  A    between atoms: N1_4  and  C4_5 
REMARK    2  A    between atoms: C4_5  and  C5_6 
REMARK    3  A    between atoms: C18_25  and  C19_26 
REMARK    4  A    between atoms: C19_26  and  O3_28 
REMARK    5  A    between atoms: O3_28  and  C20_29 
ROOT
HETATM    1  C1  UNL     1      -1.107   0.551  -4.371  1.00  0.00     0.021 C 
HETATM    2  C2  UNL     1      -0.599   0.180  -3.219  1.00  0.00    -0.030 C 
HETATM    3  C3  UNL     1       0.749  -0.448  -3.001  1.00  0.00     0.313 C 
HETATM    4  N1  UNL     1       1.109  -0.041  -1.650  1.00  0.00     0.113 N 
HETATM    5  C14 UNL     1      -0.087   0.170  -0.915  1.00  0.00     0.319 C 
HETATM    6  S1  UNL     1      -0.581  -1.185   0.187  1.00  0.00    -0.118 SA
HETATM    7  C15 UNL     1      -2.348  -0.903   0.564  1.00  0.00     0.019 C 
HETATM    8  C16 UNL     1      -2.582  -1.034   2.037  1.00  0.00     0.028 C 
HETATM    9  C17 UNL     1      -3.133  -1.971  -0.152  1.00  0.00     0.028 C 
HETATM   10  C18 UNL     1      -2.677   0.474   0.033  1.00  0.00     0.126 C 
HETATM   11  C22 UNL     1      -2.423   0.419  -1.431  1.00  0.00    -0.000 C 
HETATM   12  C23 UNL     1      -1.207   0.274  -1.904  1.00  0.00    -0.011 C 
ENDROOT
BRANCH   4  13
HETATM   13  C4  UNL     1       2.119  -0.837  -1.069  1.00  0.00     0.309 C 
BRANCH  13  14
HETATM   14  C5  UNL     1       2.654  -0.370   0.264  1.00  0.00     0.204 A 
HETATM   15  C6  UNL     1       3.258   0.941   0.236  1.00  0.00     0.187 A 
HETATM   16  O1  UNL     1       2.683   1.973  -0.250  1.00  0.00    -0.290 OA
HETATM   17  C7  UNL     1       4.582   1.195   0.765  1.00  0.00     0.041 A 
HETATM   18  C8  UNL     1       5.142   2.466   0.730  1.00  0.00     0.036 A 
HETATM   19  C12 UNL     1       5.278   0.139   1.308  1.00  0.00     0.061 A 
HETATM   20  C9  UNL     1       6.399   2.677   1.240  1.00  0.00     0.012 A 
HETATM   21 BR1  UNL     1       7.207   4.383   1.221  1.00  0.00    -0.051 Br
HETATM   22  C10 UNL     1       7.090   1.597   1.787  1.00  0.00     0.021 A 
HETATM   23  C11 UNL     1       6.537   0.335   1.822  1.00  0.00     0.033 A 
HETATM   24  N2  UNL     1       4.630  -1.109   1.300  1.00  0.00    -0.302 N 
HETATM   25  N3  UNL     1       3.488  -1.369   0.853  1.00  0.00    -0.318 N 
ATOM     26  H2  UNL     1       5.147  -1.890   1.703  1.00  0.00     0.186 HD
HETATM   27  C13 UNL     1       2.965  -2.755   0.932  1.00  0.00     0.171 C 
ENDBRANCH  13  14
ENDBRANCH   4  13
BRANCH  10  28
HETATM   28  C19 UNL     1      -4.046   0.915   0.309  1.00  0.00     0.268 C 
HETATM   29  O2  UNL     1      -4.187   1.977   0.997  1.00  0.00    -0.264 OA
BRANCH  28  30
HETATM   30  O3  UNL     1      -5.184   0.274  -0.114  1.00  0.00    -0.321 OA
BRANCH  30  31
HETATM   31  C20 UNL     1      -6.444   0.817   0.230  1.00  0.00     0.174 C 
HETATM   32  C21 UNL     1      -6.607   0.887   1.729  1.00  0.00     0.034 C 
ENDBRANCH  30  31
ENDBRANCH  28  30
ENDBRANCH  10  28
TORSDOF 5
