REMARK  5 active torsions:
REMARK  status: ('A' for Active; 'I' for Inactive)
REMARK    1  A    between atoms: C2_2  and  C3_3 
REMARK    2  A    between atoms: C3_3  and  C4_4 
REMARK       I    between atoms: N3_16  and  C11_17 
REMARK    3  A    between atoms: C11_17  and  C12_19 
REMARK    4  A    between atoms: N4_22  and  C15_23 
REMARK    5  A    between atoms: C15_23  and  C16_24 
ROOT
HETATM    1  C4  UNL     1       4.536  -0.583  -1.326  1.00  0.00     0.083 A 
HETATM    2  N1  UNL     1       4.445   0.753  -1.389  1.00  0.00    -0.349 N 
ATOM      3  H1  UNL     1       5.204   1.272  -1.830  1.00  0.00     0.167 HD
HETATM    4  C5  UNL     1       3.399   1.440  -0.898  1.00  0.00     0.017 A 
HETATM    5  C6  UNL     1       3.296   2.925  -0.967  1.00  0.00     0.069 C 
HETATM    6  C7  UNL     1       2.336   0.762  -0.284  1.00  0.00     0.016 A 
HETATM    7  C8  UNL     1       2.443  -0.604  -0.227  1.00  0.00     0.152 A 
HETATM    8  N2  UNL     1       3.523  -1.240  -0.740  1.00  0.00    -0.326 N 
ATOM      9  H2  UNL     1       3.568  -2.257  -0.679  1.00  0.00     0.169 HD
HETATM   10  O1  UNL     1       1.409  -1.327   0.375  1.00  0.00    -0.327 OA
HETATM   11  C9  UNL     1       0.139  -0.708   0.390  1.00  0.00     0.164 C 
HETATM   12  C10 UNL     1      -0.843  -1.538   1.192  1.00  0.00     0.185 C 
HETATM   13  N3  UNL     1      -2.133  -0.884   1.142  1.00  0.00    -0.253 N 
HETATM   14  C11 UNL     1      -3.279  -1.634   0.877  1.00  0.00     0.241 C 
HETATM   15  O2  UNL     1      -4.398  -1.067   0.838  1.00  0.00    -0.271 OA
HETATM   16  N4  UNL     1      -2.202   0.508   1.374  1.00  0.00    -0.252 N 
HETATM   17  C22 UNL     1      -0.950   1.236   1.368  1.00  0.00     0.245 C 
HETATM   18  O3  UNL     1      -0.946   2.495   1.597  1.00  0.00    -0.271 OA
HETATM   19  C23 UNL     1       0.342   0.609   1.110  1.00  0.00     0.115 C 
HETATM   20  C24 UNL     1       1.184   1.526   0.256  1.00  0.00     0.062 C 
ENDROOT
BRANCH  16  21
HETATM   21  C15 UNL     1      -3.371   1.266   1.627  1.00  0.00     0.191 C 
BRANCH  21  22
HETATM   22  C16 UNL     1      -4.008   1.919   0.494  1.00  0.00    -0.037 A 
HETATM   23  C17 UNL     1      -5.258   2.463   0.638  1.00  0.00     0.009 A 
HETATM   24  C18 UNL     1      -5.902   3.107  -0.416  1.00  0.00     0.002 A 
HETATM   25  C19 UNL     1      -5.262   3.196  -1.624  1.00  0.00     0.019 A 
HETATM   26  C20 UNL     1      -4.014   2.655  -1.772  1.00  0.00     0.011 A 
HETATM   27 BR1  UNL     1      -3.185   2.821  -3.493  1.00  0.00    -0.051 Br
HETATM   28  C21 UNL     1      -3.396   2.024  -0.721  1.00  0.00     0.028 A 
ENDBRANCH  21  22
ENDBRANCH  16  21
BRANCH  14  29
HETATM   29  C12 UNL     1      -3.303  -3.090   0.627  1.00  0.00     0.071 C 
HETATM   30  C13 UNL     1      -2.649  -3.529  -0.640  1.00  0.00     0.019 C 
HETATM   31  C14 UNL     1      -2.790  -3.873   1.843  1.00  0.00     0.019 C 
ENDBRANCH  14  29
BRANCH   1  32
HETATM   32  C3  UNL     1       5.722  -1.290  -1.888  1.00  0.00     0.076 C 
BRANCH  32  33
HETATM   33  C2  UNL     1       6.810  -1.435  -0.817  1.00  0.00     0.003 C 
HETATM   34  C1  UNL     1       7.249  -0.077  -0.323  1.00  0.00     0.005 C 
ENDBRANCH  32  33
ENDBRANCH   1  32
TORSDOF 5
