REMARK  4 active torsions:
REMARK  status: ('A' for Active; 'I' for Inactive)
REMARK    1  A    between atoms: C2_2  and  C3_3 
REMARK    2  A    between atoms: C3_3  and  C5_5 
REMARK       I    between atoms: C5_5  and  N1_7 
REMARK    3  A    between atoms: N2_11  and  C9_12 
REMARK    4  A    between atoms: C9_12  and  C10_13 
REMARK       I    between atoms: C10_13  and  N3_15 
ROOT
HETATM    1  C10 UNL     1       1.040   0.898  -0.120  1.00  0.00     0.237 C 
HETATM    2  O2  UNL     1       0.318   1.896  -0.348  1.00  0.00    -0.272 OA
HETATM    3  N3  UNL     1       2.439   1.038  -0.289  1.00  0.00    -0.341 N 
HETATM    4  C11 UNL     1       3.255  -0.127  -0.017  1.00  0.00     0.137 C 
HETATM    5  C12 UNL     1       4.366  -0.141  -1.049  1.00  0.00     0.057 C 
HETATM    6  C13 UNL     1       5.249  -1.301  -0.851  1.00  0.00    -0.030 A 
HETATM    7  C14 UNL     1       5.072  -2.633  -1.301  1.00  0.00     0.009 A 
HETATM    8  C15 UNL     1       5.978  -3.620  -1.022  1.00  0.00     0.001 A 
HETATM    9  C16 UNL     1       7.102  -3.308  -0.277  1.00  0.00     0.002 A 
HETATM   10  C17 UNL     1       7.315  -2.018   0.183  1.00  0.00     0.024 A 
HETATM   11  C18 UNL     1       6.384  -1.053  -0.117  1.00  0.00     0.066 A 
HETATM   12  S1  UNL     1       6.343   0.655   0.269  1.00  0.00     0.181 S 
HETATM   13  O3  UNL     1       7.655   1.316   0.050  1.00  0.00    -0.222 OA
HETATM   14  O4  UNL     1       5.782   0.858   1.619  1.00  0.00    -0.222 OA
HETATM   15  C19 UNL     1       5.178   1.089  -1.039  1.00  0.00     0.126 C 
HETATM   16  C20 UNL     1       4.468   2.353  -0.754  1.00  0.00     0.051 C 
HETATM   17  C21 UNL     1       2.992   2.295  -0.714  1.00  0.00     0.029 C 
HETATM   18  C22 UNL     1       2.445   2.599  -2.094  1.00  0.00     0.038 C 
HETATM   19  C23 UNL     1       2.447   3.382   0.218  1.00  0.00     0.038 C 
ENDROOT
BRANCH   1  20
HETATM   20  C9  UNL     1       0.410  -0.355   0.307  1.00  0.00     0.220 C 
BRANCH  20  21
HETATM   21  N2  UNL     1      -1.001  -0.332   0.436  1.00  0.00    -0.400 N 
HETATM   22  C8  UNL     1      -1.542   0.452   1.495  1.00  0.00     0.142 C 
HETATM   23  C6  UNL     1      -2.961  -0.006   1.774  1.00  0.00     0.101 C 
HETATM   24  N1  UNL     1      -3.724  -0.184   0.575  1.00  0.00    -0.340 N 
HETATM   25  C7  UNL     1      -2.937  -1.248   2.636  1.00  0.00     0.034 C 
HETATM   26  C5  UNL     1      -5.070   0.263   0.498  1.00  0.00     0.224 C 
HETATM   27  C25 UNL     1      -3.122  -0.811  -0.569  1.00  0.00     0.101 C 
HETATM   28  O1  UNL     1      -5.545   0.831   1.524  1.00  0.00    -0.273 OA
HETATM   29  C24 UNL     1      -1.747  -0.150  -0.764  1.00  0.00     0.142 C 
HETATM   30  C26 UNL     1      -2.984  -2.304  -0.451  1.00  0.00     0.034 C 
BRANCH  26  31
HETATM   31  C3  UNL     1      -5.948   0.114  -0.677  1.00  0.00     0.074 C 
HETATM   32  C4  UNL     1      -6.269  -1.347  -0.955  1.00  0.00     0.020 C 
BRANCH  31  33
HETATM   33  C2  UNL     1      -7.246   0.863  -0.419  1.00  0.00     0.009 C 
HETATM   34  C1  UNL     1      -8.176   0.789  -1.603  1.00  0.00     0.006 C 
ENDBRANCH  31  33
ENDBRANCH  26  31
ENDBRANCH  20  21
ENDBRANCH   1  20
TORSDOF 4
