REMARK  5 active torsions:
REMARK  status: ('A' for Active; 'I' for Inactive)
REMARK    1  A    between atoms: C2_2  and  C3_3 
REMARK    2  A    between atoms: C6_6  and  C7_7 
REMARK    3  A    between atoms: C7_7  and  C8_8 
REMARK       I    between atoms: C8_8  and  N1_10 
REMARK    4  A    between atoms: N3_22  and  O2_23 
REMARK    5  A    between atoms: C20_27  and  N4_28 
ROOT
HETATM    1  C3  UNL     1       1.473   0.835  -0.014  1.00  0.00    -0.031 A 
HETATM    2  C4  UNL     1       0.095   0.708   0.207  1.00  0.00     0.023 A 
HETATM    3  C5  UNL     1      -0.434  -0.512   0.466  1.00  0.00     0.001 A 
HETATM    4  C6  UNL     1      -1.809  -0.592   0.679  1.00  0.00    -0.024 A 
HETATM    5  C11 UNL     1      -2.312  -1.848   0.939  1.00  0.00     0.004 A 
HETATM    6  C12 UNL     1      -3.635  -2.139   1.167  1.00  0.00     0.037 A 
HETATM    7  C13 UNL     1      -4.122  -3.419   1.422  1.00  0.00     0.046 A 
HETATM    8  C14 UNL     1      -5.541  -3.570   1.644  1.00  0.00     0.099 C 
HETATM    9  N2  UNL     1      -6.674  -3.694   1.839  1.00  0.00    -0.191 NA
HETATM   10  C15 UNL     1      -3.248  -4.472   1.451  1.00  0.00     0.044 A 
HETATM   11  C16 UNL     1      -1.911  -4.227   1.227  1.00  0.00     0.042 A 
HETATM   12 BR1  UNL     1      -0.722  -5.709   1.275  1.00  0.00    -0.049 Br
HETATM   13  C17 UNL     1      -1.434  -2.940   0.973  1.00  0.00     0.091 A 
HETATM   14  N3  UNL     1      -0.120  -2.814   0.762  1.00  0.00    -0.222 N 
HETATM   15  C18 UNL     1       0.406  -1.609   0.505  1.00  0.00     0.076 A 
HETATM   16  C19 UNL     1       1.762  -1.492   0.289  1.00  0.00     0.062 A 
HETATM   17  C20 UNL     1       2.319  -0.225   0.019  1.00  0.00     0.038 A 
ENDROOT
BRANCH   4  18
HETATM   18  C7  UNL     1      -2.700   0.545   0.631  1.00  0.00     0.143 C 
BRANCH  18  19
HETATM   19  C8  UNL     1      -3.060   0.965  -0.753  1.00  0.00     0.223 C 
HETATM   20  O1  UNL     1      -2.634   0.409  -1.784  1.00  0.00    -0.273 OA
HETATM   21  N1  UNL     1      -3.945   2.069  -0.892  1.00  0.00    -0.361 N 
HETATM   22  C9  UNL     1      -4.353   2.547  -2.217  1.00  0.00     0.152 C 
HETATM   23  C10 UNL     1      -4.491   2.779   0.248  1.00  0.00     0.152 C 
ENDBRANCH  18  19
ENDBRANCH   4  18
BRANCH  14  24
HETATM   24  O2  UNL     1       0.715  -3.924   0.805  1.00  0.00    -0.282 OA
ATOM     25  H2  UNL     1       1.649  -3.834   0.655  1.00  0.00     0.245 HD
ENDBRANCH  14  24
BRANCH   1  26
HETATM   26  C2  UNL     1       1.956   2.207  -0.299  1.00  0.00     0.036 C 
HETATM   27  C1  UNL     1       2.053   2.400  -1.777  1.00  0.00     0.010 C 
ENDBRANCH   1  26
BRANCH  17  28
HETATM   28  N4  UNL     1       3.719  -0.180  -0.189  1.00  0.00    -0.376 N 
HETATM   29  C21 UNL     1       4.428  -0.089  -1.418  1.00  0.00     0.149 C 
HETATM   30  C22 UNL     1       5.571   0.924  -1.261  1.00  0.00     0.187 C 
HETATM   31  O3  UNL     1       6.439   0.447  -0.280  1.00  0.00    -0.388 OA
HETATM   32  C23 UNL     1       5.813   0.505   0.938  1.00  0.00     0.187 C 
HETATM   33  C24 UNL     1       4.529  -0.242   1.038  1.00  0.00     0.149 C 
ENDBRANCH  17  28
TORSDOF 5
