REMARK  2 active torsions:
REMARK  status: ('A' for Active; 'I' for Inactive)
REMARK    1  A    between atoms: O1_1  and  C1_3 
REMARK    2  A    between atoms: C1_3  and  N1_4 
ROOT
HETATM    1  N1  UNL     1      -0.456  -0.874  -0.696  1.00  0.00    -0.352 N 
ATOM      2  H1  UNL     1      -0.618  -1.578  -1.416  1.00  0.00     0.163 HD
HETATM    3  C2  UNL     1       0.727  -0.541  -0.386  1.00  0.00     0.140 A 
HETATM    4  C3  UNL     1       1.930   0.071   0.211  1.00  0.00     0.260 A 
HETATM    5  O2  UNL     1       2.079  -0.939  -0.832  1.00  0.00    -0.330 OA
ENDROOT
BRANCH   1   6
HETATM    6  C1  UNL     1      -1.578  -0.250  -0.023  1.00  0.00     0.288 C 
BRANCH   6   7
HETATM    7  O1  UNL     1      -1.689   1.042  -0.532  1.00  0.00    -0.382 OA
ATOM      8  H1  UNL     1      -2.424   1.451  -0.091  1.00  0.00     0.211 HD
ENDBRANCH   6   7
ENDBRANCH   1   6
TORSDOF 2
