REMARK  3 active torsions:
REMARK  status: ('A' for Active; 'I' for Inactive)
REMARK    1  A    between atoms: N1_1  and  N2_4 
REMARK    2  A    between atoms: N3_6  and  C1_8 
REMARK    3  A    between atoms: C1_8  and  C2_9 
ROOT
HETATM    1  N2  UNL     1       2.452   0.145   0.330  1.00  0.00    -0.254 N 
ATOM      2  H2  UNL     1       2.430   1.138   0.099  1.00  0.00     0.207 HD
HETATM    3  N3  UNL     1       1.431  -0.574   0.101  1.00  0.00    -0.320 N 
ATOM      4  H3  UNL     1       1.447  -1.568   0.330  1.00  0.00     0.181 HD
ENDROOT
BRANCH   3   5
HETATM    5  C1  UNL     1       0.255   0.009  -0.479  1.00  0.00     0.174 C 
BRANCH   5   6
HETATM    6  C2  UNL     1      -1.014  -0.667  -0.105  1.00  0.00     0.164 A 
HETATM    7  C3  UNL     1      -2.097   0.222   0.473  1.00  0.00     0.201 A 
HETATM    8  O1  UNL     1      -1.441  -0.776   1.191  1.00  0.00    -0.379 OA
ENDBRANCH   5   6
ENDBRANCH   3   5
BRANCH   1   9
HETATM    9  N1  UNL     1       3.607  -0.406   0.895  1.00  0.00    -0.331 N 
ATOM     10  H12 UNL     1       3.613  -1.401   1.120  1.00  0.00     0.178 HD
ATOM     11  H11 UNL     1       4.427   0.172   1.079  1.00  0.00     0.178 HD
ENDBRANCH   1   9
TORSDOF 3
