REMARK  1 active torsions:
REMARK  status: ('A' for Active; 'I' for Inactive)
REMARK    1  A    between atoms: N2_4  and  C1_6 
ROOT
HETATM    1  C1  UNL     1       0.814  -0.247  -0.048  1.00  0.00     0.263 C 
HETATM    2  C2  UNL     1      -0.005   0.790   0.688  1.00  0.00     0.289 C 
HETATM    3  N3  UNL     1      -1.366   0.619   0.166  1.00  0.00    -0.050 N 
ATOM      4  H31 UNL     1      -1.717   1.384  -0.410  1.00  0.00     0.279 HD
ATOM      5  H32 UNL     1      -2.114   0.682   0.856  1.00  0.00     0.279 HD
HETATM    6  C3  UNL     1      -1.233  -0.675  -0.510  1.00  0.00     0.402 C 
HETATM    7  O1  UNL     1      -0.003  -0.469  -1.178  1.00  0.00    -0.337 OA
ENDROOT
BRANCH   1   8
HETATM    8  N2  UNL     1       2.091   0.189  -0.430  1.00  0.00    -0.312 N 
HETATM    9  N1  UNL     1       3.088  -0.382   0.094  1.00  0.00    -0.347 N 
ATOM     10  H12 UNL     1       2.952  -1.133   0.770  1.00  0.00     0.176 HD
ATOM     11  H11 UNL     1       4.017  -0.065  -0.184  1.00  0.00     0.176 HD
ATOM     12  H2  UNL     1       2.210   0.942  -1.108  1.00  0.00     0.182 HD
ENDBRANCH   1   8
TORSDOF 1
