REMARK  2 active torsions:
REMARK  status: ('A' for Active; 'I' for Inactive)
REMARK    1  A    between atoms: O1_1  and  C1_3 
REMARK    2  A    between atoms: C1_3  and  C2_4 
ROOT
HETATM    1  C2  UNL     1      -0.001   0.076   0.843  1.00  0.00     0.206 A 
HETATM    2  N1  UNL     1       0.971   0.914   0.290  1.00  0.00    -0.363 N 
ATOM      3  H1  UNL     1       0.966   1.899   0.023  1.00  0.00     0.162 HD
HETATM    4  C3  UNL     1       1.850   0.024   0.239  1.00  0.00     0.174 A 
HETATM    5  N2  UNL     1       0.977  -0.918   0.786  1.00  0.00    -0.363 N 
ATOM      6  H2  UNL     1       1.031  -1.905   1.036  1.00  0.00     0.162 HD
ENDROOT
BRANCH   1   7
HETATM    7  C1  UNL     1      -1.275  -0.128   0.054  1.00  0.00     0.210 C 
BRANCH   7   8
HETATM    8  O1  UNL     1      -1.909   1.091  -0.133  1.00  0.00    -0.397 OA
ATOM      9  H1  UNL     1      -2.709   0.963  -0.629  1.00  0.00     0.209 HD
ENDBRANCH   7   8
ENDBRANCH   1   7
TORSDOF 2
