REMARK  2 active torsions:
REMARK  status: ('A' for Active; 'I' for Inactive)
REMARK    1  A    between atoms: O1_1  and  N1_3 
REMARK    2  A    between atoms: C1_5  and  N2_6 
ROOT
HETATM    1  N1  UNL     1       2.116  -0.422   0.588  1.00  0.00    -0.265 N 
ATOM      2  H1  UNL     1       2.995  -0.938   0.640  1.00  0.00     0.194 HD
HETATM    3  C1  UNL     1       1.027  -1.070   0.571  1.00  0.00     0.202 C 
ENDROOT
BRANCH   1   4
HETATM    4  O1  UNL     1       2.155   0.955   0.539  1.00  0.00    -0.289 OA
ATOM      5  H1  UNL     1       2.971   1.441   0.552  1.00  0.00     0.244 HD
ENDBRANCH   1   4
BRANCH   3   6
HETATM    6  N2  UNL     1      -0.235  -0.419   0.500  1.00  0.00    -0.373 N 
HETATM    7  C2  UNL     1      -0.974   0.755   0.071  1.00  0.00     0.143 A 
HETATM    8  C3  UNL     1      -1.673  -0.316   0.731  1.00  0.00     0.143 A 
ENDBRANCH   3   6
TORSDOF 2
