REMARK  20 active torsions:
REMARK  status: ('A' for Active; 'I' for Inactive)
REMARK    1  A    between atoms: C2_2  and  C3_3 
REMARK    2  A    between atoms: C3_3  and  C4_4 
REMARK    3  A    between atoms: C4_4  and  C5_5 
REMARK    4  A    between atoms: C5_5  and  C7_7 
REMARK    5  A    between atoms: C7_7  and  C8_8 
REMARK    6  A    between atoms: C8_8  and  O1_9 
REMARK    7  A    between atoms: C8_8  and  C9_11 
REMARK    8  A    between atoms: C9_11  and  C11_13 
REMARK    9  A    between atoms: C11_13  and  O2_14 
REMARK   10  A    between atoms: C11_13  and  C12_16 
REMARK   11  A    between atoms: C12_16  and  O3_17 
REMARK   12  A    between atoms: C12_16  and  C13_19 
REMARK   13  A    between atoms: C15_23  and  C16_24 
REMARK   14  A    between atoms: C16_24  and  C17_25 
REMARK   15  A    between atoms: C17_25  and  O7_27 
REMARK   16  A    between atoms: O7_27  and  C18_28 
REMARK   17  A    between atoms: C18_28  and  C20_30 
REMARK   18  A    between atoms: C21_31  and  O8_32 
REMARK   19  A    between atoms: C24_36  and  C26_38 
REMARK   20  A    between atoms: C26_38  and  O9_40 
ROOT
HETATM    1  C13 UNL     1       0.791  -1.329  -0.584  1.00  0.00     0.177 C 
HETATM    2  O4  UNL     1       1.434  -1.761   0.570  1.00  0.00    -0.312 OA
HETATM    3  C14 UNL     1       0.463  -1.089   1.293  1.00  0.00     0.266 C 
HETATM    4  O5  UNL     1       0.453  -0.532   2.410  1.00  0.00    -0.265 OA
HETATM    5  C15 UNL     1      -0.480  -1.339   0.171  1.00  0.00     0.127 C 
ENDROOT
BRANCH   1   6
HETATM    6  C12 UNL     1       1.253  -0.072  -1.251  1.00  0.00     0.177 C 
BRANCH   6   7
HETATM    7  C11 UNL     1       2.536  -0.210  -1.987  1.00  0.00     0.155 C 
BRANCH   7   8
HETATM    8  C9  UNL     1       3.777  -0.570  -1.272  1.00  0.00     0.042 C 
HETATM    9  C10 UNL     1       4.799  -0.923  -2.387  1.00  0.00     0.015 C 
BRANCH   8  10
HETATM   10  C8  UNL     1       4.425   0.487  -0.427  1.00  0.00     0.124 C 
BRANCH  10  11
HETATM   11  C7  UNL     1       5.727  -0.151   0.091  1.00  0.00     0.036 C 
BRANCH  11  12
HETATM   12  C5  UNL     1       6.449   0.729   1.025  1.00  0.00    -0.016 C 
HETATM   13  C6  UNL     1       6.524   2.185   0.669  1.00  0.00     0.010 C 
BRANCH  12  14
HETATM   14  C4  UNL     1       7.711   0.151   1.554  1.00  0.00     0.008 C 
BRANCH  14  15
HETATM   15  C3  UNL     1       8.925   0.216   0.716  1.00  0.00     0.027 C 
BRANCH  15  16
HETATM   16  C2  UNL     1       8.885  -0.450  -0.594  1.00  0.00    -0.037 C 
HETATM   17  C1  UNL     1       9.132   0.209  -1.745  1.00  0.00     0.007 C 
ENDBRANCH  15  16
ENDBRANCH  14  15
ENDBRANCH  12  14
ENDBRANCH  11  12
ENDBRANCH  10  11
BRANCH  10  18
HETATM   18  O1  UNL     1       3.631   0.737   0.686  1.00  0.00    -0.395 OA
ATOM     19  H1  UNL     1       2.828   1.131   0.366  1.00  0.00     0.210 HD
ENDBRANCH  10  18
ENDBRANCH   8  10
ENDBRANCH   7   8
BRANCH   7  20
HETATM   20  O2  UNL     1       2.722   0.875  -2.846  1.00  0.00    -0.392 OA
ATOM     21  H2  UNL     1       1.924   1.107  -3.306  1.00  0.00     0.210 HD
ENDBRANCH   7  20
ENDBRANCH   6   7
BRANCH   6  22
HETATM   22  O3  UNL     1       1.216   1.069  -0.512  1.00  0.00    -0.390 OA
ATOM     23  H3  UNL     1       0.396   1.157  -0.041  1.00  0.00     0.210 HD
ENDBRANCH   6  22
ENDBRANCH   1   6
BRANCH   5  24
HETATM   24  C16 UNL     1      -1.439  -0.207   0.018  1.00  0.00     0.128 C 
BRANCH  24  25
HETATM   25  C17 UNL     1      -2.667  -0.396   0.848  1.00  0.00     0.260 C 
HETATM   26  O6  UNL     1      -2.758  -1.435   1.551  1.00  0.00    -0.265 OA
BRANCH  25  27
HETATM   27  O7  UNL     1      -3.699   0.492   0.893  1.00  0.00    -0.316 OA
BRANCH  27  28
HETATM   28  C18 UNL     1      -4.854   0.348   1.644  1.00  0.00     0.135 C 
HETATM   29  C19 UNL     1      -4.815   1.270   2.886  1.00  0.00     0.040 C 
BRANCH  28  30
HETATM   30  C20 UNL     1      -6.150   0.572   0.981  1.00  0.00     0.054 C 
HETATM   31  C21 UNL     1      -6.260   1.980   0.401  1.00  0.00     0.125 C 
HETATM   32  C22 UNL     1      -5.940   1.784  -1.063  1.00  0.00     0.033 C 
HETATM   33  C23 UNL     1      -5.850   0.292  -1.312  1.00  0.00     0.014 C 
HETATM   34  C24 UNL     1      -6.613  -0.255  -0.124  1.00  0.00    -0.010 C 
HETATM   35  C25 UNL     1      -8.084   0.145  -0.409  1.00  0.00     0.018 C 
BRANCH  31  36
HETATM   36  O8  UNL     1      -7.524   2.529   0.539  1.00  0.00    -0.395 OA
ATOM     37  H8  UNL     1      -7.592   3.405   0.178  1.00  0.00     0.210 HD
ENDBRANCH  31  36
BRANCH  34  38
HETATM   38  C26 UNL     1      -6.640  -1.725  -0.012  1.00  0.00     0.122 C 
HETATM   39  C27 UNL     1      -7.535  -2.115   1.144  1.00  0.00     0.040 C 
BRANCH  38  40
HETATM   40  O9  UNL     1      -5.477  -2.417  -0.115  1.00  0.00    -0.395 OA
ATOM     41  H9  UNL     1      -5.494  -3.364  -0.043  1.00  0.00     0.210 HD
ENDBRANCH  38  40
ENDBRANCH  34  38
ENDBRANCH  28  30
ENDBRANCH  27  28
ENDBRANCH  25  27
ENDBRANCH  24  25
ENDBRANCH   5  24
TORSDOF 20
