REMARK  20 active torsions:
REMARK  status: ('A' for Active; 'I' for Inactive)
REMARK    1  A    between atoms: C2_2  and  C3_3 
REMARK    2  A    between atoms: C3_3  and  C4_4 
REMARK    3  A    between atoms: C4_4  and  C5_5 
REMARK    4  A    between atoms: C5_5  and  C6_6 
REMARK    5  A    between atoms: C6_6  and  C7_7 
REMARK    6  A    between atoms: C7_7  and  C8_8 
REMARK    7  A    between atoms: C8_8  and  C9_9 
REMARK    8  A    between atoms: C9_9  and  C10_10 
REMARK    9  A    between atoms: C10_10  and  C11_11 
REMARK   10  A    between atoms: C10_10  and  C12_14 
REMARK   11  A    between atoms: C16_18  and  O3_19 
REMARK   12  A    between atoms: O3_19  and  C17_20 
REMARK   13  A    between atoms: C18_22  and  C19_23 
REMARK   14  A    between atoms: C19_23  and  O5_24 
REMARK   15  A    between atoms: C20_26  and  O6_27 
REMARK   16  A    between atoms: C21_29  and  N1_30 
REMARK   17  A    between atoms: N1_30  and  N2_32 
REMARK   18  A    between atoms: N2_32  and  N3_33 
REMARK   19  A    between atoms: C22_36  and  O7_37 
REMARK   20  A    between atoms: C23_39  and  O8_40 
ROOT
HETATM    1  C12 UNL     1       0.366  -0.690   0.216  1.00  0.00     0.136 C 
HETATM    2  C13 UNL     1      -0.295   0.574   0.628  1.00  0.00     0.040 C 
HETATM    3  C14 UNL     1      -1.688   0.119   1.002  1.00  0.00     0.022 C 
HETATM    4  C15 UNL     1      -2.787   0.920   0.406  1.00  0.00     0.042 C 
HETATM    5  C16 UNL     1      -3.900   0.116  -0.207  1.00  0.00     0.156 C 
HETATM    6  C22 UNL     1      -3.391  -0.962  -1.136  1.00  0.00     0.178 C 
HETATM    7  C23 UNL     1      -2.335  -1.801  -0.530  1.00  0.00     0.178 C 
HETATM    8  C24 UNL     1      -1.706  -1.336   0.724  1.00  0.00     0.157 C 
HETATM    9  O9  UNL     1      -0.364  -1.765   0.697  1.00  0.00    -0.377 OA
ENDROOT
BRANCH   5  10
HETATM   10  O3  UNL     1      -4.764   0.979  -0.848  1.00  0.00    -0.351 OA
BRANCH  10  11
HETATM   11  C17 UNL     1      -6.049   0.972  -0.391  1.00  0.00     0.288 C 
HETATM   12  O4  UNL     1      -6.478   2.159   0.190  1.00  0.00    -0.349 OA
HETATM   13  C18 UNL     1      -7.841   2.165   0.179  1.00  0.00     0.179 C 
HETATM   14  C20 UNL     1      -8.359   1.132  -0.782  1.00  0.00     0.179 C 
HETATM   15  C21 UNL     1      -7.094   0.561  -1.366  1.00  0.00     0.200 C 
BRANCH  13  16
HETATM   16  C19 UNL     1      -8.452   1.967   1.552  1.00  0.00     0.198 C 
BRANCH  16  17
HETATM   17  O5  UNL     1      -9.842   1.996   1.382  1.00  0.00    -0.398 OA
ATOM     18  H5  UNL     1     -10.225   1.872   2.243  1.00  0.00     0.209 HD
ENDBRANCH  16  17
ENDBRANCH  13  16
BRANCH  14  19
HETATM   19  O6  UNL     1      -9.010   0.134  -0.057  1.00  0.00    -0.391 OA
ATOM     20  H6  UNL     1      -9.337  -0.519  -0.664  1.00  0.00     0.210 HD
ENDBRANCH  14  19
BRANCH  15  21
HETATM   21  N1  UNL     1      -6.929   1.125  -2.684  1.00  0.00    -0.240 N 
ATOM     22  H1  UNL     1      -6.764   0.521  -3.489  1.00  0.00     0.197 HD
BRANCH  21  23
HETATM   23  N2  UNL     1      -6.990   2.325  -2.819  1.00  0.00    -0.248 NA
BRANCH  23  24
HETATM   24  N3  UNL     1      -6.849   3.541  -3.019  1.00  0.00    -0.261 N 
ATOM     25  H32 UNL     1      -5.885   3.354  -3.295  1.00  0.00     0.193 HD
ATOM     26  H31 UNL     1      -6.900   4.553  -3.133  1.00  0.00     0.193 HD
ENDBRANCH  23  24
ENDBRANCH  21  23
ENDBRANCH  15  21
ENDBRANCH  10  11
ENDBRANCH   5  10
BRANCH   6  27
HETATM   27  O7  UNL     1      -3.023  -0.429  -2.383  1.00  0.00    -0.390 OA
ATOM     28  H7  UNL     1      -2.703  -1.107  -2.967  1.00  0.00     0.210 HD
ENDBRANCH   6  27
BRANCH   7  29
HETATM   29  O8  UNL     1      -2.843  -3.114  -0.369  1.00  0.00    -0.390 OA
ATOM     30  H8  UNL     1      -2.165  -3.653   0.020  1.00  0.00     0.210 HD
ENDBRANCH   7  29
BRANCH   1  31
HETATM   31  C10 UNL     1       1.780  -0.818   0.855  1.00  0.00     0.116 C 
BRANCH  31  32
HETATM   32  C9  UNL     1       2.624   0.301   0.424  1.00  0.00     0.018 C 
BRANCH  32  33
HETATM   33  C8  UNL     1       3.924   0.475   1.078  1.00  0.00     0.001 C 
BRANCH  33  34
HETATM   34  C7  UNL     1       4.995  -0.540   0.880  1.00  0.00     0.000 C 
BRANCH  34  35
HETATM   35  C6  UNL     1       5.402  -0.591  -0.588  1.00  0.00     0.000 C 
BRANCH  35  36
HETATM   36  C5  UNL     1       6.471  -1.613  -0.825  1.00  0.00     0.000 C 
BRANCH  36  37
HETATM   37  C4  UNL     1       7.729  -1.356  -0.048  1.00  0.00     0.000 C 
BRANCH  37  38
HETATM   38  C3  UNL     1       8.367  -0.023  -0.382  1.00  0.00    -0.000 C 
BRANCH  38  39
HETATM   39  C2  UNL     1       9.611   0.091   0.472  1.00  0.00    -0.005 C 
HETATM   40  C1  UNL     1      10.362   1.368   0.257  1.00  0.00     0.005 C 
ENDBRANCH  38  39
ENDBRANCH  37  38
ENDBRANCH  36  37
ENDBRANCH  35  36
ENDBRANCH  34  35
ENDBRANCH  33  34
ENDBRANCH  32  33
ENDBRANCH  31  32
BRANCH  31  41
HETATM   41  C11 UNL     1       2.276  -2.173   0.696  1.00  0.00     0.179 C 
HETATM   42  O1  UNL     1       2.476  -2.966   1.683  1.00  0.00    -0.648 OA
HETATM   43  O2  UNL     1       2.577  -2.745  -0.544  1.00  0.00    -0.648 OA
ENDBRANCH  31  41
ENDBRANCH   1  31
TORSDOF 20
