REMARK  21 active torsions:
REMARK  status: ('A' for Active; 'I' for Inactive)
REMARK    1  A    between atoms: C2_2  and  C3_3 
REMARK    2  A    between atoms: C3_3  and  C4_4 
REMARK    3  A    between atoms: C4_4  and  C5_5 
REMARK    4  A    between atoms: C5_5  and  C6_6 
REMARK    5  A    between atoms: C6_6  and  C7_8 
REMARK    6  A    between atoms: C7_8  and  C8_9 
REMARK    7  A    between atoms: C8_9  and  C9_10 
REMARK    8  A    between atoms: C10_11  and  C11_12 
REMARK    9  A    between atoms: C12_13  and  C13_14 
REMARK   10  A    between atoms: C13_14  and  C14_15 
REMARK   11  A    between atoms: C14_15  and  C15_16 
REMARK   12  A    between atoms: C16_17  and  C17_18 
REMARK   13  A    between atoms: C16_17  and  O3_27 
REMARK   14  A    between atoms: C17_18  and  C18_19 
REMARK   15  A    between atoms: C22_24  and  O2_25 
REMARK   16  A    between atoms: O3_27  and  C23_28 
REMARK   17  A    between atoms: C24_30  and  C25_31 
REMARK   18  A    between atoms: C25_31  and  O5_32 
REMARK   19  A    between atoms: C26_34  and  O6_35 
REMARK   20  A    between atoms: C27_37  and  O7_38 
REMARK   21  A    between atoms: C28_40  and  O8_41 
ROOT
HETATM    1  C15 UNL     1      -1.231   0.964   1.060  1.00  0.00     0.040 C 
HETATM    2  C16 UNL     1      -2.518   0.937   1.097  1.00  0.00     0.051 C 
ENDROOT
BRANCH   2   3
HETATM    3  C17 UNL     1      -3.379   2.052   1.482  1.00  0.00     0.073 C 
BRANCH   3   4
HETATM    4  C18 UNL     1      -4.248   1.556   2.627  1.00  0.00     0.050 C 
HETATM    5  C19 UNL     1      -3.499   1.110   3.815  1.00  0.00     0.279 C 
HETATM    6  N1  UNL     1      -4.133   1.647   4.989  1.00  0.00     0.087 N 
HETATM    7  C20 UNL     1      -3.318   2.684   5.613  1.00  0.00     0.310 C 
HETATM    8  C21 UNL     1      -5.405   2.199   4.555  1.00  0.00     0.303 C 
HETATM    9  C22 UNL     1      -5.180   2.628   3.124  1.00  0.00     0.152 C 
BRANCH   9  10
HETATM   10  O2  UNL     1      -4.578   3.887   3.138  1.00  0.00    -0.393 OA
ATOM     11  H2  UNL     1      -5.166   4.564   3.452  1.00  0.00     0.210 HD
ENDBRANCH   9  10
ENDBRANCH   3   4
ENDBRANCH   2   3
BRANCH   2  12
HETATM   12  O3  UNL     1      -3.157  -0.245   0.741  1.00  0.00    -0.322 OA
BRANCH  12  13
HETATM   13  C23 UNL     1      -2.966  -0.905  -0.485  1.00  0.00     0.297 C 
HETATM   14  O4  UNL     1      -3.768  -2.049  -0.524  1.00  0.00    -0.348 OA
HETATM   15  C24 UNL     1      -5.117  -1.722  -0.368  1.00  0.00     0.179 C 
HETATM   16  C26 UNL     1      -5.540  -0.560  -1.189  1.00  0.00     0.180 C 
HETATM   17  C27 UNL     1      -4.551  -0.145  -2.259  1.00  0.00     0.183 C 
HETATM   18  C28 UNL     1      -3.177  -0.016  -1.695  1.00  0.00     0.205 C 
BRANCH  15  19
HETATM   19  C25 UNL     1      -5.901  -2.999  -0.641  1.00  0.00     0.198 C 
BRANCH  19  20
HETATM   20  O5  UNL     1      -7.257  -2.815  -0.526  1.00  0.00    -0.398 OA
ATOM     21  H5  UNL     1      -7.746  -3.611  -0.696  1.00  0.00     0.209 HD
ENDBRANCH  19  20
ENDBRANCH  15  19
BRANCH  16  22
HETATM   22  O6  UNL     1      -6.773  -0.722  -1.816  1.00  0.00    -0.390 OA
ATOM     23  H6  UNL     1      -7.044   0.022  -2.341  1.00  0.00     0.210 HD
ENDBRANCH  16  22
BRANCH  17  24
HETATM   24  O7  UNL     1      -4.651  -1.015  -3.344  1.00  0.00    -0.390 OA
ATOM     25  H7  UNL     1      -4.031  -0.755  -4.015  1.00  0.00     0.210 HD
ENDBRANCH  17  24
BRANCH  18  26
HETATM   26  O8  UNL     1      -2.273  -0.291  -2.713  1.00  0.00    -0.388 OA
ATOM     27  H8  UNL     1      -2.405   0.266  -3.471  1.00  0.00     0.210 HD
ENDBRANCH  18  26
ENDBRANCH  12  13
ENDBRANCH   2  12
BRANCH   1  28
HETATM   28  C14 UNL     1      -0.382   2.168   1.409  1.00  0.00     0.058 C 
BRANCH  28  29
HETATM   29  C13 UNL     1       0.853   2.108   1.337  1.00  0.00    -0.128 C 
BRANCH  29  30
HETATM   30  C12 UNL     1       2.251   2.047   1.257  1.00  0.00     0.055 C 
HETATM   31  C11 UNL     1       2.850   0.872   0.899  1.00  0.00     0.008 C 
BRANCH  31  32
HETATM   32  C10 UNL     1       4.284   0.819   0.821  1.00  0.00    -0.003 C 
HETATM   33  C9  UNL     1       4.950  -0.249   0.507  1.00  0.00    -0.026 C 
BRANCH  33  34
HETATM   34  C8  UNL     1       4.370  -1.547   0.187  1.00  0.00     0.034 C 
BRANCH  34  35
HETATM   35  C7  UNL     1       4.716  -2.029  -1.177  1.00  0.00     0.082 C 
BRANCH  35  36
HETATM   36  C6  UNL     1       6.169  -2.225  -1.346  1.00  0.00     0.127 C 
HETATM   37  O1  UNL     1       6.932  -2.055  -0.440  1.00  0.00    -0.298 OA
BRANCH  36  38
HETATM   38  C5  UNL     1       6.624  -2.641  -2.698  1.00  0.00     0.078 C 
BRANCH  38  39
HETATM   39  C4  UNL     1       8.107  -2.679  -2.888  1.00  0.00     0.007 C 
BRANCH  39  40
HETATM   40  C3  UNL     1       8.730  -1.336  -2.691  1.00  0.00     0.000 C 
BRANCH  40  41
HETATM   41  C2  UNL     1       8.203  -0.271  -3.598  1.00  0.00    -0.005 C 
HETATM   42  C1  UNL     1       8.375  -0.529  -5.055  1.00  0.00     0.005 C 
ENDBRANCH  40  41
ENDBRANCH  39  40
ENDBRANCH  38  39
ENDBRANCH  36  38
ENDBRANCH  35  36
ENDBRANCH  34  35
ENDBRANCH  33  34
ENDBRANCH  31  32
ENDBRANCH  29  30
ENDBRANCH  28  29
ENDBRANCH   1  28
TORSDOF 21
