REMARK  8 active torsions:
REMARK  status: ('A' for Active; 'I' for Inactive)
REMARK    1  A    between atoms: C2_2  and  C3_3 
REMARK    2  A    between atoms: C3_3  and  N1_4 
REMARK    3  A    between atoms: N1_4  and  C4_7 
REMARK    4  A    between atoms: C4_7  and  C5_8 
REMARK    5  A    between atoms: C5_8  and  N2_9 
REMARK    6  A    between atoms: N2_9  and  C6_12 
REMARK    7  A    between atoms: C6_12  and  C7_13 
REMARK    8  A    between atoms: C9_18  and  N4_19 
ROOT
HETATM    1  N2  UNL     1      -0.771  -0.896   0.251  1.00  0.00    -0.070 N 
ATOM      2  H21 UNL     1      -0.607  -0.463   1.160  1.00  0.00     0.277 HD
ATOM      3  H22 UNL     1      -1.227  -1.758   0.548  1.00  0.00     0.277 HD
ENDROOT
BRANCH   1   4
HETATM    4  C5  UNL     1       0.473  -1.187  -0.395  1.00  0.00     0.260 C 
BRANCH   4   5
HETATM    5  C4  UNL     1       1.320   0.089  -0.554  1.00  0.00     0.260 C 
BRANCH   5   6
HETATM    6  N1  UNL     1       2.574  -0.184  -1.173  1.00  0.00    -0.070 N 
ATOM      7  H12 UNL     1       3.009   0.680  -1.495  1.00  0.00     0.277 HD
ATOM      8  H11 UNL     1       2.436  -0.653  -2.068  1.00  0.00     0.277 HD
BRANCH   6   9
HETATM    9  C3  UNL     1       3.476  -0.923  -0.356  1.00  0.00     0.259 C 
BRANCH   9  10
HETATM   10  C2  UNL     1       4.070  -0.153   0.738  1.00  0.00    -0.010 C 
HETATM   11  C1  UNL     1       3.907   1.133   0.926  1.00  0.00     0.008 C 
ENDBRANCH   9  10
ENDBRANCH   6   9
ENDBRANCH   5   6
ENDBRANCH   4   5
ENDBRANCH   1   4
BRANCH   1  12
HETATM   12  C6  UNL     1      -1.678  -0.091  -0.534  1.00  0.00     0.276 C 
BRANCH  12  13
HETATM   13  C7  UNL     1      -2.933   0.179   0.251  1.00  0.00     0.037 A 
HETATM   14  C8  UNL     1      -3.215  -0.263   1.536  1.00  0.00     0.180 A 
HETATM   15  O1  UNL     1      -4.395   0.185   1.857  1.00  0.00    -0.248 OA
HETATM   16  N3  UNL     1      -4.923   0.875   0.921  1.00  0.00    -0.245 N 
HETATM   17  C9  UNL     1      -4.045   0.904  -0.117  1.00  0.00     0.129 A 
ATOM     18  H3  UNL     1      -5.839   1.324   0.947  1.00  0.00     0.196 HD
BRANCH  17  19
HETATM   19  N4  UNL     1      -4.201   1.499  -1.251  1.00  0.00    -0.384 N 
ATOM     20  H42 UNL     1      -3.542   1.521  -2.030  1.00  0.00     0.157 HD
ATOM     21  H41 UNL     1      -5.024   2.036  -1.523  1.00  0.00     0.157 HD
ENDBRANCH  17  19
ENDBRANCH  12  13
ENDBRANCH   1  12
TORSDOF 8
