REMARK  7 active torsions:
REMARK  status: ('A' for Active; 'I' for Inactive)
REMARK    1  A    between atoms: C2_2  and  C3_3 
REMARK    2  A    between atoms: C3_3  and  N1_4 
REMARK    3  A    between atoms: N1_4  and  C4_6 
REMARK    4  A    between atoms: C4_6  and  C5_7 
REMARK    5  A    between atoms: C5_7  and  N2_8 
REMARK    6  A    between atoms: N2_8  and  C6_10 
REMARK    7  A    between atoms: C9_15  and  N4_16 
ROOT
HETATM    1  C6  UNL     1      -2.090  -0.796   0.186  1.00  0.00     0.118 A 
HETATM    2  C7  UNL     1      -2.914  -1.852   0.544  1.00  0.00     0.066 A 
HETATM    3  C8  UNL     1      -4.207  -1.529   0.890  1.00  0.00     0.110 A 
HETATM    4  N3  UNL     1      -4.613  -0.242   0.869  1.00  0.00    -0.202 N 
ATOM      5  H3  UNL     1      -5.575  -0.026   1.129  1.00  0.00     0.183 HD
HETATM    6  C9  UNL     1      -3.792   0.768   0.517  1.00  0.00     0.677 A 
HETATM    7  N5  UNL     1      -2.525   0.477   0.176  1.00  0.00    -0.177 N 
ATOM      8  H5  UNL     1      -1.888   1.227  -0.092  1.00  0.00     0.185 HD
ENDROOT
BRANCH   1   9
HETATM    9  N2  UNL     1      -0.758  -1.061  -0.189  1.00  0.00    -0.374 N 
ATOM     10  H2  UNL     1      -0.407  -2.019  -0.197  1.00  0.00     0.161 HD
BRANCH   9  11
HETATM   11  C5  UNL     1       0.115   0.046  -0.566  1.00  0.00     0.140 C 
BRANCH  11  12
HETATM   12  C4  UNL     1       1.472  -0.523  -0.999  1.00  0.00     0.133 C 
BRANCH  12  13
HETATM   13  N1  UNL     1       2.317   0.543  -1.374  1.00  0.00    -0.417 N 
ATOM     14  H1  UNL     1       2.571   0.702  -2.349  1.00  0.00     0.153 HD
BRANCH  13  15
HETATM   15  C3  UNL     1       2.799   1.384  -0.338  1.00  0.00     0.140 C 
BRANCH  15  16
HETATM   16  C2  UNL     1       3.828   0.788   0.530  1.00  0.00    -0.018 C 
HETATM   17  C1  UNL     1       4.325  -0.401   0.316  1.00  0.00     0.008 C 
ENDBRANCH  15  16
ENDBRANCH  13  15
ENDBRANCH  12  13
ENDBRANCH  11  12
ENDBRANCH   9  11
ENDBRANCH   1   9
BRANCH   6  18
HETATM   18  N4  UNL     1      -4.214   1.994   0.507  1.00  0.00    -0.234 N 
ATOM     19  H42 UNL     1      -5.176   2.215   0.766  1.00  0.00     0.174 HD
ATOM     20  H41 UNL     1      -3.593   2.758   0.241  1.00  0.00     0.174 HD
ENDBRANCH   6  18
TORSDOF 7
