REMARK  3 active torsions:
REMARK  status: ('A' for Active; 'I' for Inactive)
REMARK    1  A    between atoms: S1_3  and  C2_4 
REMARK    2  A    between atoms: C2_4  and  C3_5 
REMARK    3  A    between atoms: C3_5  and  C4_6 
ROOT
HETATM    1  N1  UNL     1       5.051   1.283   0.091  1.00  0.00    -0.184 NA
HETATM    2  C1  UNL     1       4.493   0.300   0.333  1.00  0.00     0.133 C 
HETATM    3  S1  UNL     1       3.633  -1.221   0.694  1.00  0.00    -0.051 SA
ENDROOT
BRANCH   3   4
HETATM    4  C2  UNL     1       2.026  -1.108  -0.136  1.00  0.00     0.090 C 
BRANCH   4   5
HETATM    5  C3  UNL     1       1.190  -0.015   0.490  1.00  0.00     0.016 C 
BRANCH   5   6
HETATM    6  C4  UNL     1      -0.150   0.131  -0.150  1.00  0.00    -0.010 C 
HETATM    7  C5  UNL     1      -0.894   1.254   0.560  1.00  0.00     0.031 C 
HETATM    8  C6  UNL     1      -2.191   1.447  -0.196  1.00  0.00     0.168 C 
HETATM    9  O1  UNL     1      -2.424   0.487  -1.141  1.00  0.00    -0.391 OA
HETATM   10  C7  UNL     1      -2.319  -0.811  -0.718  1.00  0.00     0.168 C 
HETATM   11  C8  UNL     1      -1.013  -1.103   0.010  1.00  0.00     0.031 C 
ENDBRANCH   5   6
ENDBRANCH   4   5
ENDBRANCH   3   4
TORSDOF 3
