REMARK  2 active torsions:
REMARK  status: ('A' for Active; 'I' for Inactive)
REMARK    1  A    between atoms: N1_8  and  N2_9 
REMARK    2  A    between atoms: N2_9  and  O1_11 
ROOT
HETATM    1  C1  UNL     1       3.122   0.681   0.757  1.00  0.00     0.015 C 
HETATM    2  C2  UNL     1       2.237   0.524  -0.046  1.00  0.00    -0.080 C 
HETATM    3  C3  UNL     1       1.169   0.311  -1.032  1.00  0.00     0.243 C 
HETATM    4  S1  UNL     1       0.797  -1.484  -1.121  1.00  0.00    -0.130 SA
HETATM    5  C4  UNL     1      -0.415  -1.765   0.230  1.00  0.00     0.079 C 
HETATM    6  C5  UNL     1      -1.612  -0.914  -0.080  1.00  0.00     0.032 C 
HETATM    7  C6  UNL     1      -1.299   0.310  -0.877  1.00  0.00     0.148 C 
HETATM    8  N1  UNL     1      -0.038   0.929  -0.512  1.00  0.00    -0.282 N 
ENDROOT
BRANCH   8   9
HETATM    9  N2  UNL     1      -0.064   2.045   0.293  1.00  0.00    -0.210 N 
ATOM     10  H2  UNL     1       0.551   2.075   1.106  1.00  0.00     0.215 HD
BRANCH   9  11
HETATM   11  O1  UNL     1      -0.814   3.030   0.069  1.00  0.00    -0.275 OA
ATOM     12  H1  UNL     1      -0.832   3.800   0.625  1.00  0.00     0.246 HD
ENDBRANCH   9  11
ENDBRANCH   8   9
TORSDOF 2
