REMARK  6 active torsions:
REMARK  status: ('A' for Active; 'I' for Inactive)
REMARK    1  A    between atoms: C2_2  and  C3_3 
REMARK       I    between atoms: N2_8  and  C6_9 
REMARK       I    between atoms: C6_9  and  N3_11 
REMARK    2  A    between atoms: N3_11  and  C7_13 
REMARK    3  A    between atoms: C7_13  and  C8_14 
REMARK    4  A    between atoms: C9_15  and  C10_16 
REMARK    5  A    between atoms: C10_16  and  N4_17 
REMARK    6  A    between atoms: N4_17  and  C13_20 
ROOT
HETATM    1  C3  UNL     1       4.364   0.624  -0.513  1.00  0.00     0.035 A 
HETATM    2  C4  UNL     1       4.149  -0.579  -1.163  1.00  0.00     0.034 A 
HETATM    3  C5  UNL     1       4.982  -1.142  -2.250  1.00  0.00     0.070 C 
HETATM    4  N1  UNL     1       3.053  -1.121  -0.618  1.00  0.00    -0.291 N 
ATOM      5  H1  UNL     1       2.652  -2.016  -0.900  1.00  0.00     0.187 HD
HETATM    6  N2  UNL     1       2.555  -0.346   0.335  1.00  0.00    -0.168 N 
HETATM    7  C6  UNL     1       1.400  -0.590   1.136  1.00  0.00     0.345 C 
HETATM    8  O1  UNL     1       1.035   0.220   2.004  1.00  0.00    -0.245 OA
HETATM    9  N3  UNL     1       0.677  -1.784   0.916  1.00  0.00    -0.331 N 
ATOM     10  H3  UNL     1       0.975  -2.450   0.203  1.00  0.00     0.165 HD
HETATM   11  C15 UNL     1       3.355   0.743   0.416  1.00  0.00     0.278 A 
HETATM   12  O2  UNL     1       3.145   1.677   1.236  1.00  0.00    -0.265 OA
ENDROOT
BRANCH   9  13
HETATM   13  C7  UNL     1      -0.495  -2.042   1.725  1.00  0.00     0.219 C 
BRANCH  13  14
HETATM   14  C8  UNL     1      -1.481  -0.986   1.545  1.00  0.00    -0.085 C 
HETATM   15  C9  UNL     1      -2.324  -0.104   1.413  1.00  0.00    -0.077 C 
BRANCH  15  16
HETATM   16  C10 UNL     1      -3.345   0.935   1.275  1.00  0.00     0.330 C 
BRANCH  16  17
HETATM   17  N4  UNL     1      -4.110   0.677   0.063  1.00  0.00    -0.065 N 
HETATM   18  C11 UNL     1      -3.967  -0.716  -0.252  1.00  0.00     0.273 C 
HETATM   19  C12 UNL     1      -3.444   1.470  -0.984  1.00  0.00     0.273 C 
BRANCH  17  20
HETATM   20  C13 UNL     1      -5.473   1.104   0.176  1.00  0.00     0.233 C 
HETATM   21  C14 UNL     1      -6.461  -0.036   0.291  1.00  0.00     0.035 C 
ENDBRANCH  17  20
ENDBRANCH  16  17
ENDBRANCH  15  16
ENDBRANCH  13  14
ENDBRANCH   9  13
BRANCH   1  22
HETATM   22  C2  UNL     1       5.434   1.611  -0.726  1.00  0.00     0.042 C 
HETATM   23  C1  UNL     1       6.750   1.182  -0.129  1.00  0.00     0.010 C 
ENDBRANCH   1  22
TORSDOF 6
