REMARK  12 active torsions:
REMARK  status: ('A' for Active; 'I' for Inactive)
REMARK    1  A    between atoms: N1_1  and  N2_4 
REMARK    2  A    between atoms: N2_4  and  C1_6 
REMARK    3  A    between atoms: C4_11  and  N4_12 
REMARK    4  A    between atoms: N4_12  and  C5_14 
REMARK    5  A    between atoms: C8_17  and  C9_18 
REMARK    6  A    between atoms: C9_18  and  C10_19 
REMARK    7  A    between atoms: C10_19  and  N5_20 
REMARK    8  A    between atoms: N5_20  and  C11_22 
REMARK    9  A    between atoms: N6_25  and  C14_26 
REMARK   10  A    between atoms: C14_26  and  C15_27 
REMARK   11  A    between atoms: C15_27  and  C16_28 
REMARK   12  A    between atoms: C16_28  and  O1_29 
ROOT
HETATM    1  C5  UNL     1       3.279  -1.145   1.308  1.00  0.00     0.106 A 
HETATM    2  C6  UNL     1       2.467  -2.227   1.093  1.00  0.00     0.050 A 
HETATM    3  C7  UNL     1       1.158  -1.830   1.224  1.00  0.00     0.029 A 
HETATM    4  C8  UNL     1       1.191  -0.486   1.523  1.00  0.00     0.012 A 
HETATM    5  N8  UNL     1       2.461  -0.111   1.566  1.00  0.00    -0.346 N 
ATOM      6  H8  UNL     1       2.776   0.838   1.768  1.00  0.00     0.167 HD
ENDROOT
BRANCH   4   7
HETATM    7  C9  UNL     1      -0.017   0.344   1.748  1.00  0.00     0.076 C 
BRANCH   7   8
HETATM    8  C10 UNL     1      -0.432   0.912   0.414  1.00  0.00     0.127 C 
BRANCH   8   9
HETATM    9  N5  UNL     1      -1.596   1.741   0.486  1.00  0.00    -0.376 N 
ATOM     10  H5  UNL     1      -1.461   2.750   0.545  1.00  0.00     0.161 HD
BRANCH   9  11
HETATM   11  C11 UNL     1      -2.807   1.291   0.481  1.00  0.00     0.106 A 
HETATM   12  C12 UNL     1      -3.849   2.185   0.555  1.00  0.00     0.065 A 
HETATM   13  C13 UNL     1      -5.133   1.703   0.549  1.00  0.00     0.099 A 
HETATM   14  N6  UNL     1      -5.358   0.351   0.470  1.00  0.00    -0.310 N 
HETATM   15  C17 UNL     1      -4.359  -0.511   0.400  1.00  0.00     0.327 A 
HETATM   16  O2  UNL     1      -4.555  -1.734   0.333  1.00  0.00    -0.246 OA
HETATM   17  N7  UNL     1      -3.097  -0.016   0.407  1.00  0.00    -0.295 N 
ATOM     18  H7  UNL     1      -2.322  -0.677   0.353  1.00  0.00     0.172 HD
BRANCH  14  19
HETATM   19  C14 UNL     1      -6.745  -0.027   0.432  1.00  0.00     0.135 C 
BRANCH  19  20
HETATM   20  C15 UNL     1      -7.297   0.095  -0.937  1.00  0.00     0.046 C 
BRANCH  20  21
HETATM   21  C16 UNL     1      -6.749  -0.747  -2.017  1.00  0.00     0.165 C 
BRANCH  21  22
HETATM   22  O1  UNL     1      -6.965  -2.088  -1.782  1.00  0.00    -0.401 OA
ATOM     23  H1  UNL     1      -6.612  -2.630  -2.478  1.00  0.00     0.209 HD
ENDBRANCH  21  22
ENDBRANCH  20  21
ENDBRANCH  19  20
ENDBRANCH  14  19
ENDBRANCH   9  11
ENDBRANCH   8   9
ENDBRANCH   7   8
ENDBRANCH   4   7
BRANCH   1  24
HETATM   24  N4  UNL     1       4.678  -1.109   1.270  1.00  0.00    -0.328 N 
ATOM     25  H4  UNL     1       5.184  -1.569   2.027  1.00  0.00     0.169 HD
BRANCH  24  26
HETATM   26  C4  UNL     1       5.377  -0.534   0.344  1.00  0.00     0.123 A 
HETATM   27  C3  UNL     1       4.840   0.116  -0.723  1.00  0.00     0.067 A 
HETATM   28  C2  UNL     1       5.683   0.687  -1.640  1.00  0.00     0.110 A 
HETATM   29  N3  UNL     1       7.013   0.616  -1.504  1.00  0.00    -0.200 N 
HETATM   30  C1  UNL     1       7.547  -0.025  -0.451  1.00  0.00     0.697 A 
ATOM     31  H3  UNL     1       7.621   1.048  -2.200  1.00  0.00     0.183 HD
HETATM   32  N9  UNL     1       6.718  -0.587   0.452  1.00  0.00    -0.175 N 
ATOM     33  H9  UNL     1       7.124  -1.073   1.251  1.00  0.00     0.186 HD
BRANCH  30  34
HETATM   34  N2  UNL     1       8.826  -0.081  -0.340  1.00  0.00    -0.138 N 
ATOM     35  H2  UNL     1       9.244  -0.564   0.455  1.00  0.00     0.205 HD
BRANCH  34  36
HETATM   36  N1  UNL     1       9.645   0.513  -1.296  1.00  0.00    -0.331 N 
ATOM     37  H12 UNL     1       9.211   0.992  -2.085  1.00  0.00     0.177 HD
ATOM     38  H11 UNL     1      10.660   0.469  -1.208  1.00  0.00     0.177 HD
ENDBRANCH  34  36
ENDBRANCH  30  34
ENDBRANCH  24  26
ENDBRANCH   1  24
TORSDOF 12
