REMARK  7 active torsions:
REMARK  status: ('A' for Active; 'I' for Inactive)
REMARK       I    between atoms: C1_2  and  N2_4 
REMARK    1  A    between atoms: N2_4  and  C2_6 
REMARK    2  A    between atoms: C2_6  and  C3_7 
REMARK    3  A    between atoms: C3_7  and  N3_8 
REMARK    4  A    between atoms: N3_8  and  S1_10 
REMARK    5  A    between atoms: S1_10  and  N4_13 
REMARK    6  A    between atoms: N4_13  and  N5_15 
REMARK       I    between atoms: N5_15  and  C4_16 
REMARK    7  A    between atoms: C4_16  and  C5_18 
REMARK       I    between atoms: N6_23  and  C10_24 
ROOT
HETATM    1  N4  UNL     1       0.457  -1.355   1.041  1.00  0.00    -0.139 N 
ATOM      2  H4  UNL     1       0.331  -2.018   1.806  1.00  0.00     0.217 HD
ENDROOT
BRANCH   1   3
HETATM    3  S1  UNL     1       1.832  -1.447   0.050  1.00  0.00     0.342 S 
HETATM    4  O2  UNL     1       2.325  -2.886  -0.050  1.00  0.00    -0.180 OA
HETATM    5  O3  UNL     1       1.403  -1.007  -1.334  1.00  0.00    -0.180 OA
BRANCH   3   6
HETATM    6  N3  UNL     1       3.113  -0.535   0.694  1.00  0.00    -0.299 N 
ATOM      7  H3  UNL     1       3.107  -0.093   1.613  1.00  0.00     0.173 HD
BRANCH   6   8
HETATM    8  C3  UNL     1       4.204  -0.474  -0.236  1.00  0.00     0.153 C 
BRANCH   8   9
HETATM    9  C2  UNL     1       5.327   0.356   0.398  1.00  0.00     0.144 C 
BRANCH   9  10
HETATM   10  N2  UNL     1       6.448   0.528  -0.502  1.00  0.00    -0.344 N 
HETATM   11  C1  UNL     1       7.595   1.200  -0.153  1.00  0.00     0.328 C 
HETATM   12  N1  UNL     1       8.640   1.333  -1.174  1.00  0.00    -0.040 NA
HETATM   13  O1  UNL     1       7.862   1.714   0.930  1.00  0.00    -0.251 OA
ATOM     14  H2  UNL     1       6.383   0.132  -1.440  1.00  0.00     0.163 HD
ENDBRANCH   9  10
ENDBRANCH   8   9
ENDBRANCH   6   8
ENDBRANCH   3   6
ENDBRANCH   1   3
BRANCH   1  15
HETATM   15  N5  UNL     1      -0.458  -0.411   0.815  1.00  0.00    -0.269 NA
HETATM   16  C4  UNL     1      -1.330   0.562   0.593  1.00  0.00     0.353 C 
HETATM   17  O4  UNL     1      -1.037   1.794   0.445  1.00  0.00    -0.248 OA
BRANCH  16  18
HETATM   18  C5  UNL     1      -2.818   0.290   0.478  1.00  0.00     0.092 A 
HETATM   19  C6  UNL     1      -3.415  -0.941   0.651  1.00  0.00     0.040 A 
HETATM   20  C7  UNL     1      -4.755  -0.945   0.495  1.00  0.00     0.001 A 
HETATM   21  C8  UNL     1      -5.788  -1.910   0.559  1.00  0.00     0.032 A 
HETATM   22  C11 UNL     1      -5.390   0.210   0.194  1.00  0.00     0.095 A 
HETATM   23  C9  UNL     1      -6.989  -1.309   0.298  1.00  0.00     0.103 A 
HETATM   24  N6  UNL     1      -6.728  -0.015   0.077  1.00  0.00    -0.270 N 
HETATM   25  C10 UNL     1      -7.677   1.025  -0.220  1.00  0.00     0.340 C 
HETATM   26  N7  UNL     1      -7.216   2.340  -0.435  1.00  0.00    -0.039 NA
HETATM   27  O5  UNL     1      -8.904   0.770  -0.286  1.00  0.00    -0.250 OA
HETATM   28  S2  UNL     1      -4.081   1.336   0.132  1.00  0.00    -0.064 SA
ENDBRANCH  16  18
ENDBRANCH   1  15
TORSDOF 7
