REMARK  11 active torsions:
REMARK  status: ('A' for Active; 'I' for Inactive)
REMARK    1  A    between atoms: N1_1  and  C1_4 
REMARK    2  A    between atoms: C2_10  and  C3_11 
REMARK    3  A    between atoms: C4_16  and  C5_17 
REMARK    4  A    between atoms: C5_17  and  N6_18 
REMARK    5  A    between atoms: N6_18  and  O2_19 
REMARK    6  A    between atoms: N6_18  and  C6_21 
REMARK    7  A    between atoms: C11_26  and  N7_27 
REMARK    8  A    between atoms: N7_27  and  C12_29 
REMARK    9  A    between atoms: C14_33  and  C15_34 
REMARK   10  A    between atoms: C15_34  and  N9_35 
REMARK   11  A    between atoms: C15_34  and  C16_39 
REMARK       I    between atoms: C16_39  and  N10_41 
ROOT
HETATM    1  C6  UNL     1      -1.946   0.850  -0.420  1.00  0.00     0.083 A 
HETATM    2  C7  UNL     1      -2.559   2.062  -0.170  1.00  0.00     0.034 A 
HETATM    3  C8  UNL     1      -1.810   3.196   0.032  1.00  0.00     0.002 A 
HETATM    4  C9  UNL     1      -0.428   3.121  -0.015  1.00  0.00     0.002 A 
HETATM    5  C10 UNL     1       0.162   1.872  -0.272  1.00  0.00     0.031 A 
HETATM    6  C11 UNL     1      -0.578   0.730  -0.477  1.00  0.00     0.057 A 
ENDROOT
BRANCH   1   7
HETATM    7  N6  UNL     1      -2.778  -0.254  -0.586  1.00  0.00    -0.251 N 
BRANCH   7   8
HETATM    8  C5  UNL     1      -2.933  -1.383   0.289  1.00  0.00     0.242 C 
BRANCH   8   9
HETATM    9  C4  UNL     1      -4.348  -1.490   0.790  1.00  0.00     0.161 A 
HETATM   10  N5  UNL     1      -4.812  -2.472   1.581  1.00  0.00    -0.280 N 
HETATM   11  N4  UNL     1      -6.101  -2.227   1.812  1.00  0.00    -0.276 N 
ATOM     12  H5  UNL     1      -4.275  -3.262   1.939  1.00  0.00     0.189 HD
HETATM   13  C3  UNL     1      -6.452  -1.096   1.170  1.00  0.00     0.197 A 
ATOM     14  H4  UNL     1      -6.721  -2.802   2.382  1.00  0.00     0.189 HD
HETATM   15  O4  UNL     1      -5.351  -0.694   0.568  1.00  0.00    -0.274 OA
BRANCH  13  16
HETATM   16  C2  UNL     1      -7.771  -0.457   1.148  1.00  0.00     0.154 A 
HETATM   17  C1  UNL     1      -8.172   0.682   0.516  1.00  0.00     0.154 A 
HETATM   18  N2  UNL     1      -9.478   0.810   0.829  1.00  0.00    -0.224 N 
HETATM   19  O1  UNL     1      -9.869  -0.162   1.592  1.00  0.00    -0.155 OA
ATOM     20  H2  UNL     1     -10.078   1.570   0.508  1.00  0.00     0.198 HD
HETATM   21  N3  UNL     1      -8.848  -0.932   1.790  1.00  0.00    -0.234 N 
ATOM     22  H3  UNL     1      -8.861  -1.781   2.355  1.00  0.00     0.197 HD
BRANCH  17  23
HETATM   23  N1  UNL     1      -7.426   1.447  -0.217  1.00  0.00    -0.382 N 
ATOM     24  H12 UNL     1      -7.726   2.299  -0.690  1.00  0.00     0.157 HD
ATOM     25  H11 UNL     1      -6.439   1.350  -0.454  1.00  0.00     0.157 HD
ENDBRANCH  17  23
ENDBRANCH  13  16
ENDBRANCH   8   9
ENDBRANCH   7   8
BRANCH   7  26
HETATM   26  O2  UNL     1      -3.553  -0.274  -1.722  1.00  0.00    -0.287 OA
ATOM     27  H2  UNL     1      -3.451   0.473  -2.301  1.00  0.00     0.244 HD
ENDBRANCH   7  26
ENDBRANCH   1   7
BRANCH   6  28
HETATM   28  N7  UNL     1       0.005  -0.509  -0.754  1.00  0.00    -0.378 N 
ATOM     29  H7  UNL     1      -0.634  -1.287  -0.918  1.00  0.00     0.160 HD
BRANCH  28  30
HETATM   30  C12 UNL     1       1.431  -0.808  -0.834  1.00  0.00     0.129 C 
HETATM   31  C13 UNL     1       2.048  -0.025  -1.901  1.00  0.00     0.082 C 
HETATM   32  N8  UNL     1       3.233   0.349  -1.963  1.00  0.00    -0.385 N 
HETATM   33  C14 UNL     1       4.296   0.139  -1.060  1.00  0.00     0.182 C 
ATOM     34  H8  UNL     1       3.472   0.890  -2.794  1.00  0.00     0.160 HD
HETATM   35  S1  UNL     1       3.653  -0.001   0.618  1.00  0.00    -0.139 SA
HETATM   36  C18 UNL     1       1.985  -0.670   0.545  1.00  0.00     0.106 C 
BRANCH  33  37
HETATM   37  C15 UNL     1       5.199  -1.029  -1.420  1.00  0.00     0.307 C 
BRANCH  37  38
HETATM   38  N9  UNL     1       4.518  -2.291  -1.476  1.00  0.00    -0.064 N 
ATOM     39  H93 UNL     1       4.026  -2.473  -0.601  1.00  0.00     0.275 HD
ATOM     40  H92 UNL     1       3.722  -2.242  -2.113  1.00  0.00     0.275 HD
ATOM     41  H91 UNL     1       5.124  -3.075  -1.718  1.00  0.00     0.275 HD
ENDBRANCH  37  38
BRANCH  37  42
HETATM   42  C16 UNL     1       6.257  -1.092  -0.386  1.00  0.00     0.257 C 
HETATM   43  O3  UNL     1       6.424  -2.152   0.261  1.00  0.00    -0.271 OA
HETATM   44  N10 UNL     1       7.040   0.075  -0.180  1.00  0.00    -0.302 N 
HETATM   45  C17 UNL     1       7.471   0.339   0.992  1.00  0.00     0.203 C 
ATOM     46  H10 UNL     1       7.256   0.695  -0.960  1.00  0.00     0.171 HD
HETATM   47  N11 UNL     1       7.175  -0.515   2.073  1.00  0.00    -0.066 NA
HETATM   48  N12 UNL     1       8.251   1.499   1.201  1.00  0.00    -0.066 NA
ENDBRANCH  37  42
ENDBRANCH  33  37
ENDBRANCH  28  30
ENDBRANCH   6  28
TORSDOF 11
