REMARK  14 active torsions:
REMARK  status: ('A' for Active; 'I' for Inactive)
REMARK    1  A    between atoms: N1_1  and  C1_4 
REMARK    2  A    between atoms: C2_7  and  C3_8 
REMARK    3  A    between atoms: C3_8  and  N3_9 
REMARK    4  A    between atoms: C4_10  and  O1_11 
REMARK    5  A    between atoms: C5_13  and  C6_14 
REMARK    6  A    between atoms: N4_15  and  C7_17 
REMARK    7  A    between atoms: C7_17  and  C8_18 
REMARK    8  A    between atoms: C12_25  and  O2_26 
REMARK    9  A    between atoms: C13_28  and  O3_29 
REMARK   10  A    between atoms: C14_31  and  N6_32 
REMARK   11  A    between atoms: N6_32  and  C15_34 
REMARK   12  A    between atoms: C17_38  and  C18_39 
REMARK   13  A    between atoms: C18_39  and  O4_40 
REMARK   14  A    between atoms: O4_40  and  N8_41 
ROOT
HETATM    1  N3  UNL     1      -1.201  -0.368   0.496  1.00  0.00    -0.305 N 
HETATM    2  C4  UNL     1       0.014  -0.542   1.047  1.00  0.00     0.159 A 
HETATM    3  C5  UNL     1       1.193  -0.333   0.367  1.00  0.00     0.066 A 
HETATM    4  C12 UNL     1       1.105   0.078  -0.956  1.00  0.00     0.118 A 
HETATM    5  C13 UNL     1      -0.142   0.257  -1.519  1.00  0.00     0.144 A 
HETATM    6  C14 UNL     1      -1.301   0.041  -0.813  1.00  0.00     0.144 A 
ENDROOT
BRANCH   6   7
HETATM    7  N6  UNL     1      -2.438   0.240  -1.309  1.00  0.00    -0.346 N 
ATOM      8  H6  UNL     1      -3.198   0.066  -0.651  1.00  0.00     0.163 HD
BRANCH   7   9
HETATM    9  C15 UNL     1      -2.886   0.650  -2.574  1.00  0.00     0.248 C 
HETATM   10  C16 UNL     1      -2.917   2.145  -2.796  1.00  0.00     0.175 C 
HETATM   11  N7  UNL     1      -4.245   2.478  -2.305  1.00  0.00    -0.368 N 
HETATM   12  C17 UNL     1      -4.997   1.456  -2.268  1.00  0.00     0.143 C 
ATOM     13  H7  UNL     1      -4.536   3.415  -2.026  1.00  0.00     0.161 HD
HETATM   14  O7  UNL     1      -4.294   0.356  -2.712  1.00  0.00    -0.310 OA
BRANCH  12  15
HETATM   15  C18 UNL     1      -6.424   1.492  -1.804  1.00  0.00     0.291 C 
BRANCH  15  16
HETATM   16  O4  UNL     1      -6.599   0.640  -0.688  1.00  0.00    -0.213 OA
BRANCH  16  17
HETATM   17  N8  UNL     1      -7.785   0.473  -0.059  1.00  0.00     0.005 N 
HETATM   18  O5  UNL     1      -8.518   1.443   0.201  1.00  0.00    -0.511 OA
HETATM   19  O6  UNL     1      -8.200  -0.782   0.305  1.00  0.00    -0.511 OA
ENDBRANCH  16  17
ENDBRANCH  15  16
ENDBRANCH  12  15
ENDBRANCH   7   9
ENDBRANCH   6   7
BRANCH   1  20
HETATM   20  C3  UNL     1      -2.402  -0.574   1.235  1.00  0.00     0.190 C 
BRANCH  20  21
HETATM   21  C2  UNL     1      -2.855  -2.032   1.208  1.00  0.00     0.036 A 
HETATM   22  N2  UNL     1      -2.532  -2.845   2.198  1.00  0.00    -0.339 N 
HETATM   23  C1  UNL     1      -2.941  -4.111   2.146  1.00  0.00     0.142 A 
ATOM     24  H2  UNL     1      -1.980  -2.509   2.987  1.00  0.00     0.168 HD
HETATM   25  S1  UNL     1      -3.801  -4.189   0.690  1.00  0.00    -0.064 SA
HETATM   26  C19 UNL     1      -3.599  -2.563   0.192  1.00  0.00     0.080 A 
BRANCH  23  27
HETATM   27  N1  UNL     1      -2.730  -5.072   3.016  1.00  0.00    -0.380 N 
ATOM     28  H12 UNL     1      -2.212  -5.025   3.893  1.00  0.00     0.158 HD
ATOM     29  H11 UNL     1      -3.043  -6.042   2.976  1.00  0.00     0.158 HD
ENDBRANCH  23  27
ENDBRANCH  20  21
ENDBRANCH   1  20
BRANCH   5  30
HETATM   30  O3  UNL     1      -0.192   0.672  -2.852  1.00  0.00    -0.355 OA
ATOM     31  H3  UNL     1      -1.051   0.795  -3.240  1.00  0.00     0.218 HD
ENDBRANCH   5  30
BRANCH   2  32
HETATM   32  O1  UNL     1       0.162  -0.949   2.370  1.00  0.00    -0.345 OA
ATOM     33  H1  UNL     1       1.020  -1.072   2.759  1.00  0.00     0.219 HD
ENDBRANCH   2  32
BRANCH   4  34
HETATM   34  O2  UNL     1       2.296   0.284  -1.632  1.00  0.00    -0.357 OA
ATOM     35  H2  UNL     1       2.236   0.565  -2.537  1.00  0.00     0.217 HD
ENDBRANCH   4  34
BRANCH   3  36
HETATM   36  C6  UNL     1       2.509  -0.522   0.963  1.00  0.00     0.101 C 
HETATM   37  N4  UNL     1       3.583  -0.322   0.311  1.00  0.00    -0.397 N 
ATOM     38  H4  UNL     1       3.543  -0.019  -0.662  1.00  0.00     0.158 HD
BRANCH  37  39
HETATM   39  C7  UNL     1       4.860  -0.526   0.956  1.00  0.00     0.125 C 
BRANCH  39  40
HETATM   40  C8  UNL     1       5.463   0.819   1.375  1.00  0.00     0.030 C 
HETATM   41  C9  UNL     1       5.665   1.695   0.169  1.00  0.00     0.035 C 
HETATM   42  C10 UNL     1       7.100   1.488  -0.245  1.00  0.00     0.232 C 
HETATM   43  N5  UNL     1       7.626   0.430   0.598  1.00  0.00    -0.075 N 
HETATM   44  C11 UNL     1       6.878   0.574   1.849  1.00  0.00     0.238 C 
ATOM     45  H52 UNL     1       7.577  -0.501   0.184  1.00  0.00     0.277 HD
ATOM     46  H51 UNL     1       8.640   0.447   0.710  1.00  0.00     0.277 HD
ENDBRANCH  39  40
ENDBRANCH  37  39
ENDBRANCH   3  36
TORSDOF 14
