REMARK  11 active torsions:
REMARK  status: ('A' for Active; 'I' for Inactive)
REMARK    1  A    between atoms: O1_2  and  C2_3 
REMARK    2  A    between atoms: C2_3  and  C3_5 
REMARK    3  A    between atoms: C3_5  and  N1_6 
REMARK    4  A    between atoms: C3_5  and  C15_31 
REMARK    5  A    between atoms: N1_6  and  C4_8 
REMARK    6  A    between atoms: C7_11  and  C8_12 
REMARK    7  A    between atoms: C8_12  and  N4_17 
REMARK       I    between atoms: N4_17  and  C10_19 
REMARK       I    between atoms: C10_19  and  N5_21 
REMARK    8  A    between atoms: N5_21  and  N6_23 
REMARK    9  A    between atoms: C11_25  and  C12_26 
REMARK   10  A    between atoms: N10_36  and  C16_37 
REMARK   11  A    between atoms: C17_43  and  N13_44 
ROOT
HETATM    1  C8  UNL     1       3.187  -3.167  -1.727  1.00  0.00     0.128 C 
HETATM    2  N2  UNL     1       3.188  -4.284  -2.419  1.00  0.00    -0.279 N 
ATOM      3  H2  UNL     1       4.006  -4.532  -2.975  1.00  0.00     0.179 HD
HETATM    4  C9  UNL     1       2.082  -5.135  -2.402  1.00  0.00     0.183 C 
HETATM    5  N3  UNL     1       1.162  -5.822  -2.379  1.00  0.00    -0.172 NA
ENDROOT
BRANCH   1   6
HETATM    6  C7  UNL     1       2.027  -2.802  -0.932  1.00  0.00     0.009 A 
HETATM    7  C6  UNL     1       0.954  -2.121  -1.470  1.00  0.00     0.017 A 
HETATM    8  C5  UNL     1      -0.166  -1.791  -0.703  1.00  0.00     0.030 A 
HETATM    9  C4  UNL     1      -0.274  -2.118   0.623  1.00  0.00     0.029 A 
HETATM   10  C14 UNL     1       0.823  -2.810   1.154  1.00  0.00     0.030 A 
HETATM   11  C13 UNL     1       1.930  -3.141   0.411  1.00  0.00     0.017 A 
BRANCH   9  12
HETATM   12  N1  UNL     1      -1.371  -1.818   1.459  1.00  0.00    -0.370 N 
ATOM     13  H1  UNL     1      -1.269  -2.114   2.430  1.00  0.00     0.161 HD
BRANCH  12  14
HETATM   14  C3  UNL     1      -2.591  -1.168   1.154  1.00  0.00     0.253 C 
BRANCH  14  15
HETATM   15  C2  UNL     1      -3.392  -1.828   0.093  1.00  0.00     0.289 C 
HETATM   16  O2  UNL     1      -3.023  -2.923  -0.404  1.00  0.00    -0.262 OA
BRANCH  15  17
HETATM   17  O1  UNL     1      -4.561  -1.295  -0.398  1.00  0.00    -0.325 OA
HETATM   18  C1  UNL     1      -5.344  -1.920  -1.418  1.00  0.00     0.213 C 
ENDBRANCH  15  17
ENDBRANCH  14  15
BRANCH  14  19
HETATM   19  C15 UNL     1      -2.568   0.284   0.978  1.00  0.00     0.146 A 
HETATM   20  N8  UNL     1      -1.662   1.038   0.379  1.00  0.00    -0.269 N 
HETATM   21  N9  UNL     1      -2.012   2.278   0.442  1.00  0.00    -0.218 N 
ATOM     22  H8  UNL     1      -0.813   0.691  -0.067  1.00  0.00     0.190 HD
HETATM   23  N10 UNL     1      -3.160   2.383   1.084  1.00  0.00    -0.158 N 
ATOM     24  H9  UNL     1      -1.482   3.059   0.054  1.00  0.00     0.210 HD
HETATM   25  N14 UNL     1      -3.519   1.159   1.423  1.00  0.00    -0.261 N 
ATOM     26  H14 UNL     1      -4.366   0.908   1.933  1.00  0.00     0.190 HD
BRANCH  23  27
HETATM   27  C16 UNL     1      -3.850   3.617   1.341  1.00  0.00     0.214 A 
HETATM   28  N11 UNL     1      -5.182   3.839   1.326  1.00  0.00    -0.219 N 
HETATM   29  O4  UNL     1      -5.428   5.091   1.609  1.00  0.00    -0.153 OA
ATOM     30  H11 UNL     1      -5.891   3.134   1.124  1.00  0.00     0.198 HD
HETATM   31  N12 UNL     1      -4.317   5.728   1.816  1.00  0.00    -0.222 N 
HETATM   32  C17 UNL     1      -3.299   4.839   1.658  1.00  0.00     0.171 A 
ATOM     33  H12 UNL     1      -4.224   6.715   2.054  1.00  0.00     0.198 HD
BRANCH  32  34
HETATM   34  N13 UNL     1      -2.021   5.086   1.783  1.00  0.00    -0.381 N 
ATOM     35 2H13 UNL     1      -1.258   4.420   1.665  1.00  0.00     0.157 HD
ATOM     36 1H13 UNL     1      -1.613   5.991   2.018  1.00  0.00     0.157 HD
ENDBRANCH  32  34
ENDBRANCH  23  27
ENDBRANCH  14  19
ENDBRANCH  12  14
ENDBRANCH   9  12
ENDBRANCH   1   6
BRANCH   1  37
HETATM   37  N4  UNL     1       4.330  -2.346  -1.783  1.00  0.00    -0.292 N 
HETATM   38  C10 UNL     1       4.402  -1.132  -1.080  1.00  0.00     0.340 C 
HETATM   39  O3  UNL     1       3.461  -0.728  -0.383  1.00  0.00    -0.245 OA
HETATM   40  N5  UNL     1       5.568  -0.341  -1.156  1.00  0.00    -0.252 N 
ATOM     41  H5  UNL     1       6.354  -0.651  -1.728  1.00  0.00     0.191 HD
ATOM     42  H4  UNL     1       5.126  -2.641  -2.349  1.00  0.00     0.172 HD
BRANCH  40  43
HETATM   43  N6  UNL     1       5.653   0.849  -0.462  1.00  0.00    -0.305 N 
HETATM   44  C11 UNL     1       4.789   1.778  -0.632  1.00  0.00     0.145 C 
ATOM     45  H6  UNL     1       6.418   0.991   0.198  1.00  0.00     0.186 HD
BRANCH  44  46
HETATM   46  C12 UNL     1       4.897   3.027   0.111  1.00  0.00     0.129 C 
HETATM   47  N7  UNL     1       3.929   4.044  -0.093  1.00  0.00    -0.088 NA
HETATM   48  S1  UNL     1       6.125   3.218   1.157  1.00  0.00    -0.062 SA
ENDBRANCH  44  46
ENDBRANCH  40  43
ENDBRANCH   1  37
TORSDOF 11
