REMARK  10 active torsions:
REMARK  status: ('A' for Active; 'I' for Inactive)
REMARK    1  A    between atoms: C2_2  and  O1_3 
REMARK    2  A    between atoms: C2_2  and  C3_5 
REMARK       I    between atoms: C3_5  and  N1_7 
REMARK       I    between atoms: C4_9  and  N2_10 
REMARK       I    between atoms: C4_9  and  N5_28 
REMARK    3  A    between atoms: N2_10  and  C5_12 
REMARK    4  A    between atoms: C5_12  and  C6_13 
REMARK    5  A    between atoms: C6_13  and  C7_14 
REMARK    6  A    between atoms: C7_14  and  C8_15 
REMARK    7  A    between atoms: C8_15  and  C9_16 
REMARK    8  A    between atoms: C10_18  and  C11_19 
REMARK    9  A    between atoms: C12_25  and  C13_26 
REMARK   10  A    between atoms: N5_28  and  C15_30 
ROOT
HETATM    1  C3  UNL     1      -1.318   2.339  -1.812  1.00  0.00     0.291 C 
HETATM    2  O2  UNL     1      -0.662   2.545  -2.897  1.00  0.00    -0.265 OA
HETATM    3  N1  UNL     1      -2.384   1.474  -1.752  1.00  0.00    -0.154 N 
ATOM      4  H1  UNL     1      -3.257   1.983  -1.617  1.00  0.00     0.187 HD
HETATM    5  C4  UNL     1      -2.590   0.254  -1.815  1.00  0.00     0.677 C 
HETATM    6  N2  UNL     1      -1.624  -0.747  -1.990  1.00  0.00    -0.226 N 
ATOM      7  H2  UNL     1      -1.889  -1.546  -2.566  1.00  0.00     0.177 HD
HETATM    8  N5  UNL     1      -3.976  -0.156  -1.755  1.00  0.00    -0.222 N 
ATOM      9  H5  UNL     1      -4.615   0.240  -2.444  1.00  0.00     0.178 HD
ENDROOT
BRANCH   6  10
HETATM   10  C5  UNL     1      -0.294  -0.760  -1.437  1.00  0.00     0.138 C 
BRANCH  10  11
HETATM   11  C6  UNL     1      -0.351  -0.939   0.053  1.00  0.00     0.020 C 
BRANCH  11  12
HETATM   12  C7  UNL     1       1.005  -0.960   0.721  1.00  0.00     0.003 C 
BRANCH  12  13
HETATM   13  C8  UNL     1       1.707   0.328   0.474  1.00  0.00     0.017 C 
BRANCH  13  14
HETATM   14  C9  UNL     1       3.073   0.385   1.122  1.00  0.00     0.080 C 
HETATM   15  S1  UNL     1       4.157  -0.942   0.488  1.00  0.00    -0.120 SA
HETATM   16  C10 UNL     1       5.270   0.147  -0.495  1.00  0.00     0.336 C 
HETATM   17  N4  UNL     1       4.425   1.309  -0.603  1.00  0.00    -0.049 N 
HETATM   18  C12 UNL     1       3.858   1.593   0.690  1.00  0.00     0.201 C 
ATOM     19  H42 UNL     1       4.915   2.112  -0.998  1.00  0.00     0.279 HD
ATOM     20  H41 UNL     1       3.713   1.207  -1.327  1.00  0.00     0.279 HD
BRANCH  16  21
HETATM   21  C11 UNL     1       5.557  -0.429  -1.802  1.00  0.00     0.272 C 
HETATM   22  N3  UNL     1       6.371  -1.577  -1.919  1.00  0.00    -0.059 NA
HETATM   23  O3  UNL     1       5.082   0.092  -2.835  1.00  0.00    -0.274 OA
ENDBRANCH  16  21
BRANCH  18  24
HETATM   24  C13 UNL     1       4.858   2.045   1.703  1.00  0.00     0.030 C 
HETATM   25  C14 UNL     1       4.119   2.396   2.977  1.00  0.00     0.007 C 
ENDBRANCH  18  24
ENDBRANCH  13  14
ENDBRANCH  12  13
ENDBRANCH  11  12
ENDBRANCH  10  11
ENDBRANCH   6  10
BRANCH   8  26
HETATM   26  C15 UNL     1      -4.511  -1.061  -0.817  1.00  0.00     0.099 C 
HETATM   27  C16 UNL     1      -4.321  -0.583   0.624  1.00  0.00     0.026 C 
HETATM   28  C17 UNL     1      -5.310  -1.399   1.443  1.00  0.00     0.002 C 
HETATM   29  C18 UNL     1      -4.983  -2.876   1.363  1.00  0.00     0.000 C 
HETATM   30  C19 UNL     1      -4.869  -3.364  -0.054  1.00  0.00     0.002 C 
HETATM   31  C20 UNL     1      -4.005  -2.464  -0.913  1.00  0.00     0.026 C 
ENDBRANCH   8  26
BRANCH   1  32
HETATM   32  C2  UNL     1      -0.887   3.070  -0.623  1.00  0.00     0.125 C 
HETATM   33  C1  UNL     1      -1.499   2.939   0.541  1.00  0.00     0.056 C 
BRANCH  32  34
HETATM   34  O1  UNL     1       0.198   3.928  -0.717  1.00  0.00    -0.356 OA
ATOM     35  H1  UNL     1       0.638   4.022  -1.554  1.00  0.00     0.218 HD
ENDBRANCH  32  34
ENDBRANCH   1  32
TORSDOF 10
