REMARK  9 active torsions:
REMARK  status: ('A' for Active; 'I' for Inactive)
REMARK       I    between atoms: C1_4  and  N2_5 
REMARK       I    between atoms: C1_4  and  N4_18 
REMARK    1  A    between atoms: N2_5  and  C2_7 
REMARK    2  A    between atoms: C2_7  and  C3_8 
REMARK    3  A    between atoms: C3_8  and  C4_9 
REMARK    4  A    between atoms: C4_9  and  C5_10 
REMARK    5  A    between atoms: C5_10  and  C6_11 
REMARK    6  A    between atoms: C6_11  and  C7_12 
REMARK    7  A    between atoms: C7_12  and  N3_13 
REMARK    8  A    between atoms: N4_18  and  S1_20 
REMARK    9  A    between atoms: S1_20  and  N5_23 
REMARK       I    between atoms: N5_23  and  C12_25 
REMARK       I    between atoms: C12_25  and  N6_27 
ROOT
HETATM    1  N1  UNL     1      -1.957   0.560   0.202  1.00  0.00    -0.234 N 
ATOM      2  H11 UNL     1      -2.970   0.683   0.195  1.00  0.00     0.174 HD
ATOM      3  H12 UNL     1      -1.358   1.336   0.485  1.00  0.00     0.174 HD
HETATM    4  C1  UNL     1      -1.439  -0.554  -0.145  1.00  0.00     0.682 C 
HETATM    5  N2  UNL     1      -0.037  -0.724  -0.136  1.00  0.00    -0.226 N 
ATOM      6  H2  UNL     1       0.349  -1.521  -0.642  1.00  0.00     0.177 HD
HETATM    7  N4  UNL     1      -2.269  -1.630  -0.537  1.00  0.00    -0.100 N 
ATOM      8  H4  UNL     1      -2.128  -2.065  -1.449  1.00  0.00     0.199 HD
ENDROOT
BRANCH   5   9
HETATM    9  C2  UNL     1       0.878   0.147   0.535  1.00  0.00     0.138 C 
BRANCH   9  10
HETATM   10  C3  UNL     1       2.345  -0.284   0.348  1.00  0.00     0.020 C 
BRANCH  10  11
HETATM   11  C4  UNL     1       2.738  -0.261  -1.078  1.00  0.00     0.002 C 
BRANCH  11  12
HETATM   12  C5  UNL     1       4.054  -0.746  -1.465  1.00  0.00     0.002 C 
BRANCH  12  13
HETATM   13  C6  UNL     1       5.327  -0.203  -0.984  1.00  0.00     0.030 C 
BRANCH  13  14
HETATM   14  C7  UNL     1       5.620  -0.376   0.446  1.00  0.00     0.272 C 
BRANCH  14  15
HETATM   15  N3  UNL     1       6.920   0.154   0.837  1.00  0.00     0.088 N 
HETATM   16  C8  UNL     1       8.027  -0.565   0.305  1.00  0.00     0.272 C 
HETATM   17  C9  UNL     1       9.213   0.266   0.744  1.00  0.00     0.032 C 
HETATM   18  C10 UNL     1       8.653   1.663   0.758  1.00  0.00     0.032 C 
HETATM   19  C11 UNL     1       7.141   1.517   0.526  1.00  0.00     0.272 C 
ENDBRANCH  14  15
ENDBRANCH  13  14
ENDBRANCH  12  13
ENDBRANCH  11  12
ENDBRANCH  10  11
ENDBRANCH   9  10
ENDBRANCH   5   9
BRANCH   7  20
HETATM   20  S1  UNL     1      -3.499  -2.212   0.486  1.00  0.00     0.340 S 
HETATM   21  O1  UNL     1      -3.616  -3.728   0.420  1.00  0.00    -0.182 OA
HETATM   22  O2  UNL     1      -3.226  -1.881   1.928  1.00  0.00    -0.182 OA
BRANCH  20  23
HETATM   23  N5  UNL     1      -5.030  -1.580  -0.030  1.00  0.00    -0.218 N 
HETATM   24  C12 UNL     1      -5.808  -0.794   0.835  1.00  0.00     0.333 C 
HETATM   25  O3  UNL     1      -5.407  -0.523   1.996  1.00  0.00    -0.246 OA
HETATM   26  N6  UNL     1      -7.063  -0.290   0.417  1.00  0.00    -0.333 N 
HETATM   27  C13 UNL     1      -7.862   0.539   1.316  1.00  0.00     0.127 C 
HETATM   28  C17 UNL     1      -7.652  -0.554  -0.877  1.00  0.00     0.127 C 
HETATM   29  C14 UNL     1      -8.233   1.805   0.622  1.00  0.00     0.020 C 
HETATM   30  C15 UNL     1      -8.697   1.639  -0.788  1.00  0.00     0.003 C 
HETATM   31  C16 UNL     1      -7.731   0.781  -1.607  1.00  0.00     0.020 C 
ATOM     32  H5  UNL     1      -5.368  -1.781  -0.971  1.00  0.00     0.185 HD
ENDBRANCH  20  23
ENDBRANCH   7  20
TORSDOF 9
