REMARK  10 active torsions:
REMARK  status: ('A' for Active; 'I' for Inactive)
REMARK    1  A    between atoms: O1_2  and  C2_3 
REMARK    2  A    between atoms: C5_6  and  C6_7 
REMARK    3  A    between atoms: C6_7  and  C7_8 
REMARK    4  A    between atoms: C7_8  and  N1_9 
REMARK       I    between atoms: C8_11  and  N3_13 
REMARK    5  A    between atoms: N3_13  and  C9_15 
REMARK    6  A    between atoms: C9_15  and  C10_16 
REMARK    7  A    between atoms: C10_16  and  C11_17 
REMARK    8  A    between atoms: C11_17  and  S1_18 
REMARK    9  A    between atoms: S1_18  and  C12_19 
REMARK   10  A    between atoms: C14_21  and  N4_22 
ROOT
HETATM    1  N1  UNL     1       2.655   0.420  -0.798  1.00  0.00    -0.364 N 
ATOM      2  H1  UNL     1       3.315   0.863  -1.438  1.00  0.00     0.162 HD
HETATM    3  C8  UNL     1       1.523   0.977  -0.539  1.00  0.00     0.183 C 
HETATM    4  N2  UNL     1       1.227   2.213  -1.164  1.00  0.00    -0.064 NA
HETATM    5  N3  UNL     1       0.571   0.408   0.341  1.00  0.00    -0.365 N 
ATOM      6  H3  UNL     1       0.857  -0.418   0.866  1.00  0.00     0.162 HD
ENDROOT
BRANCH   5   7
HETATM    7  C9  UNL     1      -0.754   0.890   0.557  1.00  0.00     0.123 C 
BRANCH   7   8
HETATM    8  C10 UNL     1      -1.494   0.021   1.549  1.00  0.00     0.030 C 
BRANCH   8   9
HETATM    9  C11 UNL     1      -1.606  -1.397   1.039  1.00  0.00     0.082 C 
BRANCH   9  10
HETATM   10  S1  UNL     1      -2.526  -1.455  -0.526  1.00  0.00    -0.112 SA
BRANCH  10  11
HETATM   11  C12 UNL     1      -4.256  -1.021  -0.245  1.00  0.00     0.072 A 
HETATM   12  C13 UNL     1      -5.178  -2.019   0.053  1.00  0.00     0.066 A 
HETATM   13  C14 UNL     1      -6.508  -1.738   0.278  1.00  0.00     0.036 A 
HETATM   14  C15 UNL     1      -6.869  -0.410   0.192  1.00  0.00    -0.009 A 
HETATM   15  C16 UNL     1      -5.941   0.565  -0.104  1.00  0.00     0.018 A 
HETATM   16  C19 UNL     1      -8.212   0.211   0.380  1.00  0.00     0.043 C 
HETATM   17  N5  UNL     1      -4.660   0.238  -0.315  1.00  0.00    -0.354 N 
HETATM   18  C17 UNL     1      -6.629   1.879  -0.124  1.00  0.00     0.058 C 
ATOM     19  H5  UNL     1      -3.984   0.970  -0.533  1.00  0.00     0.166 HD
HETATM   20  C18 UNL     1      -8.060   1.489  -0.417  1.00  0.00     0.011 C 
BRANCH  13  21
HETATM   21  N4  UNL     1      -7.360  -2.671   0.554  1.00  0.00    -0.399 N 
ATOM     22  H42 UNL     1      -7.093  -3.653   0.618  1.00  0.00     0.156 HD
ATOM     23  H41 UNL     1      -8.345  -2.463   0.721  1.00  0.00     0.156 HD
ENDBRANCH  13  21
ENDBRANCH  10  11
ENDBRANCH   9  10
ENDBRANCH   8   9
ENDBRANCH   7   8
ENDBRANCH   5   7
BRANCH   1  24
HETATM   24  C7  UNL     1       2.979  -0.844  -0.169  1.00  0.00     0.128 C 
BRANCH  24  25
HETATM   25  C6  UNL     1       4.236  -1.467  -0.633  1.00  0.00     0.076 C 
BRANCH  25  26
HETATM   26  C5  UNL     1       5.478  -0.736  -0.416  1.00  0.00     0.010 A 
HETATM   27  C4  UNL     1       5.540   0.401   0.221  1.00  0.00     0.028 A 
HETATM   28  C3  UNL     1       6.831   1.110   0.416  1.00  0.00     0.040 A 
HETATM   29  C2  UNL     1       7.935   0.567  -0.071  1.00  0.00     0.083 A 
HETATM   30  C20 UNL     1       7.822  -0.709  -0.778  1.00  0.00     0.124 A 
HETATM   31  N6  UNL     1       6.688  -1.304  -0.934  1.00  0.00    -0.366 N 
ATOM     32  H6  UNL     1       6.652  -2.192  -1.434  1.00  0.00     0.165 HD
BRANCH  29  33
HETATM   33  O1  UNL     1       9.191   1.175   0.073  1.00  0.00    -0.355 OA
HETATM   34  C1  UNL     1      10.230   0.352   0.590  1.00  0.00     0.210 C 
ENDBRANCH  29  33
ENDBRANCH  25  26
ENDBRANCH  24  25
ENDBRANCH   1  24
TORSDOF 10
