REMARK  13 active torsions:
REMARK  status: ('A' for Active; 'I' for Inactive)
REMARK    1  A    between atoms: C2_2  and  N1_3 
REMARK    2  A    between atoms: C2_2  and  C3_7 
REMARK    3  A    between atoms: C2_2  and  N2_17 
REMARK    4  A    between atoms: C4_8  and  C5_9 
REMARK    5  A    between atoms: C6_10  and  C7_11 
REMARK    6  A    between atoms: N2_17  and  C13_20 
REMARK    7  A    between atoms: C13_20  and  C14_21 
REMARK    8  A    between atoms: N3_25  and  S1_26 
REMARK    9  A    between atoms: S1_26  and  N4_27 
REMARK   10  A    between atoms: S1_26  and  C18_31 
REMARK   11  A    between atoms: C18_31  and  C19_32 
REMARK   12  A    between atoms: C19_32  and  C20_33 
REMARK   13  A    between atoms: C20_33  and  N5_34 
ROOT
HETATM    1  N2  UNL     1      -0.288   1.551  -0.052  1.00  0.00    -0.036 N 
ATOM      2  H21 UNL     1      -0.377   1.901  -1.006  1.00  0.00     0.280 HD
ATOM      3  H22 UNL     1      -0.416   2.420   0.467  1.00  0.00     0.280 HD
ENDROOT
BRANCH   1   4
HETATM    4  C2  UNL     1       1.047   1.023   0.169  1.00  0.00     0.299 C 
HETATM    5  C1  UNL     1       1.297   0.669   1.598  1.00  0.00     0.083 C 
BRANCH   4   6
HETATM    6  N1  UNL     1       1.940   2.143  -0.175  1.00  0.00    -0.041 N 
ATOM      7  H13 UNL     1       1.839   2.939   0.455  1.00  0.00     0.277 HD
ATOM      8  H12 UNL     1       2.921   1.942   0.019  1.00  0.00     0.277 HD
ATOM      9  H11 UNL     1       1.769   2.385  -1.151  1.00  0.00     0.277 HD
ENDBRANCH   4   6
BRANCH   4  10
HETATM   10  C3  UNL     1       1.336  -0.072  -0.754  1.00  0.00     0.041 C 
HETATM   11  C4  UNL     1       2.497  -0.647  -0.900  1.00  0.00    -0.000 C 
BRANCH  11  12
HETATM   12  C5  UNL     1       3.727  -0.337  -0.197  1.00  0.00    -0.004 C 
HETATM   13  C6  UNL     1       4.862  -0.978  -0.416  1.00  0.00    -0.022 C 
BRANCH  13  14
HETATM   14  C7  UNL     1       6.073  -0.602   0.343  1.00  0.00     0.012 C 
HETATM   15  C8  UNL     1       7.091   0.050  -0.567  1.00  0.00     0.035 C 
HETATM   16  C9  UNL     1       8.481  -0.129  -0.129  1.00  0.00    -0.030 C 
HETATM   17  C10 UNL     1       8.869  -1.307   0.359  1.00  0.00    -0.031 C 
HETATM   18  C11 UNL     1       7.803  -2.374   0.413  1.00  0.00     0.027 C 
HETATM   19  C12 UNL     1       6.643  -1.732   1.163  1.00  0.00     0.012 C 
ENDBRANCH  13  14
ENDBRANCH  11  12
ENDBRANCH   4  10
ENDBRANCH   1   4
BRANCH   1  20
HETATM   20  C13 UNL     1      -1.344   0.639   0.241  1.00  0.00     0.256 C 
BRANCH  20  21
HETATM   21  C14 UNL     1      -2.656   1.378  -0.062  1.00  0.00     0.098 C 
HETATM   22  C15 UNL     1      -2.676   2.590   0.843  1.00  0.00     0.023 C 
HETATM   23  C16 UNL     1      -3.928   2.497   1.654  1.00  0.00     0.017 C 
HETATM   24  C17 UNL     1      -4.768   1.478   0.868  1.00  0.00     0.106 C 
HETATM   25  N3  UNL     1      -3.786   0.603   0.338  1.00  0.00    -0.222 NA
BRANCH  25  26
HETATM   26  S1  UNL     1      -4.293  -0.543  -0.796  1.00  0.00     0.085 S 
HETATM   27  O1  UNL     1      -4.116  -1.912  -0.145  1.00  0.00    -0.234 OA
BRANCH  26  28
HETATM   28  N4  UNL     1      -3.291  -0.589  -2.018  1.00  0.00    -0.349 N 
ATOM     29  H42 UNL     1      -2.460  -0.003  -2.096  1.00  0.00     0.166 HD
ATOM     30  H41 UNL     1      -3.597  -1.281  -2.702  1.00  0.00     0.166 HD
ENDBRANCH  26  28
BRANCH  26  31
HETATM   31  C18 UNL     1      -5.881  -0.337  -1.471  1.00  0.00     0.135 C 
BRANCH  31  32
HETATM   32  C19 UNL     1      -7.030  -0.359  -0.542  1.00  0.00     0.042 C 
BRANCH  32  33
HETATM   33  C20 UNL     1      -7.169  -1.637   0.244  1.00  0.00     0.230 C 
BRANCH  33  34
HETATM   34  N5  UNL     1      -7.345  -2.791  -0.579  1.00  0.00    -0.079 N 
ATOM     35  H53 UNL     1      -8.135  -2.667  -1.212  1.00  0.00     0.274 HD
ATOM     36  H52 UNL     1      -6.592  -2.866  -1.263  1.00  0.00     0.274 HD
ATOM     37  H51 UNL     1      -7.439  -3.656  -0.047  1.00  0.00     0.274 HD
ENDBRANCH  33  34
ENDBRANCH  32  33
ENDBRANCH  31  32
ENDBRANCH  26  31
ENDBRANCH  25  26
ENDBRANCH  20  21
ENDBRANCH   1  20
TORSDOF 13
