REMARK  3 active torsions:
REMARK  status: ('A' for Active; 'I' for Inactive)
REMARK    1  A    between atoms: C2_2  and  O1_3 
REMARK    2  A    between atoms: O1_3  and  C3_4 
REMARK    3  A    between atoms: C5_6  and  N1_7 
ROOT
HETATM    1  C3  UNL     1      -0.293   0.239   0.120  1.00  0.00     0.160 A 
HETATM    2  C4  UNL     1      -1.323   1.282  -0.052  1.00  0.00     0.070 A 
HETATM    3  C5  UNL     1      -1.340   0.031  -0.909  1.00  0.00     0.215 A 
ENDROOT
BRANCH   3   4
HETATM    4  N1  UNL     1      -2.431  -0.861  -0.726  1.00  0.00    -0.072 N 
ATOM      5  H13 UNL     1      -2.044  -1.775  -0.493  1.00  0.00     0.274 HD
ATOM      6  H12 UNL     1      -2.901  -0.597   0.140  1.00  0.00     0.274 HD
ATOM      7  H11 UNL     1      -3.151  -1.004  -1.434  1.00  0.00     0.274 HD
ENDBRANCH   3   4
BRANCH   1   8
HETATM    8  O1  UNL     1       1.022   0.481  -0.347  1.00  0.00    -0.356 OA
BRANCH   8   9
HETATM    9  C2  UNL     1       2.042  -0.447  -0.223  1.00  0.00     0.125 C 
HETATM   10  C1  UNL     1       3.095  -0.135   0.533  1.00  0.00     0.037 C 
ENDBRANCH   8   9
ENDBRANCH   1   8
TORSDOF 3
