REMARK  3 active torsions:
REMARK  status: ('A' for Active; 'I' for Inactive)
REMARK    1  A    between atoms: C2_2  and  O1_3 
REMARK    2  A    between atoms: C5_7  and  O2_8 
REMARK    3  A    between atoms: C6_10  and  O3_11 
ROOT
HETATM    1  C1  UNL     1      -2.339   0.543  -0.547  1.00  0.00     0.046 C 
HETATM    2  C2  UNL     1      -1.151   0.172   0.355  1.00  0.00     0.058 C 
HETATM    3  C3  UNL     1      -0.781  -1.222   0.051  1.00  0.00     0.040 C 
HETATM    4  C4  UNL     1       0.645  -1.584   0.245  1.00  0.00     0.038 C 
HETATM    5  C5  UNL     1       1.521  -0.544  -0.405  1.00  0.00     0.167 C 
HETATM    6  C6  UNL     1       1.295   0.754   0.350  1.00  0.00     0.174 C 
HETATM    7  C7  UNL     1       2.174   1.776  -0.258  1.00  0.00     0.100 C 
HETATM    8  N1  UNL     1       2.846   2.589  -0.733  1.00  0.00    -0.194 NA
HETATM    9  C8  UNL     1      -0.108   1.200   0.167  1.00  0.00     0.093 C 
ENDROOT
BRANCH   6  10
HETATM   10  O3  UNL     1       1.664   0.553   1.658  1.00  0.00    -0.373 OA
ATOM     11  H3  UNL     1       1.523   1.365   2.130  1.00  0.00     0.212 HD
ENDBRANCH   6  10
BRANCH   5  12
HETATM   12  O2  UNL     1       1.128  -0.331  -1.712  1.00  0.00    -0.391 OA
ATOM     13  H2  UNL     1       1.680   0.325  -2.122  1.00  0.00     0.210 HD
ENDBRANCH   5  12
BRANCH   2  14
HETATM   14  O1  UNL     1      -1.657   0.265   1.671  1.00  0.00    -0.390 OA
ATOM     15  H1  UNL     1      -0.923   0.036   2.228  1.00  0.00     0.210 HD
ENDBRANCH   2  14
TORSDOF 3
