REMARK  3 active torsions:
REMARK  status: ('A' for Active; 'I' for Inactive)
REMARK    1  A    between atoms: C3_4  and  C4_5 
REMARK    2  A    between atoms: C4_5  and  O2_6 
REMARK    3  A    between atoms: C6_9  and  O3_10 
ROOT
HETATM    1  C1  UNL     1       2.304   0.185  -1.811  1.00  0.00     0.040 C 
HETATM    2  C2  UNL     1       1.357  -0.505  -0.931  1.00  0.00     0.125 C 
HETATM    3  O1  UNL     1       0.055  -0.586  -1.407  1.00  0.00    -0.372 OA
HETATM    4  C3  UNL     1      -0.814  -0.301  -0.383  1.00  0.00     0.088 C 
HETATM    5  C5  UNL     1      -0.778   1.199  -0.167  1.00  0.00     0.073 C 
HETATM    6  C6  UNL     1       0.641   1.418   0.374  1.00  0.00     0.128 C 
HETATM    7  C7  UNL     1       1.226   0.042   0.459  1.00  0.00     0.050 C 
HETATM    8  C8  UNL     1      -0.028  -0.773   0.821  1.00  0.00     0.027 C 
HETATM    9  C9  UNL     1      -0.604  -0.429   2.120  1.00  0.00     0.014 C 
ENDROOT
BRANCH   4  10
HETATM   10  C4  UNL     1      -2.167  -0.863  -0.496  1.00  0.00     0.202 C 
BRANCH  10  11
HETATM   11  O2  UNL     1      -2.134  -2.239  -0.556  1.00  0.00    -0.398 OA
ATOM     12  H2  UNL     1      -3.009  -2.602  -0.629  1.00  0.00     0.209 HD
ENDBRANCH  10  11
ENDBRANCH   4  10
BRANCH   6  13
HETATM   13  O3  UNL     1       0.624   2.087   1.585  1.00  0.00    -0.395 OA
ATOM     14  H3  UNL     1       1.503   2.223   1.920  1.00  0.00     0.210 HD
ENDBRANCH   6  13
TORSDOF 3
