REMARK  13 active torsions:
REMARK  status: ('A' for Active; 'I' for Inactive)
REMARK    1  A    between atoms: O1_2  and  N1_3 
REMARK    2  A    between atoms: N1_3  and  C2_5 
REMARK    3  A    between atoms: C3_8  and  N3_9 
REMARK    4  A    between atoms: C6_19  and  N6_20 
REMARK    5  A    between atoms: N6_20  and  C7_22 
REMARK    6  A    between atoms: C7_22  and  C8_23 
REMARK    7  A    between atoms: C8_23  and  N7_24 
REMARK    8  A    between atoms: N7_24  and  C9_27 
REMARK    9  A    between atoms: C9_27  and  C10_28 
REMARK   10  A    between atoms: C10_28  and  N8_29 
REMARK   11  A    between atoms: N8_29  and  C11_32 
REMARK   12  A    between atoms: C11_32  and  C12_33 
REMARK   13  A    between atoms: C12_33  and  O3_34 
ROOT
HETATM    1  C2  UNL     1      -5.132   0.685   0.561  1.00  0.00     0.170 A 
HETATM    2  N2  UNL     1      -6.292   0.026   0.718  1.00  0.00    -0.173 N 
ATOM      3  H2  UNL     1      -7.126   0.535   1.009  1.00  0.00     0.186 HD
HETATM    4  C3  UNL     1      -6.365  -1.299   0.495  1.00  0.00     0.678 A 
HETATM    5  N4  UNL     1      -5.255  -1.946   0.113  1.00  0.00    -0.184 N 
ATOM      6  H4  UNL     1      -5.315  -2.950  -0.055  1.00  0.00     0.184 HD
HETATM    7  C4  UNL     1      -4.060  -1.337  -0.062  1.00  0.00     0.148 A 
HETATM    8  C5  UNL     1      -2.925  -2.000  -0.453  1.00  0.00     0.289 A 
HETATM    9  O2  UNL     1      -2.963  -3.224  -0.666  1.00  0.00    -0.265 OA
HETATM   10  N5  UNL     1      -1.758  -1.352  -0.614  1.00  0.00    -0.154 N 
ATOM     11  H5  UNL     1      -0.925  -1.864  -0.905  1.00  0.00     0.187 HD
HETATM   12  C6  UNL     1      -1.691  -0.038  -0.393  1.00  0.00     0.681 A 
HETATM   13  N9  UNL     1      -2.800   0.646  -0.003  1.00  0.00    -0.185 N 
ATOM     14  H9  UNL     1      -2.739   1.650   0.165  1.00  0.00     0.184 HD
HETATM   15  C13 UNL     1      -3.973   0.017   0.163  1.00  0.00     0.128 A 
ENDROOT
BRANCH  12  16
HETATM   16  N6  UNL     1      -0.625   0.632  -0.526  1.00  0.00    -0.224 N 
ATOM     17  H6  UNL     1      -0.689   1.631  -0.329  1.00  0.00     0.177 HD
BRANCH  16  18
HETATM   18  C7  UNL     1       0.672   0.137  -0.926  1.00  0.00     0.165 C 
BRANCH  18  19
HETATM   19  C8  UNL     1       1.422  -0.210   0.338  1.00  0.00     0.252 C 
BRANCH  19  20
HETATM   20  N7  UNL     1       2.752  -0.721   0.108  1.00  0.00    -0.072 N 
ATOM     21  H72 UNL     1       3.154  -1.148   0.943  1.00  0.00     0.277 HD
ATOM     22  H71 UNL     1       2.753  -1.548  -0.489  1.00  0.00     0.277 HD
BRANCH  20  23
HETATM   23  C9  UNL     1       3.570   0.331  -0.415  1.00  0.00     0.259 C 
BRANCH  23  24
HETATM   24  C10 UNL     1       5.003  -0.109  -0.651  1.00  0.00     0.259 C 
BRANCH  24  25
HETATM   25  N8  UNL     1       5.642  -0.554   0.546  1.00  0.00    -0.072 N 
ATOM     26  H82 UNL     1       5.608   0.149   1.284  1.00  0.00     0.277 HD
ATOM     27  H81 UNL     1       5.110  -1.286   1.016  1.00  0.00     0.277 HD
BRANCH  25  28
HETATM   28  C11 UNL     1       6.990  -0.967   0.252  1.00  0.00     0.258 C 
BRANCH  28  29
HETATM   29  C12 UNL     1       7.865   0.200  -0.129  1.00  0.00     0.191 C 
BRANCH  29  30
HETATM   30  O3  UNL     1       9.160  -0.261  -0.398  1.00  0.00    -0.399 OA
ATOM     31  H3  UNL     1       9.711   0.474  -0.638  1.00  0.00     0.209 HD
ENDBRANCH  29  30
ENDBRANCH  28  29
ENDBRANCH  25  28
ENDBRANCH  24  25
ENDBRANCH  23  24
ENDBRANCH  20  23
ENDBRANCH  19  20
ENDBRANCH  18  19
ENDBRANCH  16  18
ENDBRANCH  12  16
BRANCH   1  32
HETATM   32  N1  UNL     1      -5.013   1.953   0.764  1.00  0.00    -0.248 N 
ATOM     33  H1  UNL     1      -4.114   2.417   0.635  1.00  0.00     0.196 HD
BRANCH  32  34
HETATM   34  O1  UNL     1      -6.127   2.674   1.160  1.00  0.00    -0.284 OA
HETATM   35  C1  UNL     1      -6.435   3.830   0.419  1.00  0.00     0.237 C 
ENDBRANCH  32  34
ENDBRANCH   1  32
BRANCH   4  36
HETATM   36  N3  UNL     1      -7.504  -1.927   0.652  1.00  0.00    -0.234 N 
ATOM     37  H32 UNL     1      -8.349  -1.435   0.943  1.00  0.00     0.174 HD
ATOM     38  H31 UNL     1      -7.559  -2.931   0.483  1.00  0.00     0.174 HD
ENDBRANCH   4  36
TORSDOF 13
