REMARK  13 active torsions:
REMARK  status: ('A' for Active; 'I' for Inactive)
REMARK    1  A    between atoms: N1_1  and  C1_4 
REMARK    2  A    between atoms: N3_8  and  C3_10 
REMARK    3  A    between atoms: C3_10  and  C4_11 
REMARK    4  A    between atoms: C4_11  and  C5_12 
REMARK    5  A    between atoms: C5_12  and  C6_13 
REMARK    6  A    between atoms: C6_13  and  N4_14 
REMARK    7  A    between atoms: N4_14  and  C7_16 
REMARK    8  A    between atoms: C7_16  and  C8_17 
REMARK    9  A    between atoms: C8_17  and  N5_18 
REMARK   10  A    between atoms: N7_26  and  C11_27 
REMARK   11  A    between atoms: C11_27  and  C12_28 
REMARK   12  A    between atoms: C13_31  and  N9_32 
REMARK   13  A    between atoms: N9_32  and  N10_33 
ROOT
HETATM    1  C1  UNL     1      -1.428  -2.642   0.946  1.00  0.00     0.678 A 
HETATM    2  N2  UNL     1      -0.423  -2.172   0.200  1.00  0.00    -0.175 N 
ATOM      3  H2  UNL     1       0.462  -2.679   0.213  1.00  0.00     0.186 HD
HETATM    4  C2  UNL     1      -0.511  -1.071  -0.566  1.00  0.00     0.146 A 
HETATM    5  N3  UNL     1       0.463  -0.623  -1.281  1.00  0.00    -0.374 N 
ATOM      6  H3  UNL     1       0.353   0.218  -1.847  1.00  0.00     0.161 HD
HETATM    7  C9  UNL     1      -1.740  -0.412  -0.549  1.00  0.00     0.110 A 
HETATM    8  N6  UNL     1      -1.940   0.688  -1.270  1.00  0.00    -0.347 N 
ATOM      9  H6  UNL     1      -1.181   1.056  -1.843  1.00  0.00     0.167 HD
HETATM   10  C10 UNL     1      -3.124   1.322  -1.257  1.00  0.00     0.186 A 
HETATM   11  N7  UNL     1      -4.158   0.887  -0.524  1.00  0.00    -0.306 N 
HETATM   12  C13 UNL     1      -4.041  -0.237   0.248  1.00  0.00     0.236 A 
HETATM   13  C14 UNL     1      -2.789  -0.871   0.207  1.00  0.00     0.140 A 
HETATM   14  N11 UNL     1      -2.612  -1.989   0.949  1.00  0.00    -0.185 N 
ATOM     15  H11 UNL     1      -3.381  -2.343   1.517  1.00  0.00     0.184 HD
ENDROOT
BRANCH   5  16
HETATM   16  C3  UNL     1       1.710  -1.341  -1.259  1.00  0.00     0.121 C 
BRANCH  16  17
HETATM   17  C4  UNL     1       2.759  -0.729  -2.132  1.00  0.00     0.021 C 
BRANCH  17  18
HETATM   18  C5  UNL     1       3.108   0.676  -1.757  1.00  0.00     0.021 C 
BRANCH  18  19
HETATM   19  C6  UNL     1       3.640   0.671  -0.308  1.00  0.00     0.113 C 
BRANCH  19  20
HETATM   20  N4  UNL     1       4.788  -0.156  -0.262  1.00  0.00    -0.420 N 
ATOM     21  H4  UNL     1       5.166  -0.559  -1.119  1.00  0.00     0.153 HD
BRANCH  20  22
HETATM   22  C7  UNL     1       5.407  -0.419   0.985  1.00  0.00     0.141 C 
BRANCH  22  23
HETATM   23  C8  UNL     1       6.100   0.718   1.667  1.00  0.00     0.248 C 
BRANCH  23  24
HETATM   24  N5  UNL     1       5.247   1.796   2.023  1.00  0.00    -0.078 N 
ATOM     25  H53 UNL     1       4.736   2.130   1.206  1.00  0.00     0.274 HD
ATOM     26  H52 UNL     1       4.469   1.461   2.591  1.00  0.00     0.274 HD
ATOM     27  H51 UNL     1       5.719   2.571   2.488  1.00  0.00     0.274 HD
ENDBRANCH  23  24
ENDBRANCH  22  23
ENDBRANCH  20  22
ENDBRANCH  19  20
ENDBRANCH  18  19
ENDBRANCH  17  18
ENDBRANCH  16  17
ENDBRANCH   5  16
BRANCH   1  28
HETATM   28  N1  UNL     1      -1.328  -3.714   1.683  1.00  0.00    -0.234 N 
ATOM     29  H12 UNL     1      -0.435  -4.207   1.681  1.00  0.00     0.174 HD
ATOM     30  H11 UNL     1      -2.095  -4.073   2.252  1.00  0.00     0.174 HD
ENDBRANCH   1  28
BRANCH  12  31
HETATM   31  N9  UNL     1      -4.933  -0.644   0.903  1.00  0.00    -0.312 NA
BRANCH  31  32
HETATM   32  N10 UNL     1      -5.788  -1.238   1.679  1.00  0.00    -0.278 N 
ATOM     33 2H10 UNL     1      -5.056  -1.920   1.880  1.00  0.00     0.191 HD
ATOM     34 1H10 UNL     1      -6.560  -1.590   2.246  1.00  0.00     0.191 HD
ENDBRANCH  31  32
ENDBRANCH  12  31
BRANCH  11  35
HETATM   35  C11 UNL     1      -5.408   1.584  -0.533  1.00  0.00     0.231 C 
BRANCH  35  36
HETATM   36  C12 UNL     1      -5.483   2.624   0.509  1.00  0.00     0.249 C 
HETATM   37  N8  UNL     1      -4.417   2.877   1.401  1.00  0.00    -0.061 NA
HETATM   38  O1  UNL     1      -6.531   3.333   0.631  1.00  0.00    -0.275 OA
ENDBRANCH  35  36
ENDBRANCH  11  35
TORSDOF 13
