REMARK  5 active torsions:
REMARK  status: ('A' for Active; 'I' for Inactive)
REMARK    1  A    between atoms: C2_2  and  C3_3 
REMARK    2  A    between atoms: C6_6  and  C7_7 
REMARK    3  A    between atoms: C10_10  and  N1_11 
REMARK    4  A    between atoms: N1_11  and  C11_13 
REMARK    5  A    between atoms: C11_13  and  C12_14 
ROOT
HETATM    1  C7  UNL     1       1.263  -0.090  -0.319  1.00  0.00    -0.026 A 
HETATM    2  C8  UNL     1       0.430  -0.720   0.553  1.00  0.00     0.014 A 
HETATM    3  C9  UNL     1      -0.952  -0.512   0.481  1.00  0.00     0.030 A 
HETATM    4  C10 UNL     1      -1.497   0.329  -0.464  1.00  0.00     0.028 A 
HETATM    5  C18 UNL     1      -0.653   0.967  -1.346  1.00  0.00     0.030 A 
HETATM    6  C19 UNL     1       0.724   0.759  -1.275  1.00  0.00     0.014 A 
ENDROOT
BRANCH   4   7
HETATM    7  N1  UNL     1      -2.921   0.548  -0.544  1.00  0.00    -0.386 N 
ATOM      8  H1  UNL     1      -3.285   1.178  -1.259  1.00  0.00     0.160 HD
BRANCH   7   9
HETATM    9  C11 UNL     1      -3.834  -0.089   0.346  1.00  0.00     0.158 C 
BRANCH   9  10
HETATM   10  C12 UNL     1      -5.249   0.237   0.165  1.00  0.00    -0.041 A 
HETATM   11  C13 UNL     1      -6.199  -0.585   0.791  1.00  0.00     0.009 A 
HETATM   12  C14 UNL     1      -7.547  -0.339   0.670  1.00  0.00     0.001 A 
HETATM   13  C15 UNL     1      -8.034   0.718  -0.067  1.00  0.00     0.000 A 
HETATM   14  C16 UNL     1      -7.113   1.533  -0.687  1.00  0.00     0.001 A 
HETATM   15  C17 UNL     1      -5.761   1.279  -0.560  1.00  0.00     0.009 A 
ENDBRANCH   9  10
ENDBRANCH   7   9
ENDBRANCH   4   7
BRANCH   1  16
HETATM   16  C6  UNL     1       2.722  -0.248  -0.319  1.00  0.00    -0.026 A 
HETATM   17  C5  UNL     1       3.559   0.786  -0.714  1.00  0.00     0.013 A 
HETATM   18  C4  UNL     1       4.914   0.694  -0.733  1.00  0.00     0.008 A 
HETATM   19  C3  UNL     1       5.521  -0.493  -0.338  1.00  0.00    -0.059 A 
HETATM   20  C21 UNL     1       4.719  -1.546   0.063  1.00  0.00     0.008 A 
HETATM   21  C20 UNL     1       3.341  -1.417   0.069  1.00  0.00     0.013 A 
BRANCH  19  22
HETATM   22  C2  UNL     1       6.969  -0.693  -0.322  1.00  0.00     0.034 C 
HETATM   23  C1  UNL     1       7.630  -0.325   0.974  1.00  0.00     0.010 C 
ENDBRANCH  19  22
ENDBRANCH   1  16
TORSDOF 5
