REMARK  5 active torsions:
REMARK  status: ('A' for Active; 'I' for Inactive)
REMARK    1  A    between atoms: C2_2  and  N1_3 
REMARK    2  A    between atoms: C2_2  and  C9_11 
REMARK    3  A    between atoms: N1_3  and  C3_5 
REMARK    4  A    between atoms: C9_11  and  C10_12 
REMARK    5  A    between atoms: C9_11  and  C16_18 
ROOT
HETATM    1  C9  UNL     1      -0.805   0.266   0.653  1.00  0.00     0.074 C 
ENDROOT
BRANCH   1   2
HETATM    2  C2  UNL     1       0.546   0.437   0.024  1.00  0.00     0.090 C 
HETATM    3  C1  UNL     1       0.555   0.833  -1.408  1.00  0.00     0.033 C 
BRANCH   2   4
HETATM    4  N1  UNL     1       1.348  -0.771   0.173  1.00  0.00    -0.385 N 
ATOM      5  H1  UNL     1       0.888  -1.642   0.438  1.00  0.00     0.160 HD
BRANCH   4   6
HETATM    6  C3  UNL     1       2.743  -0.768  -0.039  1.00  0.00     0.028 A 
HETATM    7  C4  UNL     1       3.474  -1.941  -0.136  1.00  0.00     0.029 A 
HETATM    8  C5  UNL     1       4.838  -1.954  -0.326  1.00  0.00     0.002 A 
HETATM    9  C6  UNL     1       5.541  -0.786  -0.428  1.00  0.00     0.000 A 
HETATM   10  C7  UNL     1       4.825   0.388  -0.333  1.00  0.00     0.002 A 
HETATM   11  C8  UNL     1       3.439   0.412  -0.140  1.00  0.00     0.029 A 
ENDBRANCH   4   6
ENDBRANCH   2   4
ENDBRANCH   1   2
BRANCH   1  12
HETATM   12  C10 UNL     1      -1.599   1.490   0.586  1.00  0.00    -0.048 A 
HETATM   13  C11 UNL     1      -1.001   2.701   0.349  1.00  0.00     0.008 A 
HETATM   14  C12 UNL     1      -1.751   3.883   0.274  1.00  0.00     0.001 A 
HETATM   15  C13 UNL     1      -3.126   3.847   0.441  1.00  0.00     0.000 A 
HETATM   16  C14 UNL     1      -3.721   2.634   0.678  1.00  0.00     0.001 A 
HETATM   17  C15 UNL     1      -2.994   1.471   0.752  1.00  0.00     0.008 A 
ENDBRANCH   1  12
BRANCH   1  18
HETATM   18  C16 UNL     1      -1.508  -0.978   0.321  1.00  0.00    -0.048 A 
HETATM   19  C17 UNL     1      -1.666  -1.527  -0.929  1.00  0.00     0.008 A 
HETATM   20  C18 UNL     1      -2.340  -2.708  -1.185  1.00  0.00     0.001 A 
HETATM   21  C19 UNL     1      -2.894  -3.397  -0.154  1.00  0.00     0.000 A 
HETATM   22  C20 UNL     1      -2.768  -2.897   1.122  1.00  0.00     0.001 A 
HETATM   23  C21 UNL     1      -2.097  -1.725   1.355  1.00  0.00     0.008 A 
ENDBRANCH   1  18
TORSDOF 5
