REMARK  14 active torsions:
REMARK  status: ('A' for Active; 'I' for Inactive)
REMARK    1  A    between atoms: C2_2  and  C4_4 
REMARK    2  A    between atoms: C4_4  and  O1_5 
REMARK    3  A    between atoms: C4_4  and  C5_7 
REMARK    4  A    between atoms: C5_7  and  C6_8 
REMARK    5  A    between atoms: C8_10  and  O2_11 
REMARK    6  A    between atoms: C9_13  and  O3_14 
REMARK    7  A    between atoms: O3_14  and  C10_15 
REMARK    8  A    between atoms: C20_26  and  C22_28 
REMARK    9  A    between atoms: C23_29  and  C24_30 
REMARK   10  A    between atoms: C24_30  and  C25_31 
REMARK   11  A    between atoms: C25_31  and  C26_32 
REMARK   12  A    between atoms: C26_32  and  C28_34 
REMARK   13  A    between atoms: C28_34  and  C29_35 
REMARK   14  A    between atoms: C29_35  and  C31_37 
ROOT
HETATM    1  C6  UNL     1      -1.466  -0.811  -0.221  1.00  0.00     0.018 C 
HETATM    2  C7  UNL     1      -0.519  -1.939   0.100  1.00  0.00     0.021 C 
HETATM    3  C8  UNL     1      -2.370  -0.583   0.911  1.00  0.00     0.184 C 
HETATM    4  C9  UNL     1      -3.163   0.705   0.841  1.00  0.00     0.290 C 
HETATM    5  O4  UNL     1      -2.495   1.795   0.405  1.00  0.00    -0.351 OA
HETATM    6  C16 UNL     1      -1.462   1.678  -0.455  1.00  0.00     0.155 C 
HETATM    7  C17 UNL     1      -0.650   2.949  -0.393  1.00  0.00     0.042 C 
HETATM    8  C18 UNL     1       0.794   2.564  -0.204  1.00  0.00     0.022 C 
HETATM    9  C19 UNL     1       1.620   3.806  -0.105  1.00  0.00     0.013 C 
HETATM   10  C20 UNL     1       0.900   1.657   0.973  1.00  0.00     0.079 C 
HETATM   11  C21 UNL     1       0.508   2.296   2.284  1.00  0.00     0.051 C 
HETATM   12  O6  UNL     1       0.123   0.511   0.849  1.00  0.00    -0.367 OA
HETATM   13  C33 UNL     1      -0.599   0.448  -0.321  1.00  0.00     0.163 C 
ENDROOT
BRANCH  10  14
HETATM   14  C22 UNL     1       2.352   1.274   1.130  1.00  0.00     0.007 C 
HETATM   15  C23 UNL     1       3.127   1.986   1.928  1.00  0.00    -0.028 C 
BRANCH  15  16
HETATM   16  C24 UNL     1       4.562   1.626   2.098  1.00  0.00     0.027 C 
BRANCH  16  17
HETATM   17  C25 UNL     1       4.943   0.431   1.286  1.00  0.00     0.008 C 
BRANCH  17  18
HETATM   18  C26 UNL     1       6.419   0.134   1.525  1.00  0.00    -0.018 C 
HETATM   19  C27 UNL     1       7.335   1.223   1.156  1.00  0.00     0.010 C 
BRANCH  18  20
HETATM   20  C28 UNL     1       6.732  -1.244   1.116  1.00  0.00     0.016 C 
BRANCH  20  21
HETATM   21  C29 UNL     1       6.488  -1.674  -0.279  1.00  0.00     0.051 C 
HETATM   22  C30 UNL     1       6.859  -3.217  -0.292  1.00  0.00     0.018 C 
BRANCH  21  23
HETATM   23  C31 UNL     1       7.428  -1.162  -1.307  1.00  0.00     0.126 C 
HETATM   24  C32 UNL     1       7.109  -1.416  -2.768  1.00  0.00     0.091 C 
HETATM   25  O5  UNL     1       8.422  -0.565  -0.995  1.00  0.00    -0.298 OA
ENDBRANCH  21  23
ENDBRANCH  20  21
ENDBRANCH  18  20
ENDBRANCH  17  18
ENDBRANCH  16  17
ENDBRANCH  15  16
ENDBRANCH  10  14
BRANCH   1  26
HETATM   26  C5  UNL     1      -2.051  -1.044  -1.561  1.00  0.00     0.050 C 
BRANCH  26  27
HETATM   27  C4  UNL     1      -2.824  -2.288  -1.748  1.00  0.00     0.146 C 
BRANCH  27  28
HETATM   28  C2  UNL     1      -3.367  -2.448  -3.118  1.00  0.00    -0.065 C 
HETATM   29  C1  UNL     1      -3.098  -1.539  -4.029  1.00  0.00     0.016 C 
HETATM   30  C3  UNL     1      -4.209  -3.611  -3.518  1.00  0.00     0.045 C 
ENDBRANCH  27  28
BRANCH  27  31
HETATM   31  O1  UNL     1      -2.026  -3.442  -1.527  1.00  0.00    -0.391 OA
ATOM     32  H1  UNL     1      -1.678  -3.339  -0.649  1.00  0.00     0.210 HD
ENDBRANCH  27  31
ENDBRANCH  26  27
ENDBRANCH   1  26
BRANCH   3  33
HETATM   33  O2  UNL     1      -3.206  -1.647   1.233  1.00  0.00    -0.390 OA
ATOM     34  H2  UNL     1      -3.792  -1.499   1.966  1.00  0.00     0.210 HD
ENDBRANCH   3  33
BRANCH   4  35
HETATM   35  O3  UNL     1      -4.262   0.449   0.024  1.00  0.00    -0.353 OA
BRANCH  35  36
HETATM   36  C10 UNL     1      -5.484   0.571   0.664  1.00  0.00     0.124 C 
HETATM   37  C11 UNL     1      -6.335   1.675   0.145  1.00  0.00     0.032 C 
HETATM   38  C12 UNL     1      -7.431   1.910   1.186  1.00  0.00     0.002 C 
HETATM   39  C13 UNL     1      -8.290   0.674   1.158  1.00  0.00     0.000 C 
HETATM   40  C14 UNL     1      -7.685  -0.456   0.382  1.00  0.00     0.002 C 
HETATM   41  C15 UNL     1      -6.235  -0.709   0.692  1.00  0.00     0.032 C 
ENDBRANCH  35  36
ENDBRANCH   4  35
TORSDOF 14
