REMARK  15 active torsions:
REMARK  status: ('A' for Active; 'I' for Inactive)
REMARK    1  A    between atoms: C2_2  and  C3_3 
REMARK    2  A    between atoms: C2_2  and  C17_26 
REMARK    3  A    between atoms: C3_3  and  C4_4 
REMARK    4  A    between atoms: C4_4  and  C5_5 
REMARK    5  A    between atoms: C5_5  and  C6_6 
REMARK    6  A    between atoms: C6_6  and  N1_8 
REMARK       I    between atoms: N1_8  and  C8_9 
REMARK    7  A    between atoms: N1_8  and  C14_23 
REMARK    8  A    between atoms: C8_9  and  O2_11 
REMARK    9  A    between atoms: O2_11  and  C9_12 
REMARK   10  A    between atoms: C11_16  and  C12_17 
REMARK   11  A    between atoms: C12_17  and  O5_18 
REMARK   12  A    between atoms: C13_20  and  O6_21 
REMARK   13  A    between atoms: C17_26  and  C19_28 
REMARK   14  A    between atoms: C19_28  and  C20_29 
REMARK   15  A    between atoms: C20_29  and  C21_30 
ROOT
HETATM    1  C6  UNL     1       2.676  -0.902   1.360  1.00  0.00     0.085 C 
HETATM    2  C7  UNL     1       2.671  -1.194   2.834  1.00  0.00     0.032 C 
ENDROOT
BRANCH   1   3
HETATM    3  C5  UNL     1       1.784  -1.796   0.568  1.00  0.00     0.025 C 
BRANCH   3   4
HETATM    4  C4  UNL     1       0.327  -1.747   0.936  1.00  0.00     0.002 C 
BRANCH   4   5
HETATM    5  C3  UNL     1      -0.291  -0.397   0.771  1.00  0.00     0.005 C 
BRANCH   5   6
HETATM    6  C2  UNL     1      -1.774  -0.485   1.169  1.00  0.00    -0.015 C 
HETATM    7  C1  UNL     1      -1.893  -0.921   2.582  1.00  0.00     0.010 C 
BRANCH   6   8
HETATM    8  C17 UNL     1      -2.361   0.873   0.874  1.00  0.00    -0.015 C 
HETATM    9  C18 UNL     1      -2.174   1.188  -0.569  1.00  0.00     0.010 C 
BRANCH   8  10
HETATM   10  C19 UNL     1      -3.771   1.029   1.313  1.00  0.00     0.005 C 
BRANCH  10  11
HETATM   11  C20 UNL     1      -4.793   0.129   0.782  1.00  0.00     0.006 C 
BRANCH  11  12
HETATM   12  C21 UNL     1      -5.212   0.050  -0.616  1.00  0.00    -0.003 C 
HETATM   13  C22 UNL     1      -6.231  -1.127  -0.661  1.00  0.00    -0.014 C 
HETATM   14  C23 UNL     1      -5.591  -2.389  -0.081  1.00  0.00     0.010 C 
HETATM   15  C24 UNL     1      -7.458  -0.853   0.136  1.00  0.00     0.005 C 
HETATM   16  C25 UNL     1      -8.086   0.486  -0.252  1.00  0.00     0.001 C 
HETATM   17  C26 UNL     1      -7.394   0.894  -1.510  1.00  0.00     0.009 C 
HETATM   18  C27 UNL     1      -5.897   1.190  -1.264  1.00  0.00    -0.044 C 
HETATM   19  C28 UNL     1      -5.377   1.422  -2.704  1.00  0.00     0.015 C 
HETATM   20  C29 UNL     1      -5.872   2.515  -0.587  1.00  0.00     0.015 C 
ENDBRANCH  11  12
ENDBRANCH  10  11
ENDBRANCH   8  10
ENDBRANCH   6   8
ENDBRANCH   5   6
ENDBRANCH   4   5
ENDBRANCH   3   4
ENDBRANCH   1   3
BRANCH   1  21
HETATM   21  N1  UNL     1       3.966  -0.805   0.769  1.00  0.00    -0.320 N 
HETATM   22  C8  UNL     1       4.327   0.495   0.228  1.00  0.00     0.364 C 
HETATM   23  O1  UNL     1       3.569   1.480   0.268  1.00  0.00    -0.238 OA
BRANCH  22  24
HETATM   24  O2  UNL     1       5.567   0.677  -0.366  1.00  0.00    -0.286 OA
BRANCH  24  25
HETATM   25  C9  UNL     1       6.017   1.880  -0.918  1.00  0.00     0.264 C 
HETATM   26  C10 UNL     1       6.401   1.598  -2.336  1.00  0.00     0.291 C 
HETATM   27  O3  UNL     1       5.686   1.640  -3.371  1.00  0.00    -0.262 OA
HETATM   28  O4  UNL     1       7.747   1.261  -2.344  1.00  0.00    -0.309 OA
HETATM   29  C11 UNL     1       8.278   1.256  -1.032  1.00  0.00     0.187 C 
HETATM   30  C13 UNL     1       7.362   2.227  -0.319  1.00  0.00     0.189 C 
BRANCH  29  31
HETATM   31  C12 UNL     1       9.715   1.734  -1.011  1.00  0.00     0.199 C 
BRANCH  31  32
HETATM   32  O5  UNL     1      10.130   1.687   0.332  1.00  0.00    -0.398 OA
ATOM     33  H5  UNL     1      11.031   1.987   0.345  1.00  0.00     0.209 HD
ENDBRANCH  31  32
ENDBRANCH  29  31
BRANCH  30  34
HETATM   34  O6  UNL     1       7.381   2.055   1.064  1.00  0.00    -0.390 OA
ATOM     35  H6  UNL     1       8.226   2.273   1.440  1.00  0.00     0.210 HD
ENDBRANCH  30  34
ENDBRANCH  24  25
ENDBRANCH  22  24
BRANCH  21  36
HETATM   36  C14 UNL     1       4.952  -1.860   0.678  1.00  0.00     0.081 C 
HETATM   37  C15 UNL     1       5.448  -2.287   2.058  1.00  0.00     0.032 C 
HETATM   38  C16 UNL     1       4.577  -3.023  -0.172  1.00  0.00     0.032 C 
ENDBRANCH  21  36
ENDBRANCH   1  21
TORSDOF 15
