REMARK  11 active torsions:
REMARK  status: ('A' for Active; 'I' for Inactive)
REMARK    1  A    between atoms: C2_2  and  C4_4 
REMARK    2  A    between atoms: C4_4  and  C5_5 
REMARK    3  A    between atoms: C6_7  and  C7_8 
REMARK    4  A    between atoms: C7_8  and  C8_9 
REMARK    5  A    between atoms: C8_9  and  C9_10 
REMARK    6  A    between atoms: C9_10  and  O2_11 
REMARK    7  A    between atoms: C9_10  and  C10_13 
REMARK    8  A    between atoms: C10_13  and  C11_15 
REMARK    9  A    between atoms: N1_16  and  N2_18 
REMARK   10  A    between atoms: C18_27  and  O4_28 
REMARK   11  A    between atoms: C25_37  and  O6_39 
ROOT
HETATM    1  C5  UNL     1       0.397   1.350   0.449  1.00  0.00     0.159 C 
HETATM    2  O1  UNL     1       0.373   0.190  -0.221  1.00  0.00    -0.377 OA
HETATM    3  C6  UNL     1       0.953  -0.943   0.196  1.00  0.00     0.129 C 
HETATM    4  C12 UNL     1       0.095  -2.109   0.594  1.00  0.00     0.033 C 
HETATM    5  C13 UNL     1       0.872  -3.035   1.583  1.00  0.00     0.017 C 
HETATM    6  C14 UNL     1      -0.341  -3.004  -0.499  1.00  0.00    -0.018 C 
HETATM    7  C15 UNL     1      -1.368  -3.012  -1.284  1.00  0.00    -0.085 C 
HETATM    8  C16 UNL     1      -1.374  -4.186  -2.280  1.00  0.00     0.043 C 
HETATM    9  C17 UNL     1      -2.519  -2.103  -1.429  1.00  0.00     0.065 C 
HETATM   10  C18 UNL     1      -3.408  -2.116  -0.269  1.00  0.00     0.133 C 
HETATM   11  C19 UNL     1      -4.262  -0.964   0.059  1.00  0.00     0.081 C 
HETATM   12  C20 UNL     1      -5.720  -1.261  -0.334  1.00  0.00     0.020 C 
HETATM   13  C21 UNL     1      -3.974   0.365  -0.427  1.00  0.00     0.137 C 
HETATM   14  O5  UNL     1      -4.274   0.643  -1.573  1.00  0.00    -0.297 OA
HETATM   15  C22 UNL     1      -3.310   1.480   0.391  1.00  0.00     0.054 C 
HETATM   16  C23 UNL     1      -4.159   1.640   1.622  1.00  0.00     0.018 C 
HETATM   17  C24 UNL     1      -1.982   0.901   0.610  1.00  0.00     0.051 C 
HETATM   18  C25 UNL     1      -0.890   1.468   1.345  1.00  0.00     0.081 C 
HETATM   19  C26 UNL     1      -1.059   2.885   1.839  1.00  0.00     0.049 C 
ENDROOT
BRANCH   3  20
HETATM   20  C7  UNL     1       2.197  -0.802   1.035  1.00  0.00     0.035 C 
BRANCH  20  21
HETATM   21  C8  UNL     1       3.351  -0.126   0.322  1.00  0.00     0.042 C 
BRANCH  21  22
HETATM   22  C9  UNL     1       4.547   0.057   1.192  1.00  0.00     0.193 C 
BRANCH  22  23
HETATM   23  O2  UNL     1       5.082  -1.072   1.742  1.00  0.00    -0.388 OA
ATOM     24  H2  UNL     1       5.844  -0.955   2.297  1.00  0.00     0.210 HD
ENDBRANCH  22  23
BRANCH  22  25
HETATM   25  C10 UNL     1       5.662   0.670   0.358  1.00  0.00     0.194 C 
HETATM   26  O3  UNL     1       6.844   0.227   0.472  1.00  0.00    -0.289 OA
BRANCH  25  27
HETATM   27  C11 UNL     1       5.423   1.751  -0.575  1.00  0.00     0.159 C 
HETATM   28  N1  UNL     1       6.327   2.265  -1.265  1.00  0.00    -0.315 N 
ATOM     29  H1  UNL     1       6.031   3.018  -1.887  1.00  0.00     0.185 HD
BRANCH  28  30
HETATM   30  N2  UNL     1       7.655   1.960  -1.303  1.00  0.00    -0.345 N 
ATOM     31  H22 UNL     1       7.931   1.205  -0.675  1.00  0.00     0.176 HD
ATOM     32  H21 UNL     1       8.394   2.380  -1.867  1.00  0.00     0.176 HD
ENDBRANCH  28  30
ENDBRANCH  25  27
ENDBRANCH  22  25
ENDBRANCH  21  22
ENDBRANCH  20  21
ENDBRANCH   3  20
BRANCH   1  33
HETATM   33  C4  UNL     1       0.178   2.521  -0.473  1.00  0.00     0.068 C 
BRANCH  33  34
HETATM   34  C2  UNL     1       1.099   2.742  -1.565  1.00  0.00    -0.091 C 
HETATM   35  C1  UNL     1       1.894   3.798  -1.566  1.00  0.00     0.014 C 
HETATM   36  C3  UNL     1       1.202   1.865  -2.784  1.00  0.00     0.042 C 
ENDBRANCH  33  34
ENDBRANCH   1  33
BRANCH  18  37
HETATM   37  O6  UNL     1      -0.579   0.737   2.491  1.00  0.00    -0.388 OA
ATOM     38  H6  UNL     1      -1.356   0.808   3.032  1.00  0.00     0.210 HD
ENDBRANCH  18  37
BRANCH  10  39
HETATM   39  O4  UNL     1      -4.296  -3.224  -0.463  1.00  0.00    -0.394 OA
ATOM     40  H4  UNL     1      -4.874  -3.232   0.291  1.00  0.00     0.210 HD
ENDBRANCH  10  39
TORSDOF 11
