REMARK  11 active torsions:
REMARK  status: ('A' for Active; 'I' for Inactive)
REMARK    1  A    between atoms: C2_2  and  C3_3 
REMARK    2  A    between atoms: C3_3  and  O1_5 
REMARK    3  A    between atoms: C3_3  and  C5_7 
REMARK    4  A    between atoms: C5_7  and  C6_8 
REMARK    5  A    between atoms: C6_8  and  C7_9 
REMARK    6  A    between atoms: C7_9  and  C9_11 
REMARK    7  A    between atoms: C15_17  and  O2_18 
REMARK    8  A    between atoms: C16_20  and  O3_21 
REMARK    9  A    between atoms: C16_20  and  C17_23 
REMARK   10  A    between atoms: C17_23  and  O5_25 
REMARK   11  A    between atoms: C27_36  and  O7_37 
ROOT
HETATM    1  C9  UNL     1       1.508  -0.000  -0.482  1.00  0.00     0.018 C 
HETATM    2  C10 UNL     1       1.200  -0.380   0.914  1.00  0.00     0.008 C 
HETATM    3  C11 UNL     1       0.035   0.277   1.561  1.00  0.00     0.006 C 
HETATM    4  C12 UNL     1      -1.241   0.241   0.696  1.00  0.00     0.001 C 
HETATM    5  C13 UNL     1      -2.219  -0.617   1.377  1.00  0.00     0.019 C 
HETATM    6  C14 UNL     1      -2.777  -0.190   2.689  1.00  0.00     0.013 C 
HETATM    7  C15 UNL     1      -3.174  -1.357   0.496  1.00  0.00     0.174 C 
HETATM    8  C16 UNL     1      -4.557  -0.817   0.390  1.00  0.00     0.232 C 
HETATM    9  C19 UNL     1      -4.467   0.408  -0.490  1.00  0.00     0.174 C 
HETATM   10  O6  UNL     1      -4.903   0.242  -1.616  1.00  0.00    -0.294 OA
HETATM   11  C20 UNL     1      -3.930   1.751  -0.166  1.00  0.00     0.091 C 
HETATM   12  C21 UNL     1      -2.534   1.998  -0.665  1.00  0.00    -0.033 C 
HETATM   13  C22 UNL     1      -2.438   3.528  -0.834  1.00  0.00     0.016 C 
HETATM   14  C23 UNL     1      -2.481   1.461  -2.069  1.00  0.00     0.016 C 
HETATM   15  C24 UNL     1      -1.441   1.600   0.242  1.00  0.00    -0.030 C 
HETATM   16  C25 UNL     1      -1.498   2.583   1.425  1.00  0.00     0.016 C 
HETATM   17  C26 UNL     1      -0.124   1.973  -0.475  1.00  0.00     0.042 C 
HETATM   18  C27 UNL     1       0.573   0.904  -1.196  1.00  0.00     0.123 C 
ENDROOT
BRANCH   1  19
HETATM   19  C7  UNL     1       2.988   0.328  -0.696  1.00  0.00    -0.012 C 
HETATM   20  C8  UNL     1       3.492   1.475   0.075  1.00  0.00     0.010 C 
BRANCH  19  21
HETATM   21  C6  UNL     1       3.791  -0.907  -0.341  1.00  0.00     0.008 C 
BRANCH  21  22
HETATM   22  C5  UNL     1       5.257  -0.690  -0.672  1.00  0.00     0.042 C 
BRANCH  22  23
HETATM   23  C3  UNL     1       6.015  -1.955  -0.305  1.00  0.00     0.071 C 
HETATM   24  C4  UNL     1       5.904  -2.219   1.170  1.00  0.00     0.050 C 
BRANCH  23  25
HETATM   25  C2  UNL     1       7.450  -1.706  -0.644  1.00  0.00    -0.000 C 
HETATM   26  C1  UNL     1       8.311  -1.267   0.251  1.00  0.00     0.010 C 
ENDBRANCH  23  25
BRANCH  23  27
HETATM   27  O1  UNL     1       5.535  -2.982  -1.080  1.00  0.00    -0.386 OA
ATOM     28  H1  UNL     1       4.623  -3.140  -0.865  1.00  0.00     0.211 HD
ENDBRANCH  23  27
ENDBRANCH  22  23
ENDBRANCH  21  22
ENDBRANCH  19  21
ENDBRANCH   1  19
BRANCH  18  29
HETATM   29  O7  UNL     1       1.424   1.564  -2.140  1.00  0.00    -0.395 OA
ATOM     30  H7  UNL     1       0.825   2.143  -2.597  1.00  0.00     0.210 HD
ENDBRANCH  18  29
BRANCH   7  31
HETATM   31  O2  UNL     1      -3.300  -2.721   0.802  1.00  0.00    -0.391 OA
ATOM     32  H2  UNL     1      -3.907  -3.191   0.242  1.00  0.00     0.210 HD
ENDBRANCH   7  31
BRANCH   8  33
HETATM   33  O3  UNL     1      -5.154  -0.483   1.574  1.00  0.00    -0.371 OA
ATOM     34  H3  UNL     1      -6.037  -0.138   1.506  1.00  0.00     0.211 HD
ENDBRANCH   8  33
BRANCH   8  35
HETATM   35  C17 UNL     1      -5.407  -1.778  -0.317  1.00  0.00     0.303 C 
HETATM   36  O4  UNL     1      -6.488  -2.145   0.207  1.00  0.00    -0.261 OA
BRANCH  35  37
HETATM   37  O5  UNL     1      -5.122  -2.339  -1.550  1.00  0.00    -0.324 OA
HETATM   38  C18 UNL     1      -6.001  -3.264  -2.169  1.00  0.00     0.213 C 
ENDBRANCH  35  37
ENDBRANCH   8  35
TORSDOF 11
