REMARK  14 active torsions:
REMARK  status: ('A' for Active; 'I' for Inactive)
REMARK    1  A    between atoms: C1_2  and  C2_4 
REMARK    2  A    between atoms: C2_4  and  C3_5 
REMARK    3  A    between atoms: C2_4  and  N1_12 
REMARK    4  A    between atoms: C3_5  and  C4_6 
REMARK       I    between atoms: N1_12  and  C10_14 
REMARK    5  A    between atoms: C10_14  and  C11_16 
REMARK    6  A    between atoms: C11_16  and  C12_17 
REMARK    7  A    between atoms: C11_16  and  C19_24 
REMARK    8  A    between atoms: C12_17  and  C13_18 
REMARK    9  A    between atoms: C22_27  and  O4_28 
REMARK   10  A    between atoms: O4_28  and  C23_29 
REMARK   11  A    between atoms: C23_29  and  C24_30 
REMARK   12  A    between atoms: C24_30  and  S1_31 
REMARK   13  A    between atoms: S1_31  and  C25_32 
REMARK   14  A    between atoms: C25_32  and  C26_33 
ROOT
HETATM    1  C11 UNL     1      -1.615  -2.793   0.390  1.00  0.00     0.115 C 
ENDROOT
BRANCH   1   2
HETATM    2  C10 UNL     1      -2.450  -2.093  -0.601  1.00  0.00     0.227 C 
HETATM    3  N1  UNL     1      -3.007  -0.802  -0.454  1.00  0.00    -0.346 N 
ATOM      4  H1  UNL     1      -2.836  -0.274   0.402  1.00  0.00     0.163 HD
HETATM    5  O3  UNL     1      -2.712  -2.682  -1.707  1.00  0.00    -0.273 OA
BRANCH   3   6
HETATM    6  C2  UNL     1      -3.821  -0.218  -1.508  1.00  0.00     0.189 C 
BRANCH   6   7
HETATM    7  C1  UNL     1      -5.158   0.167  -1.005  1.00  0.00     0.197 C 
HETATM    8  O1  UNL     1      -5.400   0.018   0.218  1.00  0.00    -0.646 OA
HETATM    9  O2  UNL     1      -6.161   0.682  -1.806  1.00  0.00    -0.646 OA
ENDBRANCH   6   7
BRANCH   6  10
HETATM   10  C3  UNL     1      -3.081   0.931  -2.178  1.00  0.00     0.074 C 
BRANCH  10  11
HETATM   11  C4  UNL     1      -2.871   2.037  -1.243  1.00  0.00    -0.056 A 
HETATM   12  C5  UNL     1      -1.738   2.069  -0.417  1.00  0.00     0.007 A 
HETATM   13  C6  UNL     1      -1.542   3.108   0.446  1.00  0.00     0.001 A 
HETATM   14  C7  UNL     1      -2.466   4.125   0.498  1.00  0.00     0.000 A 
HETATM   15  C8  UNL     1      -3.593   4.124  -0.303  1.00  0.00     0.001 A 
HETATM   16  C9  UNL     1      -3.778   3.064  -1.172  1.00  0.00     0.007 A 
ENDBRANCH  10  11
ENDBRANCH   6  10
ENDBRANCH   3   6
ENDBRANCH   1   2
BRANCH   1  17
HETATM   17  C12 UNL     1      -2.389  -3.235   1.606  1.00  0.00     0.057 C 
BRANCH  17  18
HETATM   18  C13 UNL     1      -3.483  -4.182   1.221  1.00  0.00    -0.057 A 
HETATM   19  C14 UNL     1      -3.209  -5.537   1.181  1.00  0.00     0.007 A 
HETATM   20  C15 UNL     1      -4.196  -6.428   0.832  1.00  0.00     0.001 A 
HETATM   21  C16 UNL     1      -5.477  -6.042   0.510  1.00  0.00     0.000 A 
HETATM   22  C17 UNL     1      -5.734  -4.687   0.554  1.00  0.00     0.001 A 
HETATM   23  C18 UNL     1      -4.760  -3.776   0.901  1.00  0.00     0.007 A 
ENDBRANCH  17  18
ENDBRANCH   1  17
BRANCH   1  24
HETATM   24  C19 UNL     1      -0.428  -1.964   0.721  1.00  0.00    -0.045 A 
HETATM   25  C20 UNL     1       0.803  -2.196   0.093  1.00  0.00     0.011 A 
HETATM   26  C21 UNL     1       1.930  -1.461   0.384  1.00  0.00     0.037 A 
HETATM   27  C22 UNL     1       1.892  -0.462   1.309  1.00  0.00     0.068 A 
HETATM   28  C32 UNL     1       0.694  -0.217   1.938  1.00  0.00     0.037 A 
HETATM   29  C33 UNL     1      -0.461  -0.953   1.657  1.00  0.00     0.011 A 
BRANCH  27  30
HETATM   30  O4  UNL     1       2.989   0.318   1.650  1.00  0.00    -0.350 OA
BRANCH  30  31
HETATM   31  C23 UNL     1       4.260   0.138   1.057  1.00  0.00     0.186 C 
BRANCH  31  32
HETATM   32  C24 UNL     1       5.228   1.142   1.643  1.00  0.00     0.101 C 
BRANCH  32  33
HETATM   33  S1  UNL     1       4.701   2.840   1.351  1.00  0.00    -0.162 SA
BRANCH  33  34
HETATM   34  C25 UNL     1       4.722   3.290  -0.380  1.00  0.00     0.112 C 
BRANCH  34  35
HETATM   35  C26 UNL     1       6.077   3.324  -0.978  1.00  0.00    -0.049 A 
HETATM   36  C27 UNL     1       6.796   4.500  -0.950  1.00  0.00     0.008 A 
HETATM   37  C28 UNL     1       8.068   4.574  -1.499  1.00  0.00     0.001 A 
HETATM   38  C29 UNL     1       8.603   3.439  -2.077  1.00  0.00     0.000 A 
HETATM   39  C30 UNL     1       7.860   2.279  -2.089  1.00  0.00     0.001 A 
HETATM   40  C31 UNL     1       6.592   2.180  -1.549  1.00  0.00     0.008 A 
ENDBRANCH  34  35
ENDBRANCH  33  34
ENDBRANCH  32  33
ENDBRANCH  31  32
ENDBRANCH  30  31
ENDBRANCH  27  30
ENDBRANCH   1  24
TORSDOF 14
