REMARK  13 active torsions:
REMARK  status: ('A' for Active; 'I' for Inactive)
REMARK    1  A    between atoms: N1_2  and  C2_4 
REMARK    2  A    between atoms: C2_4  and  C3_5 
REMARK    3  A    between atoms: C2_4  and  C7_9 
REMARK    4  A    between atoms: C3_5  and  C4_6 
REMARK    5  A    between atoms: C7_9  and  N2_10 
REMARK    6  A    between atoms: C7_9  and  C32_39 
REMARK    7  A    between atoms: N2_10  and  C8_12 
REMARK    8  A    between atoms: C8_12  and  C9_13 
REMARK    9  A    between atoms: C9_13  and  C10_14 
REMARK   10  A    between atoms: C9_13  and  N3_22 
REMARK   11  A    between atoms: C10_14  and  C11_15 
REMARK   12  A    between atoms: C11_15  and  C12_16 
REMARK   13  A    between atoms: C22_27  and  C23_28 
REMARK       I    between atoms: C23_28  and  N4_30 
ROOT
HETATM    1  C9  UNL     1      -0.085   0.227  -0.292  1.00  0.00     0.118 C 
ENDROOT
BRANCH   1   2
HETATM    2  C8  UNL     1      -1.444  -0.357  -0.115  1.00  0.00     0.086 C 
BRANCH   2   3
HETATM    3  N2  UNL     1      -2.038  -1.018  -1.208  1.00  0.00    -0.366 N 
ATOM      4  H2  UNL     1      -1.477  -1.337  -1.998  1.00  0.00     0.165 HD
BRANCH   3   5
HETATM    5  C7  UNL     1      -3.478  -1.232  -1.174  1.00  0.00     0.060 C 
BRANCH   5   6
HETATM    6  C2  UNL     1      -3.841  -2.114  -0.032  1.00  0.00     0.055 C 
BRANCH   6   7
HETATM    7  N1  UNL     1      -3.298  -3.378   0.018  1.00  0.00    -0.374 N 
HETATM    8  C1  UNL     1      -3.723  -4.581  -0.440  1.00  0.00     0.118 C 
ATOM      9  H1  UNL     1      -2.397  -3.417   0.494  1.00  0.00     0.164 HD
ENDBRANCH   6   7
BRANCH   6  10
HETATM   10  C3  UNL     1      -5.097  -1.753   0.677  1.00  0.00     0.009 C 
BRANCH  10  11
HETATM   11  C4  UNL     1      -6.396  -2.390   0.485  1.00  0.00     0.002 C 
HETATM   12  C5  UNL     1      -7.331  -1.539   1.442  1.00  0.00     0.013 C 
HETATM   13  C6  UNL     1      -6.542  -3.782   1.138  1.00  0.00     0.013 C 
ENDBRANCH  10  11
ENDBRANCH   6  10
ENDBRANCH   5   6
BRANCH   5  14
HETATM   14  C32 UNL     1      -3.950  -1.367  -2.537  1.00  0.00    -0.059 C 
HETATM   15  C33 UNL     1      -5.425  -1.259  -2.815  1.00  0.00     0.045 C 
HETATM   16  C34 UNL     1      -3.429  -2.489  -3.378  1.00  0.00     0.045 C 
ENDBRANCH   5  14
ENDBRANCH   3   5
ENDBRANCH   2   3
ENDBRANCH   1   2
BRANCH   1  17
HETATM   17  C10 UNL     1       0.296   0.839   1.074  1.00  0.00     0.031 C 
BRANCH  17  18
HETATM   18  C11 UNL     1      -0.619   1.894   1.548  1.00  0.00     0.007 C 
BRANCH  18  19
HETATM   19  C12 UNL     1      -0.766   3.094   0.661  1.00  0.00    -0.014 C 
HETATM   20  C13 UNL     1      -1.718   4.068   1.298  1.00  0.00     0.004 C 
HETATM   21  C14 UNL     1      -1.575   5.467   0.772  1.00  0.00     0.000 C 
HETATM   22  C15 UNL     1      -0.202   6.037   0.939  1.00  0.00     0.000 C 
HETATM   23  C16 UNL     1       0.865   4.969   1.050  1.00  0.00     0.000 C 
HETATM   24  C17 UNL     1       0.503   3.738   0.250  1.00  0.00     0.004 C 
ENDBRANCH  18  19
ENDBRANCH  17  18
ENDBRANCH   1  17
BRANCH   1  25
HETATM   25  N3  UNL     1       0.989  -0.453  -0.753  1.00  0.00    -0.398 N 
HETATM   26  C18 UNL     1       1.060  -0.930  -2.085  1.00  0.00     0.123 C 
HETATM   27  C19 UNL     1       2.201  -1.916  -1.927  1.00  0.00     0.020 C 
HETATM   28  C20 UNL     1       1.618  -2.707  -0.722  1.00  0.00     0.033 C 
HETATM   29  C22 UNL     1       3.081  -1.308  -0.907  1.00  0.00     0.106 C 
HETATM   30  C21 UNL     1       1.794  -1.334  -0.041  1.00  0.00     0.093 C 
BRANCH  29  31
HETATM   31  C23 UNL     1       3.646   0.028  -1.105  1.00  0.00     0.226 C 
HETATM   32  O1  UNL     1       3.519   0.699  -2.156  1.00  0.00    -0.273 OA
HETATM   33  N4  UNL     1       4.390   0.632  -0.066  1.00  0.00    -0.352 N 
HETATM   34  C24 UNL     1       4.956   1.955  -0.208  1.00  0.00     0.126 C 
HETATM   35  C31 UNL     1       4.588  -0.101   1.170  1.00  0.00     0.126 C 
HETATM   36  C25 UNL     1       6.455   1.827  -0.219  1.00  0.00     0.029 C 
HETATM   37  C26 UNL     1       6.882   0.820   0.793  1.00  0.00    -0.037 C 
HETATM   38  C27 UNL     1       8.178   1.194   1.457  1.00  0.00     0.010 C 
HETATM   39  C29 UNL     1       7.567  -0.412   0.212  1.00  0.00     0.010 C 
HETATM   40  C30 UNL     1       5.836   0.469   1.821  1.00  0.00     0.029 C 
HETATM   41  C28 UNL     1       8.673  -0.213   1.214  1.00  0.00     0.002 C 
ENDBRANCH  29  31
ENDBRANCH   1  25
TORSDOF 13
