REMARK  13 active torsions:
REMARK  status: ('A' for Active; 'I' for Inactive)
REMARK    1  A    between atoms: O1_2  and  C2_3 
REMARK    2  A    between atoms: C2_3  and  C4_5 
REMARK    3  A    between atoms: C2_3  and  C20_28 
REMARK       I    between atoms: C4_5  and  N1_7 
REMARK    4  A    between atoms: N1_7  and  C5_9 
REMARK    5  A    between atoms: C5_9  and  C6_10 
REMARK    6  A    between atoms: C5_9  and  C10_14 
REMARK    7  A    between atoms: C6_10  and  C7_11 
REMARK       I    between atoms: C10_14  and  N2_16 
REMARK    8  A    between atoms: N2_16  and  C11_18 
REMARK    9  A    between atoms: C11_18  and  C12_19 
REMARK   10  A    between atoms: C11_18  and  S1_26 
REMARK   11  A    between atoms: C12_19  and  C13_20 
REMARK   12  A    between atoms: C20_28  and  C21_29 
REMARK   13  A    between atoms: C20_28  and  C27_35 
ROOT
HETATM    1  C4  UNL     1      -1.607   0.295   0.163  1.00  0.00     0.257 C 
HETATM    2  O2  UNL     1      -1.691   0.685  -0.998  1.00  0.00    -0.270 OA
HETATM    3  N1  UNL     1      -0.436  -0.393   0.524  1.00  0.00    -0.345 N 
ATOM      4  H1  UNL     1      -0.330  -0.729   1.481  1.00  0.00     0.163 HD
ENDROOT
BRANCH   3   5
HETATM    5  C5  UNL     1       0.640  -0.639  -0.448  1.00  0.00     0.177 C 
BRANCH   5   6
HETATM    6  C6  UNL     1       1.042  -2.074  -0.471  1.00  0.00     0.038 C 
BRANCH   6   7
HETATM    7  C7  UNL     1      -0.030  -3.045  -0.830  1.00  0.00    -0.020 C 
HETATM    8  C8  UNL     1      -0.638  -2.855  -2.186  1.00  0.00     0.009 C 
HETATM    9  C9  UNL     1       0.612  -4.436  -0.811  1.00  0.00     0.009 C 
ENDBRANCH   6   7
ENDBRANCH   5   6
BRANCH   5  10
HETATM   10  C10 UNL     1       1.853   0.149  -0.035  1.00  0.00     0.241 C 
HETATM   11  O3  UNL     1       1.736   0.841   1.023  1.00  0.00    -0.271 OA
HETATM   12  N2  UNL     1       3.050   0.139  -0.753  1.00  0.00    -0.346 N 
ATOM     13  H2  UNL     1       3.107  -0.428  -1.599  1.00  0.00     0.163 HD
BRANCH  12  14
HETATM   14  C11 UNL     1       4.232   0.910  -0.344  1.00  0.00     0.150 C 
BRANCH  14  15
HETATM   15  C12 UNL     1       5.372  -0.002  -0.075  1.00  0.00     0.074 C 
BRANCH  15  16
HETATM   16  C13 UNL     1       6.647   0.587   0.339  1.00  0.00    -0.056 A 
HETATM   17  C14 UNL     1       7.672   0.880  -0.538  1.00  0.00     0.007 A 
HETATM   18  C15 UNL     1       8.869   1.430  -0.113  1.00  0.00     0.001 A 
HETATM   19  C16 UNL     1       9.092   1.709   1.213  1.00  0.00     0.000 A 
HETATM   20  C17 UNL     1       8.082   1.426   2.122  1.00  0.00     0.001 A 
HETATM   21  C18 UNL     1       6.883   0.874   1.680  1.00  0.00     0.007 A 
ENDBRANCH  15  16
ENDBRANCH  14  15
BRANCH  14  22
HETATM   22  S1  UNL     1       4.523   2.138  -1.617  1.00  0.00    -0.148 SA
HETATM   23  C19 UNL     1       5.661   3.436  -1.135  1.00  0.00     0.092 C 
ENDBRANCH  14  22
ENDBRANCH  12  14
ENDBRANCH   5  10
ENDBRANCH   3   5
BRANCH   1  24
HETATM   24  C2  UNL     1      -2.654   0.525   1.145  1.00  0.00     0.165 C 
HETATM   25  C3  UNL     1      -2.336   2.021   1.548  1.00  0.00     0.062 C 
BRANCH  24  26
HETATM   26  O1  UNL     1      -2.433  -0.074   2.361  1.00  0.00    -0.371 OA
HETATM   27  C1  UNL     1      -2.605  -1.368   2.588  1.00  0.00     0.203 C 
ENDBRANCH  24  26
BRANCH  24  28
HETATM   28  C20 UNL     1      -4.068   0.578   0.738  1.00  0.00     0.006 C 
BRANCH  28  29
HETATM   29  C21 UNL     1      -4.807  -0.692   0.558  1.00  0.00    -0.026 A 
HETATM   30  C22 UNL     1      -6.068  -0.912   1.133  1.00  0.00     0.012 A 
HETATM   31  C23 UNL     1      -6.798  -2.043   0.987  1.00  0.00     0.001 A 
HETATM   32  C24 UNL     1      -6.298  -3.073   0.226  1.00  0.00     0.000 A 
HETATM   33  C25 UNL     1      -5.066  -2.926  -0.367  1.00  0.00     0.001 A 
HETATM   34  C26 UNL     1      -4.354  -1.757  -0.194  1.00  0.00     0.012 A 
ENDBRANCH  28  29
BRANCH  28  35
HETATM   35  C27 UNL     1      -4.510   1.637  -0.168  1.00  0.00    -0.026 A 
HETATM   36  C28 UNL     1      -4.895   2.925   0.233  1.00  0.00     0.012 A 
HETATM   37  C29 UNL     1      -5.330   3.872  -0.662  1.00  0.00     0.001 A 
HETATM   38  C30 UNL     1      -5.412   3.603  -2.006  1.00  0.00     0.000 A 
HETATM   39  C31 UNL     1      -5.044   2.355  -2.434  1.00  0.00     0.001 A 
HETATM   40  C32 UNL     1      -4.605   1.405  -1.516  1.00  0.00     0.012 A 
ENDBRANCH  28  35
ENDBRANCH  24  28
ENDBRANCH   1  24
TORSDOF 13
