REMARK  12 active torsions:
REMARK  status: ('A' for Active; 'I' for Inactive)
REMARK    1  A    between atoms: C2_2  and  C3_3 
REMARK    2  A    between atoms: C6_12  and  C7_13 
REMARK    3  A    between atoms: C7_13  and  C8_14 
REMARK    4  A    between atoms: C12_21  and  C13_22 
REMARK    5  A    between atoms: C13_22  and  C14_23 
REMARK    6  A    between atoms: C18_30  and  C19_31 
REMARK    7  A    between atoms: C19_31  and  C20_32 
REMARK    8  A    between atoms: C24_39  and  C25_40 
REMARK    9  A    between atoms: C25_40  and  C26_41 
REMARK   10  A    between atoms: C26_41  and  C27_42 
REMARK   11  A    between atoms: C27_42  and  C28_43 
REMARK   12  A    between atoms: C28_43  and  N6_44 
ROOT
HETATM    1  C3  UNL     1       1.184   2.685  -0.041  1.00  0.00     0.175 C 
HETATM    2  N1  UNL     1       0.084   3.597   0.051  1.00  0.00    -0.354 N 
ATOM      3  H1  UNL     1       0.003   4.126   0.919  1.00  0.00     0.162 HD
HETATM    4  C4  UNL     1      -0.899   3.843  -0.928  1.00  0.00     0.175 C 
HETATM    5  S1  UNL     1      -1.387   5.402  -1.238  1.00  0.00    -0.041 SA
HETATM    6  N2  UNL     1      -1.539   2.827  -1.709  1.00  0.00    -0.302 N 
ATOM      7  H2  UNL     1      -1.651   2.993  -2.709  1.00  0.00     0.171 HD
HETATM    8  C5  UNL     1      -2.029   1.601  -1.178  1.00  0.00     0.246 C 
HETATM    9  O1  UNL     1      -1.816   0.582  -1.891  1.00  0.00    -0.271 OA
HETATM   10  C6  UNL     1      -2.741   1.411   0.093  1.00  0.00     0.177 C 
HETATM   11  N3  UNL     1      -2.032   0.576   1.041  1.00  0.00    -0.346 N 
ATOM     12  H3  UNL     1      -1.150   0.985   1.350  1.00  0.00     0.163 HD
HETATM   13  C11 UNL     1      -2.284  -0.636   1.611  1.00  0.00     0.241 C 
HETATM   14  O2  UNL     1      -2.487  -0.683   2.884  1.00  0.00    -0.271 OA
HETATM   15  C12 UNL     1      -2.374  -2.020   0.996  1.00  0.00     0.177 C 
HETATM   16  N4  UNL     1      -1.387  -2.814   1.723  1.00  0.00    -0.346 N 
ATOM     17  H4  UNL     1      -1.749  -3.312   2.536  1.00  0.00     0.163 HD
HETATM   18  C17 UNL     1      -0.040  -2.996   1.481  1.00  0.00     0.241 C 
HETATM   19  O3  UNL     1       0.440  -4.135   1.844  1.00  0.00    -0.271 OA
HETATM   20  C18 UNL     1       0.958  -2.093   0.871  1.00  0.00     0.177 C 
HETATM   21  N5  UNL     1       1.906  -1.624   1.890  1.00  0.00    -0.346 N 
ATOM     22  H5  UNL     1       2.228  -2.327   2.555  1.00  0.00     0.163 HD
HETATM   23  C23 UNL     1       2.422  -0.341   2.065  1.00  0.00     0.241 C 
HETATM   24  O4  UNL     1       2.321   0.239   3.177  1.00  0.00    -0.271 OA
HETATM   25  C24 UNL     1       3.133   0.464   0.988  1.00  0.00     0.176 C 
HETATM   26  N7  UNL     1       3.073   1.840   1.422  1.00  0.00    -0.346 N 
ATOM     27  H7  UNL     1       3.852   2.187   1.981  1.00  0.00     0.163 HD
HETATM   28  C29 UNL     1       2.028   2.747   1.139  1.00  0.00     0.241 C 
HETATM   29  O5  UNL     1       1.820   3.682   1.987  1.00  0.00    -0.271 OA
ENDROOT
BRANCH  25  30
HETATM   30  C25 UNL     1       4.542  -0.047   0.960  1.00  0.00     0.035 C 
BRANCH  30  31
HETATM   31  C26 UNL     1       5.489   0.503  -0.015  1.00  0.00     0.004 C 
BRANCH  31  32
HETATM   32  C27 UNL     1       5.737   1.963   0.117  1.00  0.00     0.027 C 
BRANCH  32  33
HETATM   33  C28 UNL     1       6.782   2.421  -0.926  1.00  0.00     0.229 C 
BRANCH  33  34
HETATM   34  N6  UNL     1       7.983   1.680  -0.662  1.00  0.00    -0.079 N 
ATOM     35  H63 UNL     1       8.309   1.771   0.300  1.00  0.00     0.274 HD
ATOM     36  H62 UNL     1       7.839   0.670  -0.654  1.00  0.00     0.274 HD
ATOM     37  H61 UNL     1       8.673   1.982  -1.350  1.00  0.00     0.274 HD
ENDBRANCH  33  34
ENDBRANCH  32  33
ENDBRANCH  31  32
ENDBRANCH  30  31
ENDBRANCH  25  30
BRANCH  20  38
HETATM   38  C19 UNL     1       1.784  -2.729  -0.182  1.00  0.00     0.038 C 
BRANCH  38  39
HETATM   39  C20 UNL     1       1.150  -3.261  -1.397  1.00  0.00    -0.020 C 
HETATM   40  C21 UNL     1       0.387  -2.243  -2.216  1.00  0.00     0.009 C 
HETATM   41  C22 UNL     1       0.394  -4.555  -1.240  1.00  0.00     0.009 C 
ENDBRANCH  38  39
ENDBRANCH  20  38
BRANCH   1  42
HETATM   42  C2  UNL     1       1.986   2.914  -1.303  1.00  0.00     0.030 C 
HETATM   43  C1  UNL     1       2.547   4.313  -1.356  1.00  0.00     0.007 C 
ENDBRANCH   1  42
BRANCH  15  44
HETATM   44  C13 UNL     1      -3.780  -2.555   1.197  1.00  0.00     0.038 C 
BRANCH  44  45
HETATM   45  C14 UNL     1      -4.036  -3.907   0.630  1.00  0.00    -0.020 C 
HETATM   46  C15 UNL     1      -3.232  -5.032   1.166  1.00  0.00     0.009 C 
HETATM   47  C16 UNL     1      -5.518  -4.273   0.705  1.00  0.00     0.009 C 
ENDBRANCH  44  45
ENDBRANCH  15  44
BRANCH  10  48
HETATM   48  C7  UNL     1      -4.192   1.089   0.015  1.00  0.00     0.038 C 
BRANCH  48  49
HETATM   49  C8  UNL     1      -5.126   2.061  -0.590  1.00  0.00    -0.020 C 
HETATM   50  C9  UNL     1      -4.876   2.382  -2.005  1.00  0.00     0.009 C 
HETATM   51  C10 UNL     1      -5.147   3.386   0.188  1.00  0.00     0.009 C 
ENDBRANCH  48  49
ENDBRANCH  10  48
TORSDOF 12
