REMARK  6 active torsions:
REMARK  status: ('A' for Active; 'I' for Inactive)
REMARK    1  A    between atoms: O1_2  and  C2_3 
REMARK    2  A    between atoms: C7_8  and  N1_9 
REMARK       I    between atoms: N1_9  and  C8_10 
REMARK       I    between atoms: C8_10  and  N2_12 
REMARK    3  A    between atoms: N2_12  and  C9_14 
REMARK    4  A    between atoms: C12_17  and  C13_18 
REMARK    5  A    between atoms: C17_24  and  C18_25 
REMARK       I    between atoms: C18_25  and  N4_27 
REMARK    6  A    between atoms: N4_27  and  C19_29 
ROOT
HETATM    1  C9  UNL     1      -1.070  -0.977  -0.139  1.00  0.00     0.037 A 
HETATM    2  C10 UNL     1      -0.301  -0.854  -1.292  1.00  0.00     0.030 A 
HETATM    3  C11 UNL     1       0.928  -1.440  -1.443  1.00  0.00     0.014 A 
HETATM    4  C12 UNL     1       1.463  -2.194  -0.431  1.00  0.00    -0.023 A 
HETATM    5  C25 UNL     1       0.727  -2.331   0.713  1.00  0.00     0.014 A 
HETATM    6  C26 UNL     1      -0.533  -1.738   0.883  1.00  0.00     0.030 A 
ENDROOT
BRANCH   4   7
HETATM    7  C13 UNL     1       2.749  -2.837  -0.526  1.00  0.00     0.006 A 
HETATM    8  C14 UNL     1       2.800  -4.227  -0.776  1.00  0.00     0.016 A 
HETATM    9  C15 UNL     1       4.000  -4.860  -0.917  1.00  0.00     0.018 A 
HETATM   10  C16 UNL     1       5.176  -4.136  -0.814  1.00  0.00     0.088 A 
HETATM   11  N3  UNL     1       5.110  -2.827  -0.577  1.00  0.00    -0.361 N 
HETATM   12  C17 UNL     1       3.921  -2.165  -0.431  1.00  0.00     0.112 A 
ATOM     13  H3  UNL     1       5.979  -2.298  -0.501  1.00  0.00     0.165 HD
BRANCH  12  14
HETATM   14  C18 UNL     1       3.974  -0.731  -0.138  1.00  0.00     0.273 C 
HETATM   15  O3  UNL     1       2.983  -0.034   0.072  1.00  0.00    -0.266 OA
HETATM   16  N4  UNL     1       5.239  -0.103  -0.089  1.00  0.00    -0.322 N 
ATOM     17  H4  UNL     1       6.056  -0.691  -0.253  1.00  0.00     0.169 HD
BRANCH  16  18
HETATM   18  C19 UNL     1       5.472   1.262   0.166  1.00  0.00     0.035 A 
HETATM   19  C20 UNL     1       4.599   2.279  -0.091  1.00  0.00     0.029 A 
HETATM   20  C21 UNL     1       4.927   3.611   0.224  1.00  0.00     0.002 A 
HETATM   21  C22 UNL     1       6.126   3.949   0.797  1.00  0.00     0.000 A 
HETATM   22  C23 UNL     1       7.010   2.902   1.054  1.00  0.00     0.002 A 
HETATM   23  C24 UNL     1       6.693   1.625   0.752  1.00  0.00     0.029 A 
ENDBRANCH  16  18
ENDBRANCH  12  14
ENDBRANCH   4   7
BRANCH   1  24
HETATM   24  N2  UNL     1      -2.331  -0.370  -0.139  1.00  0.00    -0.297 N 
HETATM   25  C8  UNL     1      -2.987   0.184   1.041  1.00  0.00     0.398 C 
HETATM   26  N1  UNL     1      -4.239   0.733   0.959  1.00  0.00    -0.349 NA
HETATM   27  O2  UNL     1      -2.236   0.067   2.072  1.00  0.00    -0.230 OA
ATOM     28  H2  UNL     1      -2.827  -0.311  -1.028  1.00  0.00     0.172 HD
BRANCH  26  29
HETATM   29  C7  UNL     1      -5.468   1.271   0.878  1.00  0.00     0.146 A 
HETATM   30  C2  UNL     1      -6.198   1.128  -0.354  1.00  0.00     0.108 A 
HETATM   31  C3  UNL     1      -7.409   1.644  -0.582  1.00  0.00     0.040 A 
HETATM   32  C4  UNL     1      -8.022   2.366   0.410  1.00  0.00     0.003 A 
HETATM   33  C5  UNL     1      -7.410   2.550   1.597  1.00  0.00     0.003 A 
HETATM   34  C6  UNL     1      -6.145   2.001   1.814  1.00  0.00     0.048 A 
BRANCH  30  35
HETATM   35  O1  UNL     1      -5.538   0.392  -1.332  1.00  0.00    -0.353 OA
HETATM   36  C1  UNL     1      -6.137   0.168  -2.590  1.00  0.00     0.210 C 
ENDBRANCH  30  35
ENDBRANCH  26  29
ENDBRANCH   1  24
TORSDOF 6
