REMARK  7 active torsions:
REMARK  status: ('A' for Active; 'I' for Inactive)
REMARK       I    between atoms: C1_2  and  N1_3 
REMARK       I    between atoms: C1_2  and  N2_11 
REMARK    1  A    between atoms: N1_3  and  C2_5 
REMARK    2  A    between atoms: N2_11  and  C8_13 
REMARK    3  A    between atoms: C12_17  and  C13_18 
REMARK    4  A    between atoms: C17_22  and  N3_23 
REMARK    5  A    between atoms: N3_23  and  C18_24 
REMARK    6  A    between atoms: C18_24  and  O2_25 
REMARK    7  A    between atoms: C18_24  and  C19_27 
ROOT
HETATM    1  C8  UNL     1      -1.890  -2.004  -0.083  1.00  0.00     0.037 A 
HETATM    2  C9  UNL     1      -1.463  -2.014  -1.413  1.00  0.00     0.029 A 
HETATM    3  C10 UNL     1      -0.193  -1.617  -1.724  1.00  0.00     0.003 A 
HETATM    4  C11 UNL     1       0.705  -1.199  -0.763  1.00  0.00     0.012 A 
HETATM    5  C12 UNL     1       0.288  -1.194   0.553  1.00  0.00    -0.024 A 
HETATM    6  C25 UNL     1      -0.998  -1.596   0.866  1.00  0.00     0.042 A 
ENDROOT
BRANCH   5   7
HETATM    7  C13 UNL     1       1.234  -0.643   1.518  1.00  0.00    -0.023 A 
HETATM    8  C14 UNL     1       0.767  -0.120   2.690  1.00  0.00     0.012 A 
HETATM    9  C15 UNL     1       1.626   0.516   3.538  1.00  0.00     0.004 A 
HETATM   10  C16 UNL     1       2.952   0.661   3.274  1.00  0.00     0.045 A 
HETATM   11  C17 UNL     1       3.504   0.157   2.093  1.00  0.00     0.111 A 
HETATM   12  C24 UNL     1       2.556  -0.503   1.248  1.00  0.00     0.057 A 
BRANCH  11  13
HETATM   13  N3  UNL     1       4.732   0.423   1.605  1.00  0.00    -0.380 NA
BRANCH  13  14
HETATM   14  C18 UNL     1       5.951   0.685   1.121  1.00  0.00     0.229 C 
BRANCH  14  15
HETATM   15  O2  UNL     1       6.711  -0.234   0.585  1.00  0.00    -0.335 OA
ATOM     16  H2  UNL     1       7.577  -0.048   0.241  1.00  0.00     0.220 HD
ENDBRANCH  14  15
BRANCH  14  17
HETATM   17  C19 UNL     1       6.637   2.015   1.093  1.00  0.00     0.085 A 
HETATM   18  C20 UNL     1       7.339   2.369  -0.055  1.00  0.00     0.023 A 
HETATM   19  C21 UNL     1       7.915   3.635  -0.100  1.00  0.00     0.018 A 
HETATM   20  C22 UNL     1       7.802   4.520   0.948  1.00  0.00     0.090 A 
HETATM   21  N4  UNL     1       7.115   4.143   2.044  1.00  0.00    -0.342 N 
HETATM   22  C23 UNL     1       6.544   2.892   2.095  1.00  0.00     0.203 A 
ATOM     23  H4  UNL     1       7.019   4.782   2.833  1.00  0.00     0.167 HD
HETATM   24  F1  UNL     1       5.931   2.640   3.270  1.00  0.00    -0.185 F 
ENDBRANCH  14  17
ENDBRANCH  13  14
ENDBRANCH  11  13
ENDBRANCH   5   7
BRANCH   1  25
HETATM   25  N2  UNL     1      -3.241  -2.278   0.201  1.00  0.00    -0.309 N 
HETATM   26  C1  UNL     1      -4.284  -1.716  -0.637  1.00  0.00     0.325 C 
HETATM   27  O1  UNL     1      -3.953  -0.991  -1.588  1.00  0.00    -0.247 OA
HETATM   28  N1  UNL     1      -5.668  -1.962  -0.404  1.00  0.00    -0.309 N 
ATOM     29  H1  UNL     1      -5.966  -2.567   0.361  1.00  0.00     0.170 HD
ATOM     30  H2  UNL     1      -3.486  -2.870   0.994  1.00  0.00     0.170 HD
BRANCH  28  31
HETATM   31  C2  UNL     1      -6.629  -1.347  -1.261  1.00  0.00     0.036 A 
HETATM   32  C3  UNL     1      -7.710  -1.962  -1.816  1.00  0.00     0.029 A 
HETATM   33  C4  UNL     1      -8.613  -1.298  -2.623  1.00  0.00     0.002 A 
HETATM   34  C5  UNL     1      -8.393   0.026  -2.860  1.00  0.00     0.000 A 
HETATM   35  C6  UNL     1      -7.322   0.669  -2.318  1.00  0.00     0.002 A 
HETATM   36  C7  UNL     1      -6.430   0.007  -1.519  1.00  0.00     0.029 A 
ENDBRANCH  28  31
ENDBRANCH   1  25
TORSDOF 7
