REMARK  5 active torsions:
REMARK  status: ('A' for Active; 'I' for Inactive)
REMARK       I    between atoms: N2_3  and  C2_5 
REMARK       I    between atoms: C2_5  and  N4_9 
REMARK    1  A    between atoms: N4_9  and  C3_11 
REMARK    2  A    between atoms: C3_11  and  C4_12 
REMARK    3  A    between atoms: C4_12  and  C5_13 
REMARK    4  A    between atoms: C5_13  and  C6_14 
REMARK    5  A    between atoms: C6_14  and  C7_15 
ROOT
HETATM    1  N1  UNL     1       5.693   2.349  -1.277  1.00  0.00    -0.171 NA
HETATM    2  C1  UNL     1       5.143   1.578  -0.597  1.00  0.00     0.196 C 
HETATM    3  N2  UNL     1       4.458   0.638   0.211  1.00  0.00    -0.127 N 
ATOM      4  H2  UNL     1       4.086   0.888   1.127  1.00  0.00     0.197 HD
HETATM    5  C2  UNL     1       4.316  -0.665  -0.318  1.00  0.00     0.680 C 
HETATM    6  N3  UNL     1       5.395  -1.181  -0.846  1.00  0.00    -0.234 N 
ATOM      7  H31 UNL     1       5.293  -2.121  -1.228  1.00  0.00     0.174 HD
ATOM      8  H32 UNL     1       6.247  -0.621  -0.841  1.00  0.00     0.174 HD
HETATM    9  N4  UNL     1       3.144  -1.435  -0.325  1.00  0.00    -0.226 N 
ATOM     10  H4  UNL     1       3.154  -2.359  -0.757  1.00  0.00     0.177 HD
ENDROOT
BRANCH   9  11
HETATM   11  C3  UNL     1       1.930  -0.945   0.266  1.00  0.00     0.138 C 
BRANCH  11  12
HETATM   12  C4  UNL     1       1.307   0.203  -0.477  1.00  0.00     0.020 C 
BRANCH  12  13
HETATM   13  C5  UNL     1       0.023   0.704   0.168  1.00  0.00     0.004 C 
BRANCH  13  14
HETATM   14  C6  UNL     1      -1.026  -0.343   0.240  1.00  0.00     0.033 C 
BRANCH  14  15
HETATM   15  C7  UNL     1      -2.279   0.166   0.896  1.00  0.00     0.151 A 
HETATM   16  N5  UNL     1      -3.287  -0.882   0.961  1.00  0.00    -0.353 N 
HETATM   17  C8  UNL     1      -4.362  -0.525   0.377  1.00  0.00     0.190 A 
ATOM     18  H5  UNL     1      -3.151  -1.785   1.415  1.00  0.00     0.163 HD
HETATM   19  N6  UNL     1      -5.557  -1.332   0.256  1.00  0.00    -0.063 NA
HETATM   20  N7  UNL     1      -4.268   0.800  -0.122  1.00  0.00    -0.319 N 
HETATM   21  C9  UNL     1      -2.968   1.253   0.231  1.00  0.00     0.100 A 
ATOM     22  H7  UNL     1      -4.985   1.320  -0.629  1.00  0.00     0.169 HD
HETATM   23  N8  UNL     1      -2.571   2.445  -0.023  1.00  0.00    -0.387 N 
ATOM     24  H82 UNL     1      -1.638   2.770   0.230  1.00  0.00     0.157 HD
ATOM     25  H81 UNL     1      -3.056   3.210  -0.491  1.00  0.00     0.157 HD
ENDBRANCH  14  15
ENDBRANCH  13  14
ENDBRANCH  12  13
ENDBRANCH  11  12
ENDBRANCH   9  11
TORSDOF 5
