REMARK  7 active torsions:
REMARK  status: ('A' for Active; 'I' for Inactive)
REMARK    1  A    between atoms: C3_3  and  N1_4 
REMARK       I    between atoms: C4_6  and  N2_7 
REMARK       I    between atoms: C4_6  and  N4_12 
REMARK    2  A    between atoms: N2_7  and  N3_9 
REMARK    3  A    between atoms: N4_12  and  C5_14 
REMARK    4  A    between atoms: C5_14  and  C6_15 
REMARK    5  A    between atoms: C6_15  and  C7_16 
REMARK    6  A    between atoms: C7_16  and  N5_17 
REMARK    7  A    between atoms: N5_17  and  C8_19 
ROOT
HETATM    1  C1  UNL     1       5.299  -1.030   1.794  1.00  0.00     0.014 C 
HETATM    2  C2  UNL     1       5.173  -0.448   0.741  1.00  0.00    -0.097 C 
HETATM    3  C3  UNL     1       5.047   0.254  -0.534  1.00  0.00     0.231 C 
ENDROOT
BRANCH   3   4
HETATM    4  N1  UNL     1       3.807  -0.099  -1.188  1.00  0.00    -0.215 N 
HETATM    5  C4  UNL     1       2.699   0.159  -0.592  1.00  0.00     0.688 C 
HETATM    6  N2  UNL     1       2.700   0.781   0.684  1.00  0.00    -0.139 N 
HETATM    7  N4  UNL     1       1.469  -0.181  -1.238  1.00  0.00    -0.225 N 
ATOM      8  H2  UNL     1       3.363   1.523   0.906  1.00  0.00     0.205 HD
ATOM      9  H4  UNL     1       1.394  -1.065  -1.742  1.00  0.00     0.177 HD
ATOM     10  H1  UNL     1       3.812  -0.545  -2.106  1.00  0.00     0.178 HD
BRANCH   6  11
HETATM   11  N3  UNL     1       1.769   0.348   1.623  1.00  0.00    -0.331 N 
ATOM     12  H32 UNL     1       1.112  -0.395   1.386  1.00  0.00     0.177 HD
ATOM     13  H31 UNL     1       1.770   0.795   2.540  1.00  0.00     0.177 HD
ENDBRANCH   6  11
BRANCH   7  14
HETATM   14  C5  UNL     1       0.346   0.696  -1.189  1.00  0.00     0.139 C 
BRANCH  14  15
HETATM   15  C6  UNL     1      -0.847   0.180  -1.956  1.00  0.00     0.040 C 
BRANCH  15  16
HETATM   16  C7  UNL     1      -1.330  -1.146  -1.440  1.00  0.00     0.124 C 
BRANCH  16  17
HETATM   17  N5  UNL     1      -1.738  -1.118  -0.057  1.00  0.00    -0.362 N 
ATOM     18  H5  UNL     1      -1.188  -1.622   0.638  1.00  0.00     0.162 HD
BRANCH  17  19
HETATM   19  C8  UNL     1      -2.912  -0.388   0.360  1.00  0.00     0.171 C 
HETATM   20  N6  UNL     1      -2.866   0.760   0.945  1.00  0.00    -0.361 N 
HETATM   21  C9  UNL     1      -4.184   1.259   1.249  1.00  0.00     0.142 C 
ATOM     22  H6  UNL     1      -2.002   1.255   1.166  1.00  0.00     0.162 HD
HETATM   23  C10 UNL     1      -5.125   0.140   0.884  1.00  0.00     0.142 C 
HETATM   24  N7  UNL     1      -4.266  -0.790   0.205  1.00  0.00    -0.361 N 
ATOM     25  H7  UNL     1      -4.580  -1.613  -0.310  1.00  0.00     0.162 HD
ENDBRANCH  17  19
ENDBRANCH  16  17
ENDBRANCH  15  16
ENDBRANCH  14  15
ENDBRANCH   7  14
ENDBRANCH   3   4
TORSDOF 7
