REMARK  11 active torsions:
REMARK  status: ('A' for Active; 'I' for Inactive)
REMARK    1  A    between atoms: N1_1  and  C1_4 
REMARK    2  A    between atoms: C2_7  and  N3_8 
REMARK    3  A    between atoms: N3_8  and  N4_10 
REMARK    4  A    between atoms: C3_15  and  N6_16 
REMARK    5  A    between atoms: N6_16  and  C4_18 
REMARK    6  A    between atoms: C4_18  and  C5_19 
REMARK    7  A    between atoms: C5_19  and  C6_20 
REMARK    8  A    between atoms: C6_20  and  C7_21 
REMARK    9  A    between atoms: C7_21  and  C8_22 
REMARK   10  A    between atoms: C8_22  and  C9_23 
REMARK   11  A    between atoms: C9_23  and  N7_24 
ROOT
HETATM    1  C1  UNL     1      -3.922   1.798   0.450  1.00  0.00     0.705 A 
HETATM    2  N2  UNL     1      -4.700   0.700   0.443  1.00  0.00    -0.020 N 
ATOM      3  H2  UNL     1      -5.683   0.746   0.710  1.00  0.00     0.203 HD
HETATM    4  C2  UNL     1      -4.132  -0.461   0.070  1.00  0.00     0.725 A 
HETATM    5  N5  UNL     1      -2.834  -0.521  -0.285  1.00  0.00    -0.020 N 
ATOM      6  H5  UNL     1      -2.435  -1.417  -0.564  1.00  0.00     0.203 HD
HETATM    7  C3  UNL     1      -2.049   0.576  -0.280  1.00  0.00     0.707 A 
HETATM    8  N8  UNL     1      -2.627   1.731   0.095  1.00  0.00    -0.022 N 
ATOM      9  H8  UNL     1      -2.066   2.582   0.111  1.00  0.00     0.203 HD
ENDROOT
BRANCH   7  10
HETATM   10  N6  UNL     1      -0.807   0.500  -0.623  1.00  0.00    -0.225 N 
ATOM     11  H6  UNL     1      -0.219   1.333  -0.618  1.00  0.00     0.177 HD
BRANCH  10  12
HETATM   12  C4  UNL     1      -0.255  -0.787  -1.017  1.00  0.00     0.138 C 
BRANCH  12  13
HETATM   13  C5  UNL     1       1.206  -0.703  -1.340  1.00  0.00     0.020 C 
BRANCH  13  14
HETATM   14  C6  UNL     1       1.931  -0.216  -0.101  1.00  0.00     0.002 C 
BRANCH  14  15
HETATM   15  C7  UNL     1       3.431  -0.113  -0.382  1.00  0.00     0.002 C 
BRANCH  15  16
HETATM   16  C8  UNL     1       4.064   0.377   0.906  1.00  0.00     0.027 C 
BRANCH  16  17
HETATM   17  C9  UNL     1       5.567   0.525   0.763  1.00  0.00     0.229 C 
BRANCH  17  18
HETATM   18  N7  UNL     1       6.086  -0.787   0.426  1.00  0.00    -0.079 N 
ATOM     19  H73 UNL     1       5.815  -1.510   1.092  1.00  0.00     0.274 HD
ATOM     20  H72 UNL     1       5.642  -1.196  -0.396  1.00  0.00     0.274 HD
ATOM     21  H71 UNL     1       7.097  -0.687   0.330  1.00  0.00     0.274 HD
ENDBRANCH  17  18
ENDBRANCH  16  17
ENDBRANCH  15  16
ENDBRANCH  14  15
ENDBRANCH  13  14
ENDBRANCH  12  13
ENDBRANCH  10  12
ENDBRANCH   7  10
BRANCH   4  22
HETATM   22  N3  UNL     1      -4.835  -1.523   0.051  1.00  0.00    -0.138 N 
ATOM     23  H3  UNL     1      -4.389  -2.395  -0.234  1.00  0.00     0.205 HD
BRANCH  22  24
HETATM   24  N4  UNL     1      -6.173  -1.552   0.398  1.00  0.00    -0.331 N 
ATOM     25  H42 UNL     1      -6.603  -0.671   0.681  1.00  0.00     0.177 HD
ATOM     26  H41 UNL     1      -6.736  -2.402   0.383  1.00  0.00     0.177 HD
ENDBRANCH  22  24
ENDBRANCH   4  22
BRANCH   1  27
HETATM   27  N1  UNL     1      -4.433   2.949   0.806  1.00  0.00    -0.234 N 
ATOM     28  H12 UNL     1      -5.415   3.000   1.075  1.00  0.00     0.174 HD
ATOM     29  H11 UNL     1      -3.843   3.781   0.811  1.00  0.00     0.174 HD
ENDBRANCH   1  27
TORSDOF 11
