REMARK  8 active torsions:
REMARK  status: ('A' for Active; 'I' for Inactive)
REMARK       I    between atoms: C1_4  and  N3_6 
REMARK    1  A    between atoms: N3_6  and  C2_8 
REMARK    2  A    between atoms: C2_8  and  C3_9 
REMARK    3  A    between atoms: C3_9  and  S1_10 
REMARK    4  A    between atoms: S1_10  and  C4_11 
REMARK    5  A    between atoms: C4_11  and  C5_12 
REMARK    6  A    between atoms: C5_12  and  C6_13 
REMARK    7  A    between atoms: C7_18  and  N6_19 
REMARK    8  A    between atoms: N6_19  and  N7_21 
ROOT
HETATM    1  C6  UNL     1      -2.730   0.183   0.348  1.00  0.00     0.113 A 
HETATM    2  N4  UNL     1      -3.231  -1.051   0.290  1.00  0.00    -0.274 N 
ATOM      3  H4  UNL     1      -2.676  -1.902   0.378  1.00  0.00     0.189 HD
HETATM    4  N5  UNL     1      -4.534  -1.029   0.105  1.00  0.00    -0.129 N 
ATOM      5  H5  UNL     1      -5.159  -1.831   0.024  1.00  0.00     0.205 HD
HETATM    6  C7  UNL     1      -4.867   0.267   0.045  1.00  0.00     0.712 A 
HETATM    7  N8  UNL     1      -3.749   1.032   0.195  1.00  0.00    -0.177 N 
ATOM      8  H8  UNL     1      -3.700   2.051   0.191  1.00  0.00     0.185 HD
ENDROOT
BRANCH   1   9
HETATM    9  C5  UNL     1      -1.293   0.594   0.544  1.00  0.00     0.088 C 
BRANCH   9  10
HETATM   10  C4  UNL     1      -0.488  -0.676   0.666  1.00  0.00     0.081 C 
BRANCH  10  11
HETATM   11  S1  UNL     1       1.275  -0.320   0.903  1.00  0.00    -0.167 SA
BRANCH  11  12
HETATM   12  C3  UNL     1       1.959   0.467  -0.590  1.00  0.00     0.093 C 
BRANCH  12  13
HETATM   13  C2  UNL     1       3.424   0.737  -0.321  1.00  0.00     0.132 C 
BRANCH  13  14
HETATM   14  N3  UNL     1       4.134  -0.481  -0.046  1.00  0.00    -0.364 N 
HETATM   15  C1  UNL     1       5.512  -0.489   0.232  1.00  0.00     0.181 C 
HETATM   16  N1  UNL     1       6.023  -1.453   0.914  1.00  0.00    -0.374 N 
HETATM   17  N2  UNL     1       6.351   0.545  -0.223  1.00  0.00    -0.064 NA
ATOM     18  H12 UNL     1       7.023  -1.459   1.116  1.00  0.00     0.158 HD
ATOM     19  H11 UNL     1       5.415  -2.203   1.244  1.00  0.00     0.158 HD
ATOM     20  H3  UNL     1       3.624  -1.364  -0.053  1.00  0.00     0.162 HD
ENDBRANCH  13  14
ENDBRANCH  12  13
ENDBRANCH  11  12
ENDBRANCH  10  11
ENDBRANCH   9  10
ENDBRANCH   1   9
BRANCH   6  21
HETATM   21  N6  UNL     1      -6.058   0.737  -0.130  1.00  0.00    -0.137 N 
ATOM     22  H6  UNL     1      -6.223   1.743  -0.164  1.00  0.00     0.205 HD
BRANCH  21  23
HETATM   23  N7  UNL     1      -7.112  -0.164  -0.271  1.00  0.00    -0.331 N 
ATOM     24  H72 UNL     1      -6.931  -1.167  -0.235  1.00  0.00     0.177 HD
ATOM     25  H71 UNL     1      -8.052   0.207  -0.409  1.00  0.00     0.177 HD
ENDBRANCH  21  23
ENDBRANCH   6  21
TORSDOF 8
