REMARK  9 active torsions:
REMARK  status: ('A' for Active; 'I' for Inactive)
REMARK    1  A    between atoms: C3_6  and  N3_7 
REMARK    2  A    between atoms: C4_9  and  C5_10 
REMARK    3  A    between atoms: C5_10  and  N4_11 
REMARK    4  A    between atoms: N4_11  and  C6_13 
REMARK    5  A    between atoms: C6_13  and  C7_14 
REMARK    6  A    between atoms: C7_14  and  C8_15 
REMARK    7  A    between atoms: C8_15  and  C9_16 
REMARK    8  A    between atoms: C9_16  and  N5_17 
REMARK    9  A    between atoms: C10_23  and  N7_24 
ROOT
HETATM    1  N1  UNL     1       7.475  -1.613  -1.407  1.00  0.00    -0.188 NA
HETATM    2  C1  UNL     1       6.484  -1.191  -0.964  1.00  0.00     0.138 C 
HETATM    3  C2  UNL     1       5.256  -0.647  -0.398  1.00  0.00     0.217 A 
HETATM    4  N2  UNL     1       4.118  -0.643  -1.101  1.00  0.00    -0.165 N 
ATOM      5  H2  UNL     1       4.122  -1.027  -2.046  1.00  0.00     0.186 HD
HETATM    6  C3  UNL     1       2.942  -0.140  -0.595  1.00  0.00     0.698 A 
HETATM    7  N6  UNL     1       2.988   0.349   0.639  1.00  0.00    -0.022 N 
ATOM      8  H6  UNL     1       2.132   0.730   1.042  1.00  0.00     0.203 HD
HETATM    9  C10 UNL     1       4.123   0.366   1.392  1.00  0.00     0.692 A 
HETATM   10  N8  UNL     1       5.249  -0.143   0.841  1.00  0.00    -0.166 N 
ATOM     11  H8  UNL     1       6.113  -0.142   1.383  1.00  0.00     0.186 HD
ENDROOT
BRANCH   6  12
HETATM   12  N3  UNL     1       1.966  -0.191  -1.323  1.00  0.00    -0.203 N 
HETATM   13  C4  UNL     1       0.654   0.036  -1.579  1.00  0.00     0.098 C 
ATOM     14  H3  UNL     1       2.314  -0.628  -2.176  1.00  0.00     0.183 HD
BRANCH  13  15
HETATM   15  C5  UNL     1      -0.028   1.140  -0.771  1.00  0.00     0.159 C 
BRANCH  15  16
HETATM   16  N4  UNL     1      -1.388   1.285  -1.179  1.00  0.00    -0.417 N 
ATOM     17  H4  UNL     1      -1.707   2.118  -1.675  1.00  0.00     0.153 HD
BRANCH  16  18
HETATM   18  C6  UNL     1      -2.279   0.225  -0.868  1.00  0.00     0.114 C 
BRANCH  18  19
HETATM   19  C7  UNL     1      -2.563   0.087   0.617  1.00  0.00     0.021 C 
BRANCH  19  20
HETATM   20  C8  UNL     1      -3.495  -1.061   0.852  1.00  0.00     0.029 C 
BRANCH  20  21
HETATM   21  C9  UNL     1      -4.825  -0.941   0.172  1.00  0.00     0.229 C 
BRANCH  21  22
HETATM   22  N5  UNL     1      -5.573   0.215   0.580  1.00  0.00    -0.079 N 
ATOM     23  H53 UNL     1      -5.682   0.235   1.594  1.00  0.00     0.274 HD
ATOM     24  H52 UNL     1      -5.024   1.065   0.452  1.00  0.00     0.274 HD
ATOM     25  H51 UNL     1      -6.478   0.297   0.117  1.00  0.00     0.274 HD
ENDBRANCH  21  22
ENDBRANCH  20  21
ENDBRANCH  19  20
ENDBRANCH  18  19
ENDBRANCH  16  18
ENDBRANCH  15  16
ENDBRANCH  13  15
ENDBRANCH   6  12
BRANCH   9  26
HETATM   26  N7  UNL     1       4.120   0.851   2.592  1.00  0.00    -0.234 N 
ATOM     27  H72 UNL     1       3.271   1.235   3.007  1.00  0.00     0.174 HD
ATOM     28  H71 UNL     1       4.970   0.864   3.156  1.00  0.00     0.174 HD
ENDBRANCH   9  26
TORSDOF 9
