REMARK  9 active torsions:
REMARK  status: ('A' for Active; 'I' for Inactive)
REMARK    1  A    between atoms: C2_2  and  C3_3 
REMARK    2  A    between atoms: C3_3  and  C5_5 
REMARK    3  A    between atoms: C5_5  and  C6_6 
REMARK    4  A    between atoms: C5_5  and  C13_15 
REMARK    5  A    between atoms: C6_6  and  O1_7 
REMARK    6  A    between atoms: O1_7  and  C7_8 
REMARK    7  A    between atoms: C13_15  and  N1_16 
REMARK    8  A    between atoms: C16_19  and  N2_20 
REMARK    9  A    between atoms: C17_24  and  O3_25 
ROOT
HETATM    1  C5  UNL     1      -0.137   0.995   0.065  1.00  0.00     0.051 C 
ENDROOT
BRANCH   1   2
HETATM    2  C3  UNL     1       0.159   2.382  -0.395  1.00  0.00    -0.008 C 
HETATM    3  C4  UNL     1       1.582   2.835  -0.142  1.00  0.00     0.011 C 
BRANCH   2   4
HETATM    4  C2  UNL     1      -0.714   3.359   0.372  1.00  0.00     0.000 C 
HETATM    5  C1  UNL     1      -0.447   4.759  -0.176  1.00  0.00     0.005 C 
ENDBRANCH   2   4
ENDBRANCH   1   2
BRANCH   1   6
HETATM    6  C6  UNL     1      -1.591   0.675  -0.158  1.00  0.00     0.178 C 
BRANCH   6   7
HETATM    7  O1  UNL     1      -1.909  -0.626   0.259  1.00  0.00    -0.383 OA
BRANCH   7   8
HETATM    8  C7  UNL     1      -3.250  -0.899   0.075  1.00  0.00     0.152 C 
HETATM    9  C8  UNL     1      -3.949  -1.258   1.380  1.00  0.00     0.066 C 
HETATM   10  C9  UNL     1      -4.510  -2.625   1.063  1.00  0.00     0.124 C 
HETATM   11  C10 UNL     1      -5.661  -2.476   0.123  1.00  0.00     0.034 C 
HETATM   12  O2  UNL     1      -3.510  -3.136   0.219  1.00  0.00    -0.378 OA
HETATM   13  C11 UNL     1      -4.969  -2.133  -1.189  1.00  0.00     0.037 C 
HETATM   14  C12 UNL     1      -3.522  -2.114  -0.761  1.00  0.00     0.151 C 
ENDBRANCH   7   8
ENDBRANCH   6   7
ENDBRANCH   1   6
BRANCH   1  15
HETATM   15  C13 UNL     1       0.753  -0.075  -0.508  1.00  0.00     0.065 C 
BRANCH  15  16
HETATM   16  N1  UNL     1       2.132  -0.000  -0.232  1.00  0.00    -0.390 N 
HETATM   17  C14 UNL     1       2.547  -0.263   1.109  1.00  0.00     0.124 C 
HETATM   18  C15 UNL     1       4.034  -0.094   1.229  1.00  0.00     0.055 C 
HETATM   19  C16 UNL     1       4.822  -1.097   0.425  1.00  0.00     0.215 C 
HETATM   20  C17 UNL     1       3.982  -1.569  -0.718  1.00  0.00     0.166 C 
HETATM   21  C18 UNL     1       2.991  -0.566  -1.217  1.00  0.00     0.155 C 
BRANCH  19  22
HETATM   22  N2  UNL     1       5.205  -2.257   1.212  1.00  0.00    -0.072 N 
ATOM     23  H23 UNL     1       5.711  -1.980   2.053  1.00  0.00     0.274 HD
ATOM     24  H22 UNL     1       4.391  -2.692   1.647  1.00  0.00     0.274 HD
ATOM     25  H21 UNL     1       5.738  -2.936   0.668  1.00  0.00     0.274 HD
ENDBRANCH  19  22
BRANCH  20  26
HETATM   26  O3  UNL     1       4.856  -1.851  -1.787  1.00  0.00    -0.392 OA
ATOM     27  H3  UNL     1       4.322  -2.151  -2.513  1.00  0.00     0.210 HD
ENDBRANCH  20  26
ENDBRANCH  15  16
ENDBRANCH   1  15
TORSDOF 9
