REMARK  7 active torsions:
REMARK  status: ('A' for Active; 'I' for Inactive)
REMARK    1  A    between atoms: C2_2  and  C3_3 
REMARK    2  A    between atoms: C8_12  and  O2_13 
REMARK    3  A    between atoms: O2_13  and  C9_14 
REMARK    4  A    between atoms: C9_14  and  C10_15 
REMARK    5  A    between atoms: C10_15  and  O3_16 
REMARK    6  A    between atoms: C10_15  and  C11_18 
REMARK    7  A    between atoms: C11_18  and  N2_19 
ROOT
HETATM    1  C3  UNL     1      -2.997   1.240  -0.988  1.00  0.00     0.240 C 
HETATM    2  N1  UNL     1      -4.265   0.546  -0.956  1.00  0.00    -0.038 N 
ATOM      3  H11 UNL     1      -4.843   0.732  -1.776  1.00  0.00     0.281 HD
ATOM      4  H12 UNL     1      -4.907   0.918  -0.256  1.00  0.00     0.281 HD
HETATM    5  C4  UNL     1      -3.978  -0.857  -0.772  1.00  0.00     0.328 C 
HETATM    6  O1  UNL     1      -4.901  -1.481   0.049  1.00  0.00    -0.359 OA
HETATM    7  C5  UNL     1      -4.234  -2.195   1.001  1.00  0.00     0.171 C 
HETATM    8  C6  UNL     1      -2.852  -1.634   1.137  1.00  0.00     0.038 C 
HETATM    9  C7  UNL     1      -2.616  -1.002  -0.202  1.00  0.00     0.075 C 
HETATM   10  C8  UNL     1      -2.165   0.432  -0.014  1.00  0.00     0.164 C 
ENDROOT
BRANCH  10  11
HETATM   11  O2  UNL     1      -0.810   0.575  -0.233  1.00  0.00    -0.380 OA
BRANCH  11  12
HETATM   12  C9  UNL     1      -0.229   1.135   0.875  1.00  0.00     0.205 C 
BRANCH  12  13
HETATM   13  C10 UNL     1       1.276   1.325   0.706  1.00  0.00     0.180 C 
BRANCH  13  14
HETATM   14  O3  UNL     1       1.703   1.901   1.909  1.00  0.00    -0.388 OA
ATOM     15  H3  UNL     1       2.640   2.019   1.804  1.00  0.00     0.210 HD
ENDBRANCH  13  14
BRANCH  13  16
HETATM   16  C11 UNL     1       1.862  -0.024   0.476  1.00  0.00     0.096 C 
BRANCH  16  17
HETATM   17  N2  UNL     1       3.267  -0.102   0.401  1.00  0.00    -0.370 N 
HETATM   18  C12 UNL     1       3.913   0.487  -0.704  1.00  0.00     0.073 C 
HETATM   19  C13 UNL     1       4.996   1.417  -0.155  1.00  0.00     0.118 C 
HETATM   20  S1  UNL     1       5.950   0.380   1.023  1.00  0.00    -0.162 SA
HETATM   21  C14 UNL     1       5.321  -1.335   0.872  1.00  0.00     0.094 C 
HETATM   22  C15 UNL     1       3.809  -1.364   0.830  1.00  0.00     0.137 C 
ENDBRANCH  16  17
ENDBRANCH  13  16
ENDBRANCH  12  13
ENDBRANCH  11  12
ENDBRANCH  10  11
BRANCH   1  23
HETATM   23  C2  UNL     1      -2.447   1.177  -2.345  1.00  0.00    -0.002 C 
HETATM   24  C1  UNL     1      -3.209   0.813  -3.354  1.00  0.00     0.009 C 
ENDBRANCH   1  23
TORSDOF 7
