REMARK  7 active torsions:
REMARK  status: ('A' for Active; 'I' for Inactive)
REMARK    1  A    between atoms: C2_2  and  C3_3 
REMARK    2  A    between atoms: C3_3  and  C4_4 
REMARK    3  A    between atoms: C4_4  and  N1_5 
REMARK    4  A    between atoms: N1_5  and  C5_8 
REMARK    5  A    between atoms: C5_8  and  C6_9 
REMARK    6  A    between atoms: C9_13  and  C10_14 
REMARK    7  A    between atoms: C10_14  and  N2_15 
ROOT
HETATM    1  C10 UNL     1      -0.931  -0.464   0.364  1.00  0.00     0.137 C 
ENDROOT
BRANCH   1   2
HETATM    2  C9  UNL     1      -0.390   0.014  -0.963  1.00  0.00     0.037 C 
HETATM    3  C6  UNL     1       1.042   0.435  -0.868  1.00  0.00     0.152 C 
HETATM    4  O1  UNL     1       1.465   0.355  -2.194  1.00  0.00    -0.384 OA
HETATM    5  C7  UNL     1       0.924  -0.779  -2.737  1.00  0.00     0.168 C 
HETATM    6  C8  UNL     1      -0.249  -1.197  -1.901  1.00  0.00     0.035 C 
BRANCH   3   7
HETATM    7  C5  UNL     1       1.878  -0.517  -0.066  1.00  0.00     0.264 C 
BRANCH   7   8
HETATM    8  N1  UNL     1       3.266  -0.101  -0.206  1.00  0.00    -0.073 N 
ATOM      9  H12 UNL     1       3.398   0.876   0.054  1.00  0.00     0.277 HD
ATOM     10  H11 UNL     1       3.547  -0.036  -1.184  1.00  0.00     0.277 HD
BRANCH   8  11
HETATM   11  C4  UNL     1       4.142  -0.990   0.554  1.00  0.00     0.232 C 
BRANCH  11  12
HETATM   12  C3  UNL     1       5.573  -0.549   0.398  1.00  0.00     0.027 C 
BRANCH  12  13
HETATM   13  C2  UNL     1       5.782   0.865   0.903  1.00  0.00    -0.003 C 
HETATM   14  C1  UNL     1       7.244   1.248   0.719  1.00  0.00     0.005 C 
ENDBRANCH  12  13
ENDBRANCH  11  12
ENDBRANCH   8  11
ENDBRANCH   7   8
ENDBRANCH   3   7
ENDBRANCH   1   2
BRANCH   1  15
HETATM   15  N2  UNL     1      -2.290  -0.862   0.278  1.00  0.00    -0.337 N 
HETATM   16  C11 UNL     1      -2.770  -2.108  -0.021  1.00  0.00     0.183 A 
HETATM   17  N3  UNL     1      -4.088  -2.134  -0.020  1.00  0.00    -0.354 N 
HETATM   18  C12 UNL     1      -4.525  -0.912   0.277  1.00  0.00     0.043 A 
ATOM     19  H3  UNL     1      -4.671  -2.948  -0.213  1.00  0.00     0.166 HD
HETATM   20  C13 UNL     1      -3.397  -0.128   0.461  1.00  0.00     0.126 A 
HETATM   21  C17 UNL     1      -5.969  -0.575   0.366  1.00  0.00     0.061 C 
HETATM   22  C14 UNL     1      -3.395   1.286   0.804  1.00  0.00     0.270 C 
HETATM   23  O2  UNL     1      -2.284   1.851   0.813  1.00  0.00    -0.266 OA
HETATM   24  N4  UNL     1      -4.519   2.109   1.134  1.00  0.00    -0.356 N 
HETATM   25  C15 UNL     1      -5.914   1.864   0.932  1.00  0.00     0.123 C 
ATOM     26  H4  UNL     1      -4.292   2.999   1.577  1.00  0.00     0.162 HD
HETATM   27  C16 UNL     1      -6.184   0.841  -0.138  1.00  0.00     0.026 C 
ENDBRANCH   1  15
TORSDOF 7
