REMARK  8 active torsions:
REMARK  status: ('A' for Active; 'I' for Inactive)
REMARK    1  A    between atoms: C2_2  and  C3_3 
REMARK    2  A    between atoms: C3_3  and  C4_4 
REMARK    3  A    between atoms: C4_4  and  C5_5 
REMARK    4  A    between atoms: C5_5  and  C6_6 
REMARK    5  A    between atoms: C7_9  and  S1_10 
REMARK    6  A    between atoms: S1_10  and  N2_11 
REMARK    7  A    between atoms: S1_10  and  C8_15 
REMARK    8  A    between atoms: C8_15  and  N3_16 
ROOT
HETATM    1  C6  UNL     1       2.879   0.061  -1.455  1.00  0.00     0.097 A 
HETATM    2  N1  UNL     1       1.908   1.023  -1.299  1.00  0.00    -0.322 N 
ATOM      3  H1  UNL     1       1.988   1.993  -1.605  1.00  0.00     0.169 HD
HETATM    4  C7  UNL     1       0.869   0.507  -0.701  1.00  0.00     0.199 A 
HETATM    5  N4  UNL     1       1.136  -0.767  -0.461  1.00  0.00    -0.276 N 
ATOM      6  H4  UNL     1       0.514  -1.433  -0.002  1.00  0.00     0.189 HD
HETATM    7  N5  UNL     1       2.372  -1.031  -0.928  1.00  0.00    -0.287 N 
ATOM      8  H5  UNL     1       2.840  -1.936  -0.880  1.00  0.00     0.188 HD
ENDROOT
BRANCH   4   9
HETATM    9  S1  UNL     1      -0.920   1.376  -0.276  1.00  0.00     0.101 S 
HETATM   10  O1  UNL     1      -1.483   1.369  -1.326  1.00  0.00    -0.240 OA
BRANCH   9  11
HETATM   11  N2  UNL     1      -0.644   3.305  -0.090  1.00  0.00    -0.353 N 
ATOM     12  H22 UNL     1       0.253   3.780  -0.192  1.00  0.00     0.166 HD
ATOM     13  H21 UNL     1      -1.541   3.741   0.123  1.00  0.00     0.166 HD
ENDBRANCH   9  11
BRANCH   9  14
HETATM   14  C8  UNL     1      -1.893   0.462   1.005  1.00  0.00     0.252 C 
BRANCH  14  15
HETATM   15  N3  UNL     1      -3.119  -0.190   0.457  1.00  0.00    -0.361 N 
HETATM   16  C9  UNL     1      -4.018   0.721  -0.115  1.00  0.00     0.064 C 
HETATM   17  C10 UNL     1      -5.382   0.825   0.460  1.00  0.00     0.049 C 
HETATM   18  C11 UNL     1      -5.935  -0.456   0.992  1.00  0.00    -0.009 C 
HETATM   19  C12 UNL     1      -6.209  -1.408  -0.152  1.00  0.00     0.010 C 
HETATM   20  C13 UNL     1      -4.902  -1.021   1.950  1.00  0.00     0.049 C 
HETATM   21  C14 UNL     1      -3.584  -1.220   1.288  1.00  0.00     0.064 C 
ENDBRANCH  14  15
ENDBRANCH   9  14
ENDBRANCH   4   9
BRANCH   1  22
HETATM   22  C5  UNL     1       4.142   0.395  -2.124  1.00  0.00     0.078 C 
BRANCH  22  23
HETATM   23  C4  UNL     1       5.172  -0.676  -2.113  1.00  0.00     0.007 C 
BRANCH  23  24
HETATM   24  C3  UNL     1       5.680  -1.090  -0.777  1.00  0.00     0.000 C 
BRANCH  24  25
HETATM   25  C2  UNL     1       6.328   0.051  -0.017  1.00  0.00    -0.005 C 
HETATM   26  C1  UNL     1       6.801  -0.492   1.315  1.00  0.00     0.005 C 
ENDBRANCH  24  25
ENDBRANCH  23  24
ENDBRANCH  22  23
ENDBRANCH   1  22
TORSDOF 8
