REMARK  4 active torsions:
REMARK  status: ('A' for Active; 'I' for Inactive)
REMARK    1  A    between atoms: C4_11  and  N4_12 
REMARK       I    between atoms: N4_12  and  C5_14 
REMARK       I    between atoms: C5_14  and  N5_16 
REMARK       I    between atoms: N5_16  and  C6_18 
REMARK    2  A    between atoms: C6_18  and  C7_20 
REMARK    3  A    between atoms: C7_20  and  C8_25 
REMARK    4  A    between atoms: N6_21  and  O5_23 
ROOT
HETATM    1  N4  UNL     1      -1.134   0.333  -0.325  1.00  0.00    -0.301 N 
ATOM      2  H4  UNL     1      -0.447   1.069  -0.487  1.00  0.00     0.171 HD
HETATM    3  C5  UNL     1      -0.728  -0.942   0.077  1.00  0.00     0.327 C 
HETATM    4  O3  UNL     1      -1.629  -1.853   0.276  1.00  0.00    -0.247 OA
HETATM    5  N5  UNL     1       0.580  -1.330   0.289  1.00  0.00    -0.273 N 
ATOM      6  H5  UNL     1       0.727  -2.296   0.583  1.00  0.00     0.173 HD
HETATM    7  C6  UNL     1       1.731  -0.535   0.143  1.00  0.00     0.281 C 
HETATM    8  O4  UNL     1       1.756   0.672  -0.207  1.00  0.00    -0.265 OA
ENDROOT
BRANCH   7   9
HETATM    9  C7  UNL     1       3.067  -1.107   0.411  1.00  0.00     0.169 C 
HETATM   10  N6  UNL     1       3.124  -2.327   0.771  1.00  0.00    -0.260 N 
ATOM     11  H6  UNL     1       2.243  -2.834   0.852  1.00  0.00     0.194 HD
BRANCH  10  12
HETATM   12  O5  UNL     1       4.262  -3.005   1.055  1.00  0.00    -0.289 OA
ATOM     13  H5  UNL     1       4.305  -3.915   1.324  1.00  0.00     0.244 HD
ENDBRANCH  10  12
BRANCH   9  14
HETATM   14  C8  UNL     1       4.228  -0.262   0.251  1.00  0.00     0.172 A 
HETATM   15  N7  UNL     1       4.302   1.022  -0.118  1.00  0.00    -0.267 N 
HETATM   16  N8  UNL     1       5.566   1.400  -0.133  1.00  0.00    -0.227 N 
ATOM     17  H7  UNL     1       3.506   1.616  -0.351  1.00  0.00     0.190 HD
HETATM   18  N9  UNL     1       6.303   0.357   0.226  1.00  0.00    -0.227 N 
ATOM     19  H8  UNL     1       5.914   2.327  -0.377  1.00  0.00     0.210 HD
HETATM   20  N10 UNL     1       5.507  -0.655   0.462  1.00  0.00    -0.267 N 
ATOM     21  H9  UNL     1       7.320   0.346   0.305  1.00  0.00     0.210 HD
ATOM     22  H10 UNL     1       5.801  -1.586   0.756  1.00  0.00     0.190 HD
ENDBRANCH   9  14
ENDBRANCH   7   9
BRANCH   1  23
HETATM   23  C4  UNL     1      -2.548   0.590  -0.507  1.00  0.00     0.146 A 
HETATM   24  C1  UNL     1      -3.234   1.044   0.604  1.00  0.00     0.152 A 
HETATM   25  N1  UNL     1      -2.608   1.255   1.860  1.00  0.00    -0.080 NA
HETATM   26  N2  UNL     1      -4.556   1.281   0.424  1.00  0.00    -0.295 N 
HETATM   27  C2  UNL     1      -5.159   1.085  -0.763  1.00  0.00     0.328 A 
ATOM     28  H2  UNL     1      -5.110   1.618   1.211  1.00  0.00     0.172 HD
HETATM   29  O1  UNL     1      -6.388   1.328  -0.846  1.00  0.00    -0.247 OA
HETATM   30  N3  UNL     1      -4.488   0.642  -1.841  1.00  0.00    -0.273 N 
HETATM   31  C3  UNL     1      -3.175   0.394  -1.709  1.00  0.00     0.279 A 
ATOM     32  H3  UNL     1      -4.962   0.499  -2.732  1.00  0.00     0.173 HD
HETATM   33  O2  UNL     1      -2.522  -0.019  -2.697  1.00  0.00    -0.265 OA
ENDBRANCH   1  23
TORSDOF 4
