REMARK  7 active torsions:
REMARK  status: ('A' for Active; 'I' for Inactive)
REMARK    1  A    between atoms: N3_4  and  N4_6 
REMARK       I    between atoms: N4_6  and  C2_8 
REMARK    2  A    between atoms: C2_8  and  C3_10 
REMARK    3  A    between atoms: N5_14  and  S1_15 
REMARK    4  A    between atoms: S1_15  and  C7_16 
REMARK    5  A    between atoms: C8_21  and  N8_22 
REMARK    6  A    between atoms: C8_21  and  C9_25 
REMARK    7  A    between atoms: N8_22  and  O3_23 
ROOT
HETATM    1  C7  UNL     1      -2.245   0.398  -0.492  1.00  0.00     0.144 C 
HETATM    2  N6  UNL     1      -2.305   1.209  -1.503  1.00  0.00    -0.237 N 
ATOM      3  H6  UNL     1      -1.616   1.935  -1.701  1.00  0.00     0.197 HD
HETATM    4  O2  UNL     1      -3.408   0.965  -2.267  1.00  0.00    -0.161 OA
HETATM    5  N7  UNL     1      -4.292   0.244  -1.531  1.00  0.00    -0.027 NA
HETATM    6  C8  UNL     1      -3.431  -0.467  -0.607  1.00  0.00     0.266 C 
ENDROOT
BRANCH   1   7
HETATM    7  S1  UNL     1      -0.958   0.369   0.767  1.00  0.00     0.013 SA
BRANCH   7   8
HETATM    8  N5  UNL     1       0.219   1.630   0.407  1.00  0.00    -0.286 N 
HETATM    9  C3  UNL     1       1.568   1.468   0.491  1.00  0.00     0.115 A 
HETATM   10  C4  UNL     1       2.162   2.661   0.137  1.00  0.00     0.038 A 
HETATM   11  C5  UNL     1       1.158   3.585  -0.172  1.00  0.00     0.021 A 
HETATM   12  C6  UNL     1      -0.020   2.892   0.012  1.00  0.00     0.105 A 
BRANCH   9  13
HETATM   13  C2  UNL     1       2.245   0.244   0.885  1.00  0.00     0.287 C 
HETATM   14  N4  UNL     1       3.661   0.209   0.931  1.00  0.00    -0.262 N 
ATOM     15  H4  UNL     1       4.174   1.055   0.683  1.00  0.00     0.190 HD
HETATM   16  O1  UNL     1       1.609  -0.783   1.186  1.00  0.00    -0.264 OA
BRANCH  14  17
HETATM   17  N3  UNL     1       4.385  -0.913   1.295  1.00  0.00    -0.273 N 
HETATM   18  C1  UNL     1       5.200  -1.456   0.465  1.00  0.00     0.215 C 
HETATM   19  N1  UNL     1       5.961  -2.609   0.802  1.00  0.00    -0.065 NA
HETATM   20  N2  UNL     1       5.347  -0.892  -0.823  1.00  0.00    -0.065 NA
ATOM     21  H3  UNL     1       4.270  -1.310   2.227  1.00  0.00     0.189 HD
ENDBRANCH  14  17
ENDBRANCH   9  13
ENDBRANCH   7   8
ENDBRANCH   1   7
BRANCH   6  22
HETATM   22  N8  UNL     1      -3.099  -1.745  -1.204  1.00  0.00    -0.057 NA
BRANCH  22  23
HETATM   23  O3  UNL     1      -2.594  -1.505  -2.442  1.00  0.00    -0.293 OA
ATOM     24  H3  UNL     1      -2.376  -2.343  -2.833  1.00  0.00     0.238 HD
ENDBRANCH  22  23
ENDBRANCH   6  22
BRANCH   6  25
HETATM   25  C9  UNL     1      -4.108  -0.696   0.679  1.00  0.00     0.166 A 
HETATM   26  N9  UNL     1      -3.622  -0.998   1.884  1.00  0.00    -0.269 N 
HETATM   27  N10 UNL     1      -4.650  -1.103   2.730  1.00  0.00    -0.227 N 
ATOM     28  H9  UNL     1      -2.638  -1.126   2.118  1.00  0.00     0.190 HD
HETATM   29  N11 UNL     1      -5.778  -0.873   2.086  1.00  0.00    -0.227 N 
ATOM     30  H10 UNL     1      -4.574  -1.327   3.722  1.00  0.00     0.210 HD
HETATM   31  N12 UNL     1      -5.447  -0.625   0.837  1.00  0.00    -0.269 N 
ATOM     32  H11 UNL     1      -6.719  -0.885   2.478  1.00  0.00     0.210 HD
ATOM     33  H12 UNL     1      -6.109  -0.409   0.092  1.00  0.00     0.190 HD
ENDBRANCH   6  25
TORSDOF 7
