REMARK  9 active torsions:
REMARK  status: ('A' for Active; 'I' for Inactive)
REMARK    1  A    between atoms: N1_2  and  C2_4 
REMARK    2  A    between atoms: C3_7  and  N3_8 
REMARK    3  A    between atoms: N3_8  and  C5_10 
REMARK    4  A    between atoms: C6_13  and  N5_14 
REMARK    5  A    between atoms: N8_22  and  C8_23 
REMARK    6  A    between atoms: C8_23  and  O1_25 
REMARK    7  A    between atoms: C11_32  and  C12_33 
REMARK    8  A    between atoms: C12_33  and  N11_34 
REMARK    9  A    between atoms: C12_33  and  N12_38 
ROOT
HETATM    1  N3  UNL     1       0.109   0.448   0.997  1.00  0.00    -0.018 N 
HETATM    2  C4  UNL     1       0.016   0.207   2.437  1.00  0.00     0.195 C 
ENDROOT
BRANCH   1   3
HETATM    3  C3  UNL     1       1.374   0.276   0.384  1.00  0.00     0.714 A 
HETATM    4  N2  UNL     1       1.676  -0.883  -0.203  1.00  0.00    -0.021 N 
HETATM    5  C2  UNL     1       2.863  -1.082  -0.783  1.00  0.00     0.693 A 
ATOM      6  H2  UNL     1       0.986  -1.634  -0.209  1.00  0.00     0.203 HD
HETATM    7  N13 UNL     1       3.757  -0.075  -0.762  1.00  0.00    -0.176 N 
HETATM    8  C11 UNL     1       3.486   1.110  -0.177  1.00  0.00     0.170 A 
ATOM      9  H13 UNL     1       4.667  -0.213  -1.202  1.00  0.00     0.185 HD
HETATM   10  N10 UNL     1       2.298   1.268   0.387  1.00  0.00    -0.175 N 
ATOM     11  H10 UNL     1       2.073   2.157   0.834  1.00  0.00     0.185 HD
BRANCH   5  12
HETATM   12  N1  UNL     1       3.125  -2.210  -1.345  1.00  0.00    -0.230 N 
HETATM   13  C1  UNL     1       2.142  -3.269  -1.355  1.00  0.00     0.165 C 
ATOM     14  H1  UNL     1       4.033  -2.357  -1.786  1.00  0.00     0.177 HD
ENDBRANCH   5  12
BRANCH   8  15
HETATM   15  C12 UNL     1       4.532   2.178  -0.192  1.00  0.00     0.445 C 
BRANCH  15  16
HETATM   16  N11 UNL     1       5.840   1.632   0.150  1.00  0.00    -0.043 N 
ATOM     17 3H11 UNL     1       5.820   1.137   1.042  1.00  0.00     0.277 HD
ATOM     18 2H11 UNL     1       6.091   0.850  -0.455  1.00  0.00     0.277 HD
ATOM     19 1H11 UNL     1       6.554   2.361   0.140  1.00  0.00     0.277 HD
ENDBRANCH  15  16
BRANCH  15  20
HETATM   20  N12 UNL     1       4.216   3.132   0.861  1.00  0.00    -0.043 N 
ATOM     21 3H12 UNL     1       3.270   3.505   0.784  1.00  0.00     0.277 HD
ATOM     22 2H12 UNL     1       4.115   2.691   1.775  1.00  0.00     0.277 HD
ATOM     23 1H12 UNL     1       4.930   3.861   0.851  1.00  0.00     0.277 HD
ENDBRANCH  15  20
ENDBRANCH   8  15
ENDBRANCH   1   3
BRANCH   1  24
HETATM   24  C5  UNL     1      -1.065   0.818   0.311  1.00  0.00     0.702 A 
HETATM   25  N4  UNL     1      -1.147   2.060  -0.197  1.00  0.00    -0.174 N 
HETATM   26  C6  UNL     1      -2.254   2.461  -0.843  1.00  0.00     0.147 A 
ATOM     27  H4  UNL     1      -0.362   2.703  -0.091  1.00  0.00     0.186 HD
HETATM   28  C7  UNL     1      -3.278   1.545  -0.951  1.00  0.00     0.140 A 
HETATM   29  N6  UNL     1      -4.505   1.604  -1.516  1.00  0.00    -0.279 N 
HETATM   30  C10 UNL     1      -3.189   0.262  -0.423  1.00  0.00     0.173 A 
HETATM   31  N7  UNL     1      -5.104   0.457  -1.344  1.00  0.00    -0.236 N 
ATOM     32  H6  UNL     1      -4.898   2.412  -1.998  1.00  0.00     0.189 HD
HETATM   33  N8  UNL     1      -4.330  -0.408  -0.673  1.00  0.00    -0.230 N 
ATOM     34  H7  UNL     1      -6.044   0.245  -1.678  1.00  0.00     0.208 HD
HETATM   35  N9  UNL     1      -2.076  -0.086   0.204  1.00  0.00    -0.172 N 
ATOM     36  H9  UNL     1      -1.978  -1.020   0.602  1.00  0.00     0.186 HD
BRANCH  26  37
HETATM   37  N5  UNL     1      -2.386   3.636  -1.354  1.00  0.00    -0.383 N 
ATOM     38  H52 UNL     1      -1.628   4.314  -1.274  1.00  0.00     0.157 HD
ATOM     39  H51 UNL     1      -3.227   3.941  -1.845  1.00  0.00     0.157 HD
ENDBRANCH  26  37
BRANCH  33  40
HETATM   40  C8  UNL     1      -4.708  -1.755  -0.320  1.00  0.00     0.240 C 
HETATM   41  C9  UNL     1      -4.375  -2.114   1.110  1.00  0.00     0.065 C 
BRANCH  40  42
HETATM   42  O1  UNL     1      -4.276  -2.708  -1.231  1.00  0.00    -0.375 OA
ATOM     43  H1  UNL     1      -4.525  -3.595  -0.999  1.00  0.00     0.212 HD
ENDBRANCH  40  42
ENDBRANCH  33  40
ENDBRANCH   1  24
TORSDOF 9
