REMARK  8 active torsions:
REMARK  status: ('A' for Active; 'I' for Inactive)
REMARK    1  A    between atoms: C1_4  and  N2_5 
REMARK    2  A    between atoms: C3_10  and  S1_11 
REMARK    3  A    between atoms: S1_11  and  C4_12 
REMARK    4  A    between atoms: C4_12  and  C5_13 
REMARK    5  A    between atoms: N6_18  and  C6_19 
REMARK    6  A    between atoms: C7_22  and  N8_23 
REMARK    7  A    between atoms: C8_28  and  N10_29 
REMARK    8  A    between atoms: C9_38  and  N14_39 
ROOT
HETATM    1  C5  UNL     1      -0.320   0.756   1.650  1.00  0.00     0.123 A 
HETATM    2  N4  UNL     1      -0.064  -0.544   1.524  1.00  0.00    -0.271 N 
ATOM      3  H4  UNL     1       0.812  -1.005   1.769  1.00  0.00     0.190 HD
HETATM    4  N5  UNL     1      -1.142  -1.141   1.025  1.00  0.00    -0.205 N 
ATOM      5  H5  UNL     1      -1.216  -2.139   0.829  1.00  0.00     0.211 HD
HETATM    6  N6  UNL     1      -2.095  -0.268   0.821  1.00  0.00    -0.003 N 
HETATM    7  N12 UNL     1      -1.607   0.897   1.199  1.00  0.00    -0.250 N 
ATOM      8  H12 UNL     1      -2.116   1.780   1.161  1.00  0.00     0.191 HD
ENDROOT
BRANCH   1   9
HETATM    9  C4  UNL     1       0.520   1.872   2.150  1.00  0.00     0.161 C 
BRANCH   9  10
HETATM   10  S1  UNL     1       1.393   2.640   0.808  1.00  0.00    -0.086 SA
BRANCH  10  11
HETATM   11  C3  UNL     1       2.723   1.681   0.120  1.00  0.00     0.163 A 
HETATM   12  N3  UNL     1       3.331   2.086  -1.038  1.00  0.00    -0.287 N 
HETATM   13  C2  UNL     1       4.318   1.391  -1.612  1.00  0.00     0.348 A 
ATOM     14  H3  UNL     1       3.019   2.951  -1.479  1.00  0.00     0.172 HD
HETATM   15  N2  UNL     1       4.774   0.247  -1.079  1.00  0.00    -0.093 N 
HETATM   16  O1  UNL     1       4.872   1.785  -2.691  1.00  0.00    -0.245 OA
HETATM   17  C9  UNL     1       4.195  -0.171   0.056  1.00  0.00     0.689 A 
HETATM   18  N13 UNL     1       3.184   0.537   0.646  1.00  0.00    -0.170 N 
ATOM     19  H13 UNL     1       2.770   0.185   1.509  1.00  0.00     0.186 HD
BRANCH  15  20
HETATM   20  C1  UNL     1       5.826  -0.500  -1.685  1.00  0.00     0.204 C 
HETATM   21  N1  UNL     1       6.661  -1.130  -0.963  1.00  0.00    -0.394 N 
ATOM     22  H12 UNL     1       6.564  -1.091   0.052  1.00  0.00     0.156 HD
ATOM     23  H11 UNL     1       7.414  -1.665  -1.397  1.00  0.00     0.156 HD
ENDBRANCH  15  20
BRANCH  17  24
HETATM   24  N14 UNL     1       4.603  -1.254   0.588  1.00  0.00    -0.234 N 
ATOM     25 2H14 UNL     1       5.357  -1.782   0.148  1.00  0.00     0.174 HD
ATOM     26 1H14 UNL     1       4.163  -1.572   1.451  1.00  0.00     0.174 HD
ENDBRANCH  17  24
ENDBRANCH  10  11
ENDBRANCH   9  10
ENDBRANCH   1   9
BRANCH   6  27
HETATM   27  C6  UNL     1      -3.394  -0.531   0.296  1.00  0.00     0.749 A 
HETATM   28  N7  UNL     1      -3.959  -1.750   0.347  1.00  0.00    -0.018 N 
HETATM   29  C7  UNL     1      -5.185  -1.967  -0.157  1.00  0.00     0.705 A 
ATOM     30  H7  UNL     1      -3.448  -2.522   0.775  1.00  0.00     0.203 HD
HETATM   31  N9  UNL     1      -5.904  -0.995  -0.730  1.00  0.00    -0.022 N 
HETATM   32  C8  UNL     1      -5.366   0.235  -0.797  1.00  0.00     0.705 A 
ATOM     33  H9  UNL     1      -6.834  -1.182  -1.105  1.00  0.00     0.203 HD
HETATM   34  N11 UNL     1      -4.136   0.440  -0.288  1.00  0.00    -0.018 N 
ATOM     35  H11 UNL     1      -3.741   1.379  -0.346  1.00  0.00     0.203 HD
BRANCH  29  36
HETATM   36  N8  UNL     1      -5.732  -3.140  -0.109  1.00  0.00    -0.234 N 
ATOM     37  H82 UNL     1      -5.184  -3.881   0.328  1.00  0.00     0.174 HD
ATOM     38  H81 UNL     1      -6.663  -3.305  -0.492  1.00  0.00     0.174 HD
ENDBRANCH  29  36
BRANCH  32  39
HETATM   39  N10 UNL     1      -6.049   1.179  -1.347  1.00  0.00    -0.234 N 
ATOM     40 2H10 UNL     1      -6.981   1.024  -1.732  1.00  0.00     0.174 HD
ATOM     41 1H10 UNL     1      -5.641   2.112  -1.398  1.00  0.00     0.174 HD
ENDBRANCH  32  39
ENDBRANCH   6  27
TORSDOF 8
