REMARK  5 active torsions:
REMARK  status: ('A' for Active; 'I' for Inactive)
REMARK    1  A    between atoms: C3_5  and  C4_6 
REMARK       I    between atoms: C4_6  and  N2_8 
REMARK    2  A    between atoms: N2_8  and  N3_10 
REMARK    3  A    between atoms: C6_15  and  C7_16 
REMARK    4  A    between atoms: C8_21  and  C9_22 
REMARK    5  A    between atoms: C10_27  and  N8_28 
ROOT
HETATM    1  N3  UNL     1       0.072  -0.022   0.048  1.00  0.00    -0.129 N 
ATOM      2  H3  UNL     1      -0.067   0.524   0.899  1.00  0.00     0.205 HD
HETATM    3  C5  UNL     1      -0.950  -0.535  -0.572  1.00  0.00     0.702 A 
HETATM    4  N4  UNL     1      -2.191  -0.334  -0.074  1.00  0.00    -0.164 N 
ATOM      5  H4  UNL     1      -2.322   0.213   0.777  1.00  0.00     0.186 HD
HETATM    6  C6  UNL     1      -3.263  -0.868  -0.717  1.00  0.00     0.219 A 
HETATM    7  O4  UNL     1      -3.037  -1.562  -1.804  1.00  0.00    -0.257 OA
HETATM    8  C10 UNL     1      -1.844  -1.770  -2.305  1.00  0.00     0.238 A 
HETATM    9  N9  UNL     1      -0.778  -1.257  -1.693  1.00  0.00    -0.153 N 
ATOM     10  H9  UNL     1       0.157  -1.410  -2.070  1.00  0.00     0.188 HD
ENDROOT
BRANCH   1  11
HETATM   11  N2  UNL     1       1.355  -0.220  -0.453  1.00  0.00    -0.252 N 
HETATM   12  C4  UNL     1       2.293   0.814  -0.650  1.00  0.00     0.279 C 
HETATM   13  O1  UNL     1       1.983   1.984  -0.369  1.00  0.00    -0.267 OA
ATOM     14  H2  UNL     1       1.634  -1.171  -0.692  1.00  0.00     0.190 HD
BRANCH  12  15
HETATM   15  C3  UNL     1       3.630   0.505  -1.186  1.00  0.00     0.279 A 
HETATM   16  N1  UNL     1       4.406  -0.322  -0.291  1.00  0.00    -0.362 N 
HETATM   17  C2  UNL     1       5.461   0.235   0.130  1.00  0.00     0.046 A 
ATOM     18  H1  UNL     1       4.129  -1.267  -0.024  1.00  0.00     0.162 HD
HETATM   19  C1  UNL     1       6.477  -0.363   1.072  1.00  0.00     0.072 C 
HETATM   20  C11 UNL     1       5.532   1.566  -0.453  1.00  0.00     0.119 A 
HETATM   21  N10 UNL     1       4.377   1.740  -1.285  1.00  0.00    -0.346 N 
HETATM   22  N11 UNL     1       6.479   2.439  -0.251  1.00  0.00    -0.384 N 
ATOM     23  H10 UNL     1       4.133   2.564  -1.833  1.00  0.00     0.163 HD
ATOM     24 2H11 UNL     1       7.301   2.315   0.341  1.00  0.00     0.157 HD
ATOM     25 1H11 UNL     1       6.529   3.372  -0.660  1.00  0.00     0.157 HD
ENDBRANCH  12  15
ENDBRANCH   1  11
BRANCH   6  26
HETATM   26  C7  UNL     1      -4.612  -0.669  -0.206  1.00  0.00     0.217 A 
HETATM   27  N5  UNL     1      -5.727  -1.154  -0.767  1.00  0.00    -0.274 N 
HETATM   28  N6  UNL     1      -6.791  -0.797  -0.061  1.00  0.00    -0.273 N 
ATOM     29  H5  UNL     1      -5.754  -1.718  -1.617  1.00  0.00     0.189 HD
HETATM   30  C8  UNL     1      -6.308  -0.062   0.979  1.00  0.00     0.230 A 
ATOM     31  H6  UNL     1      -7.766  -1.025  -0.256  1.00  0.00     0.189 HD
HETATM   32  O3  UNL     1      -5.006  -0.015   0.847  1.00  0.00    -0.265 OA
BRANCH  30  33
HETATM   33  C9  UNL     1      -7.098   0.558   2.041  1.00  0.00     0.307 C 
HETATM   34  N7  UNL     1      -6.435   1.290   3.047  1.00  0.00    -0.054 NA
HETATM   35  O2  UNL     1      -8.349   0.460   2.088  1.00  0.00    -0.267 OA
ENDBRANCH  30  33
ENDBRANCH   6  26
BRANCH   8  36
HETATM   36  N8  UNL     1      -1.713  -2.475  -3.396  1.00  0.00    -0.364 N 
ATOM     37  H82 UNL     1      -2.529  -2.868  -3.865  1.00  0.00     0.159 HD
ATOM     38  H81 UNL     1      -0.784  -2.637  -3.786  1.00  0.00     0.159 HD
ENDBRANCH   8  36
TORSDOF 5
