REMARK  9 active torsions:
REMARK  status: ('A' for Active; 'I' for Inactive)
REMARK    1  A    between atoms: N2_5  and  N3_6 
REMARK    2  A    between atoms: C2_9  and  N4_10 
REMARK    3  A    between atoms: C2_9  and  C3_14 
REMARK       I    between atoms: C3_14  and  N5_16 
REMARK    4  A    between atoms: N5_16  and  N6_18 
REMARK    5  A    between atoms: N6_18  and  N7_19 
REMARK    6  A    between atoms: C5_24  and  S2_25 
REMARK    7  A    between atoms: S2_25  and  C6_26 
REMARK    8  A    between atoms: C6_26  and  C7_27 
REMARK    9  A    between atoms: C7_27  and  O2_28 
ROOT
HETATM    1  N1  UNL     1      -1.507  -3.419  -1.089  1.00  0.00    -0.385 N 
ATOM      2  H11 UNL     1      -0.781  -4.028  -1.467  1.00  0.00     0.157 HD
ATOM      3  H12 UNL     1      -2.158  -4.188  -1.251  1.00  0.00     0.157 HD
HETATM    4  C1  UNL     1      -1.648  -2.238  -0.602  1.00  0.00     0.136 C 
HETATM    5  N2  UNL     1      -2.661  -1.388  -0.075  1.00  0.00    -0.236 N 
HETATM    6  C2  UNL     1      -1.914  -0.279  -0.546  1.00  0.00     0.337 C 
HETATM    7  C4  UNL     1      -0.706  -1.125  -0.368  1.00  0.00     0.258 C 
HETATM    8  S1  UNL     1       0.624  -0.947  -1.553  1.00  0.00    -0.063 SA
HETATM    9  C5  UNL     1       1.987  -0.542  -0.469  1.00  0.00     0.119 C 
HETATM   10  N8  UNL     1       1.707  -0.641   0.739  1.00  0.00    -0.271 N 
ATOM     11  H8  UNL     1       2.400  -0.437   1.459  1.00  0.00     0.179 HD
HETATM   12  S3  UNL     1       0.147  -1.123   1.144  1.00  0.00     0.263 S 
HETATM   13  O3  UNL     1       0.239  -2.548   1.687  1.00  0.00    -0.203 OA
HETATM   14  O4  UNL     1      -0.481  -0.269   2.210  1.00  0.00    -0.203 OA
ENDROOT
BRANCH   6  15
HETATM   15  N4  UNL     1      -2.166  -0.135  -2.012  1.00  0.00    -0.038 N 
ATOM     16  H43 UNL     1      -1.969  -0.991  -2.531  1.00  0.00     0.278 HD
ATOM     17  H42 UNL     1      -3.159  -0.064  -2.235  1.00  0.00     0.278 HD
ATOM     18  H41 UNL     1      -1.629   0.663  -2.351  1.00  0.00     0.278 HD
ENDBRANCH   6  15
BRANCH   6  19
HETATM   19  C3  UNL     1      -1.992   1.014   0.100  1.00  0.00     0.296 C 
HETATM   20  O1  UNL     1      -1.094   1.869  -0.221  1.00  0.00    -0.267 OA
HETATM   21  N5  UNL     1      -2.962   1.416   1.037  1.00  0.00    -0.250 N 
ATOM     22  H5  UNL     1      -3.699   0.770   1.320  1.00  0.00     0.187 HD
BRANCH  21  23
HETATM   23  N6  UNL     1      -2.910   2.732   1.590  1.00  0.00    -0.027 NA
BRANCH  23  24
HETATM   24  N7  UNL     1      -2.881   3.633   0.523  1.00  0.00    -0.329 N 
ATOM     25  H72 UNL     1      -2.895   3.382  -0.465  1.00  0.00     0.174 HD
ATOM     26  H71 UNL     1      -2.844   4.573   0.918  1.00  0.00     0.174 HD
ENDBRANCH  23  24
ENDBRANCH  21  23
ENDBRANCH   6  19
BRANCH   5  27
HETATM   27  N3  UNL     1      -3.847  -1.603   0.605  1.00  0.00    -0.339 N 
ATOM     28  H32 UNL     1      -4.384  -2.401   0.944  1.00  0.00     0.177 HD
ATOM     29  H31 UNL     1      -4.573  -0.994   0.983  1.00  0.00     0.177 HD
ENDBRANCH   5  27
BRANCH   9  30
HETATM   30  S2  UNL     1       3.622  -0.021  -1.096  1.00  0.00    -0.102 SA
BRANCH  30  31
HETATM   31  C6  UNL     1       4.732   0.289   0.290  1.00  0.00     0.107 C 
BRANCH  31  32
HETATM   32  C7  UNL     1       6.086   0.755  -0.143  1.00  0.00     0.174 C 
BRANCH  32  33
HETATM   33  O2  UNL     1       6.652  -0.222  -0.947  1.00  0.00    -0.400 OA
ATOM     34  H2  UNL     1       7.512   0.074  -1.222  1.00  0.00     0.209 HD
ENDBRANCH  32  33
ENDBRANCH  31  32
ENDBRANCH  30  31
ENDBRANCH   9  30
TORSDOF 9
