REMARK  6 active torsions:
REMARK  status: ('A' for Active; 'I' for Inactive)
REMARK    1  A    between atoms: C2_2  and  C3_3 
REMARK    2  A    between atoms: C3_3  and  C4_4 
REMARK    3  A    between atoms: C4_4  and  C5_5 
REMARK    4  A    between atoms: C5_5  and  N1_6 
REMARK    5  A    between atoms: N1_6  and  C6_8 
REMARK    6  A    between atoms: C6_8  and  N2_10 
ROOT
HETATM    1  N2  UNL     1       2.153  -0.662  -0.154  1.00  0.00    -0.353 N 
HETATM    2  C7  UNL     1       2.405   0.756  -0.252  1.00  0.00     0.131 C 
HETATM    3  C8  UNL     1       3.729   1.065  -0.892  1.00  0.00     0.078 C 
HETATM    4  C9  UNL     1       4.784   0.417  -0.017  1.00  0.00     0.025 A 
HETATM    5  N3  UNL     1       5.874   0.945   0.432  1.00  0.00    -0.362 N 
ATOM      6  H3  UNL     1       6.103   1.912   0.203  1.00  0.00     0.165 HD
HETATM    7  C10 UNL     1       6.694   0.232   1.189  1.00  0.00     0.138 A 
HETATM    8  S2  UNL     1       5.887  -1.271   1.278  1.00  0.00    -0.086 SA
HETATM    9  C11 UNL     1       4.522  -0.891   0.322  1.00  0.00     0.024 A 
HETATM   10  C12 UNL     1       3.275  -1.588  -0.155  1.00  0.00     0.173 C 
ENDROOT
BRANCH   1  11
HETATM   11  C6  UNL     1       0.851  -1.206  -0.053  1.00  0.00     0.170 C 
HETATM   12  S1  UNL     1       0.600  -2.814   0.054  1.00  0.00    -0.041 SA
BRANCH  11  13
HETATM   13  N1  UNL     1      -0.292  -0.369  -0.041  1.00  0.00    -0.367 N 
ATOM     14  H1  UNL     1      -0.164   0.641  -0.106  1.00  0.00     0.161 HD
BRANCH  13  15
HETATM   15  C5  UNL     1      -1.644  -0.903   0.061  1.00  0.00     0.122 C 
BRANCH  15  16
HETATM   16  C4  UNL     1      -2.616   0.249   0.045  1.00  0.00     0.020 C 
BRANCH  16  17
HETATM   17  C3  UNL     1      -4.042  -0.187   0.146  1.00  0.00     0.001 C 
BRANCH  17  18
HETATM   18  C2  UNL     1      -4.910   1.059   0.120  1.00  0.00    -0.004 C 
HETATM   19  C1  UNL     1      -6.381   0.699   0.218  1.00  0.00     0.005 C 
ENDBRANCH  17  18
ENDBRANCH  16  17
ENDBRANCH  15  16
ENDBRANCH  13  15
ENDBRANCH  11  13
ENDBRANCH   1  11
TORSDOF 6
