REMARK  4 active torsions:
REMARK  status: ('A' for Active; 'I' for Inactive)
REMARK    1  A    between atoms: C4_6  and  C5_7 
REMARK    2  A    between atoms: C5_7  and  C6_8 
REMARK    3  A    between atoms: N2_12  and  C10_13 
REMARK    4  A    between atoms: C10_13  and  C11_14 
ROOT
HETATM    1  C1  UNL     1      -1.634  -3.482   0.605  1.00  0.00     0.068 C 
HETATM    2  C2  UNL     1      -1.361  -2.057   0.222  1.00  0.00     0.012 A 
HETATM    3  N1  UNL     1      -0.126  -1.732  -0.153  1.00  0.00    -0.357 N 
ATOM      4  H1  UNL     1       0.598  -2.450  -0.173  1.00  0.00     0.166 HD
HETATM    5  C3  UNL     1       0.178  -0.487  -0.502  1.00  0.00     0.068 A 
HETATM    6  C4  UNL     1       1.356   0.080  -0.931  1.00  0.00    -0.013 A 
HETATM    7  C9  UNL     1       1.052   1.394  -1.155  1.00  0.00     0.101 A 
HETATM    8  N2  UNL     1      -0.282   1.623  -0.868  1.00  0.00    -0.346 N 
HETATM    9  C12 UNL     1      -0.835   0.489  -0.469  1.00  0.00     0.069 A 
HETATM   10  C13 UNL     1      -2.116   0.168  -0.085  1.00  0.00    -0.025 A 
HETATM   11  C14 UNL     1      -3.237   1.116  -0.044  1.00  0.00     0.051 C 
HETATM   12  C15 UNL     1      -2.374  -1.155   0.271  1.00  0.00    -0.032 A 
HETATM   13  C16 UNL     1      -3.724  -1.562   0.693  1.00  0.00     0.050 C 
ENDROOT
BRANCH   6  14
HETATM   14  C5  UNL     1       2.668  -0.569  -1.100  1.00  0.00     0.046 C 
BRANCH  14  15
HETATM   15  C6  UNL     1       3.467  -0.731   0.133  1.00  0.00    -0.018 C 
HETATM   16  C7  UNL     1       4.783  -1.414  -0.308  1.00  0.00     0.010 C 
HETATM   17  C8  UNL     1       2.879  -1.623   1.192  1.00  0.00     0.010 C 
ENDBRANCH  14  15
ENDBRANCH   6  14
BRANCH   8  18
HETATM   18  C10 UNL     1      -0.884   2.935  -0.985  1.00  0.00     0.228 C 
BRANCH  18  19
HETATM   19  C11 UNL     1      -0.654   3.656   0.295  1.00  0.00     0.249 C 
HETATM   20  N3  UNL     1      -1.117   4.975   0.536  1.00  0.00    -0.061 NA
HETATM   21  O1  UNL     1      -0.021   3.079   1.208  1.00  0.00    -0.275 OA
ENDBRANCH  18  19
ENDBRANCH   8  18
TORSDOF 4
