REMARK  5 active torsions:
REMARK  status: ('A' for Active; 'I' for Inactive)
REMARK    1  A    between atoms: C2_2  and  N1_3 
REMARK    2  A    between atoms: C2_2  and  C9_14 
REMARK    3  A    between atoms: N1_3  and  C3_5 
REMARK    4  A    between atoms: C3_5  and  C4_6 
REMARK       I    between atoms: C4_6  and  N2_8 
REMARK    5  A    between atoms: C9_14  and  C12_17 
ROOT
HETATM    1  N1  UNL     1       0.080  -0.067  -0.560  1.00  0.00    -0.409 N 
ATOM      2  H1  UNL     1      -0.025  -0.661  -1.382  1.00  0.00     0.154 HD
ENDROOT
BRANCH   1   3
HETATM    3  C2  UNL     1      -1.044   0.583   0.053  1.00  0.00     0.081 C 
HETATM    4  C1  UNL     1      -0.949   2.078   0.010  1.00  0.00     0.032 C 
BRANCH   3   5
HETATM    5  C9  UNL     1      -2.293  -0.019  -0.475  1.00  0.00    -0.021 C 
HETATM    6  C10 UNL     1      -2.129  -1.540  -0.315  1.00  0.00     0.018 C 
HETATM    7  C11 UNL     1      -2.454   0.201  -1.964  1.00  0.00     0.018 C 
BRANCH   5   8
HETATM    8  C12 UNL     1      -3.580   0.365   0.203  1.00  0.00    -0.043 C 
HETATM    9  C13 UNL     1      -3.939   1.806   0.194  1.00  0.00     0.015 C 
HETATM   10  C14 UNL     1      -3.604  -0.085   1.653  1.00  0.00     0.015 C 
HETATM   11  C15 UNL     1      -4.737  -0.348  -0.482  1.00  0.00     0.015 C 
ENDBRANCH   5   8
ENDBRANCH   3   5
ENDBRANCH   1   3
BRANCH   1  12
HETATM   12  C3  UNL     1       1.341   0.162   0.039  1.00  0.00     0.217 C 
BRANCH  12  13
HETATM   13  C4  UNL     1       2.380  -0.583  -0.717  1.00  0.00     0.237 C 
HETATM   14  O1  UNL     1       2.009  -1.259  -1.710  1.00  0.00    -0.272 OA
HETATM   15  N2  UNL     1       3.756  -0.536  -0.337  1.00  0.00    -0.347 N 
HETATM   16  C5  UNL     1       4.749  -1.271  -1.093  1.00  0.00     0.152 C 
HETATM   17  C8  UNL     1       4.222   0.229   0.797  1.00  0.00     0.152 C 
HETATM   18  C6  UNL     1       5.785  -1.769  -0.113  1.00  0.00     0.187 C 
HETATM   19  O2  UNL     1       6.420  -0.773   0.582  1.00  0.00    -0.388 OA
HETATM   20  C7  UNL     1       5.707   0.383   0.771  1.00  0.00     0.187 C 
ENDBRANCH  12  13
ENDBRANCH   1  12
TORSDOF 5
