REMARK  0 active torsions:
REMARK  status: ('A' for Active; 'I' for Inactive)
ROOT
HETATM    1  N1  UNL     1       2.791   0.067   0.096  1.00  0.00    -0.102 NA
HETATM    2  C1  UNL     1       1.380   0.073   0.046  1.00  0.00     0.046 A 
HETATM    3  C2  UNL     1       0.631   1.228   0.056  1.00  0.00     0.028 A 
HETATM    4  C3  UNL     1      -0.745   1.208   0.006  1.00  0.00     0.028 A 
HETATM    5  C4  UNL     1      -1.372  -0.016  -0.055  1.00  0.00     0.046 A 
HETATM    6  N2  UNL     1      -2.791  -0.113  -0.108  1.00  0.00    -0.102 NA
HETATM    7  C5  UNL     1      -0.663  -1.181  -0.066  1.00  0.00     0.028 A 
HETATM    8  C6  UNL     1       0.704  -1.134  -0.016  1.00  0.00     0.028 A 
ENDROOT
TORSDOF 0
