REMARK  1 active torsions:
REMARK  status: ('A' for Active; 'I' for Inactive)
REMARK    1  A    between atoms: N1_2  and  C2_4 
ROOT
HETATM    1  C2  UNL     1       0.288  -0.038   0.145  1.00  0.00     0.054 A 
HETATM    2  C3  UNL     1       0.013   0.262  -1.176  1.00  0.00     0.173 A 
HETATM    3  O1  UNL     1      -1.288   0.371  -1.321  1.00  0.00    -0.306 OA
HETATM    4  C4  UNL     1      -1.914   0.167  -0.201  1.00  0.00     0.158 A 
HETATM    5  N2  UNL     1      -3.320   0.202   0.024  1.00  0.00    -0.074 NA
HETATM    6  C5  UNL     1      -0.959  -0.095   0.754  1.00  0.00     0.084 A 
ENDROOT
BRANCH   1   7
HETATM    7  N1  UNL     1       1.557  -0.245   0.755  1.00  0.00    -0.393 N 
HETATM    8  C1  UNL     1       2.750  -0.141  -0.060  1.00  0.00     0.146 C 
ATOM      9  H1  UNL     1       1.625  -0.463   1.749  1.00  0.00     0.159 HD
ENDBRANCH   1   7
TORSDOF 1
