REMARK  5 active torsions:
REMARK  status: ('A' for Active; 'I' for Inactive)
REMARK    1  A    between atoms: N1_1  and  N2_4 
REMARK       I    between atoms: N2_4  and  C1_6 
REMARK       I    between atoms: C1_6  and  N3_8 
REMARK    2  A    between atoms: N3_8  and  N4_10 
REMARK       I    between atoms: N4_10  and  C2_12 
REMARK    3  A    between atoms: C2_12  and  C3_14 
REMARK    4  A    between atoms: C3_14  and  O3_15 
REMARK    5  A    between atoms: C3_14  and  C4_17 
REMARK       I    between atoms: N5_22  and  C9_23 
ROOT
HETATM    1  N4  UNL     1       2.258  -0.811  -0.647  1.00  0.00    -0.264 N 
ATOM      2  H4  UNL     1       2.214  -1.746  -1.052  1.00  0.00     0.190 HD
HETATM    3  C2  UNL     1       1.167  -0.384   0.142  1.00  0.00     0.267 C 
HETATM    4  O2  UNL     1       1.207   0.750   0.642  1.00  0.00    -0.269 OA
ENDROOT
BRANCH   3   5
HETATM    5  C3  UNL     1       0.011  -1.279   0.359  1.00  0.00     0.234 C 
BRANCH   5   6
HETATM    6  O3  UNL     1       0.312  -2.430  -0.437  1.00  0.00    -0.384 OA
ATOM      7  H3  UNL     1      -0.431  -3.005  -0.298  1.00  0.00     0.210 HD
ENDBRANCH   5   6
BRANCH   5   8
HETATM    8  C4  UNL     1      -1.256  -0.753  -0.205  1.00  0.00     0.126 C 
HETATM    9  C5  UNL     1      -2.304  -1.841  -0.269  1.00  0.00     0.028 C 
HETATM   10  C6  UNL     1      -3.585  -1.212  -0.721  1.00  0.00     0.004 C 
HETATM   11  C7  UNL     1      -3.459   0.144  -1.365  1.00  0.00     0.020 C 
HETATM   12  C8  UNL     1      -2.752   1.146  -0.467  1.00  0.00     0.128 C 
HETATM   13  N5  UNL     1      -1.876   0.357   0.450  1.00  0.00    -0.329 N 
HETATM   14  C9  UNL     1      -1.838   0.734   1.781  1.00  0.00     0.331 C 
HETATM   15  N6  UNL     1      -2.481   1.914   2.240  1.00  0.00    -0.040 NA
HETATM   16  O4  UNL     1      -1.241   0.066   2.657  1.00  0.00    -0.251 OA
ENDBRANCH   5   8
ENDBRANCH   3   5
BRANCH   1  17
HETATM   17  N3  UNL     1       3.383  -0.048  -0.908  1.00  0.00    -0.248 N 
HETATM   18  C1  UNL     1       4.214   0.394   0.148  1.00  0.00     0.353 C 
HETATM   19  N2  UNL     1       5.362   1.174  -0.134  1.00  0.00    -0.257 N 
HETATM   20  O1  UNL     1       3.937   0.098   1.327  1.00  0.00    -0.244 OA
ATOM     21  H2  UNL     1       5.564   1.401  -1.108  1.00  0.00     0.191 HD
ATOM     22  H3  UNL     1       3.615   0.198  -1.870  1.00  0.00     0.192 HD
BRANCH  19  23
HETATM   23  N1  UNL     1       6.229   1.647   0.844  1.00  0.00    -0.341 N 
ATOM     24  H12 UNL     1       6.012   1.411   1.812  1.00  0.00     0.177 HD
ATOM     25  H11 UNL     1       7.056   2.209   0.641  1.00  0.00     0.177 HD
ENDBRANCH  19  23
ENDBRANCH   1  17
TORSDOF 5
