REMARK  4 active torsions:
REMARK  status: ('A' for Active; 'I' for Inactive)
REMARK    1  A    between atoms: C2_2  and  N1_3 
REMARK       I    between atoms: C3_5  and  N3_7 
REMARK    2  A    between atoms: C7_14  and  O1_15 
REMARK    3  A    between atoms: C7_14  and  C8_17 
REMARK    4  A    between atoms: C10_21  and  N7_22 
ROOT
HETATM    1  C1  UNL     1       0.634  -2.493   1.224  1.00  0.00     0.041 C 
HETATM    2  C2  UNL     1      -0.055  -1.242   0.667  1.00  0.00     0.057 C 
HETATM    3  C5  UNL     1       0.149  -0.154   1.647  1.00  0.00     0.036 C 
HETATM    4  C6  UNL     1       1.110   0.911   1.245  1.00  0.00     0.050 C 
HETATM    5  C7  UNL     1       2.348   0.411   0.563  1.00  0.00     0.138 C 
HETATM    6  C9  UNL     1       2.108  -0.787  -0.311  1.00  0.00     0.082 C 
HETATM    7  C10 UNL     1       0.637  -0.935  -0.650  1.00  0.00     0.214 C 
ENDROOT
BRANCH   2   8
HETATM    8  N1  UNL     1      -1.429  -1.514   0.364  1.00  0.00    -0.353 N 
HETATM    9  C3  UNL     1      -2.337  -0.762  -0.061  1.00  0.00     0.191 C 
HETATM   10  N2  UNL     1      -3.639  -1.281  -0.285  1.00  0.00    -0.063 NA
HETATM   11  N3  UNL     1      -2.081   0.601  -0.322  1.00  0.00    -0.307 N 
HETATM   12  C4  UNL     1      -2.983   1.513  -0.380  1.00  0.00     0.203 C 
ATOM     13  H3  UNL     1      -1.112   0.881  -0.475  1.00  0.00     0.170 HD
HETATM   14  N4  UNL     1      -2.616   2.855  -0.649  1.00  0.00    -0.066 NA
HETATM   15  N5  UNL     1      -4.351   1.206  -0.178  1.00  0.00    -0.066 NA
ATOM     16  H1  UNL     1      -1.716  -2.480   0.520  1.00  0.00     0.163 HD
ENDBRANCH   2   8
BRANCH   7  17
HETATM   17  N7  UNL     1       0.437  -1.963  -1.616  1.00  0.00    -0.073 N 
ATOM     18  H73 UNL     1       0.723  -2.872  -1.252  1.00  0.00     0.274 HD
ATOM     19  H72 UNL     1      -0.556  -2.150  -1.756  1.00  0.00     0.274 HD
ATOM     20  H71 UNL     1       0.902  -1.757  -2.500  1.00  0.00     0.274 HD
ENDBRANCH   7  17
BRANCH   5  21
HETATM   21  O1  UNL     1       3.341   0.121   1.494  1.00  0.00    -0.380 OA
ATOM     22  H1  UNL     1       4.125  -0.196   1.062  1.00  0.00     0.211 HD
ENDBRANCH   5  21
BRANCH   5  23
HETATM   23  C8  UNL     1       2.857   1.506  -0.303  1.00  0.00     0.265 C 
HETATM   24  N6  UNL     1       4.150   2.064  -0.102  1.00  0.00    -0.059 NA
HETATM   25  O2  UNL     1       2.161   1.982  -1.248  1.00  0.00    -0.273 OA
ENDBRANCH   5  23
TORSDOF 4
