REMARK  1 active torsions:
REMARK  status: ('A' for Active; 'I' for Inactive)
REMARK    1  A    between atoms: N1_2  and  C4_5 
ROOT
HETATM    1  C4  UNL     1       0.504   0.464  -0.335  1.00  0.00     0.387 C 
HETATM    2  C5  UNL     1       1.609   0.304   0.705  1.00  0.00     0.090 C 
HETATM    3  C6  UNL     1       2.474   0.484  -0.553  1.00  0.00     0.238 C 
HETATM    4  N2  UNL     1       1.379  -0.223  -1.244  1.00  0.00    -0.046 N 
ATOM      5  H21 UNL     1       1.256  -0.168  -2.255  1.00  0.00     0.279 HD
ATOM      6  H22 UNL     1       1.368  -1.239  -1.337  1.00  0.00     0.279 HD
ENDROOT
BRANCH   1   7
HETATM    7  N1  UNL     1      -0.748  -0.077  -0.034  1.00  0.00    -0.050 N 
HETATM    8  C1  UNL     1      -0.868  -0.216   1.424  1.00  0.00     0.274 C 
HETATM    9  C2  UNL     1      -1.091  -1.327  -0.616  1.00  0.00     0.274 C 
HETATM   10  C3  UNL     1      -1.807   0.875  -0.408  1.00  0.00     0.274 C 
ENDBRANCH   1   7
TORSDOF 1
