REMARK  3 active torsions:
REMARK  status: ('A' for Active; 'I' for Inactive)
REMARK    1  A    between atoms: N1_3  and  C3_4 
REMARK    2  A    between atoms: C3_4  and  C4_5 
REMARK    3  A    between atoms: C5_6  and  C6_7 
ROOT
HETATM    1  C1  UNL     1      -5.080   0.498   0.094  1.00  0.00     0.032 C 
HETATM    2  C2  UNL     1      -3.907   0.313   0.309  1.00  0.00    -0.011 C 
HETATM    3  N1  UNL     1      -2.548   0.103   0.575  1.00  0.00    -0.150 NA
ENDROOT
BRANCH   3   4
HETATM    4  C3  UNL     1      -1.842   0.249  -0.684  1.00  0.00     0.219 C 
BRANCH   4   5
HETATM    5  C4  UNL     1      -0.420   0.026  -0.388  1.00  0.00    -0.076 C 
HETATM    6  C5  UNL     1       0.758  -0.145  -0.142  1.00  0.00    -0.014 C 
BRANCH   6   7
HETATM    7  C6  UNL     1       2.136  -0.329   0.149  1.00  0.00    -0.015 C 
HETATM    8  C7  UNL     1       3.313  -0.470   0.402  1.00  0.00    -0.097 C 
HETATM    9  C8  UNL     1       4.743  -0.622   0.699  1.00  0.00     0.113 C 
ENDBRANCH   6   7
ENDBRANCH   4   5
ENDBRANCH   3   4
TORSDOF 3
