REMARK  2 active torsions:
REMARK  status: ('A' for Active; 'I' for Inactive)
REMARK    1  A    between atoms: C5_8  and  C6_9 
REMARK    2  A    between atoms: C6_9  and  O1_10 
ROOT
HETATM    1  C1  UNL     1      -2.594   0.100  -0.057  1.00  0.00     0.014 C 
HETATM    2  C2  UNL     1      -1.213   0.343  -0.454  1.00  0.00     0.044 C 
HETATM    3  C3  UNL     1      -0.205   0.783   0.554  1.00  0.00     0.200 C 
HETATM    4  N1  UNL     1      -0.221  -0.563   1.062  1.00  0.00    -0.065 N 
ATOM      5  H11 UNL     1      -0.907  -0.946   1.713  1.00  0.00     0.278 HD
ATOM      6  H12 UNL     1       0.445  -0.957   1.726  1.00  0.00     0.278 HD
HETATM    7  C4  UNL     1      -0.209  -0.767  -0.358  1.00  0.00     0.200 C 
HETATM    8  C5  UNL     1       0.803   0.328  -0.444  1.00  0.00     0.071 C 
ENDROOT
BRANCH   8   9
HETATM    9  C6  UNL     1       2.180   0.096  -0.056  1.00  0.00     0.173 C 
BRANCH   9  10
HETATM   10  O1  UNL     1       2.904  -0.324  -1.197  1.00  0.00    -0.400 OA
ATOM     11  H1  UNL     1       3.807  -0.476  -0.943  1.00  0.00     0.209 HD
ENDBRANCH   9  10
ENDBRANCH   8   9
TORSDOF 2
