REMARK  9 active torsions:
REMARK  status: ('A' for Active; 'I' for Inactive)
REMARK    1  A    between atoms: C4_7  and  S1_8 
REMARK    2  A    between atoms: S1_8  and  C5_9 
REMARK    3  A    between atoms: C5_9  and  N4_18 
REMARK    4  A    between atoms: N3_10  and  C6_12 
REMARK    5  A    between atoms: C6_12  and  C7_13 
REMARK    6  A    between atoms: C7_13  and  C8_14 
REMARK    7  A    between atoms: N4_18  and  C9_20 
REMARK    8  A    between atoms: C13_24  and  N5_25 
REMARK       I    between atoms: N5_25  and  C14_27 
REMARK    9  A    between atoms: C14_27  and  C15_29 
ROOT
HETATM    1  C1  UNL     1       3.481  -1.451  -3.086  1.00  0.00     0.072 C 
HETATM    2  C2  UNL     1       2.268  -0.599  -2.828  1.00  0.00     0.051 A 
HETATM    3  N1  UNL     1       1.374  -0.179  -3.736  1.00  0.00    -0.300 N 
ATOM      4  H1  UNL     1       1.411  -0.392  -4.733  1.00  0.00     0.187 HD
HETATM    5  N2  UNL     1       0.440   0.550  -3.153  1.00  0.00    -0.287 N 
HETATM    6  C3  UNL     1      -0.662   1.138  -3.895  1.00  0.00     0.178 C 
HETATM    7  C4  UNL     1       0.701   0.625  -1.845  1.00  0.00     0.123 A 
HETATM    8  C13 UNL     1       1.848  -0.089  -1.604  1.00  0.00     0.094 A 
ENDROOT
BRANCH   7   9
HETATM    9  S1  UNL     1      -0.246   1.485  -0.616  1.00  0.00    -0.033 SA
BRANCH   9  10
HETATM   10  C5  UNL     1      -1.508   0.437   0.090  1.00  0.00     0.143 C 
HETATM   11  N3  UNL     1      -2.269   0.943   1.000  1.00  0.00    -0.370 N 
ATOM     12  H3  UNL     1      -2.992   0.351   1.408  1.00  0.00     0.161 HD
BRANCH  11  13
HETATM   13  C6  UNL     1      -2.153   2.300   1.472  1.00  0.00     0.130 C 
BRANCH  13  14
HETATM   14  C7  UNL     1      -3.485   2.949   1.718  1.00  0.00     0.137 C 
BRANCH  14  15
HETATM   15  C8  UNL     1      -4.264   2.972   0.433  1.00  0.00     0.389 C 
HETATM   16  F1  UNL     1      -5.507   3.578   0.660  1.00  0.00    -0.171 F 
HETATM   17  F2  UNL     1      -4.433   1.678  -0.011  1.00  0.00    -0.171 F 
HETATM   18  F3  UNL     1      -3.576   3.680  -0.538  1.00  0.00    -0.171 F 
ENDBRANCH  14  15
ENDBRANCH  13  14
ENDBRANCH  11  13
BRANCH  10  19
HETATM   19  N4  UNL     1      -1.709  -0.915  -0.303  1.00  0.00    -0.363 N 
ATOM     20  H4  UNL     1      -1.513  -1.159  -1.274  1.00  0.00     0.162 HD
BRANCH  19  21
HETATM   21  C9  UNL     1      -2.162  -1.951   0.557  1.00  0.00     0.021 C 
HETATM   22  C10 UNL     1      -2.251  -3.245  -0.218  1.00  0.00     0.037 C 
HETATM   23  C11 UNL     1      -3.515  -1.684   1.169  1.00  0.00     0.037 C 
HETATM   24  C12 UNL     1      -1.129  -2.178   1.658  1.00  0.00     0.037 C 
ENDBRANCH  19  21
ENDBRANCH  10  19
ENDBRANCH   9  10
ENDBRANCH   7   9
BRANCH   8  25
HETATM   25  N5  UNL     1       2.535  -0.311  -0.382  1.00  0.00    -0.317 N 
HETATM   26  C14 UNL     1       3.554   0.574   0.064  1.00  0.00     0.280 C 
HETATM   27  O1  UNL     1       3.838   1.554  -0.638  1.00  0.00    -0.265 OA
ATOM     28  H5  UNL     1       2.293  -1.122   0.187  1.00  0.00     0.169 HD
BRANCH  26  29
HETATM   29  C15 UNL     1       4.261   0.335   1.332  1.00  0.00     0.142 A 
HETATM   30  C16 UNL     1       5.249   1.114   1.854  1.00  0.00     0.045 A 
HETATM   31  C17 UNL     1       5.647   0.547   3.055  1.00  0.00     0.027 A 
HETATM   32  C18 UNL     1       4.853  -0.580   3.200  1.00  0.00     0.143 A 
HETATM   33  O2  UNL     1       4.056  -0.657   2.159  1.00  0.00    -0.317 OA
ENDBRANCH  26  29
ENDBRANCH   8  25
TORSDOF 9
