REMARK  8 active torsions:
REMARK  status: ('A' for Active; 'I' for Inactive)
REMARK    1  A    between atoms: O1_1  and  N1_3 
REMARK    2  A    between atoms: N1_3  and  C1_5 
REMARK    3  A    between atoms: C1_5  and  O2_6 
REMARK    4  A    between atoms: C1_5  and  C2_8 
REMARK    5  A    between atoms: C6_12  and  N2_13 
REMARK    6  A    between atoms: C11_22  and  O3_23 
REMARK    7  A    between atoms: O3_23  and  C12_24 
REMARK    8  A    between atoms: C12_24  and  C13_25 
ROOT
HETATM    1  N2  UNL     1      -1.774  -1.820  -1.039  1.00  0.00    -0.336 N 
HETATM    2  C7  UNL     1      -2.412  -2.984  -1.248  1.00  0.00     0.184 A 
HETATM    3  N3  UNL     1      -1.532  -3.993  -1.347  1.00  0.00    -0.348 N 
ATOM      4  H3  UNL     1      -1.758  -4.975  -1.505  1.00  0.00     0.167 HD
HETATM    5  C8  UNL     1      -0.316  -3.485  -1.202  1.00  0.00     0.102 A 
HETATM    6  C9  UNL     1       0.954  -4.077  -1.216  1.00  0.00     0.186 A 
HETATM    7  F1  UNL     1       1.110  -5.389  -1.402  1.00  0.00    -0.200 F 
HETATM    8  C10 UNL     1       2.047  -3.257  -1.031  1.00  0.00     0.190 A 
HETATM    9  F2  UNL     1       3.320  -3.744  -1.030  1.00  0.00    -0.200 F 
HETATM   10  C11 UNL     1       1.900  -1.901  -0.838  1.00  0.00     0.112 A 
HETATM   11  C18 UNL     1       0.640  -1.315  -0.824  1.00  0.00     0.072 A 
HETATM   12  C19 UNL     1      -0.466  -2.129  -1.009  1.00  0.00     0.068 A 
ENDROOT
BRANCH   1  13
HETATM   13  C6  UNL     1      -2.399  -0.516  -0.881  1.00  0.00     0.091 C 
HETATM   14  C5  UNL     1      -3.800  -0.509  -1.429  1.00  0.00     0.026 C 
HETATM   15  C4  UNL     1      -4.868  -0.755  -0.417  1.00  0.00     0.003 C 
HETATM   16  C3  UNL     1      -4.890   0.328   0.670  1.00  0.00     0.013 C 
HETATM   17  C2  UNL     1      -3.546   1.002   0.615  1.00  0.00     0.064 C 
HETATM   18  C20 UNL     1      -2.423  -0.047   0.539  1.00  0.00     0.038 C 
BRANCH  17  19
HETATM   19  C1  UNL     1      -3.316   1.974   1.680  1.00  0.00     0.139 C 
BRANCH  19  20
HETATM   20  N1  UNL     1      -4.191   2.310   2.513  1.00  0.00    -0.251 N 
ATOM     21  H1  UNL     1      -3.876   3.001   3.194  1.00  0.00     0.196 HD
BRANCH  20  22
HETATM   22  O1  UNL     1      -5.458   1.928   2.670  1.00  0.00    -0.288 OA
ATOM     23  H1  UNL     1      -6.121   2.183   3.301  1.00  0.00     0.244 HD
ENDBRANCH  20  22
ENDBRANCH  19  20
BRANCH  19  24
HETATM   24  O2  UNL     1      -2.025   2.542   1.736  1.00  0.00    -0.348 OA
ATOM     25  H2  UNL     1      -1.362   2.287   1.105  1.00  0.00     0.219 HD
ENDBRANCH  19  24
ENDBRANCH  17  19
ENDBRANCH   1  13
BRANCH  10  26
HETATM   26  O3  UNL     1       2.998  -1.106  -0.657  1.00  0.00    -0.347 OA
BRANCH  26  27
HETATM   27  C12 UNL     1       2.882   0.293  -0.455  1.00  0.00     0.180 C 
BRANCH  27  28
HETATM   28  C13 UNL     1       4.240   0.928  -0.283  1.00  0.00     0.014 C 
HETATM   29  C14 UNL     1       4.969   0.354   0.904  1.00  0.00     0.033 C 
HETATM   30  C15 UNL     1       6.063   1.230   1.417  1.00  0.00     0.168 C 
HETATM   31  O4  UNL     1       5.646   2.528   1.685  1.00  0.00    -0.391 OA
HETATM   32  C16 UNL     1       4.298   2.716   1.406  1.00  0.00     0.168 C 
HETATM   33  C17 UNL     1       4.073   2.401  -0.068  1.00  0.00     0.033 C 
ENDBRANCH  27  28
ENDBRANCH  26  27
ENDBRANCH  10  26
TORSDOF 8
