REMARK  7 active torsions:
REMARK  status: ('A' for Active; 'I' for Inactive)
REMARK    1  A    between atoms: C2_2  and  O1_3 
REMARK    2  A    between atoms: C2_2  and  N1_5 
REMARK    3  A    between atoms: N1_5  and  C3_7 
REMARK    4  A    between atoms: C6_12  and  C7_13 
REMARK    5  A    between atoms: C7_13  and  S2_14 
REMARK    6  A    between atoms: S2_14  and  C8_15 
REMARK    7  A    between atoms: C9_18  and  C10_19 
ROOT
HETATM    1  C7  UNL     1      -1.651  -0.442   0.776  1.00  0.00     0.123 C 
ENDROOT
BRANCH   1   2
HETATM    2  C6  UNL     1      -3.002   0.004   1.316  1.00  0.00    -0.013 A 
HETATM    3  C3  UNL     1      -3.960   0.575   0.554  1.00  0.00     0.080 A 
HETATM    4  S1  UNL     1      -5.346   0.619   1.551  1.00  0.00    -0.065 SA
HETATM    5  C4  UNL     1      -4.722  -0.104   2.924  1.00  0.00     0.054 A 
HETATM    6 BR1  UNL     1      -5.611  -0.420   4.637  1.00  0.00    -0.043 Br
HETATM    7  C5  UNL     1      -3.415  -0.375   2.600  1.00  0.00     0.037 A 
BRANCH   3   8
HETATM    8  N1  UNL     1      -3.937   1.093  -0.805  1.00  0.00    -0.358 N 
ATOM      9  H1  UNL     1      -3.560   2.008  -1.050  1.00  0.00     0.162 HD
BRANCH   8  10
HETATM   10  C2  UNL     1      -4.483   0.212  -1.741  1.00  0.00     0.214 C 
HETATM   11  C1  UNL     1      -4.689   0.669  -3.150  1.00  0.00     0.063 C 
BRANCH  10  12
HETATM   12  O1  UNL     1      -4.866  -1.006  -1.449  1.00  0.00    -0.377 OA
ATOM     13  H1  UNL     1      -4.735  -1.296  -0.554  1.00  0.00     0.212 HD
ENDBRANCH  10  12
ENDBRANCH   8  10
ENDBRANCH   3   8
ENDBRANCH   1   2
BRANCH   1  14
HETATM   14  S2  UNL     1      -0.373   0.378   1.791  1.00  0.00    -0.088 SA
BRANCH  14  15
HETATM   15  C8  UNL     1       1.195  -0.188   1.230  1.00  0.00     0.160 A 
HETATM   16  N2  UNL     1       2.378   0.417   1.251  1.00  0.00    -0.324 N 
HETATM   17  C9  UNL     1       3.348  -0.324   0.714  1.00  0.00     0.102 A 
ATOM     18  H2  UNL     1       2.528   1.349   1.637  1.00  0.00     0.169 HD
HETATM   19  N3  UNL     1       2.723  -1.466   0.337  1.00  0.00    -0.287 N 
HETATM   20  N4  UNL     1       1.444  -1.397   0.645  1.00  0.00    -0.278 N 
ATOM     21  H3  UNL     1       3.175  -2.260  -0.117  1.00  0.00     0.188 HD
ATOM     22  H4  UNL     1       0.753  -2.127   0.474  1.00  0.00     0.189 HD
BRANCH  17  23
HETATM   23  C10 UNL     1       4.800  -0.091   0.487  1.00  0.00     0.055 A 
HETATM   24  C11 UNL     1       5.118   1.206  -0.250  1.00  0.00     0.012 A 
HETATM   25  C12 UNL     1       5.544   0.406  -1.445  1.00  0.00     0.002 A 
HETATM   26  C13 UNL     1       5.290  -0.874  -0.713  1.00  0.00     0.012 A 
ENDBRANCH  17  23
ENDBRANCH  14  15
ENDBRANCH   1  14
TORSDOF 7
