REMARK  3 active torsions:
REMARK  status: ('A' for Active; 'I' for Inactive)
REMARK    1  A    between atoms: N1_1  and  C1_4 
REMARK    2  A    between atoms: C2_7  and  C3_8 
REMARK    3  A    between atoms: N3_11  and  N4_12 
ROOT
HETATM    1  C3  UNL     1       1.860   0.067   0.573  1.00  0.00     0.076 C 
HETATM    2  C4  UNL     1       1.356   1.483   0.520  1.00  0.00     0.035 C 
HETATM    3  C5  UNL     1      -0.137   1.286   0.326  1.00  0.00     0.143 C 
HETATM    4  N3  UNL     1      -0.306  -0.085  -0.112  1.00  0.00    -0.327 N 
HETATM    5  C11 UNL     1       1.026  -0.594  -0.520  1.00  0.00     0.154 C 
ENDROOT
BRANCH   1   6
HETATM    6  C2  UNL     1       3.298  -0.048   0.309  1.00  0.00     0.118 A 
HETATM    7  N2  UNL     1       4.035   0.404  -0.717  1.00  0.00    -0.178 N 
HETATM    8  C1  UNL     1       5.322   0.065  -0.543  1.00  0.00     0.691 A 
ATOM      9  H2  UNL     1       3.671   0.928  -1.512  1.00  0.00     0.185 HD
HETATM   10  N6  UNL     1       5.391  -0.612   0.612  1.00  0.00    -0.131 N 
HETATM   11  N5  UNL     1       4.176  -0.674   1.113  1.00  0.00    -0.274 N 
ATOM     12  H6  UNL     1       6.234  -1.008   1.028  1.00  0.00     0.205 HD
ATOM     13  H5  UNL     1       3.933  -1.134   1.991  1.00  0.00     0.189 HD
BRANCH   8  14
HETATM   14  N1  UNL     1       6.339   0.322  -1.320  1.00  0.00    -0.233 N 
ATOM     15  H12 UNL     1       6.286   0.837  -2.199  1.00  0.00     0.174 HD
ATOM     16  H11 UNL     1       7.317   0.064  -1.188  1.00  0.00     0.174 HD
ENDBRANCH   8  14
ENDBRANCH   1   6
BRANCH   4  17
HETATM   17  N4  UNL     1      -1.429  -0.867  -0.178  1.00  0.00    -0.311 N 
HETATM   18  C6  UNL     1      -2.641  -0.645   0.030  1.00  0.00     0.003 C 
HETATM   19  C7  UNL     1      -3.716  -1.663  -0.102  1.00  0.00     0.054 C 
HETATM   20  C10 UNL     1      -3.315   0.592   0.439  1.00  0.00     0.054 C 
HETATM   21  C8  UNL     1      -4.856  -0.884  -0.685  1.00  0.00     0.006 C 
HETATM   22  C9  UNL     1      -4.553   0.572  -0.477  1.00  0.00     0.006 C 
ATOM     23  H4  UNL     1      -1.236  -1.830  -0.454  1.00  0.00     0.186 HD
ENDBRANCH   4  17
TORSDOF 3
