REMARK  6 active torsions:
REMARK  status: ('A' for Active; 'I' for Inactive)
REMARK    1  A    between atoms: C3_3  and  O1_4 
REMARK    2  A    between atoms: O1_4  and  C4_5 
REMARK    3  A    between atoms: C9_10  and  N1_11 
REMARK       I    between atoms: N1_11  and  C10_12 
REMARK       I    between atoms: C10_12  and  N2_14 
REMARK    4  A    between atoms: N2_14  and  C11_16 
REMARK    5  A    between atoms: C14_21  and  N4_22 
REMARK    6  A    between atoms: N4_22  and  C15_24 
ROOT
HETATM    1  C1  UNL     1       6.568  -5.726   0.042  1.00  0.00     0.014 C 
HETATM    2  C2  UNL     1       5.807  -4.896  -0.343  1.00  0.00    -0.091 C 
HETATM    3  C3  UNL     1       4.898  -3.882  -0.830  1.00  0.00     0.268 C 
ENDROOT
BRANCH   3   4
HETATM    4  O1  UNL     1       4.763  -2.819   0.111  1.00  0.00    -0.339 OA
BRANCH   4   5
HETATM    5  C4  UNL     1       3.938  -1.732  -0.149  1.00  0.00     0.081 A 
HETATM    6  C5  UNL     1       3.213  -1.612  -1.306  1.00  0.00     0.038 A 
HETATM    7  C6  UNL     1       2.410  -0.516  -1.522  1.00  0.00     0.004 A 
HETATM    8  C7  UNL     1       2.307   0.497  -0.584  1.00  0.00     0.016 A 
HETATM    9  C8  UNL     1       3.047   0.363   0.586  1.00  0.00     0.018 A 
HETATM   10  C9  UNL     1       2.939   1.419   1.538  1.00  0.00     0.123 A 
HETATM   11  C25 UNL     1       3.842  -0.725   0.797  1.00  0.00     0.011 A 
HETATM   12  C22 UNL     1       3.721   1.232   2.693  1.00  0.00     0.046 A 
HETATM   13  C23 UNL     1       4.524   0.139   2.911  1.00  0.00     0.004 A 
HETATM   14  C24 UNL     1       4.584  -0.839   1.961  1.00  0.00     0.015 A 
BRANCH  10  15
HETATM   15  N1  UNL     1       2.082   2.395   1.317  1.00  0.00    -0.351 NA
HETATM   16  C10 UNL     1       1.212   3.478   1.138  1.00  0.00     0.398 C 
HETATM   17  O2  UNL     1       1.310   4.569   1.763  1.00  0.00    -0.230 OA
HETATM   18  N2  UNL     1       0.100   3.467   0.217  1.00  0.00    -0.297 N 
ATOM     19  H2  UNL     1       0.136   4.093  -0.587  1.00  0.00     0.172 HD
BRANCH  18  20
HETATM   20  C11 UNL     1      -0.928   2.717   0.351  1.00  0.00     0.042 A 
HETATM   21  C12 UNL     1      -0.992   1.866   1.429  1.00  0.00     0.046 A 
HETATM   22  C13 UNL     1      -2.089   1.026   1.600  1.00  0.00     0.092 A 
HETATM   23  N3  UNL     1      -3.096   1.064   0.676  1.00  0.00    -0.352 N 
HETATM   24  C14 UNL     1      -3.093   1.866  -0.388  1.00  0.00     0.107 A 
ATOM     25  H3  UNL     1      -3.895   0.443   0.809  1.00  0.00     0.166 HD
HETATM   26  C21 UNL     1      -1.969   2.703  -0.531  1.00  0.00     0.078 A 
BRANCH  24  27
HETATM   27  N4  UNL     1      -4.096   1.899  -1.358  1.00  0.00    -0.342 N 
ATOM     28  H4  UNL     1      -3.939   2.546  -2.131  1.00  0.00     0.167 HD
BRANCH  27  29
HETATM   29  C15 UNL     1      -5.281   1.171  -1.416  1.00  0.00     0.033 A 
HETATM   30  C16 UNL     1      -6.116   0.905  -0.373  1.00  0.00     0.029 A 
HETATM   31  C17 UNL     1      -7.258   0.150  -0.508  1.00  0.00     0.002 A 
HETATM   32  C18 UNL     1      -7.610  -0.376  -1.725  1.00  0.00     0.000 A 
HETATM   33  C19 UNL     1      -6.778  -0.121  -2.810  1.00  0.00     0.002 A 
HETATM   34  C20 UNL     1      -5.643   0.635  -2.652  1.00  0.00     0.029 A 
ENDBRANCH  27  29
ENDBRANCH  24  27
ENDBRANCH  18  20
ENDBRANCH  10  15
ENDBRANCH   4   5
ENDBRANCH   3   4
TORSDOF 6
