REMARK  7 active torsions:
REMARK  status: ('A' for Active; 'I' for Inactive)
REMARK    1  A    between atoms: O1_1  and  C1_3 
REMARK    2  A    between atoms: C1_3  and  C2_4 
REMARK    3  A    between atoms: C1_3  and  N2_25 
REMARK    4  A    between atoms: C2_4  and  C3_5 
REMARK    5  A    between atoms: C6_8  and  N1_9 
REMARK       I    between atoms: N1_9  and  C7_11 
REMARK    6  A    between atoms: C7_11  and  C8_13 
REMARK    7  A    between atoms: N2_25  and  C20_27 
ROOT
HETATM    1  C3  UNL     1       1.486   0.040  -0.226  1.00  0.00    -0.051 A 
HETATM    2  C4  UNL     1       0.781   1.174  -0.506  1.00  0.00     0.010 A 
HETATM    3  C5  UNL     1      -0.628   1.195  -0.512  1.00  0.00     0.030 A 
HETATM    4  C6  UNL     1      -1.331   0.061  -0.233  1.00  0.00     0.035 A 
HETATM    5  C18 UNL     1      -0.577  -1.084   0.050  1.00  0.00     0.030 A 
HETATM    6  C19 UNL     1       0.797  -1.107   0.057  1.00  0.00     0.010 A 
ENDROOT
BRANCH   1   7
HETATM    7  C2  UNL     1       2.970   0.020  -0.219  1.00  0.00     0.123 C 
BRANCH   7   8
HETATM    8  C1  UNL     1       3.453  -0.319  -1.567  1.00  0.00     0.135 C 
BRANCH   8   9
HETATM    9  O1  UNL     1       2.535  -0.528  -2.477  1.00  0.00    -0.349 OA
ATOM     10  H1  UNL     1       2.847  -0.747  -3.347  1.00  0.00     0.219 HD
ENDBRANCH   8   9
BRANCH   8  11
HETATM   11  N2  UNL     1       4.754  -0.452  -2.026  1.00  0.00    -0.174 N 
ATOM     12  H2  UNL     1       4.875  -0.694  -3.009  1.00  0.00     0.186 HD
BRANCH  11  13
HETATM   13  C20 UNL     1       5.925  -0.284  -1.261  1.00  0.00     0.685 A 
HETATM   14  N3  UNL     1       7.200  -0.425  -1.757  1.00  0.00    -0.189 N 
HETATM   15  C21 UNL     1       8.119  -0.210  -0.814  1.00  0.00     0.076 A 
ATOM     16  H3  UNL     1       7.416  -0.664  -2.725  1.00  0.00     0.184 HD
HETATM   17  C22 UNL     1       9.507  -0.229  -0.801  1.00  0.00     0.032 A 
HETATM   18  C26 UNL     1       7.424   0.083   0.336  1.00  0.00     0.076 A 
HETATM   19  C23 UNL     1      10.189   0.042   0.350  1.00  0.00     0.002 A 
HETATM   20  C24 UNL     1       9.511   0.342   1.534  1.00  0.00     0.002 A 
HETATM   21  C25 UNL     1       8.135   0.352   1.484  1.00  0.00     0.032 A 
HETATM   22  N4  UNL     1       6.092   0.025   0.013  1.00  0.00    -0.189 N 
ATOM     23  H4  UNL     1       5.331   0.198   0.670  1.00  0.00     0.184 HD
ENDBRANCH  11  13
ENDBRANCH   8  11
ENDBRANCH   7   8
ENDBRANCH   1   7
BRANCH   4  24
HETATM   24  N1  UNL     1      -2.725  -0.023  -0.188  1.00  0.00    -0.323 N 
HETATM   25  C7  UNL     1      -3.591   1.048  -0.042  1.00  0.00     0.256 C 
HETATM   26  O2  UNL     1      -3.235   2.234   0.078  1.00  0.00    -0.267 OA
ATOM     27  H1  UNL     1      -3.140  -0.951  -0.270  1.00  0.00     0.169 HD
BRANCH  25  28
HETATM   28  C8  UNL     1      -5.059   0.824  -0.019  1.00  0.00     0.033 A 
HETATM   29  C9  UNL     1      -5.907   1.849   0.388  1.00  0.00     0.018 A 
HETATM   30  C10 UNL     1      -7.274   1.673   0.414  1.00  0.00     0.013 A 
HETATM   31  C11 UNL     1      -7.867   0.486   0.044  1.00  0.00    -0.026 A 
HETATM   32  C12 UNL     1      -9.232   0.297   0.066  1.00  0.00     0.012 A 
HETATM   33  C16 UNL     1      -7.036  -0.533  -0.360  1.00  0.00    -0.025 A 
HETATM   34  C13 UNL     1      -9.763  -0.923  -0.320  1.00  0.00     0.001 A 
HETATM   35  C14 UNL     1      -8.954  -1.962  -0.729  1.00  0.00     0.001 A 
HETATM   36  C15 UNL     1      -7.595  -1.749  -0.743  1.00  0.00     0.012 A 
HETATM   37  C17 UNL     1      -5.646  -0.357  -0.388  1.00  0.00     0.029 A 
ENDBRANCH  25  28
ENDBRANCH   4  24
TORSDOF 7
