REMARK  5 active torsions:
REMARK  status: ('A' for Active; 'I' for Inactive)
REMARK       I    between atoms: C1_2  and  N1_3 
REMARK    1  A    between atoms: C1_2  and  C8_11 
REMARK    2  A    between atoms: N1_3  and  C2_5 
REMARK    3  A    between atoms: C11_14  and  C12_15 
REMARK    4  A    between atoms: C12_15  and  N2_16 
REMARK    5  A    between atoms: N2_16  and  C13_18 
ROOT
HETATM    1  N2  UNL     1       1.025   0.026   0.612  1.00  0.00    -0.386 N 
ATOM      2  H2  UNL     1       0.397   0.261   1.381  1.00  0.00     0.160 HD
ENDROOT
BRANCH   1   3
HETATM    3  C12 UNL     1       0.493  -0.524  -0.611  1.00  0.00     0.158 C 
BRANCH   3   4
HETATM    4  C11 UNL     1      -0.988  -0.651  -0.543  1.00  0.00    -0.041 A 
HETATM    5  C10 UNL     1      -1.818   0.382  -0.921  1.00  0.00     0.010 A 
HETATM    6  C9  UNL     1      -3.214   0.282  -0.866  1.00  0.00     0.017 A 
HETATM    7  C8  UNL     1      -3.801  -0.872  -0.425  1.00  0.00     0.032 A 
HETATM    8  C27 UNL     1      -2.981  -1.919  -0.042  1.00  0.00     0.017 A 
HETATM    9  C26 UNL     1      -1.610  -1.804  -0.102  1.00  0.00     0.010 A 
BRANCH   7  10
HETATM   10  C1  UNL     1      -5.279  -1.030  -0.341  1.00  0.00     0.256 C 
HETATM   11  O1  UNL     1      -5.739  -2.206  -0.221  1.00  0.00    -0.267 OA
HETATM   12  N1  UNL     1      -6.083   0.114  -0.396  1.00  0.00    -0.323 N 
ATOM     13  H1  UNL     1      -5.619   1.018  -0.483  1.00  0.00     0.169 HD
BRANCH  12  14
HETATM   14  C2  UNL     1      -7.497   0.100  -0.339  1.00  0.00     0.035 A 
HETATM   15  C3  UNL     1      -8.181   1.286   0.001  1.00  0.00     0.029 A 
HETATM   16  C4  UNL     1      -9.530   1.362   0.056  1.00  0.00     0.002 A 
HETATM   17  C5  UNL     1     -10.287   0.225  -0.234  1.00  0.00     0.000 A 
HETATM   18  C6  UNL     1      -9.680  -0.951  -0.569  1.00  0.00     0.002 A 
HETATM   19  C7  UNL     1      -8.289  -0.975  -0.611  1.00  0.00     0.029 A 
ENDBRANCH  12  14
ENDBRANCH   7  10
ENDBRANCH   3   4
ENDBRANCH   1   3
BRANCH   1  20
HETATM   20  C13 UNL     1       2.411   0.238   0.744  1.00  0.00     0.029 A 
HETATM   21  C14 UNL     1       2.914   0.767   1.932  1.00  0.00     0.031 A 
HETATM   22  C15 UNL     1       4.262   0.976   2.059  1.00  0.00     0.033 A 
HETATM   23  C16 UNL     1       5.174   0.689   1.063  1.00  0.00     0.047 A 
HETATM   24  N3  UNL     1       6.496   0.894   1.187  1.00  0.00    -0.355 N 
HETATM   25  C24 UNL     1       4.683   0.166  -0.114  1.00  0.00     0.044 A 
HETATM   26  C17 UNL     1       7.385   0.618   0.221  1.00  0.00     0.046 A 
ATOM     27  H3  UNL     1       6.843   1.281   2.065  1.00  0.00     0.166 HD
HETATM   28  C18 UNL     1       8.737   0.843   0.386  1.00  0.00     0.030 A 
HETATM   29  C22 UNL     1       6.939   0.089  -0.983  1.00  0.00     0.042 A 
HETATM   30  C19 UNL     1       9.677   0.570  -0.587  1.00  0.00     0.002 A 
HETATM   31  C20 UNL     1       9.206   0.041  -1.784  1.00  0.00     0.001 A 
HETATM   32  C21 UNL     1       7.849  -0.190  -1.963  1.00  0.00     0.018 A 
HETATM   33  C23 UNL     1       5.581  -0.129  -1.129  1.00  0.00     0.197 A 
HETATM   34  O2  UNL     1       5.164  -0.608  -2.217  1.00  0.00    -0.286 OA
HETATM   35  C25 UNL     1       3.320  -0.050  -0.254  1.00  0.00     0.047 A 
ENDBRANCH   1  20
TORSDOF 5
