REMARK  1 active torsions:
REMARK  status: ('A' for Active; 'I' for Inactive)
REMARK    1  A    between atoms: O1_1  and  C1_3 
ROOT
HETATM    1  C1  UNL     1      -2.289  -0.890  -0.543  1.00  0.00     0.142 C 
HETATM    2  C2  UNL     1      -2.201   0.630  -0.321  1.00  0.00     0.034 C 
HETATM    3  C3  UNL     1      -0.767   0.932  -0.186  1.00  0.00     0.004 C 
HETATM    4  C4  UNL     1      -0.339   2.380  -0.275  1.00  0.00     0.019 C 
HETATM    5  C5  UNL     1       1.180   2.275  -0.003  1.00  0.00     0.113 C 
HETATM    6  N1  UNL     1       1.725   1.072  -0.545  1.00  0.00    -0.421 N 
ATOM      7  H1  UNL     1       1.750   0.902  -1.550  1.00  0.00     0.153 HD
HETATM    8  C6  UNL     1       2.234   0.117   0.390  1.00  0.00     0.115 C 
HETATM    9  C7  UNL     1       2.195  -1.303  -0.098  1.00  0.00     0.045 C 
HETATM   10  C8  UNL     1       1.015  -2.106   0.326  1.00  0.00     0.169 C 
HETATM   11  O2  UNL     1      -0.107  -1.953  -0.485  1.00  0.00    -0.389 OA
HETATM   12  C9  UNL     1      -1.273  -1.664   0.226  1.00  0.00     0.199 C 
ENDROOT
BRANCH   1  13
HETATM   13  O1  UNL     1      -3.560  -1.251  -0.051  1.00  0.00    -0.393 OA
ATOM     14  H1  UNL     1      -3.614  -2.189  -0.188  1.00  0.00     0.210 HD
ENDBRANCH   1  13
TORSDOF 1
