REMARK  2 active torsions:
REMARK  status: ('A' for Active; 'I' for Inactive)
REMARK    1  A    between atoms: C5_5  and  O1_6 
REMARK    2  A    between atoms: C7_9  and  O2_10 
ROOT
HETATM    1  C1  UNL     1      -2.078   0.682   0.795  1.00  0.00     0.015 C 
HETATM    2  C2  UNL     1      -1.060   0.003  -0.138  1.00  0.00    -0.042 C 
HETATM    3  C3  UNL     1      -1.819  -0.672  -1.283  1.00  0.00     0.015 C 
HETATM    4  C4  UNL     1      -0.384  -1.036   0.666  1.00  0.00     0.040 C 
HETATM    5  C5  UNL     1       0.991  -1.397   0.295  1.00  0.00     0.122 C 
HETATM    6  C6  UNL     1       1.824  -0.322  -0.299  1.00  0.00     0.085 C 
HETATM    7  C7  UNL     1       1.225   1.039  -0.279  1.00  0.00     0.149 C 
HETATM    8  C8  UNL     1       1.402   1.713   1.008  1.00  0.00     0.097 C 
HETATM    9  N1  UNL     1       1.537   2.261   2.025  1.00  0.00    -0.194 NA
HETATM   10  C9  UNL     1      -0.212   1.064  -0.717  1.00  0.00     0.062 C 
ENDROOT
BRANCH   7  11
HETATM   11  O2  UNL     1       1.940   1.820  -1.218  1.00  0.00    -0.375 OA
ATOM     12  H2  UNL     1       1.557   2.689  -1.205  1.00  0.00     0.211 HD
ENDBRANCH   7  11
BRANCH   5  13
HETATM   13  O1  UNL     1       1.669  -1.868   1.445  1.00  0.00    -0.395 OA
ATOM     14  H1  UNL     1       2.558  -2.101   1.205  1.00  0.00     0.210 HD
ENDBRANCH   5  13
TORSDOF 2
