REMARK  2 active torsions:
REMARK  status: ('A' for Active; 'I' for Inactive)
REMARK    1  A    between atoms: N1_7  and  O1_8 
REMARK    2  A    between atoms: C9_12  and  O2_13 
ROOT
HETATM    1  C1  UNL     1      -2.681  -1.470  -0.408  1.00  0.00     0.012 C 
HETATM    2  C2  UNL     1      -1.329  -0.973   0.123  1.00  0.00     0.012 C 
HETATM    3  C3  UNL     1      -0.263  -1.938  -0.210  1.00  0.00     0.008 C 
HETATM    4  C4  UNL     1       1.044  -1.349  -0.617  1.00  0.00     0.022 C 
HETATM    5  C5  UNL     1       1.570  -0.324   0.345  1.00  0.00     0.082 C 
HETATM    6  C6  UNL     1       3.099  -0.367   0.370  1.00  0.00     0.029 C 
HETATM    7  N1  UNL     1       1.138   0.970  -0.109  1.00  0.00    -0.189 NA
HETATM    8  C7  UNL     1      -0.162   1.229   0.442  1.00  0.00     0.111 C 
HETATM    9  C8  UNL     1      -0.568   2.662   0.372  1.00  0.00     0.031 C 
HETATM   10  C9  UNL     1      -1.148   0.410  -0.386  1.00  0.00     0.141 C 
ENDROOT
BRANCH   7  11
HETATM   11  O1  UNL     1       2.020   1.943   0.040  1.00  0.00    -0.312 OA
ATOM     12  H1  UNL     1       1.735   2.798  -0.260  1.00  0.00     0.237 HD
ENDBRANCH   7  11
BRANCH  10  13
HETATM   13  O2  UNL     1      -2.390   1.076  -0.243  1.00  0.00    -0.394 OA
ATOM     14  H2  UNL     1      -2.274   1.961  -0.569  1.00  0.00     0.210 HD
ENDBRANCH  10  13
TORSDOF 2
