REMARK  1 active torsions:
REMARK  status: ('A' for Active; 'I' for Inactive)
REMARK    1  A    between atoms: N2_13  and  O2_14 
ROOT
HETATM    1  N1  UNL     1       3.704   0.632  -0.636  1.00  0.00    -0.364 N 
ATOM      2  H11 UNL     1       4.221   1.059   0.133  1.00  0.00     0.159 HD
ATOM      3  H12 UNL     1       4.281   0.671  -1.476  1.00  0.00     0.159 HD
HETATM    4  C1  UNL     1       2.503   0.130  -0.525  1.00  0.00     0.240 C 
HETATM    5  O1  UNL     1       1.799  -0.451  -1.571  1.00  0.00    -0.318 OA
HETATM    6  C2  UNL     1       0.677  -1.144  -1.000  1.00  0.00     0.212 C 
HETATM    7  C3  UNL     1       0.364  -0.242   0.176  1.00  0.00     0.085 C 
HETATM    8  C4  UNL     1      -0.258   1.012  -0.334  1.00  0.00     0.036 C 
HETATM    9  C5  UNL     1      -1.529   1.334   0.383  1.00  0.00     0.003 C 
HETATM   10  C6  UNL     1      -2.451   0.121   0.206  1.00  0.00     0.000 C 
HETATM   11  C7  UNL     1      -1.876  -1.040   0.958  1.00  0.00     0.003 C 
HETATM   12  C8  UNL     1      -0.423  -0.932   1.249  1.00  0.00     0.036 C 
HETATM   13  N2  UNL     1       1.697   0.076   0.648  1.00  0.00    -0.212 N 
ENDROOT
BRANCH  13  14
HETATM   14  O2  UNL     1       2.130   0.284   1.906  1.00  0.00    -0.283 OA
ATOM     15  H2  UNL     1       1.592   0.248   2.688  1.00  0.00     0.245 HD
ENDBRANCH  13  14
TORSDOF 1
