REMARK  0 active torsions:
REMARK  status: ('A' for Active; 'I' for Inactive)
ROOT
HETATM    1  C1  UNL     1      -2.809  -0.171   0.076  1.00  0.00     0.002 C 
HETATM    2  C2  UNL     1      -2.334   1.249   0.080  1.00  0.00     0.002 C 
HETATM    3  C3  UNL     1      -0.849   1.252  -0.025  1.00  0.00     0.033 C 
HETATM    4  C4  UNL     1      -0.391  -0.201  -0.013  1.00  0.00     0.054 C 
HETATM    5  C5  UNL     1      -1.619  -1.043  -0.192  1.00  0.00     0.033 C 
HETATM    6  C6  UNL     1       0.212  -0.560   1.336  1.00  0.00     0.106 C 
HETATM    7  S1  UNL     1       1.471   0.674   1.707  1.00  0.00    -0.161 SA
HETATM    8  C7  UNL     1       2.616   0.745   0.308  1.00  0.00     0.120 C 
HETATM    9  C8  UNL     1       2.776  -0.580  -0.376  1.00  0.00     0.089 C 
HETATM   10  N1  UNL     1       1.595  -1.158  -0.878  1.00  0.00    -0.319 N 
ATOM     11  H1  UNL     1       1.561  -2.156  -1.087  1.00  0.00     0.185 HD
HETATM   12  N2  UNL     1       0.518  -0.391  -1.080  1.00  0.00    -0.326 N 
ATOM     13  H2  UNL     1       0.355   0.048  -1.986  1.00  0.00     0.181 HD
ENDROOT
TORSDOF 0
