REMARK  1 active torsions:
REMARK  status: ('A' for Active; 'I' for Inactive)
REMARK    1  A    between atoms: O1_1  and  C1_3 
ROOT
HETATM    1  C1  UNL     1      -2.003  -0.538  -0.735  1.00  0.00     0.214 C 
HETATM    2  S1  UNL     1      -2.634   1.188  -0.725  1.00  0.00    -0.105 SA
HETATM    3  C2  UNL     1      -1.116   1.944  -0.009  1.00  0.00     0.349 C 
HETATM    4  N1  UNL     1      -0.157   0.922  -0.389  1.00  0.00     0.105 N 
HETATM    5  C3  UNL     1       1.087   1.183   0.214  1.00  0.00     0.274 C 
HETATM    6  C4  UNL     1       2.062   0.076   0.299  1.00  0.00     0.030 C 
HETATM    7  C5  UNL     1       1.509  -1.300   0.286  1.00  0.00     0.004 C 
HETATM    8  C6  UNL     1       0.292  -1.390  -0.570  1.00  0.00     0.039 C 
HETATM    9  C7  UNL     1      -0.688  -0.352  -0.025  1.00  0.00     0.262 C 
ENDROOT
BRANCH   1  10
HETATM   10  O1  UNL     1      -2.836  -1.259   0.114  1.00  0.00    -0.383 OA
ATOM     11  H1  UNL     1      -2.510  -2.151   0.109  1.00  0.00     0.211 HD
ENDBRANCH   1  10
TORSDOF 1
