REMARK  8 active torsions:
REMARK  status: ('A' for Active; 'I' for Inactive)
REMARK    1  A    between atoms: C2_5  and  S1_6 
REMARK    2  A    between atoms: S1_6  and  N3_9 
REMARK    3  A    between atoms: C4_11  and  C5_12 
REMARK    4  A    between atoms: C5_12  and  S2_13 
REMARK    5  A    between atoms: S2_13  and  C6_14 
REMARK    6  A    between atoms: N5_17  and  N6_18 
REMARK    7  A    between atoms: C8_21  and  N7_22 
REMARK    8  A    between atoms: N8_25  and  N9_26 
ROOT
HETATM    1  N3  UNL     1       1.693  -0.076   1.966  1.00  0.00    -0.193 N 
HETATM    2  C3  UNL     1       0.346  -0.087   2.045  1.00  0.00     0.140 A 
HETATM    3  C4  UNL     1      -0.116  -1.360   2.108  1.00  0.00     0.040 A 
HETATM    4  N10 UNL     1       1.016  -2.140   2.065  1.00  0.00    -0.309 N 
ATOM      5  H10 UNL     1       1.040  -3.159   2.093  1.00  0.00     0.170 HD
HETATM    6  C9  UNL     1       2.066  -1.346   1.981  1.00  0.00     0.340 A 
HETATM    7  O3  UNL     1       3.268  -1.721   1.923  1.00  0.00    -0.245 OA
ENDROOT
BRANCH   3   8
HETATM    8  C5  UNL     1      -1.499  -1.894   2.196  1.00  0.00     0.139 C 
BRANCH   8   9
HETATM    9  S2  UNL     1      -2.126  -2.344   0.637  1.00  0.00    -0.100 SA
BRANCH   9  10
HETATM   10  C6  UNL     1      -2.731  -1.173  -0.474  1.00  0.00     0.154 A 
HETATM   11  C7  UNL     1      -2.996   0.160  -0.405  1.00  0.00     0.191 A 
HETATM   12  N4  UNL     1      -2.911   0.961   0.754  1.00  0.00    -0.077 NA
HETATM   13  N5  UNL     1      -3.414   0.659  -1.603  1.00  0.00    -0.074 N 
HETATM   14  C8  UNL     1      -3.403  -0.411  -2.418  1.00  0.00     0.720 A 
HETATM   15  N8  UNL     1      -3.007  -1.501  -1.789  1.00  0.00    -0.081 N 
BRANCH  13  16
HETATM   16  N6  UNL     1      -3.766   1.975  -1.883  1.00  0.00    -0.323 N 
ATOM     17  H62 UNL     1      -3.774   2.786  -1.265  1.00  0.00     0.178 HD
ATOM     18  H61 UNL     1      -4.079   2.348  -2.779  1.00  0.00     0.178 HD
ENDBRANCH  13  16
BRANCH  14  19
HETATM   19  N7  UNL     1      -3.750  -0.315  -3.661  1.00  0.00    -0.231 N 
ATOM     20  H72 UNL     1      -4.056   0.528  -4.147  1.00  0.00     0.174 HD
ATOM     21  H71 UNL     1      -3.742  -1.126  -4.279  1.00  0.00     0.174 HD
ENDBRANCH  14  19
BRANCH  15  22
HETATM   22  N9  UNL     1      -2.901  -2.754  -2.384  1.00  0.00    -0.323 N 
ATOM     23  H92 UNL     1      -2.595  -3.597  -1.898  1.00  0.00     0.178 HD
ATOM     24  H91 UNL     1      -3.105  -2.996  -3.354  1.00  0.00     0.178 HD
ENDBRANCH  15  22
ENDBRANCH   9  10
ENDBRANCH   8   9
ENDBRANCH   3   8
BRANCH   1  25
HETATM   25  S1  UNL     1       2.654   1.330   1.879  1.00  0.00     0.307 S 
HETATM   26  O1  UNL     1       1.800   2.565   1.934  1.00  0.00    -0.196 OA
HETATM   27  O2  UNL     1       3.566   1.360   3.074  1.00  0.00    -0.196 OA
BRANCH  25  28
HETATM   28  C2  UNL     1       3.592   1.390   0.399  1.00  0.00     0.256 A 
HETATM   29  N2  UNL     1       4.536   0.607  -0.159  1.00  0.00    -0.257 N 
HETATM   30  N1  UNL     1       4.656   1.391  -1.215  1.00  0.00    -0.234 N 
ATOM     31  H2  UNL     1       4.987  -0.262   0.126  1.00  0.00     0.191 HD
HETATM   32  C1  UNL     1       5.444   1.432  -2.459  1.00  0.00     0.200 C 
HETATM   33  N11 UNL     1       3.728   2.174  -0.683  1.00  0.00    -0.257 N 
ATOM     34  H11 UNL     1       3.285   3.043  -0.982  1.00  0.00     0.191 HD
ENDBRANCH  25  28
ENDBRANCH   1  25
TORSDOF 8
