REMARK  10 active torsions:
REMARK  status: ('A' for Active; 'I' for Inactive)
REMARK    1  A    between atoms: N2_5  and  O2_6 
REMARK    2  A    between atoms: N3_10  and  C4_11 
REMARK    3  A    between atoms: C4_11  and  C5_12 
REMARK    4  A    between atoms: C5_12  and  N4_13 
REMARK    5  A    between atoms: C5_12  and  O7_36 
REMARK       I    between atoms: N5_15  and  C6_17 
REMARK    6  A    between atoms: C6_17  and  C7_19 
REMARK    7  A    between atoms: C8_20  and  N6_21 
REMARK    8  A    between atoms: C9_24  and  N7_25 
REMARK    9  A    between atoms: C10_32  and  N10_33 
REMARK   10  A    between atoms: O7_36  and  N11_37 
ROOT
HETATM    1  N4  UNL     1      -0.008  -0.824  -0.647  1.00  0.00    -0.301 N 
ATOM      2  H4  UNL     1      -0.120  -1.705  -1.149  1.00  0.00     0.183 HD
HETATM    3  N5  UNL     1       1.142  -0.366  -0.535  1.00  0.00    -0.268 N 
ATOM      4  H5  UNL     1       1.281   0.514  -0.039  1.00  0.00     0.190 HD
HETATM    5  C6  UNL     1       2.258  -1.033  -1.077  1.00  0.00     0.276 C 
HETATM    6  O4  UNL     1       2.066  -1.980  -1.851  1.00  0.00    -0.266 OA
ENDROOT
BRANCH   1   7
HETATM    7  C5  UNL     1      -1.200  -0.198  -0.117  1.00  0.00     0.284 C 
BRANCH   7   8
HETATM    8  C4  UNL     1      -2.370  -0.704  -0.915  1.00  0.00     0.212 C 
BRANCH   8   9
HETATM    9  N3  UNL     1      -3.625  -0.149  -0.469  1.00  0.00    -0.230 N 
HETATM   10  N1  UNL     1      -4.423  -0.641   0.452  1.00  0.00    -0.239 N 
HETATM   11  C1  UNL     1      -4.257  -1.853   1.250  1.00  0.00     0.183 C 
HETATM   12  C2  UNL     1      -5.478   0.220   0.531  1.00  0.00     0.371 A 
HETATM   13  O1  UNL     1      -6.447   0.064   1.318  1.00  0.00    -0.242 OA
HETATM   14  N2  UNL     1      -5.306   1.224  -0.344  1.00  0.00    -0.116 N 
HETATM   15  C3  UNL     1      -4.151   0.983  -0.959  1.00  0.00     0.372 A 
HETATM   16  O3  UNL     1      -3.679   1.751  -1.864  1.00  0.00    -0.242 OA
BRANCH  14  17
HETATM   17  O2  UNL     1      -6.150   2.282  -0.557  1.00  0.00    -0.275 OA
ATOM     18  H2  UNL     1      -6.028   2.992  -1.176  1.00  0.00     0.245 HD
ENDBRANCH  14  17
ENDBRANCH   8   9
ENDBRANCH   7   8
BRANCH   7  19
HETATM   19  O7  UNL     1      -1.123   1.172  -0.061  1.00  0.00    -0.258 OA
BRANCH  19  20
HETATM   20  N11 UNL     1      -1.149   1.660   1.196  1.00  0.00    -0.309 N 
ATOM     21 2H11 UNL     1      -1.219   1.057   2.015  1.00  0.00     0.184 HD
ATOM     22 1H11 UNL     1      -1.092   2.678   1.238  1.00  0.00     0.184 HD
ENDBRANCH  19  20
ENDBRANCH   7  19
ENDBRANCH   1   7
BRANCH   5  23
HETATM   23  C7  UNL     1       3.598  -0.610  -0.730  1.00  0.00     0.115 A 
HETATM   24  C8  UNL     1       3.772   0.453   0.149  1.00  0.00     0.167 A 
HETATM   25  C9  UNL     1       5.066   0.911   0.473  1.00  0.00     0.148 A 
HETATM   26  N8  UNL     1       6.098   0.280  -0.097  1.00  0.00    -0.282 N 
HETATM   27  N9  UNL     1       5.949  -0.722  -0.925  1.00  0.00    -0.283 N 
ATOM     28  H8  UNL     1       7.043   0.594   0.123  1.00  0.00     0.188 HD
HETATM   29  C10 UNL     1       4.718  -1.227  -1.293  1.00  0.00     0.132 A 
ATOM     30  H9  UNL     1       6.786  -1.152  -1.319  1.00  0.00     0.188 HD
BRANCH  24  31
HETATM   31  N6  UNL     1       2.705   1.139   0.781  1.00  0.00    -0.111 N 
HETATM   32  O5  UNL     1       2.221   0.697   1.838  1.00  0.00    -0.532 OA
HETATM   33  O6  UNL     1       2.242   2.312   0.266  1.00  0.00    -0.532 OA
ENDBRANCH  24  31
BRANCH  25  34
HETATM   34  N7  UNL     1       5.200   1.921   1.283  1.00  0.00    -0.382 N 
ATOM     35  H72 UNL     1       4.413   2.402   1.718  1.00  0.00     0.157 HD
ATOM     36  H71 UNL     1       6.136   2.252   1.517  1.00  0.00     0.157 HD
ENDBRANCH  25  34
BRANCH  29  37
HETATM   37  N10 UNL     1       4.661  -2.186  -2.090  1.00  0.00    -0.384 N 
ATOM     38 2H10 UNL     1       3.751  -2.559  -2.362  1.00  0.00     0.157 HD
ATOM     39 1H10 UNL     1       5.479  -2.636  -2.501  1.00  0.00     0.157 HD
ENDBRANCH  29  37
ENDBRANCH   5  23
TORSDOF 10
