REMARK  2 active torsions:
REMARK  status: ('A' for Active; 'I' for Inactive)
REMARK       I    between atoms: N1_1  and  C1_5 
REMARK       I    between atoms: C1_5  and  N2_6 
REMARK       I    between atoms: C1_5  and  N3_10 
REMARK    1  A    between atoms: N3_10  and  N4_12 
REMARK    2  A    between atoms: C2_14  and  C3_15 
ROOT
HETATM    1  N1  UNL     1      -2.741  -0.774   1.439  1.00  0.00    -0.032 N 
ATOM      2  H11 UNL     1      -1.820  -0.955   1.839  1.00  0.00     0.279 HD
ATOM      3  H12 UNL     1      -3.141  -1.581   0.961  1.00  0.00     0.279 HD
ATOM      4  H13 UNL     1      -3.474  -0.668   2.140  1.00  0.00     0.279 HD
HETATM    5  C1  UNL     1      -2.588   0.396   0.576  1.00  0.00     0.494 C 
HETATM    6  N2  UNL     1      -3.898   0.653   0.007  1.00  0.00    -0.032 N 
ATOM      7  H21 UNL     1      -3.791   1.469  -0.595  1.00  0.00     0.279 HD
ATOM      8  H22 UNL     1      -4.631   0.759   0.708  1.00  0.00     0.279 HD
ATOM      9  H23 UNL     1      -4.298  -0.154  -0.471  1.00  0.00     0.279 HD
HETATM   10  N3  UNL     1      -1.672   0.151  -0.505  1.00  0.00    -0.284 N 
ATOM     11  H3  UNL     1      -2.012   0.236  -1.463  1.00  0.00     0.184 HD
ENDROOT
BRANCH  10  12
HETATM   12  N4  UNL     1      -0.328  -0.200  -0.297  1.00  0.00    -0.309 N 
HETATM   13  C2  UNL     1       0.615   0.615  -0.638  1.00  0.00     0.155 C 
ATOM     14  H4  UNL     1      -0.096  -1.100   0.124  1.00  0.00     0.185 HD
BRANCH  13  15
HETATM   15  C3  UNL     1       2.009   0.236  -0.416  1.00  0.00     0.122 A 
HETATM   16  N5  UNL     1       3.067   1.021  -0.738  1.00  0.00    -0.350 N 
HETATM   17  C4  UNL     1       4.213   0.398  -0.413  1.00  0.00     0.106 A 
ATOM     18  H5  UNL     1       3.003   1.946  -1.163  1.00  0.00     0.166 HD
HETATM   19  C5  UNL     1       3.826  -0.809   0.126  1.00  0.00     0.106 A 
HETATM   20  N6  UNL     1       2.480  -0.907   0.124  1.00  0.00    -0.350 N 
ATOM     21  H6  UNL     1       1.926  -1.693   0.465  1.00  0.00     0.166 HD
ENDBRANCH  13  15
ENDBRANCH  10  12
TORSDOF 2
