REMARK  5 active torsions:
REMARK  status: ('A' for Active; 'I' for Inactive)
REMARK    1  A    between atoms: C3_3  and  N1_4 
REMARK    2  A    between atoms: C3_3  and  N2_8 
REMARK    3  A    between atoms: N2_8  and  C4_11 
REMARK    4  A    between atoms: C4_11  and  N3_12 
REMARK    5  A    between atoms: C6_16  and  N5_17 
ROOT
HETATM    1  C1  UNL     1      -3.358  -1.899  -0.582  1.00  0.00     0.016 C 
HETATM    2  C2  UNL     1      -2.862  -0.887  -0.149  1.00  0.00    -0.056 C 
HETATM    3  C3  UNL     1      -2.267   0.335   0.394  1.00  0.00     0.460 C 
ENDROOT
BRANCH   3   4
HETATM    4  N1  UNL     1      -2.353   1.353  -0.652  1.00  0.00    -0.039 N 
ATOM      5  H13 UNL     1      -1.931   1.059  -1.533  1.00  0.00     0.277 HD
ATOM      6  H12 UNL     1      -3.302   1.490  -1.001  1.00  0.00     0.277 HD
ATOM      7  H11 UNL     1      -1.938   2.205  -0.274  1.00  0.00     0.277 HD
ENDBRANCH   3   4
BRANCH   3   8
HETATM    8  N2  UNL     1      -0.885   0.168   0.752  1.00  0.00    -0.018 N 
ATOM      9  H22 UNL     1      -0.538   0.990   1.246  1.00  0.00     0.282 HD
ATOM     10  H21 UNL     1      -0.785  -0.528   1.491  1.00  0.00     0.282 HD
BRANCH   8  11
HETATM   11  C4  UNL     1      -0.039  -0.149  -0.363  1.00  0.00     0.385 C 
BRANCH  11  12
HETATM   12  N3  UNL     1       1.350  -0.302   0.045  1.00  0.00    -0.247 N 
HETATM   13  C5  UNL     1       1.957  -1.405   0.440  1.00  0.00     0.220 A 
HETATM   14  N4  UNL     1       3.246  -1.103   0.731  1.00  0.00    -0.185 N 
HETATM   15  C6  UNL     1       3.419   0.204   0.508  1.00  0.00     0.691 A 
ATOM     16  H4  UNL     1       3.957  -1.756   1.061  1.00  0.00     0.185 HD
HETATM   17  N6  UNL     1       2.237   0.680   0.086  1.00  0.00    -0.128 N 
ATOM     18  H6  UNL     1       2.051   1.651  -0.165  1.00  0.00     0.206 HD
BRANCH  15  19
HETATM   19  N5  UNL     1       4.519   0.899   0.668  1.00  0.00    -0.233 N 
ATOM     20  H52 UNL     1       5.417   0.537   0.989  1.00  0.00     0.174 HD
ATOM     21  H51 UNL     1       4.651   1.896   0.498  1.00  0.00     0.174 HD
ENDBRANCH  15  19
ENDBRANCH  11  12
ENDBRANCH   8  11
ENDBRANCH   3   8
TORSDOF 5
