REMARK  4 active torsions:
REMARK  status: ('A' for Active; 'I' for Inactive)
REMARK    1  A    between atoms: N1_1  and  C1_4 
REMARK    2  A    between atoms: C2_9  and  S1_10 
REMARK    3  A    between atoms: S1_10  and  N4_12 
REMARK    4  A    between atoms: N4_12  and  N5_14 
ROOT
HETATM    1  C1  UNL     1      -2.319   0.048   0.489  1.00  0.00     0.692 A 
HETATM    2  N2  UNL     1      -2.487  -0.122  -0.831  1.00  0.00    -0.130 N 
ATOM      3  H2  UNL     1      -3.384  -0.227  -1.305  1.00  0.00     0.205 HD
HETATM    4  N3  UNL     1      -1.289  -0.132  -1.426  1.00  0.00    -0.262 N 
ATOM      5  H3  UNL     1      -1.118  -0.245  -2.425  1.00  0.00     0.189 HD
HETATM    6  C2  UNL     1      -0.353   0.032  -0.484  1.00  0.00     0.227 A 
HETATM    7  N6  UNL     1      -0.993   0.142   0.693  1.00  0.00    -0.164 N 
ATOM      8  H6  UNL     1      -0.543   0.276   1.599  1.00  0.00     0.186 HD
ENDROOT
BRANCH   6   9
HETATM    9  S1  UNL     1       1.353   0.080  -0.822  1.00  0.00     0.201 S 
HETATM   10  O1  UNL     1       1.904   1.623  -1.133  1.00  0.00    -0.226 OA
BRANCH   9  11
HETATM   11  N4  UNL     1       2.281  -0.747   0.353  1.00  0.00    -0.249 N 
ATOM     12  H4  UNL     1       2.014  -1.608   0.831  1.00  0.00     0.197 HD
BRANCH  11  13
HETATM   13  N5  UNL     1       3.484  -0.027   0.546  1.00  0.00    -0.337 N 
ATOM     14  H52 UNL     1       3.739   0.834   0.061  1.00  0.00     0.177 HD
ATOM     15  H51 UNL     1       4.037  -0.520   1.247  1.00  0.00     0.177 HD
ENDBRANCH  11  13
ENDBRANCH   9  11
ENDBRANCH   6   9
BRANCH   1  16
HETATM   16  N1  UNL     1      -3.254   0.105   1.364  1.00  0.00    -0.233 N 
ATOM     17  H12 UNL     1      -4.260   0.034   1.209  1.00  0.00     0.174 HD
ATOM     18  H11 UNL     1      -3.126   0.234   2.368  1.00  0.00     0.174 HD
ENDBRANCH   1  16
TORSDOF 4
