REMARK  13 active torsions:
REMARK  status: ('A' for Active; 'I' for Inactive)
REMARK    1  A    between atoms: N1_2  and  C2_4 
REMARK    2  A    between atoms: C4_6  and  C5_7 
REMARK    3  A    between atoms: C10_12  and  C11_13 
REMARK    4  A    between atoms: C11_13  and  N2_14 
REMARK    5  A    between atoms: N3_17  and  C14_18 
REMARK    6  A    between atoms: C14_18  and  C15_19 
REMARK    7  A    between atoms: C15_19  and  O1_20 
REMARK    8  A    between atoms: C15_19  and  C16_22 
REMARK    9  A    between atoms: C16_22  and  C17_23 
REMARK   10  A    between atoms: C17_23  and  C18_24 
REMARK   11  A    between atoms: C21_27  and  C22_28 
REMARK   12  A    between atoms: C32_44  and  N7_45 
REMARK   13  A    between atoms: N7_45  and  C33_47 
ROOT
HETATM    1  C5  UNL     1       7.369  -0.007   0.520  1.00  0.00     0.060 A 
HETATM    2  C6  UNL     1       6.973  -0.072   1.838  1.00  0.00     0.033 A 
HETATM    3  C7  UNL     1       5.758  -0.599   2.243  1.00  0.00     0.016 A 
HETATM    4  C8  UNL     1       4.894  -1.085   1.291  1.00  0.00    -0.006 A 
HETATM    5  C9  UNL     1       3.675  -1.639   1.608  1.00  0.00     0.040 A 
HETATM    6  C10 UNL     1       2.809  -2.144   0.640  1.00  0.00     0.038 A 
HETATM    7  N4  UNL     1       3.243  -2.054  -0.639  1.00  0.00    -0.365 N 
ATOM      8  H4  UNL     1       2.640  -2.410  -1.381  1.00  0.00     0.165 HD
HETATM    9  C30 UNL     1       4.424  -1.521  -0.980  1.00  0.00     0.118 A 
HETATM   10  C31 UNL     1       5.305  -1.011  -0.021  1.00  0.00     0.058 A 
HETATM   11  N5  UNL     1       6.489  -0.495  -0.383  1.00  0.00    -0.353 N 
ATOM     12  H5  UNL     1       6.734  -0.470  -1.373  1.00  0.00     0.166 HD
ENDROOT
BRANCH   6  13
HETATM   13  C11 UNL     1       1.521  -2.768   1.003  1.00  0.00     0.329 C 
BRANCH  13  14
HETATM   14  N2  UNL     1       0.580  -2.646  -0.131  1.00  0.00     0.100 N 
HETATM   15  C12 UNL     1      -0.601  -3.396   0.286  1.00  0.00     0.293 C 
HETATM   16  C13 UNL     1      -1.517  -2.409   1.022  1.00  0.00     0.157 C 
HETATM   17  N3  UNL     1      -1.995  -1.552  -0.065  1.00  0.00    -0.368 N 
HETATM   18  C28 UNL     1      -1.021  -0.799  -0.684  1.00  0.00     0.093 C 
HETATM   19  C29 UNL     1       0.374  -1.259  -0.322  1.00  0.00     0.317 C 
BRANCH  17  20
HETATM   20  C14 UNL     1      -3.352  -1.294  -0.017  1.00  0.00     0.094 C 
BRANCH  20  21
HETATM   21  C15 UNL     1      -3.926  -0.492  -1.111  1.00  0.00     0.157 C 
BRANCH  21  22
HETATM   22  O1  UNL     1      -3.655  -1.075  -2.373  1.00  0.00    -0.390 OA
ATOM     23  H1  UNL     1      -4.025  -0.558  -3.079  1.00  0.00     0.210 HD
ENDBRANCH  21  22
BRANCH  21  24
HETATM   24  C16 UNL     1      -3.759   0.961  -1.167  1.00  0.00     0.042 C 
BRANCH  24  25
HETATM   25  C17 UNL     1      -4.325   1.711  -0.003  1.00  0.00     0.041 C 
BRANCH  25  26
HETATM   26  C18 UNL     1      -5.783   1.497   0.129  1.00  0.00    -0.058 A 
HETATM   27  C19 UNL     1      -6.355   0.573   0.971  1.00  0.00     0.007 A 
HETATM   28  C20 UNL     1      -7.727   0.379   1.045  1.00  0.00     0.008 A 
HETATM   29  C21 UNL     1      -8.597   1.111   0.268  1.00  0.00    -0.051 A 
HETATM   30  C26 UNL     1      -8.047   2.044  -0.584  1.00  0.00     0.008 A 
HETATM   31  C27 UNL     1      -6.677   2.236  -0.657  1.00  0.00     0.007 A 
BRANCH  29  32
HETATM   32  C22 UNL     1     -10.073   0.871   0.365  1.00  0.00    -0.024 C 
HETATM   33  C23 UNL     1     -10.786   2.153   0.689  1.00  0.00     0.019 C 
HETATM   34  C24 UNL     1     -10.327  -0.102   1.502  1.00  0.00     0.019 C 
HETATM   35  C25 UNL     1     -10.623   0.243  -0.896  1.00  0.00     0.019 C 
ENDBRANCH  29  32
ENDBRANCH  25  26
ENDBRANCH  24  25
ENDBRANCH  21  24
ENDBRANCH  20  21
ENDBRANCH  17  20
ENDBRANCH  13  14
ENDBRANCH   6  13
BRANCH   1  36
HETATM   36  C4  UNL     1       8.665   0.520   0.088  1.00  0.00     0.079 A 
HETATM   37  C3  UNL     1       9.615   0.999   0.954  1.00  0.00     0.081 A 
HETATM   38  C2  UNL     1      10.854   1.462   0.481  1.00  0.00     0.118 A 
HETATM   39  N8  UNL     1      11.089   1.425  -0.839  1.00  0.00    -0.177 N 
HETATM   40  C32 UNL     1      10.143   0.950  -1.690  1.00  0.00     0.686 A 
ATOM     41  H8  UNL     1      11.982   1.755  -1.205  1.00  0.00     0.186 HD
HETATM   42  N6  UNL     1       8.958   0.508  -1.226  1.00  0.00    -0.189 N 
ATOM     43  H6  UNL     1       8.265   0.155  -1.887  1.00  0.00     0.184 HD
BRANCH  38  44
HETATM   44  N1  UNL     1      11.729   1.903   1.311  1.00  0.00    -0.380 N 
HETATM   45  C1  UNL     1      11.543   1.966   2.726  1.00  0.00     0.147 C 
ATOM     46  H1  UNL     1      12.618   2.231   0.934  1.00  0.00     0.160 HD
ENDBRANCH  38  44
BRANCH  40  47
HETATM   47  N7  UNL     1      10.439   0.941  -2.948  1.00  0.00    -0.167 N 
ATOM     48  H7  UNL     1       9.761   0.591  -3.625  1.00  0.00     0.186 HD
BRANCH  47  49
HETATM   49  C33 UNL     1      11.708   1.417  -3.396  1.00  0.00     0.368 C 
HETATM   50  O2  UNL     1      11.937   2.640  -3.522  1.00  0.00    -0.283 OA
ENDBRANCH  47  49
ENDBRANCH  40  47
ENDBRANCH   1  36
TORSDOF 13
