REMARK  9 active torsions:
REMARK  status: ('A' for Active; 'I' for Inactive)
REMARK    1  A    between atoms: C2_2  and  C3_3 
REMARK    2  A    between atoms: C3_3  and  C4_4 
REMARK    3  A    between atoms: C4_4  and  C5_5 
REMARK    4  A    between atoms: C5_5  and  O1_6 
REMARK       I    between atoms: N1_8  and  C7_10 
REMARK    5  A    between atoms: C7_10  and  C8_12 
REMARK    6  A    between atoms: C10_14  and  N2_15 
REMARK       I    between atoms: N2_15  and  C11_17 
REMARK    7  A    between atoms: C11_17  and  C12_19 
REMARK    8  A    between atoms: C14_22  and  C15_23 
REMARK    9  A    between atoms: C17_25  and  C18_26 
ROOT
HETATM    1  C12 UNL     1      -2.002  -0.386  -2.424  1.00  0.00     0.108 C 
HETATM    2  C13 UNL     1      -3.100  -0.795  -3.283  1.00  0.00     0.104 C 
HETATM    3  N3  UNL     1      -3.968  -1.138  -3.982  1.00  0.00    -0.191 NA
HETATM    4  C14 UNL     1      -2.321   0.367  -1.403  1.00  0.00     0.008 C 
ENDROOT
BRANCH   1   5
HETATM    5  C11 UNL     1      -0.648  -0.790  -2.684  1.00  0.00     0.262 C 
HETATM    6  N2  UNL     1       0.421  -0.409  -1.874  1.00  0.00    -0.350 N 
ATOM      7  H2  UNL     1       0.227   0.180  -1.064  1.00  0.00     0.163 HD
HETATM    8  O3  UNL     1      -0.421  -1.517  -3.686  1.00  0.00    -0.267 OA
BRANCH   6   9
HETATM    9  C10 UNL     1       1.806  -0.809  -2.123  1.00  0.00     0.104 C 
HETATM   10  C9  UNL     1       2.274  -1.658  -1.031  1.00  0.00     0.051 C 
HETATM   11  C8  UNL     1       3.402  -1.072  -0.249  1.00  0.00     0.142 C 
HETATM   12  S3  UNL     1       4.201  -0.057  -1.561  1.00  0.00    -0.143 SA
HETATM   13  C25 UNL     1       2.678   0.328  -2.472  1.00  0.00     0.022 C 
HETATM   14  C26 UNL     1       2.983   0.420  -3.950  1.00  0.00     0.029 C 
HETATM   15  C27 UNL     1       2.189   1.656  -1.928  1.00  0.00     0.029 C 
BRANCH  11  16
HETATM   16  C7  UNL     1       4.296  -2.086   0.292  1.00  0.00     0.235 C 
HETATM   17  N1  UNL     1       5.484  -1.911   0.977  1.00  0.00    -0.331 N 
HETATM   18  C4  UNL     1       5.829  -1.218   1.960  1.00  0.00     0.016 C 
ATOM     19  H1  UNL     1       6.248  -2.470   0.597  1.00  0.00     0.168 HD
HETATM   20  O2  UNL     1       3.937  -3.309   0.110  1.00  0.00    -0.272 OA
BRANCH  18  21
HETATM   21  C3  UNL     1       7.250  -1.315   2.404  1.00  0.00     0.081 C 
BRANCH  21  22
HETATM   22  C2  UNL     1       8.033  -2.233   1.557  1.00  0.00    -0.031 C 
HETATM   23  C1  UNL     1       8.630  -3.313   2.040  1.00  0.00     0.007 C 
ENDBRANCH  21  22
ENDBRANCH  18  21
BRANCH  18  24
HETATM   24  C5  UNL     1       4.890  -0.340   2.667  1.00  0.00     0.219 C 
BRANCH  24  25
HETATM   25  O1  UNL     1       4.791   0.949   2.294  1.00  0.00    -0.390 OA
HETATM   26  C6  UNL     1       5.896   1.744   2.325  1.00  0.00     0.201 C 
ENDBRANCH  24  25
ENDBRANCH  18  24
ENDBRANCH  11  16
ENDBRANCH   6   9
ENDBRANCH   1   5
BRANCH   4  27
HETATM   27  C15 UNL     1      -3.749   0.784  -1.139  1.00  0.00     0.028 C 
HETATM   28  C16 UNL     1      -4.161   0.144   0.144  1.00  0.00     0.017 C 
HETATM   29  C17 UNL     1      -5.639   0.153   0.392  1.00  0.00     0.020 C 
HETATM   30  C21 UNL     1      -6.346   1.353  -0.129  1.00  0.00     0.081 C 
HETATM   31  S2  UNL     1      -5.235   2.793  -0.170  1.00  0.00    -0.159 SA
HETATM   32  C22 UNL     1      -3.807   2.269  -1.170  1.00  0.00     0.008 C 
HETATM   33  C23 UNL     1      -4.091   2.712  -2.601  1.00  0.00     0.027 C 
HETATM   34  C24 UNL     1      -2.542   2.947  -0.729  1.00  0.00     0.027 C 
BRANCH  29  35
HETATM   35  C18 UNL     1      -5.865  -0.084   1.867  1.00  0.00     0.106 C 
HETATM   36  C19 UNL     1      -7.300  -0.098   2.259  1.00  0.00     0.147 C 
HETATM   37  N4  UNL     1      -7.274  -0.871   3.501  1.00  0.00    -0.365 N 
HETATM   38  C20 UNL     1      -6.313  -1.893   3.255  1.00  0.00     0.168 C 
ATOM     39  H4  UNL     1      -7.819  -0.714   4.349  1.00  0.00     0.161 HD
HETATM   40  S1  UNL     1      -6.239  -3.368   3.990  1.00  0.00    -0.041 SA
HETATM   41  N5  UNL     1      -5.416  -1.423   2.255  1.00  0.00    -0.361 N 
ATOM     42  H5  UNL     1      -4.611  -1.925   1.879  1.00  0.00     0.162 HD
ENDBRANCH  29  35
ENDBRANCH   4  27
TORSDOF 9
