REMARK  12 active torsions:
REMARK  status: ('A' for Active; 'I' for Inactive)
REMARK    1  A    between atoms: C4_4  and  C5_5 
REMARK    2  A    between atoms: C8_8  and  C9_9 
REMARK    3  A    between atoms: C9_9  and  C10_10 
REMARK    4  A    between atoms: C13_13  and  O1_14 
REMARK    5  A    between atoms: C14_18  and  C15_19 
REMARK    6  A    between atoms: C15_19  and  C16_20 
REMARK    7  A    between atoms: C20_26  and  C21_27 
REMARK    8  A    between atoms: C21_27  and  C22_28 
REMARK    9  A    between atoms: N2_33  and  C26_34 
REMARK   10  A    between atoms: C29_39  and  C30_40 
REMARK   11  A    between atoms: C30_40  and  O6_41 
REMARK   12  A    between atoms: N4_43  and  O7_45 
ROOT
HETATM    1  C5  UNL     1      -1.679   0.635  -0.571  1.00  0.00     0.038 C 
HETATM    2  C6  UNL     1      -0.624   1.524  -1.000  1.00  0.00     0.030 C 
HETATM    3  C7  UNL     1       0.423   2.013  -0.115  1.00  0.00     0.013 C 
HETATM    4  C8  UNL     1       1.677   1.585   0.053  1.00  0.00    -0.007 C 
HETATM    5  C13 UNL     1       2.296   0.490  -0.686  1.00  0.00     0.142 C 
HETATM    6  N1  UNL     1       2.097  -0.906  -0.633  1.00  0.00    -0.357 N 
ATOM      7  H1  UNL     1       1.768  -1.350  -1.491  1.00  0.00     0.162 HD
HETATM    8  C14 UNL     1       2.306  -1.774   0.496  1.00  0.00     0.183 C 
HETATM    9  C19 UNL     1       1.403  -2.936   0.537  1.00  0.00     0.282 C 
HETATM   10  O2  UNL     1       1.960  -4.098   0.445  1.00  0.00    -0.263 OA
HETATM   11  O3  UNL     1       0.054  -2.988   0.660  1.00  0.00    -0.305 OA
HETATM   12  C20 UNL     1      -0.909  -2.114   0.065  1.00  0.00     0.224 C 
HETATM   13  C25 UNL     1      -1.252  -1.124   1.080  1.00  0.00     0.255 C 
HETATM   14  O4  UNL     1      -1.040  -1.459   2.297  1.00  0.00    -0.270 OA
HETATM   15  N2  UNL     1      -1.819   0.224   0.816  1.00  0.00    -0.299 N 
ENDROOT
BRANCH  15  16
HETATM   16  C26 UNL     1      -2.457   0.804   1.899  1.00  0.00     0.216 C 
HETATM   17  C27 UNL     1      -1.945   1.918   2.728  1.00  0.00     0.246 C 
HETATM   18  O5  UNL     1      -1.070   2.714   2.971  1.00  0.00    -0.271 OA
HETATM   19  N3  UNL     1      -3.225   1.737   3.416  1.00  0.00    -0.340 N 
HETATM   20  C28 UNL     1      -3.756   1.739   4.704  1.00  0.00     0.153 C 
HETATM   21  C29 UNL     1      -3.708   1.540   2.000  1.00  0.00     0.195 C 
BRANCH  21  22
HETATM   22  C30 UNL     1      -3.953   2.892   1.526  1.00  0.00     0.161 C 
HETATM   23  N4  UNL     1      -3.100   3.717   1.069  1.00  0.00    -0.249 N 
ATOM     24  H4  UNL     1      -2.129   3.409   1.024  1.00  0.00     0.196 HD
BRANCH  22  25
HETATM   25  O6  UNL     1      -5.277   3.358   1.572  1.00  0.00    -0.346 OA
ATOM     26  H6  UNL     1      -5.437   4.242   1.262  1.00  0.00     0.219 HD
ENDBRANCH  22  25
BRANCH  23  27
HETATM   27  O7  UNL     1      -3.376   4.976   0.636  1.00  0.00    -0.288 OA
ATOM     28  H7  UNL     1      -2.739   5.592   0.295  1.00  0.00     0.244 HD
ENDBRANCH  23  27
ENDBRANCH  21  22
ENDBRANCH  15  16
BRANCH   1  29
HETATM   29  C4  UNL     1      -3.011   0.873  -1.239  1.00  0.00     0.032 C 
HETATM   30  C2  UNL     1      -3.222   1.005  -2.529  1.00  0.00    -0.086 C 
HETATM   31  C1  UNL     1      -4.640   1.248  -3.045  1.00  0.00     0.043 C 
HETATM   32  C3  UNL     1      -2.154   0.909  -3.557  1.00  0.00     0.043 C 
ENDBRANCH   1  29
BRANCH  12  33
HETATM   33  C21 UNL     1      -2.165  -2.876  -0.290  1.00  0.00     0.046 C 
BRANCH  33  34
HETATM   34  C22 UNL     1      -1.995  -3.998  -1.250  1.00  0.00    -0.020 C 
HETATM   35  C23 UNL     1      -1.438  -3.564  -2.591  1.00  0.00     0.009 C 
HETATM   36  C24 UNL     1      -1.317  -5.209  -0.687  1.00  0.00     0.009 C 
ENDBRANCH  33  34
ENDBRANCH  12  33
BRANCH   4  37
HETATM   37  C9  UNL     1       2.544   2.323   1.070  1.00  0.00     0.046 C 
BRANCH  37  38
HETATM   38  C10 UNL     1       3.776   2.911   0.473  1.00  0.00    -0.018 C 
HETATM   39  C11 UNL     1       4.566   3.640   1.562  1.00  0.00     0.010 C 
HETATM   40  C12 UNL     1       3.439   3.832  -0.674  1.00  0.00     0.010 C 
ENDBRANCH  37  38
ENDBRANCH   4  37
BRANCH   5  41
HETATM   41  O1  UNL     1       3.198   0.879  -1.554  1.00  0.00    -0.346 OA
ATOM     42  H1  UNL     1       3.601   0.166  -2.035  1.00  0.00     0.219 HD
ENDBRANCH   5  41
BRANCH   8  43
HETATM   43  C15 UNL     1       3.715  -2.143   0.795  1.00  0.00     0.039 C 
BRANCH  43  44
HETATM   44  C16 UNL     1       4.512  -2.890  -0.187  1.00  0.00    -0.020 C 
HETATM   45  C17 UNL     1       5.931  -3.130   0.406  1.00  0.00     0.009 C 
HETATM   46  C18 UNL     1       4.798  -2.212  -1.499  1.00  0.00     0.009 C 
ENDBRANCH  43  44
ENDBRANCH   8  43
TORSDOF 12
