REMARK  11 active torsions:
REMARK  status: ('A' for Active; 'I' for Inactive)
REMARK    1  A    between atoms: C2_2  and  C3_3 
REMARK    2  A    between atoms: C6_8  and  C7_9 
REMARK    3  A    between atoms: C8_12  and  O3_13 
REMARK    4  A    between atoms: C9_15  and  C10_16 
REMARK    5  A    between atoms: C10_16  and  C11_17 
REMARK    6  A    between atoms: C11_17  and  C12_18 
REMARK    7  A    between atoms: C12_18  and  C13_19 
REMARK    8  A    between atoms: C13_19  and  C14_20 
REMARK    9  A    between atoms: C14_20  and  C15_21 
REMARK   10  A    between atoms: C22_34  and  C23_35 
REMARK   11  A    between atoms: C23_35  and  C25_37 
ROOT
HETATM    1  C3  UNL     1      -0.503   3.235  -1.229  1.00  0.00    -0.039 C 
HETATM    2  C4  UNL     1       0.639   4.151  -0.699  1.00  0.00     0.050 C 
HETATM    3  C5  UNL     1      -1.062   2.483  -0.324  1.00  0.00     0.033 C 
HETATM    4  N1  UNL     1      -0.667   2.446   0.990  1.00  0.00    -0.350 N 
ATOM      5  H1  UNL     1      -0.979   3.355   1.333  1.00  0.00     0.166 HD
HETATM    6  C6  UNL     1      -0.150   1.949   2.005  1.00  0.00     0.145 C 
HETATM    7  C8  UNL     1       0.483   0.681   2.299  1.00  0.00     0.122 C 
HETATM    8  C9  UNL     1       1.691  -0.061   2.041  1.00  0.00     0.050 C 
HETATM    9  N2  UNL     1       1.542  -1.535   2.119  1.00  0.00    -0.322 N 
HETATM   10  C17 UNL     1       2.638  -2.218   2.879  1.00  0.00     0.159 C 
HETATM   11  C18 UNL     1       0.552  -2.360   1.610  1.00  0.00     0.246 C 
HETATM   12  O5  UNL     1      -0.080  -3.083   2.473  1.00  0.00    -0.271 OA
HETATM   13  C19 UNL     1       0.075  -2.573   0.221  1.00  0.00     0.173 C 
HETATM   14  C20 UNL     1       1.048  -3.492  -0.570  1.00  0.00     0.042 C 
HETATM   15  N3  UNL     1      -1.181  -3.297   0.163  1.00  0.00    -0.346 N 
ATOM     16  H3  UNL     1      -1.272  -4.103   0.782  1.00  0.00     0.163 HD
HETATM   17  C21 UNL     1      -2.289  -3.005  -0.657  1.00  0.00     0.241 C 
HETATM   18  O6  UNL     1      -2.686  -3.955  -1.404  1.00  0.00    -0.271 OA
HETATM   19  C22 UNL     1      -3.036  -1.732  -0.747  1.00  0.00     0.180 C 
HETATM   20  N4  UNL     1      -2.529  -0.767  -1.659  1.00  0.00    -0.346 N 
ATOM     21  H4  UNL     1      -2.655  -1.004  -2.643  1.00  0.00     0.163 HD
HETATM   22  C27 UNL     1      -1.880   0.465  -1.427  1.00  0.00     0.232 C 
HETATM   23  O7  UNL     1      -0.708   0.499  -1.971  1.00  0.00    -0.272 OA
HETATM   24  C28 UNL     1      -2.280   1.646  -0.716  1.00  0.00     0.076 C 
HETATM   25  C29 UNL     1      -3.024   1.328   0.601  1.00  0.00     0.032 C 
HETATM   26  C30 UNL     1      -3.306   2.385  -1.508  1.00  0.00     0.032 C 
ENDROOT
BRANCH   8  27
HETATM   27  C10 UNL     1       2.765   0.348   1.128  1.00  0.00     0.060 C 
BRANCH  27  28
HETATM   28  C11 UNL     1       2.532   0.508  -0.309  1.00  0.00     0.006 C 
BRANCH  28  29
HETATM   29  C12 UNL     1       3.599   0.962  -1.207  1.00  0.00     0.001 C 
BRANCH  29  30
HETATM   30  C13 UNL     1       4.821   0.181  -1.417  1.00  0.00     0.007 C 
BRANCH  30  31
HETATM   31  C14 UNL     1       5.756  -0.126  -0.321  1.00  0.00     0.077 C 
BRANCH  31  32
HETATM   32  C15 UNL     1       6.317   1.049   0.385  1.00  0.00     0.123 C 
HETATM   33  C16 UNL     1       7.234   0.837   1.528  1.00  0.00     0.091 C 
HETATM   34  O4  UNL     1       6.039   2.167   0.045  1.00  0.00    -0.298 OA
ENDBRANCH  31  32
ENDBRANCH  30  31
ENDBRANCH  29  30
ENDBRANCH  28  29
ENDBRANCH  27  28
ENDBRANCH   8  27
BRANCH   7  35
HETATM   35  O3  UNL     1      -0.330  -0.071   3.091  1.00  0.00    -0.356 OA
ATOM     36  H3  UNL     1       0.085  -0.903   3.284  1.00  0.00     0.218 HD
ENDBRANCH   7  35
BRANCH   6  37
HETATM   37  C7  UNL     1      -0.228   2.863   3.208  1.00  0.00     0.229 C 
HETATM   38  O1  UNL     1      -0.764   3.995   3.074  1.00  0.00    -0.643 OA
HETATM   39  O2  UNL     1       0.234   2.570   4.457  1.00  0.00    -0.643 OA
ENDBRANCH   6  37
BRANCH   1  40
HETATM   40  C2  UNL     1      -0.781   3.392  -2.630  1.00  0.00    -0.002 C 
HETATM   41  C1  UNL     1      -0.044   4.249  -3.339  1.00  0.00     0.012 C 
ENDBRANCH   1  40
BRANCH  19  42
HETATM   42  C23 UNL     1      -4.493  -1.983  -1.155  1.00  0.00     0.013 C 
HETATM   43  C24 UNL     1      -4.648  -2.662  -2.472  1.00  0.00     0.012 C 
BRANCH  42  44
HETATM   44  C25 UNL     1      -5.240  -2.680  -0.037  1.00  0.00     0.002 C 
HETATM   45  C26 UNL     1      -6.677  -2.925  -0.442  1.00  0.00     0.005 C 
ENDBRANCH  42  44
ENDBRANCH  19  42
TORSDOF 11
