REMARK  13 active torsions:
REMARK  status: ('A' for Active; 'I' for Inactive)
REMARK    1  A    between atoms: N2_4  and  C3_6 
REMARK    2  A    between atoms: C3_6  and  C4_7 
REMARK    3  A    between atoms: C4_7  and  C5_8 
REMARK    4  A    between atoms: C5_8  and  C6_9 
REMARK    5  A    between atoms: C6_9  and  C7_10 
REMARK    6  A    between atoms: C7_10  and  N3_11 
REMARK       I    between atoms: N3_11  and  C8_13 
REMARK    7  A    between atoms: C8_13  and  C9_15 
REMARK    8  A    between atoms: C9_15  and  C10_16 
REMARK    9  A    between atoms: C10_16  and  C11_17 
REMARK   10  A    between atoms: C11_17  and  N4_18 
REMARK   11  A    between atoms: C13_20  and  S1_21 
REMARK   12  A    between atoms: S1_21  and  C14_22 
REMARK   13  A    between atoms: C27_35  and  N5_36 
REMARK       I    between atoms: N5_36  and  C28_38 
ROOT
HETATM    1  N4  UNL     1      -1.827  -1.086   0.617  1.00  0.00    -0.341 N 
HETATM    2  C12 UNL     1      -2.103  -0.026   1.430  1.00  0.00     0.112 A 
HETATM    3  C13 UNL     1      -3.380   0.209   1.879  1.00  0.00     0.027 A 
HETATM    4  C20 UNL     1      -4.387  -0.655   1.490  1.00  0.00    -0.004 A 
HETATM    5  C21 UNL     1      -5.699  -0.460   1.935  1.00  0.00     0.020 A 
HETATM    6  C22 UNL     1      -6.682  -1.334   1.548  1.00  0.00    -0.061 A 
HETATM    7  C23 UNL     1      -8.108  -1.169   2.001  1.00  0.00     0.048 C 
HETATM    8  C24 UNL     1      -6.357  -2.385   0.729  1.00  0.00     0.007 A 
HETATM    9  C25 UNL     1      -5.060  -2.595   0.277  1.00  0.00     0.017 A 
HETATM   10  C26 UNL     1      -4.080  -1.699   0.681  1.00  0.00     0.020 A 
HETATM   11  C27 UNL     1      -2.751  -1.962   0.199  1.00  0.00     0.120 A 
ENDROOT
BRANCH   1  12
HETATM   12  C11 UNL     1      -0.421  -1.265   0.214  1.00  0.00     0.130 C 
BRANCH  12  13
HETATM   13  C10 UNL     1       0.218  -2.069   1.293  1.00  0.00     0.029 C 
BRANCH  13  14
HETATM   14  C9  UNL     1       1.651  -2.411   1.119  1.00  0.00     0.104 C 
BRANCH  14  15
HETATM   15  C8  UNL     1       2.586  -1.277   1.034  1.00  0.00     0.217 C 
HETATM   16  N3  UNL     1       3.974  -1.521   0.877  1.00  0.00    -0.361 N 
ATOM     17  H3  UNL     1       4.310  -2.483   0.828  1.00  0.00     0.162 HD
HETATM   18  O1  UNL     1       2.211  -0.088   1.096  1.00  0.00    -0.274 OA
BRANCH  16  19
HETATM   19  C7  UNL     1       4.928  -0.427   0.785  1.00  0.00     0.122 C 
BRANCH  19  20
HETATM   20  C6  UNL     1       6.337  -0.926   0.645  1.00  0.00     0.020 C 
BRANCH  20  21
HETATM   21  C5  UNL     1       6.603  -1.766  -0.545  1.00  0.00     0.003 C 
BRANCH  21  22
HETATM   22  C4  UNL     1       6.390  -1.188  -1.887  1.00  0.00     0.020 C 
BRANCH  22  23
HETATM   23  C3  UNL     1       7.197  -0.006  -2.274  1.00  0.00     0.120 C 
BRANCH  23  24
HETATM   24  N2  UNL     1       7.033   1.175  -1.483  1.00  0.00    -0.382 N 
HETATM   25  C2  UNL     1       7.150   2.369  -1.957  1.00  0.00     0.085 C 
HETATM   26  C1  UNL     1       6.962   3.540  -1.063  1.00  0.00     0.085 C 
HETATM   27  N1  UNL     1       7.456   2.640  -3.324  1.00  0.00    -0.088 NA
ATOM     28  H2  UNL     1       6.812   1.067  -0.493  1.00  0.00     0.160 HD
ENDBRANCH  23  24
ENDBRANCH  22  23
ENDBRANCH  21  22
ENDBRANCH  20  21
ENDBRANCH  19  20
ENDBRANCH  16  19
ENDBRANCH  14  15
ENDBRANCH  13  14
ENDBRANCH  12  13
ENDBRANCH   1  12
BRANCH  11  29
HETATM   29  N5  UNL     1      -2.603  -2.923  -0.542  1.00  0.00    -0.316 N 
HETATM   30  C28 UNL     1      -1.863  -3.727  -1.313  1.00  0.00     0.187 C 
HETATM   31  N6  UNL     1      -1.624  -3.646  -2.517  1.00  0.00    -0.373 N 
HETATM   32  N7  UNL     1      -1.257  -4.906  -0.658  1.00  0.00    -0.064 NA
ATOM     33  H62 UNL     1      -2.042  -2.833  -2.969  1.00  0.00     0.158 HD
ATOM     34  H61 UNL     1      -1.060  -4.259  -3.105  1.00  0.00     0.158 HD
ATOM     35  H5  UNL     1      -3.539  -3.323  -0.606  1.00  0.00     0.170 HD
ENDBRANCH  11  29
BRANCH   3  36
HETATM   36  S1  UNL     1      -3.764   1.568   2.966  1.00  0.00    -0.123 SA
BRANCH  36  37
HETATM   37  C14 UNL     1      -4.027   3.088   2.076  1.00  0.00     0.052 C 
HETATM   38  C15 UNL     1      -5.211   3.166   1.191  1.00  0.00     0.015 C 
HETATM   39  C16 UNL     1      -4.956   2.854  -0.264  1.00  0.00     0.001 C 
HETATM   40  C17 UNL     1      -3.835   3.620  -0.879  1.00  0.00     0.000 C 
HETATM   41  C18 UNL     1      -3.084   4.410   0.176  1.00  0.00     0.001 C 
HETATM   42  C19 UNL     1      -2.757   3.521   1.358  1.00  0.00     0.015 C 
ENDBRANCH  36  37
ENDBRANCH   3  36
TORSDOF 13
