REMARK  14 active torsions:
REMARK  status: ('A' for Active; 'I' for Inactive)
REMARK    1  A    between atoms: C2_2  and  C4_4 
REMARK    2  A    between atoms: C4_4  and  C5_5 
REMARK    3  A    between atoms: C5_5  and  N2_10 
REMARK    4  A    between atoms: N1_6  and  O1_8 
REMARK       I    between atoms: N2_10  and  C6_11 
REMARK       I    between atoms: C6_11  and  N4_13 
REMARK    5  A    between atoms: N4_13  and  C7_15 
REMARK    6  A    between atoms: C7_15  and  C8_16 
REMARK    7  A    between atoms: C8_16  and  C9_17 
REMARK    8  A    between atoms: C9_17  and  C10_18 
REMARK    9  A    between atoms: C10_18  and  C11_19 
REMARK   10  A    between atoms: C11_19  and  C12_20 
REMARK   11  A    between atoms: C12_20  and  C13_21 
REMARK   12  A    between atoms: C13_21  and  C14_22 
REMARK   13  A    between atoms: C14_22  and  N5_23 
REMARK       I    between atoms: N5_23  and  C15_25 
REMARK   14  A    between atoms: C15_25  and  C16_27 
ROOT
HETATM    1  C13 UNL     1       0.322   0.283   1.280  1.00  0.00     0.020 C 
ENDROOT
BRANCH   1   2
HETATM    2  C12 UNL     1       0.448  -0.379  -0.038  1.00  0.00     0.002 C 
BRANCH   2   3
HETATM    3  C11 UNL     1       1.672  -0.125  -0.816  1.00  0.00     0.000 C 
BRANCH   3   4
HETATM    4  C10 UNL     1       2.952  -0.650  -0.332  1.00  0.00     0.000 C 
BRANCH   4   5
HETATM    5  C9  UNL     1       3.448  -0.241   0.990  1.00  0.00     0.002 C 
BRANCH   5   6
HETATM    6  C8  UNL     1       4.886  -0.789   1.174  1.00  0.00     0.020 C 
BRANCH   6   7
HETATM    7  C7  UNL     1       4.887  -2.271   1.092  1.00  0.00     0.123 C 
BRANCH   7   8
HETATM    8  N4  UNL     1       6.272  -2.716   1.311  1.00  0.00    -0.353 N 
HETATM    9  C6  UNL     1       7.266  -2.415   0.307  1.00  0.00     0.264 C 
HETATM   10  N2  UNL     1       7.937  -1.445   0.366  1.00  0.00    -0.358 NA
HETATM   11  N3  UNL     1       7.342  -3.407  -0.744  1.00  0.00    -0.049 NA
ATOM     12  H4  UNL     1       6.526  -3.228   2.156  1.00  0.00     0.163 HD
BRANCH  10  13
HETATM   13  C5  UNL     1       8.637  -0.337   0.522  1.00  0.00     0.178 C 
HETATM   14  N1  UNL     1       8.846   0.286   1.664  1.00  0.00    -0.245 N 
ATOM     15  H1  UNL     1       9.400   1.142   1.705  1.00  0.00     0.196 HD
BRANCH  13  16
HETATM   16  C4  UNL     1       9.284   0.333  -0.665  1.00  0.00     0.098 C 
BRANCH  16  17
HETATM   17  C2  UNL     1      10.023   1.574  -0.287  1.00  0.00    -0.015 C 
HETATM   18  C1  UNL     1       9.166   2.632   0.345  1.00  0.00     0.010 C 
HETATM   19  C3  UNL     1      10.618   2.162  -1.566  1.00  0.00     0.010 C 
ENDBRANCH  16  17
ENDBRANCH  13  16
BRANCH  14  20
HETATM   20  O1  UNL     1       8.287  -0.262   2.808  1.00  0.00    -0.288 OA
ATOM     21  H1  UNL     1       8.438   0.187   3.631  1.00  0.00     0.244 HD
ENDBRANCH  14  20
ENDBRANCH  10  13
ENDBRANCH   7   8
ENDBRANCH   6   7
ENDBRANCH   5   6
ENDBRANCH   4   5
ENDBRANCH   3   4
ENDBRANCH   2   3
ENDBRANCH   1   2
BRANCH   1  22
HETATM   22  C14 UNL     1      -1.059  -0.114   1.856  1.00  0.00     0.123 C 
BRANCH  22  23
HETATM   23  N5  UNL     1      -2.063   0.425   0.942  1.00  0.00    -0.357 N 
HETATM   24  C15 UNL     1      -3.415   0.193   1.207  1.00  0.00     0.251 C 
HETATM   25  O2  UNL     1      -3.694  -0.495   2.263  1.00  0.00    -0.268 OA
ATOM     26  H5  UNL     1      -1.781   0.963   0.122  1.00  0.00     0.162 HD
BRANCH  24  27
HETATM   27  C16 UNL     1      -4.567   0.673   0.375  1.00  0.00     0.030 C 
HETATM   28  C17 UNL     1      -4.278   1.358  -0.676  1.00  0.00     0.013 C 
HETATM   29  C18 UNL     1      -4.991   2.015  -1.752  1.00  0.00    -0.021 C 
HETATM   30  C19 UNL     1      -6.147   2.843  -1.594  1.00  0.00     0.018 C 
HETATM   31  C20 UNL     1      -6.760   3.111  -0.297  1.00  0.00     0.047 C 
HETATM   32  C23 UNL     1      -7.392   2.064  -2.021  1.00  0.00     0.031 A 
HETATM   33  C21 UNL     1      -7.702   1.996  -0.627  1.00  0.00     0.068 A 
HETATM   34  C22 UNL     1      -8.753   2.470  -1.686  1.00  0.00     0.047 A 
HETATM   35  O3  UNL     1      -7.848   0.984   0.104  1.00  0.00    -0.365 OA
HETATM   36  C24 UNL     1      -7.026  -0.116   0.238  1.00  0.00     0.081 C 
HETATM   37  C25 UNL     1      -7.925  -0.846   1.293  1.00  0.00     0.042 C 
HETATM   38  C29 UNL     1      -6.936  -1.024  -0.917  1.00  0.00     0.042 C 
HETATM   39  C30 UNL     1      -5.827   0.244   0.977  1.00  0.00     0.028 C 
HETATM   40  C26 UNL     1      -7.501  -2.209   1.616  1.00  0.00     0.003 C 
HETATM   41  C27 UNL     1      -7.782  -3.045   0.355  1.00  0.00     0.000 C 
HETATM   42  C28 UNL     1      -6.821  -2.501  -0.634  1.00  0.00     0.003 C 
ENDBRANCH  24  27
ENDBRANCH  22  23
ENDBRANCH   1  22
TORSDOF 14
