REMARK  13 active torsions:
REMARK  status: ('A' for Active; 'I' for Inactive)
REMARK    1  A    between atoms: C2_2  and  C3_3 
REMARK    2  A    between atoms: C2_2  and  C14_20 
REMARK    3  A    between atoms: C3_3  and  C4_4 
REMARK    4  A    between atoms: C4_4  and  C5_5 
REMARK    5  A    between atoms: C5_5  and  C6_6 
REMARK    6  A    between atoms: C6_6  and  O1_7 
REMARK    7  A    between atoms: C6_6  and  C7_9 
REMARK    8  A    between atoms: C7_9  and  C8_10 
REMARK    9  A    between atoms: C8_10  and  C9_11 
REMARK   10  A    between atoms: C9_11  and  C10_12 
REMARK   11  A    between atoms: C10_12  and  C11_13 
REMARK   12  A    between atoms: C11_13  and  C12_14 
REMARK   13  A    between atoms: C12_14  and  N1_15 
REMARK       I    between atoms: N1_15  and  C13_17 
ROOT
HETATM    1  C14 UNL     1      -1.017   0.040   1.441  1.00  0.00    -0.002 C 
HETATM    2  C15 UNL     1      -1.288  -1.324   2.091  1.00  0.00     0.006 C 
HETATM    3  C16 UNL     1      -2.533  -1.874   1.474  1.00  0.00     0.006 C 
HETATM    4  C17 UNL     1      -2.816  -1.032   0.248  1.00  0.00    -0.002 C 
HETATM    5  C18 UNL     1      -4.233  -1.031  -0.172  1.00  0.00    -0.005 C 
HETATM    6  C19 UNL     1      -4.743  -2.471   0.008  1.00  0.00     0.006 C 
HETATM    7  C20 UNL     1      -6.123  -2.498  -0.544  1.00  0.00     0.015 C 
HETATM    8  C21 UNL     1      -7.065  -1.471  -0.003  1.00  0.00     0.087 C 
HETATM    9  C22 UNL     1      -8.349  -1.668  -0.697  1.00  0.00     0.229 C 
HETATM   10  O3  UNL     1      -8.488  -2.647  -1.498  1.00  0.00    -0.273 OA
HETATM   11  N3  UNL     1      -9.518  -0.874  -0.592  1.00  0.00    -0.297 N 
ATOM     12  H3  UNL     1     -10.387  -1.312  -0.898  1.00  0.00     0.171 HD
HETATM   13  C23 UNL     1      -9.625   0.462  -0.110  1.00  0.00     0.224 C 
HETATM   14  O4  UNL     1     -10.784   0.827   0.282  1.00  0.00    -0.273 OA
HETATM   15  C24 UNL     1      -8.543   1.452  -0.020  1.00  0.00     0.104 C 
HETATM   16  C25 UNL     1      -7.281   0.965   0.608  1.00  0.00     0.019 C 
HETATM   17  C26 UNL     1      -6.495  -0.069  -0.104  1.00  0.00    -0.028 C 
HETATM   18  C27 UNL     1      -6.208   0.307  -1.534  1.00  0.00     0.016 C 
HETATM   19  C28 UNL     1      -5.155  -0.169   0.611  1.00  0.00    -0.001 C 
HETATM   20  C29 UNL     1      -4.580   1.124   1.052  1.00  0.00     0.006 C 
HETATM   21  C30 UNL     1      -3.220   0.910   1.634  1.00  0.00     0.010 C 
HETATM   22  C31 UNL     1      -2.221   0.280   0.649  1.00  0.00    -0.036 C 
HETATM   23  C32 UNL     1      -2.134   1.258  -0.485  1.00  0.00     0.016 C 
ENDROOT
BRANCH   1  24
HETATM   24  C2  UNL     1       0.329  -0.012   0.840  1.00  0.00    -0.014 C 
HETATM   25  C1  UNL     1       0.582  -1.012  -0.215  1.00  0.00     0.010 C 
BRANCH  24  26
HETATM   26  C3  UNL     1       0.934   1.309   0.458  1.00  0.00     0.005 C 
BRANCH  26  27
HETATM   27  C4  UNL     1       2.422   1.301   0.242  1.00  0.00     0.003 C 
BRANCH  27  28
HETATM   28  C5  UNL     1       3.131   0.887   1.476  1.00  0.00     0.032 C 
BRANCH  28  29
HETATM   29  C6  UNL     1       4.664   0.902   1.299  1.00  0.00     0.118 C 
BRANCH  29  30
HETATM   30  O1  UNL     1       4.949  -0.001   0.248  1.00  0.00    -0.396 OA
ATOM     31  H1  UNL     1       5.893   0.008   0.139  1.00  0.00     0.210 HD
ENDBRANCH  29  30
BRANCH  29  32
HETATM   32  C7  UNL     1       5.155   2.256   0.973  1.00  0.00     0.032 C 
BRANCH  32  33
HETATM   33  C8  UNL     1       6.633   2.352   0.837  1.00  0.00     0.002 C 
BRANCH  33  34
HETATM   34  C9  UNL     1       7.256   1.513  -0.225  1.00  0.00     0.000 C 
BRANCH  34  35
HETATM   35  C10 UNL     1       8.758   1.856  -0.197  1.00  0.00     0.002 C 
BRANCH  35  36
HETATM   36  C11 UNL     1       9.458   1.089  -1.247  1.00  0.00     0.020 C 
BRANCH  36  37
HETATM   37  C12 UNL     1       9.318  -0.392  -1.038  1.00  0.00     0.124 C 
BRANCH  37  38
HETATM   38  N1  UNL     1      10.049  -1.114  -2.097  1.00  0.00    -0.345 N 
HETATM   39  C13 UNL     1      10.023  -2.523  -2.052  1.00  0.00     0.328 C 
HETATM   40  N2  UNL     1      10.704  -3.272  -3.038  1.00  0.00    -0.040 NA
HETATM   41  O2  UNL     1       9.406  -3.154  -1.151  1.00  0.00    -0.251 OA
ATOM     42  H1  UNL     1      10.552  -0.615  -2.831  1.00  0.00     0.163 HD
ENDBRANCH  37  38
ENDBRANCH  36  37
ENDBRANCH  35  36
ENDBRANCH  34  35
ENDBRANCH  33  34
ENDBRANCH  32  33
ENDBRANCH  29  32
ENDBRANCH  28  29
ENDBRANCH  27  28
ENDBRANCH  26  27
ENDBRANCH  24  26
ENDBRANCH   1  24
TORSDOF 13
