REMARK  16 active torsions:
REMARK  status: ('A' for Active; 'I' for Inactive)
REMARK    1  A    between atoms: C2_2  and  S1_5 
REMARK    2  A    between atoms: S1_5  and  C5_6 
REMARK    3  A    between atoms: C5_6  and  C6_7 
REMARK    4  A    between atoms: C6_7  and  C7_8 
REMARK    5  A    between atoms: C7_8  and  C8_9 
REMARK    6  A    between atoms: C13_14  and  C14_15 
REMARK    7  A    between atoms: C14_15  and  C15_16 
REMARK    8  A    between atoms: C16_17  and  C17_18 
REMARK    9  A    between atoms: C17_18  and  C18_19 
REMARK   10  A    between atoms: C18_19  and  C19_20 
REMARK   11  A    between atoms: C19_20  and  C20_21 
REMARK       I    between atoms: C20_21  and  N1_23 
REMARK   12  A    between atoms: N1_23  and  C21_25 
REMARK   13  A    between atoms: C23_27  and  O2_28 
REMARK   14  A    between atoms: C28_34  and  O3_35 
REMARK   15  A    between atoms: C29_37  and  C31_39 
REMARK   16  A    between atoms: C31_39  and  O4_40 
ROOT
HETATM    1  C8  UNL     1      -2.593   0.650   0.621  1.00  0.00    -0.028 C 
HETATM    2  C9  UNL     1      -3.763   1.510   1.143  1.00  0.00     0.016 C 
HETATM    3  C10 UNL     1      -1.490   1.700   0.554  1.00  0.00     0.003 C 
HETATM    4  C11 UNL     1      -1.766   2.860  -0.329  1.00  0.00     0.006 C 
HETATM    5  C12 UNL     1      -0.575   3.014  -1.274  1.00  0.00     0.006 C 
HETATM    6  C13 UNL     1       0.106   1.622  -1.196  1.00  0.00    -0.003 C 
HETATM    7  C25 UNL     1      -0.109   1.223   0.239  1.00  0.00    -0.033 C 
HETATM    8  C26 UNL     1       0.832   2.115   1.055  1.00  0.00     0.016 C 
HETATM    9  C27 UNL     1       0.178  -0.181   0.576  1.00  0.00     0.042 C 
HETATM   10  C28 UNL     1      -0.883  -1.009   1.151  1.00  0.00     0.130 C 
HETATM   11  C29 UNL     1      -2.135  -0.329   1.652  1.00  0.00     0.011 C 
HETATM   12  C30 UNL     1      -3.142  -1.471   1.877  1.00  0.00     0.021 C 
ENDROOT
BRANCH   6  13
HETATM   13  C14 UNL     1       1.460   1.783  -1.741  1.00  0.00     0.032 C 
BRANCH  13  14
HETATM   14  C15 UNL     1       2.342   0.630  -1.814  1.00  0.00    -0.030 C 
HETATM   15  C16 UNL     1       3.519   0.559  -1.270  1.00  0.00    -0.031 C 
BRANCH  15  16
HETATM   16  C17 UNL     1       4.235   1.569  -0.481  1.00  0.00     0.027 C 
BRANCH  16  17
HETATM   17  C18 UNL     1       4.596   1.104   0.898  1.00  0.00     0.013 C 
BRANCH  17  18
HETATM   18  C19 UNL     1       5.480  -0.108   0.915  1.00  0.00     0.103 C 
BRANCH  18  19
HETATM   19  C20 UNL     1       6.787   0.053   0.295  1.00  0.00     0.217 C 
HETATM   20  O1  UNL     1       7.211   1.134  -0.163  1.00  0.00    -0.274 OA
HETATM   21  N1  UNL     1       7.649  -1.077   0.196  1.00  0.00    -0.356 N 
ATOM     22  H1  UNL     1       7.333  -1.975   0.563  1.00  0.00     0.162 HD
BRANCH  21  23
HETATM   23  C21 UNL     1       8.945  -0.988  -0.403  1.00  0.00     0.089 C 
HETATM   24  C22 UNL     1      10.093  -1.386   0.504  1.00  0.00     0.057 C 
HETATM   25  C23 UNL     1      10.641  -2.264  -0.588  1.00  0.00     0.122 C 
HETATM   26  C24 UNL     1       9.331  -2.096  -1.331  1.00  0.00     0.057 C 
BRANCH  25  27
HETATM   27  O2  UNL     1      10.854  -3.570  -0.192  1.00  0.00    -0.395 OA
ATOM     28  H2  UNL     1      11.200  -4.124  -0.882  1.00  0.00     0.210 HD
ENDBRANCH  25  27
ENDBRANCH  21  23
ENDBRANCH  18  19
ENDBRANCH  17  18
ENDBRANCH  16  17
ENDBRANCH  15  16
ENDBRANCH  13  14
ENDBRANCH   6  13
BRANCH   1  29
HETATM   29  C7  UNL     1      -2.842   0.132  -0.719  1.00  0.00     0.011 C 
BRANCH  29  30
HETATM   30  C6  UNL     1      -3.975  -0.714  -1.090  1.00  0.00     0.011 C 
BRANCH  30  31
HETATM   31  C5  UNL     1      -5.363  -0.217  -0.938  1.00  0.00     0.075 C 
BRANCH  31  32
HETATM   32  S1  UNL     1      -6.449  -1.584  -1.537  1.00  0.00    -0.160 SA
BRANCH  32  33
HETATM   33  C2  UNL     1      -8.149  -0.996  -1.350  1.00  0.00    -0.003 C 
HETATM   34  C1  UNL     1      -8.498  -0.827   0.102  1.00  0.00     0.026 C 
HETATM   35  C3  UNL     1      -8.195   0.411  -1.962  1.00  0.00     0.026 C 
HETATM   36  C4  UNL     1      -9.159  -1.888  -2.002  1.00  0.00     0.026 C 
ENDBRANCH  32  33
ENDBRANCH  31  32
ENDBRANCH  30  31
ENDBRANCH  29  30
ENDBRANCH   1  29
BRANCH  10  37
HETATM   37  O3  UNL     1      -0.398  -1.760   2.251  1.00  0.00    -0.395 OA
ATOM     38  H3  UNL     1      -1.087  -2.297   2.624  1.00  0.00     0.210 HD
ENDBRANCH  10  37
BRANCH  11  39
HETATM   39  C31 UNL     1      -1.855   0.195   3.006  1.00  0.00     0.176 C 
BRANCH  39  40
HETATM   40  O4  UNL     1      -2.926   0.804   3.658  1.00  0.00    -0.400 OA
ATOM     41  H4  UNL     1      -2.746   1.141   4.528  1.00  0.00     0.209 HD
ENDBRANCH  39  40
ENDBRANCH  11  39
TORSDOF 16
