REMARK  13 active torsions:
REMARK  status: ('A' for Active; 'I' for Inactive)
REMARK    1  A    between atoms: C2_2  and  C4_4 
REMARK    2  A    between atoms: C4_4  and  C5_5 
REMARK    3  A    between atoms: C7_10  and  C8_11 
REMARK    4  A    between atoms: C8_11  and  C9_12 
REMARK    5  A    between atoms: C13_19  and  C14_20 
REMARK    6  A    between atoms: C14_20  and  C15_21 
REMARK    7  A    between atoms: C21_29  and  O3_30 
REMARK    8  A    between atoms: C22_32  and  C23_33 
REMARK    9  A    between atoms: C23_33  and  C24_34 
REMARK   10  A    between atoms: C24_34  and  C25_35 
REMARK   11  A    between atoms: C25_35  and  C26_36 
REMARK   12  A    between atoms: C26_36  and  N5_37 
REMARK       I    between atoms: N5_37  and  C27_38 
REMARK       I    between atoms: C27_38  and  N6_40 
REMARK   13  A    between atoms: N6_40  and  N7_42 
ROOT
HETATM    1  C5  UNL     1      -0.916  -2.417   0.232  1.00  0.00     0.177 C 
HETATM    2  N1  UNL     1      -1.305  -1.455  -0.721  1.00  0.00    -0.346 N 
ATOM      3  H1  UNL     1      -0.518  -1.031  -1.212  1.00  0.00     0.163 HD
HETATM    4  C6  UNL     1      -2.542  -0.963  -1.131  1.00  0.00     0.241 C 
HETATM    5  O1  UNL     1      -2.727  -0.937  -2.410  1.00  0.00    -0.271 OA
HETATM    6  C7  UNL     1      -3.661  -0.474  -0.327  1.00  0.00     0.177 C 
HETATM    7  N2  UNL     1      -3.355   0.534   0.656  1.00  0.00    -0.343 N 
ATOM      8  H2  UNL     1      -3.977   0.528   1.464  1.00  0.00     0.163 HD
HETATM    9  C12 UNL     1      -2.376   1.507   0.707  1.00  0.00     0.266 C 
HETATM   10  O2  UNL     1      -2.014   1.889   1.886  1.00  0.00    -0.266 OA
HETATM   11  C13 UNL     1      -1.629   2.229  -0.303  1.00  0.00     0.096 C 
HETATM   12  N3  UNL     1      -0.379   2.669  -0.103  1.00  0.00    -0.287 N 
HETATM   13  C18 UNL     1       0.094   3.843  -0.816  1.00  0.00     0.151 C 
HETATM   14  C19 UNL     1       1.211   4.361   0.075  1.00  0.00     0.044 C 
HETATM   15  C20 UNL     1       0.929   3.505   1.324  1.00  0.00     0.153 C 
HETATM   16  N4  UNL     1       0.690   2.220   0.597  1.00  0.00    -0.271 N 
HETATM   17  C21 UNL     1       1.487   1.102   0.674  1.00  0.00     0.156 C 
HETATM   18  C22 UNL     1       1.473  -0.275   1.231  1.00  0.00     0.161 C 
HETATM   19  N8  UNL     1       0.273  -0.744   1.810  1.00  0.00    -0.347 N 
ATOM     20  H8  UNL     1      -0.098  -0.145   2.547  1.00  0.00     0.163 HD
HETATM   21  C31 UNL     1      -0.497  -1.883   1.553  1.00  0.00     0.241 C 
HETATM   22  O5  UNL     1      -0.863  -2.513   2.624  1.00  0.00    -0.271 OA
ENDROOT
BRANCH  18  23
HETATM   23  C23 UNL     1       2.375  -0.122   2.522  1.00  0.00     0.037 C 
BRANCH  23  24
HETATM   24  C24 UNL     1       2.559  -1.385   3.236  1.00  0.00     0.032 C 
BRANCH  24  25
HETATM   25  C25 UNL     1       3.253  -2.480   2.525  1.00  0.00     0.005 C 
BRANCH  25  26
HETATM   26  C26 UNL     1       4.680  -2.425   2.216  1.00  0.00     0.184 C 
BRANCH  26  27
HETATM   27  N5  UNL     1       5.277  -1.386   1.497  1.00  0.00    -0.364 NA
HETATM   28  C27 UNL     1       5.844  -0.400   0.814  1.00  0.00     0.417 C 
HETATM   29  O4  UNL     1       5.913   0.838   1.167  1.00  0.00    -0.228 OA
HETATM   30  N6  UNL     1       6.496  -0.578  -0.487  1.00  0.00    -0.155 N 
ATOM     31  H6  UNL     1       6.506  -1.518  -0.882  1.00  0.00     0.200 HD
BRANCH  30  32
HETATM   32  N7  UNL     1       7.091   0.416  -1.212  1.00  0.00     0.005 N 
HETATM   33  C28 UNL     1       6.204   1.455  -1.691  1.00  0.00     0.301 C 
HETATM   34  C29 UNL     1       8.212   1.050  -0.537  1.00  0.00     0.301 C 
HETATM   35  C30 UNL     1       7.646  -0.194  -2.444  1.00  0.00     0.301 C 
ENDBRANCH  30  32
ENDBRANCH  26  27
ENDBRANCH  25  26
ENDBRANCH  24  25
ENDBRANCH  23  24
ENDBRANCH  18  23
BRANCH  17  36
HETATM   36  O3  UNL     1       2.699   1.208   0.072  1.00  0.00    -0.347 OA
ATOM     37  H3  UNL     1       3.250   0.436   0.125  1.00  0.00     0.219 HD
ENDBRANCH  17  36
BRANCH   1  38
HETATM   38  C4  UNL     1      -1.894  -3.545   0.489  1.00  0.00     0.038 C 
BRANCH  38  39
HETATM   39  C2  UNL     1      -2.218  -4.378  -0.701  1.00  0.00    -0.020 C 
HETATM   40  C1  UNL     1      -3.199  -5.452  -0.223  1.00  0.00     0.009 C 
HETATM   41  C3  UNL     1      -1.010  -5.125  -1.226  1.00  0.00     0.009 C 
ENDBRANCH  38  39
ENDBRANCH   1  38
BRANCH  11  42
HETATM   42  C14 UNL     1      -2.505   3.266  -0.966  1.00  0.00     0.068 C 
BRANCH  42  43
HETATM   43  C15 UNL     1      -3.136   4.330  -0.160  1.00  0.00    -0.017 C 
HETATM   44  C16 UNL     1      -3.894   5.249  -1.186  1.00  0.00     0.010 C 
HETATM   45  C17 UNL     1      -4.293   3.889   0.725  1.00  0.00     0.010 C 
ENDBRANCH  42  43
ENDBRANCH  11  42
BRANCH   6  46
HETATM   46  C8  UNL     1      -4.888  -0.133  -1.117  1.00  0.00     0.038 C 
BRANCH  46  47
HETATM   47  C9  UNL     1      -5.531  -1.214  -1.889  1.00  0.00    -0.020 C 
HETATM   48  C10 UNL     1      -5.955  -2.341  -0.949  1.00  0.00     0.009 C 
HETATM   49  C11 UNL     1      -6.841  -0.597  -2.449  1.00  0.00     0.009 C 
ENDBRANCH  46  47
ENDBRANCH   6  46
TORSDOF 13
