REMARK  14 active torsions:
REMARK  status: ('A' for Active; 'I' for Inactive)
REMARK    1  A    between atoms: C2_2  and  C3_3 
REMARK    2  A    between atoms: C3_3  and  C4_4 
REMARK    3  A    between atoms: N1_7  and  C7_8 
REMARK    4  A    between atoms: N2_10  and  C9_12 
REMARK    5  A    between atoms: C9_12  and  C10_13 
REMARK    6  A    between atoms: C10_13  and  N3_14 
REMARK       I    between atoms: N3_14  and  C11_16 
REMARK    7  A    between atoms: N5_18  and  C12_20 
REMARK    8  A    between atoms: C14_22  and  C15_23 
REMARK    9  A    between atoms: C17_27  and  C18_28 
REMARK   10  A    between atoms: C18_28  and  O2_29 
REMARK   11  A    between atoms: C18_28  and  N7_31 
REMARK       I    between atoms: N8_34  and  C21_35 
REMARK       I    between atoms: C21_35  and  N12_43 
REMARK       I    between atoms: N9_36  and  C22_38 
REMARK   12  A    between atoms: N12_43  and  C23_45 
REMARK   13  A    between atoms: C23_45  and  C24_46 
REMARK   14  A    between atoms: C24_46  and  N13_47 
ROOT
HETATM    1  C12 UNL     1       0.719  -1.334  -1.751  1.00  0.00     0.036 A 
HETATM    2  C13 UNL     1       1.618  -2.283  -2.172  1.00  0.00     0.046 A 
HETATM    3  C14 UNL     1       1.400  -3.610  -1.898  1.00  0.00     0.032 A 
HETATM    4  C16 UNL     1       0.272  -3.956  -1.200  1.00  0.00     0.032 A 
HETATM    5  C17 UNL     1      -0.685  -3.043  -0.741  1.00  0.00     0.018 A 
HETATM    6  C30 UNL     1      -0.432  -1.739  -1.033  1.00  0.00     0.045 A 
ENDROOT
BRANCH   5   7
HETATM    7  C18 UNL     1      -1.787  -3.525  -0.002  1.00  0.00     0.149 C 
BRANCH   7   8
HETATM    8  O2  UNL     1      -1.768  -4.787   0.328  1.00  0.00    -0.346 OA
ATOM      9  H2  UNL     1      -2.510  -5.111   0.825  1.00  0.00     0.219 HD
ENDBRANCH   7   8
BRANCH   7  10
HETATM   10  N7  UNL     1      -2.922  -2.833   0.439  1.00  0.00    -0.343 N 
HETATM   11  C19 UNL     1      -3.957  -3.514   1.245  1.00  0.00     0.147 C 
HETATM   12  C20 UNL     1      -4.770  -2.363   1.823  1.00  0.00     0.163 C 
HETATM   13  N8  UNL     1      -4.743  -1.424   0.712  1.00  0.00    -0.200 N 
HETATM   14  C21 UNL     1      -5.740  -0.607   0.156  1.00  0.00     0.679 C 
HETATM   15  C29 UNL     1      -3.362  -1.495   0.236  1.00  0.00     0.269 C 
HETATM   16  N9  UNL     1      -6.571  -1.085  -0.701  1.00  0.00    -0.164 N 
HETATM   17  N12 UNL     1      -5.824   0.775   0.540  1.00  0.00    -0.224 N 
HETATM   18  C22 UNL     1      -6.506  -2.435  -1.104  1.00  0.00     0.200 C 
ATOM     19  H9  UNL     1      -7.289  -0.478  -1.096  1.00  0.00     0.187 HD
HETATM   20  N10 UNL     1      -5.690  -2.774  -2.052  1.00  0.00    -0.373 N 
HETATM   21  N11 UNL     1      -7.341  -3.384  -0.465  1.00  0.00    -0.063 NA
ATOM     22 2H10 UNL     1      -5.089  -2.091  -2.512  1.00  0.00     0.158 HD
ATOM     23 1H10 UNL     1      -5.643  -3.750  -2.343  1.00  0.00     0.158 HD
ATOM     24  H12 UNL     1      -5.690   1.521  -0.143  1.00  0.00     0.177 HD
BRANCH  17  25
HETATM   25  C23 UNL     1      -6.103   1.073   1.920  1.00  0.00     0.168 C 
BRANCH  25  26
HETATM   26  C24 UNL     1      -6.171   2.564   2.170  1.00  0.00     0.292 C 
BRANCH  26  27
HETATM   27  N13 UNL     1      -7.198   3.198   1.390  1.00  0.00     0.090 N 
HETATM   28  C25 UNL     1      -8.538   2.869   1.749  1.00  0.00     0.272 C 
HETATM   29  C26 UNL     1      -9.338   3.834   0.878  1.00  0.00     0.032 C 
HETATM   30  C27 UNL     1      -8.380   4.978   0.555  1.00  0.00     0.032 C 
HETATM   31  C28 UNL     1      -7.183   4.642   1.447  1.00  0.00     0.272 C 
ENDBRANCH  26  27
ENDBRANCH  25  26
ENDBRANCH  17  25
ENDBRANCH   7  10
ENDBRANCH   5   7
BRANCH   3  32
HETATM   32  C15 UNL     1       2.361  -4.616  -2.353  1.00  0.00     0.265 C 
HETATM   33  N6  UNL     1       2.112  -5.982  -2.083  1.00  0.00    -0.057 NA
HETATM   34  O1  UNL     1       3.383  -4.270  -2.970  1.00  0.00    -0.271 OA
ENDBRANCH   3  32
BRANCH   1  35
HETATM   35  N5  UNL     1       0.884   0.047  -1.991  1.00  0.00    -0.331 N 
HETATM   36  C11 UNL     1       1.979   0.630  -1.727  1.00  0.00     0.188 C 
HETATM   37  N3  UNL     1       3.133   0.001  -1.179  1.00  0.00    -0.363 N 
HETATM   38  N4  UNL     1       2.024   2.045  -2.020  1.00  0.00    -0.064 NA
ATOM     39  H3  UNL     1       3.064  -0.799  -0.550  1.00  0.00     0.162 HD
ATOM     40  H5  UNL     1       0.111   0.584  -2.383  1.00  0.00     0.168 HD
BRANCH  37  41
HETATM   41  C10 UNL     1       4.423   0.568  -1.569  1.00  0.00     0.142 C 
BRANCH  41  42
HETATM   42  C9  UNL     1       5.583  -0.189  -0.954  1.00  0.00     0.140 C 
BRANCH  42  43
HETATM   43  N2  UNL     1       5.531  -0.173   0.484  1.00  0.00    -0.379 N 
HETATM   44  C7  UNL     1       6.568   0.104   1.165  1.00  0.00     0.071 C 
HETATM   45  C8  UNL     1       6.464   0.098   2.646  1.00  0.00     0.088 C 
ATOM     46  H2  UNL     1       4.655  -0.386   0.961  1.00  0.00     0.160 HD
BRANCH  44  47
HETATM   47  N1  UNL     1       7.804   0.406   0.539  1.00  0.00    -0.366 N 
HETATM   48  C4  UNL     1       8.507   1.658   0.194  1.00  0.00     0.090 C 
HETATM   49  C5  UNL     1       9.786   0.910   0.128  1.00  0.00     0.045 C 
HETATM   50  C6  UNL     1       8.919  -0.312  -0.030  1.00  0.00     0.126 C 
BRANCH  48  51
HETATM   51  C3  UNL     1       8.341   2.729   1.211  1.00  0.00     0.051 C 
BRANCH  51  52
HETATM   52  C2  UNL     1       9.304   3.826   1.033  1.00  0.00    -0.035 C 
HETATM   53  C1  UNL     1      10.136   3.998   0.047  1.00  0.00     0.007 C 
ENDBRANCH  51  52
ENDBRANCH  48  51
ENDBRANCH  44  47
ENDBRANCH  42  43
ENDBRANCH  41  42
ENDBRANCH  37  41
ENDBRANCH   1  35
TORSDOF 14
