REMARK  16 active torsions:
REMARK  status: ('A' for Active; 'I' for Inactive)
REMARK    1  A    between atoms: C2_2  and  C3_3 
REMARK    2  A    between atoms: C3_3  and  C4_4 
REMARK       I    between atoms: C4_4  and  N1_6 
REMARK    3  A    between atoms: N1_6  and  C5_8 
REMARK    4  A    between atoms: C5_8  and  C6_9 
REMARK    5  A    between atoms: C6_9  and  C7_10 
REMARK    6  A    between atoms: C7_10  and  C8_11 
REMARK    7  A    between atoms: C8_11  and  C9_12 
REMARK    8  A    between atoms: C13_18  and  C14_19 
REMARK    9  A    between atoms: C15_20  and  N3_21 
REMARK   10  A    between atoms: C16_23  and  C17_25 
REMARK   11  A    between atoms: C17_25  and  C18_26 
REMARK   12  A    between atoms: C18_26  and  C19_27 
REMARK   13  A    between atoms: C19_27  and  N5_28 
REMARK       I    between atoms: N7_37  and  C26_39 
REMARK       I    between atoms: N9_41  and  C27_43 
REMARK   14  A    between atoms: C27_43  and  C28_45 
REMARK   15  A    between atoms: C28_45  and  N10_46 
REMARK       I    between atoms: N10_46  and  C29_48 
REMARK   16  A    between atoms: C29_48  and  C30_50 
ROOT
HETATM    1  C9  UNL     1      -3.314  -1.144   2.089  1.00  0.00    -0.026 A 
HETATM    2  C10 UNL     1      -3.077  -1.193   3.459  1.00  0.00     0.096 A 
HETATM    3  N2  UNL     1      -1.765  -1.003   3.679  1.00  0.00    -0.364 N 
ATOM      4  H2  UNL     1      -1.323  -0.991   4.598  1.00  0.00     0.165 HD
HETATM    5  C11 UNL     1      -1.113  -0.829   2.501  1.00  0.00     0.049 A 
HETATM    6  C12 UNL     1       0.212  -0.622   2.172  1.00  0.00     0.069 A 
HETATM    7  C13 UNL     1       0.620  -0.499   0.862  1.00  0.00     0.092 A 
HETATM    8  N6  UNL     1      -0.343  -0.590  -0.070  1.00  0.00    -0.335 N 
ATOM      9  H6  UNL     1      -0.073  -0.502  -1.050  1.00  0.00     0.168 HD
HETATM   10  C25 UNL     1      -1.653  -0.792   0.214  1.00  0.00     0.121 A 
HETATM   11  N7  UNL     1      -2.539  -0.897  -0.710  1.00  0.00    -0.316 N 
ATOM     12  H7  UNL     1      -3.522  -1.047  -0.482  1.00  0.00     0.170 HD
HETATM   13  C26 UNL     1      -2.103  -0.797  -2.071  1.00  0.00     0.196 C 
HETATM   14  N8  UNL     1      -1.904  -2.044  -2.785  1.00  0.00    -0.063 NA
HETATM   15  N9  UNL     1      -1.875   0.244  -2.718  1.00  0.00    -0.300 N 
ATOM     16  H9  UNL     1      -1.575   0.052  -3.674  1.00  0.00     0.171 HD
HETATM   17  C27 UNL     1      -1.933   1.600  -2.444  1.00  0.00     0.241 C 
HETATM   18  O2  UNL     1      -0.996   2.332  -2.924  1.00  0.00    -0.271 OA
HETATM   19  C33 UNL     1      -2.085  -0.918   1.520  1.00  0.00     0.043 A 
ENDROOT
BRANCH   7  20
HETATM   20  C14 UNL     1       2.007  -0.293   0.509  1.00  0.00    -0.025 C 
HETATM   21  C15 UNL     1       3.168  -0.148   0.214  1.00  0.00     0.019 C 
BRANCH  21  22
HETATM   22  N3  UNL     1       4.532  -0.008  -0.132  1.00  0.00    -0.296 N 
HETATM   23  C16 UNL     1       5.193  -1.081  -0.408  1.00  0.00     0.178 C 
HETATM   24  N4  UNL     1       4.559  -2.341  -0.361  1.00  0.00    -0.072 NA
ATOM     25  H3  UNL     1       4.978   0.909  -0.162  1.00  0.00     0.178 HD
BRANCH  23  26
HETATM   26  C17 UNL     1       6.593  -1.057  -0.773  1.00  0.00    -0.031 C 
BRANCH  26  27
HETATM   27  C18 UNL     1       7.764  -1.061  -1.076  1.00  0.00    -0.068 C 
BRANCH  27  28
HETATM   28  C19 UNL     1       9.175  -1.095  -1.437  1.00  0.00     0.366 C 
BRANCH  28  29
HETATM   29  N5  UNL     1       9.909  -0.246  -0.555  1.00  0.00     0.099 N 
HETATM   30  C20 UNL     1       9.962  -0.727   0.812  1.00  0.00     0.273 C 
HETATM   31  C21 UNL     1      11.085  -0.022   1.503  1.00  0.00     0.030 C 
HETATM   32  C22 UNL     1      11.262   1.403   1.185  1.00  0.00     0.003 C 
HETATM   33  C23 UNL     1      10.412   2.010   0.151  1.00  0.00     0.030 C 
HETATM   34  C24 UNL     1       9.415   1.094  -0.503  1.00  0.00     0.273 C 
ENDBRANCH  28  29
ENDBRANCH  27  28
ENDBRANCH  26  27
ENDBRANCH  23  26
ENDBRANCH  21  22
ENDBRANCH   7  20
BRANCH   1  35
HETATM   35  C8  UNL     1      -4.671  -1.281   1.450  1.00  0.00     0.041 C 
BRANCH  35  36
HETATM   36  C7  UNL     1      -5.287   0.039   1.199  1.00  0.00     0.006 C 
BRANCH  36  37
HETATM   37  C6  UNL     1      -6.663   0.046   0.605  1.00  0.00     0.020 C 
BRANCH  37  38
HETATM   38  C5  UNL     1      -6.834  -0.587  -0.733  1.00  0.00     0.122 C 
BRANCH  38  39
HETATM   39  N1  UNL     1      -6.597  -1.977  -0.863  1.00  0.00    -0.361 N 
HETATM   40  C4  UNL     1      -7.373  -2.935  -0.177  1.00  0.00     0.221 C 
HETATM   41  O1  UNL     1      -8.303  -2.566   0.569  1.00  0.00    -0.273 OA
ATOM     42  H1  UNL     1      -5.842  -2.295  -1.471  1.00  0.00     0.162 HD
BRANCH  40  43
HETATM   43  C3  UNL     1      -7.127  -4.401  -0.305  1.00  0.00     0.129 C 
BRANCH  43  44
HETATM   44  C2  UNL     1      -8.080  -5.182   0.515  1.00  0.00    -0.028 C 
HETATM   45  C1  UNL     1      -7.626  -5.980   1.464  1.00  0.00     0.007 C 
ENDBRANCH  43  44
ENDBRANCH  40  43
ENDBRANCH  38  39
ENDBRANCH  37  38
ENDBRANCH  36  37
ENDBRANCH  35  36
ENDBRANCH   1  35
BRANCH  17  46
HETATM   46  C28 UNL     1      -2.971   2.280  -1.656  1.00  0.00     0.225 C 
BRANCH  46  47
HETATM   47  N10 UNL     1      -2.734   3.717  -1.583  1.00  0.00    -0.352 N 
HETATM   48  C29 UNL     1      -3.626   4.531  -0.868  1.00  0.00     0.222 C 
HETATM   49  O3  UNL     1      -4.620   4.011  -0.296  1.00  0.00    -0.273 OA
ATOM     50  H10 UNL     1      -1.925   4.128  -2.049  1.00  0.00     0.162 HD
BRANCH  48  51
HETATM   51  C30 UNL     1      -3.460   6.006  -0.743  1.00  0.00     0.078 A 
HETATM   52  C31 UNL     1      -2.957   6.657  -2.021  1.00  0.00     0.015 A 
HETATM   53  C32 UNL     1      -2.109   6.617  -0.820  1.00  0.00     0.015 A 
ENDBRANCH  48  51
ENDBRANCH  46  47
ENDBRANCH  17  46
TORSDOF 16
