REMARK  15 active torsions:
REMARK  status: ('A' for Active; 'I' for Inactive)
REMARK    1  A    between atoms: C2_2  and  C3_3 
REMARK    2  A    between atoms: C3_3  and  C4_4 
REMARK    3  A    between atoms: N2_9  and  C6_10 
REMARK    4  A    between atoms: C6_10  and  O2_11 
REMARK    5  A    between atoms: C6_10  and  N3_13 
REMARK       I    between atoms: N4_16  and  C9_17 
REMARK    6  A    between atoms: C9_17  and  C10_19 
REMARK    7  A    between atoms: C10_19  and  C11_20 
REMARK    8  A    between atoms: C11_20  and  C12_21 
REMARK    9  A    between atoms: C12_21  and  C13_22 
REMARK   10  A    between atoms: C13_22  and  C14_23 
REMARK   11  A    between atoms: C14_23  and  N5_24 
REMARK   12  A    between atoms: S1_33  and  C20_34 
REMARK   13  A    between atoms: C20_34  and  C21_35 
REMARK   14  A    between atoms: C21_35  and  C22_36 
REMARK   15  A    between atoms: C26_40  and  N8_41 
ROOT
HETATM    1  C4  UNL     1      -2.999  -0.567  -2.158  1.00  0.00     0.166 C 
HETATM    2  N1  UNL     1      -1.597  -1.022  -2.237  1.00  0.00    -0.330 N 
ATOM      3  H1  UNL     1      -1.104  -0.768  -3.093  1.00  0.00     0.165 HD
HETATM    4  C5  UNL     1      -0.820  -1.775  -1.277  1.00  0.00     0.326 C 
HETATM    5  O1  UNL     1       0.047  -2.474  -1.854  1.00  0.00    -0.247 OA
HETATM    6  N2  UNL     1      -0.837  -1.888   0.122  1.00  0.00    -0.265 N 
HETATM    7  C18 UNL     1      -1.980  -2.139   1.027  1.00  0.00     0.147 C 
HETATM    8  C19 UNL     1      -2.371  -0.821   1.630  1.00  0.00     0.091 C 
HETATM    9  S1  UNL     1      -3.713  -0.056   0.712  1.00  0.00    -0.147 SA
HETATM   10  C29 UNL     1      -3.280   0.229  -0.963  1.00  0.00     0.199 C 
HETATM   11  O4  UNL     1      -3.180   1.437  -1.228  1.00  0.00    -0.284 OA
ENDROOT
BRANCH   6  12
HETATM   12  C6  UNL     1       0.372  -1.839   0.790  1.00  0.00     0.225 C 
BRANCH  12  13
HETATM   13  O2  UNL     1       0.283  -2.248   2.077  1.00  0.00    -0.332 OA
ATOM     14  H2  UNL     1       1.114  -2.214   2.536  1.00  0.00     0.221 HD
ENDBRANCH  12  13
BRANCH  12  15
HETATM   15  N3  UNL     1       1.680  -1.466   0.485  1.00  0.00    -0.344 N 
HETATM   16  C7  UNL     1       2.690  -1.770   1.524  1.00  0.00     0.146 C 
HETATM   17  C8  UNL     1       4.055  -1.613   0.912  1.00  0.00     0.145 C 
HETATM   18  N4  UNL     1       4.196  -0.246   0.481  1.00  0.00    -0.349 N 
HETATM   19  C9  UNL     1       5.284   0.545   0.905  1.00  0.00     0.219 C 
HETATM   20  C16 UNL     1       3.182   0.305  -0.376  1.00  0.00     0.145 C 
HETATM   21  O3  UNL     1       6.101  -0.028   1.701  1.00  0.00    -0.273 OA
HETATM   22  C17 UNL     1       2.099  -0.748  -0.673  1.00  0.00     0.146 C 
BRANCH  19  23
HETATM   23  C10 UNL     1       5.416   1.925   0.431  1.00  0.00     0.103 C 
BRANCH  23  24
HETATM   24  C11 UNL     1       6.627   2.595   0.953  1.00  0.00     0.009 C 
BRANCH  24  25
HETATM   25  C12 UNL     1       7.920   1.990   0.554  1.00  0.00     0.002 C 
BRANCH  25  26
HETATM   26  C13 UNL     1       8.115   1.963  -0.971  1.00  0.00     0.020 C 
BRANCH  26  27
HETATM   27  C14 UNL     1       9.472   1.328  -1.219  1.00  0.00     0.122 C 
BRANCH  27  28
HETATM   28  N5  UNL     1       9.485  -0.013  -0.671  1.00  0.00    -0.367 N 
HETATM   29  C15 UNL     1      10.558  -0.682  -0.467  1.00  0.00     0.196 C 
HETATM   30  N6  UNL     1      10.481  -1.984   0.072  1.00  0.00    -0.067 NA
HETATM   31  N7  UNL     1      11.819  -0.127  -0.773  1.00  0.00    -0.067 NA
ATOM     32  H5  UNL     1       8.593  -0.447  -0.435  1.00  0.00     0.161 HD
ENDBRANCH  27  28
ENDBRANCH  26  27
ENDBRANCH  25  26
ENDBRANCH  24  25
ENDBRANCH  23  24
ENDBRANCH  19  23
ENDBRANCH  12  15
ENDBRANCH   6  12
BRANCH   1  33
HETATM   33  C3  UNL     1      -3.861  -1.779  -2.359  1.00  0.00     0.033 C 
BRANCH  33  34
HETATM   34  C2  UNL     1      -5.333  -1.526  -2.304  1.00  0.00    -0.002 C 
HETATM   35  C1  UNL     1      -6.130  -2.797  -2.545  1.00  0.00     0.005 C 
ENDBRANCH  33  34
ENDBRANCH   1  33
BRANCH   9  36
HETATM   36  C20 UNL     1      -4.002   1.499   1.539  1.00  0.00     0.076 C 
BRANCH  36  37
HETATM   37  C21 UNL     1      -5.062   2.359   1.019  1.00  0.00     0.048 C 
BRANCH  37  38
HETATM   38  C22 UNL     1      -6.442   1.863   1.063  1.00  0.00    -0.055 A 
HETATM   39  C23 UNL     1      -7.018   1.213   0.007  1.00  0.00     0.008 A 
HETATM   40  C24 UNL     1      -8.338   0.756   0.101  1.00  0.00     0.018 A 
HETATM   41  C25 UNL     1      -9.091   0.943   1.247  1.00  0.00     0.037 A 
HETATM   42  C26 UNL     1     -10.375   0.617   1.631  1.00  0.00     0.126 A 
HETATM   43  C27 UNL     1      -8.521   1.596   2.315  1.00  0.00     0.062 A 
HETATM   44  N9  UNL     1     -10.562   1.064   2.893  1.00  0.00    -0.285 N 
HETATM   45  N10 UNL     1      -9.454   1.649   3.302  1.00  0.00    -0.298 N 
ATOM     46  H9  UNL     1     -11.418   0.965   3.438  1.00  0.00     0.188 HD
ATOM     47  H10 UNL     1      -9.318   2.076   4.218  1.00  0.00     0.187 HD
HETATM   48  C28 UNL     1      -7.225   2.038   2.204  1.00  0.00     0.039 A 
BRANCH  42  49
HETATM   49  N8  UNL     1     -11.255  -0.005   0.923  1.00  0.00    -0.384 N 
ATOM     50  H82 UNL     1     -11.114  -0.342  -0.029  1.00  0.00     0.157 HD
ATOM     51  H81 UNL     1     -12.205  -0.246   1.207  1.00  0.00     0.157 HD
ENDBRANCH  42  49
ENDBRANCH  37  38
ENDBRANCH  36  37
ENDBRANCH   9  36
TORSDOF 15
