REMARK  17 active torsions:
REMARK  status: ('A' for Active; 'I' for Inactive)
REMARK    1  A    between atoms: C6_6  and  S1_7 
REMARK    2  A    between atoms: S1_7  and  N1_10 
REMARK    3  A    between atoms: N1_10  and  C7_12 
REMARK    4  A    between atoms: C7_12  and  C8_13 
REMARK    5  A    between atoms: C7_12  and  C9_21 
REMARK    6  A    between atoms: N2_14  and  N3_16 
REMARK    7  A    between atoms: N3_16  and  N4_18 
REMARK    8  A    between atoms: C9_21  and  C10_22 
REMARK    9  A    between atoms: C15_32  and  C16_33 
REMARK   10  A    between atoms: C16_33  and  C17_34 
REMARK   11  A    between atoms: C17_34  and  N7_35 
REMARK   12  A    between atoms: N7_35  and  C18_37 
REMARK   13  A    between atoms: C20_41  and  C21_42 
REMARK   14  A    between atoms: C21_42  and  C22_43 
REMARK   15  A    between atoms: C23_44  and  C24_45 
REMARK   16  A    between atoms: C28_51  and  N10_52 
REMARK   17  A    between atoms: N10_52  and  C29_54 
ROOT
HETATM    1  C1  UNL     1       1.093   2.183  -0.015  1.00  0.00     0.049 C 
HETATM    2  C2  UNL     1      -0.403   2.229   0.090  1.00  0.00    -0.055 A 
HETATM    3  C3  UNL     1      -1.088   2.951  -0.877  1.00  0.00     0.015 A 
HETATM    4  C4  UNL     1      -2.473   3.104  -0.867  1.00  0.00    -0.038 A 
HETATM    5  C5  UNL     1      -3.169   3.890  -1.908  1.00  0.00     0.050 C 
HETATM    6  C6  UNL     1      -3.179   2.523   0.130  1.00  0.00     0.086 A 
HETATM    7  C14 UNL     1      -2.525   1.799   1.106  1.00  0.00     0.033 A 
HETATM    8  C15 UNL     1      -1.126   1.646   1.092  1.00  0.00    -0.046 A 
ENDROOT
BRANCH   6   9
HETATM    9  S1  UNL     1      -4.898   2.638   0.231  1.00  0.00     0.260 S 
HETATM   10  O1  UNL     1      -5.228   4.134   0.178  1.00  0.00    -0.200 OA
HETATM   11  O2  UNL     1      -5.394   2.189   1.567  1.00  0.00    -0.200 OA
BRANCH   9  12
HETATM   12  N1  UNL     1      -5.736   1.926  -1.061  1.00  0.00    -0.305 N 
ATOM     13  H1  UNL     1      -6.351   2.417  -1.710  1.00  0.00     0.173 HD
BRANCH  12  14
HETATM   14  C7  UNL     1      -5.434   0.494  -1.095  1.00  0.00     0.138 C 
BRANCH  14  15
HETATM   15  C8  UNL     1      -4.646   0.181  -2.336  1.00  0.00     0.107 C 
HETATM   16  N2  UNL     1      -3.916  -0.857  -2.348  1.00  0.00    -0.300 N 
ATOM     17  H2  UNL     1      -3.392  -1.048  -3.202  1.00  0.00     0.187 HD
BRANCH  16  18
HETATM   18  N3  UNL     1      -3.769  -1.758  -1.296  1.00  0.00    -0.250 N 
ATOM     19  H3  UNL     1      -3.770  -1.432  -0.330  1.00  0.00     0.207 HD
BRANCH  18  20
HETATM   20  N4  UNL     1      -3.632  -3.009  -1.564  1.00  0.00    -0.331 N 
ATOM     21  H42 UNL     1      -3.633  -3.319  -2.536  1.00  0.00     0.178 HD
ATOM     22  H41 UNL     1      -3.524  -3.669  -0.794  1.00  0.00     0.178 HD
ENDBRANCH  18  20
ENDBRANCH  16  18
ENDBRANCH  14  15
BRANCH  14  23
HETATM   23  C9  UNL     1      -6.657  -0.348  -1.135  1.00  0.00     0.090 C 
BRANCH  23  24
HETATM   24  C10 UNL     1      -7.570  -0.201   0.008  1.00  0.00     0.038 A 
HETATM   25  N5  UNL     1      -8.698   0.526  -0.000  1.00  0.00    -0.310 N 
HETATM   26  C11 UNL     1      -9.260   0.432   1.212  1.00  0.00     0.324 A 
ATOM     27  H5  UNL     1      -9.063   1.057  -0.791  1.00  0.00     0.170 HD
HETATM   28  O3  UNL     1     -10.333   0.987   1.569  1.00  0.00    -0.247 OA
HETATM   29  N6  UNL     1      -8.503  -0.344   1.986  1.00  0.00    -0.311 N 
HETATM   30  C12 UNL     1      -7.457  -0.745   1.263  1.00  0.00     0.032 A 
ATOM     31  H6  UNL     1      -8.690  -0.588   2.959  1.00  0.00     0.170 HD
HETATM   32  C13 UNL     1      -6.330  -1.647   1.710  1.00  0.00     0.070 C 
ENDBRANCH  23  24
ENDBRANCH  14  23
ENDBRANCH  12  14
ENDBRANCH   9  12
ENDBRANCH   6   9
BRANCH   8  33
HETATM   33  C16 UNL     1      -0.516   0.830   2.132  1.00  0.00     0.083 C 
BRANCH  33  34
HETATM   34  C17 UNL     1      -0.257  -0.606   1.805  1.00  0.00     0.067 C 
BRANCH  34  35
HETATM   35  N7  UNL     1       0.615  -0.908   0.750  1.00  0.00    -0.353 N 
ATOM     36  H7  UNL     1       0.323  -0.662  -0.196  1.00  0.00     0.166 HD
BRANCH  35  37
HETATM   37  C18 UNL     1       1.756  -1.474   0.897  1.00  0.00     0.149 A 
HETATM   38  N8  UNL     1       2.307  -1.868   2.051  1.00  0.00    -0.347 N 
HETATM   39  C19 UNL     1       3.536  -2.468   2.125  1.00  0.00     0.115 A 
ATOM     40  H8  UNL     1       1.788  -1.714   2.915  1.00  0.00     0.167 HD
HETATM   41  C20 UNL     1       4.260  -2.691   0.994  1.00  0.00     0.037 A 
HETATM   42  N9  UNL     1       3.749  -2.314  -0.184  1.00  0.00    -0.341 N 
HETATM   43  C28 UNL     1       2.548  -1.729  -0.243  1.00  0.00     0.146 A 
ATOM     44  H9  UNL     1       4.278  -2.474  -1.041  1.00  0.00     0.167 HD
BRANCH  41  45
HETATM   45  C21 UNL     1       5.610  -3.341   1.016  1.00  0.00     0.152 C 
BRANCH  45  46
HETATM   46  C22 UNL     1       6.606  -2.251   1.184  1.00  0.00    -0.100 C 
HETATM   47  C23 UNL     1       7.396  -1.357   1.337  1.00  0.00    -0.097 C 
BRANCH  47  48
HETATM   48  C24 UNL     1       8.338  -0.259   1.539  1.00  0.00     0.013 C 
HETATM   49  C25 UNL     1       7.738   1.060   1.035  1.00  0.00     0.028 C 
HETATM   50  C26 UNL     1       8.632  -0.046   3.010  1.00  0.00     0.028 C 
HETATM   51  C27 UNL     1       9.600  -0.494   0.755  1.00  0.00     0.028 C 
ENDBRANCH  47  48
ENDBRANCH  45  46
ENDBRANCH  41  45
BRANCH  43  52
HETATM   52  N10 UNL     1       2.076  -1.381  -1.369  1.00  0.00    -0.369 N 
ATOM     53  H10 UNL     1       1.155  -0.942  -1.357  1.00  0.00     0.161 HD
BRANCH  52  54
HETATM   54  C29 UNL     1       2.689  -1.535  -2.652  1.00  0.00     0.075 C 
HETATM   55  C30 UNL     1       1.575  -1.386  -3.693  1.00  0.00     0.031 C 
HETATM   56  C31 UNL     1       3.644  -0.359  -2.866  1.00  0.00     0.031 C 
ENDBRANCH  52  54
ENDBRANCH  43  52
ENDBRANCH  35  37
ENDBRANCH  34  35
ENDBRANCH  33  34
ENDBRANCH   8  33
TORSDOF 17
