REMARK  14 active torsions:
REMARK  status: ('A' for Active; 'I' for Inactive)
REMARK    1  A    between atoms: C2_2  and  C3_3 
REMARK    2  A    between atoms: C3_3  and  N1_4 
REMARK    3  A    between atoms: C6_8  and  C7_9 
REMARK    4  A    between atoms: C7_9  and  C8_10 
REMARK    5  A    between atoms: C17_26  and  O3_27 
REMARK    6  A    between atoms: C18_31  and  C19_32 
REMARK    7  A    between atoms: C19_32  and  C20_33 
REMARK    8  A    between atoms: C24_40  and  C25_41 
REMARK    9  A    between atoms: C25_41  and  C26_42 
REMARK   10  A    between atoms: C26_42  and  C27_43 
REMARK   11  A    between atoms: C27_43  and  C28_44 
REMARK   12  A    between atoms: C28_44  and  C29_45 
REMARK   13  A    between atoms: C29_45  and  C30_46 
REMARK   14  A    between atoms: C31_49  and  O7_50 
ROOT
HETATM    1  N1  UNL     1       1.736   1.679   1.231  1.00  0.00    -0.251 N 
HETATM    2  C4  UNL     1       2.596   0.574   1.472  1.00  0.00     0.268 A 
HETATM    3  O1  UNL     1       3.698   0.359   2.065  1.00  0.00    -0.269 OA
HETATM    4  C5  UNL     1       1.641  -0.226   0.728  1.00  0.00     0.242 A 
HETATM    5  C6  UNL     1       2.044  -1.058  -0.415  1.00  0.00     0.046 C 
HETATM    6  C15 UNL     1       2.380  -2.451   0.071  1.00  0.00     0.250 C 
HETATM    7  O2  UNL     1       3.056  -2.412   1.166  1.00  0.00    -0.268 OA
HETATM    8  N4  UNL     1       2.069  -3.678  -0.480  1.00  0.00    -0.350 N 
ATOM      9  H4  UNL     1       2.862  -4.251  -0.767  1.00  0.00     0.163 HD
HETATM   10  C16 UNL     1       0.717  -4.273  -0.709  1.00  0.00     0.206 C 
HETATM   11  C17 UNL     1      -0.276  -3.465   0.037  1.00  0.00     0.130 C 
HETATM   12  N5  UNL     1      -1.378  -2.730  -0.223  1.00  0.00    -0.360 N 
ATOM     13  H5  UNL     1      -1.106  -1.943  -0.812  1.00  0.00     0.162 HD
HETATM   14  C18 UNL     1      -2.788  -2.644   0.021  1.00  0.00     0.175 C 
HETATM   15  C23 UNL     1      -3.022  -1.539   1.058  1.00  0.00     0.241 C 
HETATM   16  O4  UNL     1      -4.029  -1.730   1.789  1.00  0.00    -0.271 OA
HETATM   17  N6  UNL     1      -2.188  -0.405   1.190  1.00  0.00    -0.347 N 
ATOM     18  H6  UNL     1      -1.761  -0.293   2.109  1.00  0.00     0.163 HD
HETATM   19  C24 UNL     1      -1.849   0.604   0.249  1.00  0.00     0.161 C 
HETATM   20  C31 UNL     1      -0.502   1.015  -0.024  1.00  0.00     0.157 C 
HETATM   21  N7  UNL     1       0.758   0.877   0.558  1.00  0.00    -0.249 N 
ENDROOT
BRANCH   5  22
HETATM   22  C7  UNL     1       2.930  -0.567  -1.465  1.00  0.00     0.046 C 
BRANCH  22  23
HETATM   23  C8  UNL     1       4.286  -0.132  -1.227  1.00  0.00     0.045 A 
HETATM   24  N2  UNL     1       4.690   1.150  -1.171  1.00  0.00    -0.357 N 
HETATM   25  C9  UNL     1       6.007   1.193  -0.953  1.00  0.00     0.033 A 
ATOM     26  H2  UNL     1       4.084   1.963  -1.278  1.00  0.00     0.166 HD
HETATM   27  C10 UNL     1       6.860   2.405  -0.822  1.00  0.00     0.070 C 
HETATM   28  C11 UNL     1       6.505  -0.080  -0.860  1.00  0.00     0.067 A 
HETATM   29  N3  UNL     1       7.584  -0.878  -0.686  1.00  0.00    -0.364 N 
HETATM   30  C14 UNL     1       5.415  -0.898  -1.034  1.00  0.00     0.021 A 
HETATM   31  C12 UNL     1       7.201  -2.163  -0.747  1.00  0.00     0.089 A 
ATOM     32  H3  UNL     1       8.539  -0.554  -0.533  1.00  0.00     0.165 HD
HETATM   33  C13 UNL     1       5.846  -2.231  -0.965  1.00  0.00     0.033 A 
ENDBRANCH  22  23
ENDBRANCH   5  22
BRANCH   1  34
HETATM   34  C3  UNL     1       1.940   3.071   1.617  1.00  0.00     0.179 C 
BRANCH  34  35
HETATM   35  C2  UNL     1       2.633   3.891   0.641  1.00  0.00    -0.015 C 
HETATM   36  C1  UNL     1       3.770   4.478   0.948  1.00  0.00     0.008 C 
ENDBRANCH  34  35
ENDBRANCH   1  34
BRANCH  20  37
HETATM   37  O7  UNL     1      -0.438   1.721  -1.137  1.00  0.00    -0.347 OA
ATOM     38  H7  UNL     1       0.454   1.993  -1.318  1.00  0.00     0.219 HD
ENDBRANCH  20  37
BRANCH  19  39
HETATM   39  C25 UNL     1      -2.688   1.813   0.695  1.00  0.00     0.034 C 
BRANCH  39  40
HETATM   40  C26 UNL     1      -2.551   3.040  -0.083  1.00  0.00     0.002 C 
BRANCH  40  41
HETATM   41  C27 UNL     1      -3.450   4.123   0.508  1.00  0.00     0.001 C 
BRANCH  41  42
HETATM   42  C28 UNL     1      -4.867   3.692   0.476  1.00  0.00     0.010 C 
BRANCH  42  43
HETATM   43  C29 UNL     1      -5.822   4.737   1.031  1.00  0.00     0.113 C 
BRANCH  43  44
HETATM   44  C30 UNL     1      -5.780   6.001   0.288  1.00  0.00     0.172 C 
HETATM   45  O5  UNL     1      -4.883   6.844   0.514  1.00  0.00    -0.648 OA
HETATM   46  O6  UNL     1      -6.732   6.283  -0.672  1.00  0.00    -0.648 OA
ENDBRANCH  43  44
ENDBRANCH  42  43
ENDBRANCH  41  42
ENDBRANCH  40  41
ENDBRANCH  39  40
ENDBRANCH  19  39
BRANCH  11  47
HETATM   47  O3  UNL     1       0.142  -3.562   1.291  1.00  0.00    -0.348 OA
ATOM     48  H3  UNL     1      -0.495  -3.044   1.769  1.00  0.00     0.219 HD
ENDBRANCH  11  47
BRANCH  14  49
HETATM   49  C19 UNL     1      -3.502  -3.893   0.389  1.00  0.00     0.038 C 
BRANCH  49  50
HETATM   50  C20 UNL     1      -3.412  -4.964  -0.655  1.00  0.00    -0.020 C 
HETATM   51  C21 UNL     1      -4.195  -6.169  -0.125  1.00  0.00     0.009 C 
HETATM   52  C22 UNL     1      -4.023  -4.591  -1.971  1.00  0.00     0.009 C 
ENDBRANCH  49  50
ENDBRANCH  14  49
TORSDOF 14
