REMARK  14 active torsions:
REMARK  status: ('A' for Active; 'I' for Inactive)
REMARK    1  A    between atoms: C2_2  and  C3_3 
REMARK    2  A    between atoms: C3_3  and  C4_4 
REMARK    3  A    between atoms: C4_4  and  C5_5 
REMARK    4  A    between atoms: C5_5  and  C6_6 
REMARK       I    between atoms: C6_6  and  N1_8 
REMARK    5  A    between atoms: C9_11  and  C10_12 
REMARK       I    between atoms: C10_12  and  N2_14 
REMARK    6  A    between atoms: N2_14  and  C11_16 
REMARK    7  A    between atoms: C13_18  and  C14_19 
REMARK    8  A    between atoms: C18_27  and  C19_28 
REMARK    9  A    between atoms: C19_28  and  N5_29 
REMARK       I    between atoms: N5_29  and  C20_31 
REMARK   10  A    between atoms: C20_31  and  C21_33 
REMARK   11  A    between atoms: C21_33  and  C22_34 
REMARK   12  A    between atoms: C22_34  and  N6_35 
REMARK   13  A    between atoms: N6_35  and  C23_37 
REMARK   14  A    between atoms: C25_39  and  C26_40 
REMARK       I    between atoms: C26_40  and  N7_42 
ROOT
HETATM    1  C6  UNL     1      -2.928  -3.255   1.194  1.00  0.00     0.220 C 
HETATM    2  O1  UNL     1      -4.090  -3.723   1.225  1.00  0.00    -0.273 OA
HETATM    3  N1  UNL     1      -2.769  -1.887   1.527  1.00  0.00    -0.343 N 
HETATM    4  C7  UNL     1      -3.841  -0.996   1.872  1.00  0.00     0.127 C 
HETATM    5  C8  UNL     1      -4.029   0.039   0.758  1.00  0.00     0.034 C 
HETATM    6  C9  UNL     1      -2.763  -0.088  -0.115  1.00  0.00     0.082 C 
HETATM    7  C17 UNL     1      -1.587   0.041   0.889  1.00  0.00     0.044 C 
HETATM    8  C18 UNL     1      -1.398  -1.305   1.527  1.00  0.00     0.126 C 
ENDROOT
BRANCH   8   9
HETATM    9  C19 UNL     1      -0.882  -1.322   2.911  1.00  0.00     0.089 C 
BRANCH   9  10
HETATM   10  N5  UNL     1       0.432  -0.876   3.139  1.00  0.00    -0.339 N 
HETATM   11  C20 UNL     1       1.014   0.377   2.987  1.00  0.00     0.222 C 
HETATM   12  O3  UNL     1       0.470   1.407   2.610  1.00  0.00    -0.273 OA
ATOM     13  H5  UNL     1       1.069  -1.598   3.475  1.00  0.00     0.167 HD
BRANCH  11  14
HETATM   14  C21 UNL     1       2.492   0.505   3.323  1.00  0.00     0.122 C 
BRANCH  14  15
HETATM   15  C22 UNL     1       2.912   1.894   2.875  1.00  0.00     0.130 C 
BRANCH  15  16
HETATM   16  N6  UNL     1       2.751   2.067   1.464  1.00  0.00    -0.376 N 
ATOM     17  H6  UNL     1       1.910   2.513   1.098  1.00  0.00     0.161 HD
BRANCH  16  18
HETATM   18  C23 UNL     1       3.666   1.660   0.657  1.00  0.00     0.102 A 
HETATM   19  C24 UNL     1       4.793   1.061   1.168  1.00  0.00     0.065 A 
HETATM   20  C25 UNL     1       5.805   0.602   0.327  1.00  0.00     0.044 A 
HETATM   21  C28 UNL     1       5.634   0.769  -1.027  1.00  0.00    -0.019 A 
HETATM   22  C29 UNL     1       4.501   1.369  -1.514  1.00  0.00     0.018 A 
HETATM   23  C31 UNL     1       6.254   0.543  -2.360  1.00  0.00     0.047 A 
HETATM   24  N10 UNL     1       3.538   1.805  -0.689  1.00  0.00    -0.346 N 
HETATM   25  C30 UNL     1       5.005   1.191  -2.901  1.00  0.00     0.062 A 
ATOM     26  H10 UNL     1       2.704   2.248  -1.074  1.00  0.00     0.167 HD
BRANCH  20  27
HETATM   27  C26 UNL     1       6.994  -0.032   0.888  1.00  0.00     0.258 C 
HETATM   28  O4  UNL     1       7.102  -0.146   2.129  1.00  0.00    -0.267 OA
HETATM   29  N7  UNL     1       8.040  -0.527   0.090  1.00  0.00    -0.299 N 
HETATM   30  C27 UNL     1       9.128   0.087  -0.175  1.00  0.00     0.203 C 
ATOM     31  H7  UNL     1       7.920  -1.457  -0.312  1.00  0.00     0.171 HD
HETATM   32  N8  UNL     1      10.057  -0.605  -1.010  1.00  0.00    -0.066 NA
HETATM   33  N9  UNL     1       9.427   1.405   0.326  1.00  0.00    -0.066 NA
ENDBRANCH  20  27
ENDBRANCH  16  18
ENDBRANCH  15  16
ENDBRANCH  14  15
ENDBRANCH  11  14
ENDBRANCH   9  10
ENDBRANCH   8   9
BRANCH   1  34
HETATM   34  C5  UNL     1      -1.767  -4.097   0.823  1.00  0.00     0.103 C 
BRANCH  34  35
HETATM   35  C4  UNL     1      -2.287  -5.497   0.534  1.00  0.00     0.013 C 
BRANCH  35  36
HETATM   36  C3  UNL     1      -1.151  -6.416   0.137  1.00  0.00     0.027 C 
BRANCH  36  37
HETATM   37  C2  UNL     1      -1.701  -7.762  -0.129  1.00  0.00    -0.037 C 
HETATM   38  C1  UNL     1      -2.991  -7.992  -0.005  1.00  0.00     0.007 C 
ENDBRANCH  36  37
ENDBRANCH  35  36
ENDBRANCH  34  35
ENDBRANCH   1  34
BRANCH   6  39
HETATM   39  C10 UNL     1      -2.763   1.119  -0.971  1.00  0.00     0.227 C 
HETATM   40  O2  UNL     1      -1.782   1.870  -0.968  1.00  0.00    -0.273 OA
HETATM   41  N2  UNL     1      -3.928   1.336  -1.761  1.00  0.00    -0.312 N 
ATOM     42  H2  UNL     1      -4.333   0.551  -2.271  1.00  0.00     0.170 HD
BRANCH  41  43
HETATM   43  C11 UNL     1      -4.489   2.499  -1.852  1.00  0.00     0.124 A 
HETATM   44  C12 UNL     1      -5.624   2.744  -2.611  1.00  0.00     0.076 A 
HETATM   45  C13 UNL     1      -5.972   4.073  -2.501  1.00  0.00     0.033 A 
HETATM   46  N3  UNL     1      -5.037   4.613  -1.672  1.00  0.00    -0.303 N 
HETATM   47  N4  UNL     1      -4.174   3.676  -1.300  1.00  0.00    -0.285 N 
ATOM     48  H3  UNL     1      -5.005   5.590  -1.381  1.00  0.00     0.186 HD
ATOM     49  H4  UNL     1      -3.380   3.832  -0.679  1.00  0.00     0.188 HD
BRANCH  45  50
HETATM   50  C14 UNL     1      -7.116   4.816  -3.124  1.00  0.00     0.037 A 
HETATM   51  C15 UNL     1      -7.503   6.080  -2.455  1.00  0.00     0.011 A 
HETATM   52  C16 UNL     1      -6.721   6.211  -3.705  1.00  0.00     0.011 A 
ENDBRANCH  45  50
ENDBRANCH  41  43
ENDBRANCH   6  39
TORSDOF 14
