REMARK  14 active torsions:
REMARK  status: ('A' for Active; 'I' for Inactive)
REMARK    1  A    between atoms: C3_3  and  N1_4 
REMARK    2  A    between atoms: N2_7  and  C6_8 
REMARK    3  A    between atoms: C6_8  and  C7_9 
REMARK    4  A    between atoms: C7_9  and  C8_10 
REMARK    5  A    between atoms: C8_10  and  C9_11 
REMARK    6  A    between atoms: C14_22  and  C15_23 
REMARK    7  A    between atoms: C15_23  and  C16_24 
REMARK    8  A    between atoms: C16_24  and  C17_25 
REMARK    9  A    between atoms: C17_25  and  C18_26 
REMARK   10  A    between atoms: C18_26  and  N5_27 
REMARK   11  A    between atoms: C26_43  and  C27_44 
REMARK   12  A    between atoms: C27_44  and  C28_45 
REMARK   13  A    between atoms: C28_45  and  C29_46 
REMARK   14  A    between atoms: C33_50  and  O5_51 
ROOT
HETATM    1  C1  UNL     1     -10.522   2.727   1.683  1.00  0.00     0.013 C 
HETATM    2  C2  UNL     1      -9.852   1.762   1.413  1.00  0.00    -0.089 C 
HETATM    3  C3  UNL     1      -9.061   0.595   1.068  1.00  0.00     0.335 C 
ENDROOT
BRANCH   3   4
HETATM    4  N1  UNL     1      -7.790   0.893   0.543  1.00  0.00    -0.002 N 
HETATM    5  C4  UNL     1      -7.714   0.968  -0.900  1.00  0.00     0.272 C 
HETATM    6  C5  UNL     1      -6.230   0.694  -1.191  1.00  0.00     0.271 C 
HETATM    7  N2  UNL     1      -5.676   0.516   0.114  1.00  0.00    -0.011 N 
HETATM    8  C31 UNL     1      -5.635   1.762   0.839  1.00  0.00     0.271 C 
HETATM    9  C33 UNL     1      -6.790  -0.159   0.806  1.00  0.00     0.532 C 
HETATM   10  C32 UNL     1      -7.127   2.039   1.083  1.00  0.00     0.272 C 
BRANCH   7  11
HETATM   11  C6  UNL     1      -4.503  -0.263   0.200  1.00  0.00     0.243 C 
BRANCH  11  12
HETATM   12  C7  UNL     1      -3.277   0.610  -0.101  1.00  0.00     0.030 C 
BRANCH  12  13
HETATM   13  C8  UNL     1      -2.081  -0.346   0.030  1.00  0.00     0.029 C 
BRANCH  13  14
HETATM   14  C9  UNL     1      -0.776   0.414  -0.248  1.00  0.00     0.107 C 
HETATM   15  N3  UNL     1      -0.617   1.486   0.684  1.00  0.00    -0.354 N 
HETATM   16  C10 UNL     1      -0.012   2.744   0.446  1.00  0.00     0.218 C 
ATOM     17  H3  UNL     1      -0.979   1.327   1.624  1.00  0.00     0.162 HD
HETATM   18  O1  UNL     1      -0.604   3.805   0.800  1.00  0.00    -0.274 OA
HETATM   19  C11 UNL     1       1.307   2.952  -0.206  1.00  0.00     0.112 C 
HETATM   20  C12 UNL     1       2.324   2.982   0.914  1.00  0.00     0.112 C 
HETATM   21  C13 UNL     1       3.696   3.257   0.478  1.00  0.00     0.218 C 
HETATM   22  O2  UNL     1       3.920   4.333  -0.136  1.00  0.00    -0.274 OA
HETATM   23  N4  UNL     1       4.796   2.385   0.705  1.00  0.00    -0.348 N 
HETATM   24  C14 UNL     1       4.693   0.924   0.577  1.00  0.00     0.176 C 
ATOM     25  H4  UNL     1       5.694   2.790   0.968  1.00  0.00     0.163 HD
HETATM   26  C19 UNL     1       4.381   0.306   1.886  1.00  0.00     0.243 C 
HETATM   27  O3  UNL     1       4.548   1.025   2.917  1.00  0.00    -0.271 OA
HETATM   28  N6  UNL     1       3.913  -1.013   2.087  1.00  0.00    -0.337 N 
HETATM   29  C20 UNL     1       4.314  -1.809   3.246  1.00  0.00     0.127 C 
HETATM   30  C24 UNL     1       3.007  -1.671   1.166  1.00  0.00     0.179 C 
HETATM   31  C21 UNL     1       5.084  -3.004   2.723  1.00  0.00     0.020 C 
HETATM   32  C22 UNL     1       4.108  -3.822   1.906  1.00  0.00     0.004 C 
HETATM   33  C23 UNL     1       3.624  -2.988   0.771  1.00  0.00     0.035 C 
HETATM   34  C25 UNL     1       1.636  -1.796   1.666  1.00  0.00     0.241 C 
HETATM   35  O4  UNL     1       1.407  -2.646   2.571  1.00  0.00    -0.271 OA
HETATM   36  N7  UNL     1       0.512  -1.044   1.228  1.00  0.00    -0.353 N 
HETATM   37  C26 UNL     1       0.321  -0.621  -0.145  1.00  0.00     0.107 C 
ATOM     38  H7  UNL     1      -0.197  -0.789   1.916  1.00  0.00     0.163 HD
BRANCH  24  39
HETATM   39  C15 UNL     1       6.086   0.407   0.187  1.00  0.00     0.035 C 
BRANCH  39  40
HETATM   40  C16 UNL     1       6.474   1.048  -1.122  1.00  0.00     0.004 C 
BRANCH  40  41
HETATM   41  C17 UNL     1       7.829   0.611  -1.596  1.00  0.00     0.027 C 
BRANCH  41  42
HETATM   42  C18 UNL     1       8.147   1.306  -2.924  1.00  0.00     0.229 C 
BRANCH  42  43
HETATM   43  N5  UNL     1       7.190   0.986  -3.948  1.00  0.00    -0.079 N 
ATOM     44  H53 UNL     1       7.105  -0.023  -4.071  1.00  0.00     0.274 HD
ATOM     45  H52 UNL     1       6.239   1.193  -3.642  1.00  0.00     0.274 HD
ATOM     46  H51 UNL     1       7.402   1.449  -4.832  1.00  0.00     0.274 HD
ENDBRANCH  42  43
ENDBRANCH  41  42
ENDBRANCH  40  41
ENDBRANCH  39  40
ENDBRANCH  24  39
BRANCH  37  47
HETATM   47  C27 UNL     1       0.047  -1.851  -0.959  1.00  0.00     0.027 C 
BRANCH  47  48
HETATM   48  C28 UNL     1      -0.105  -1.552  -2.437  1.00  0.00     0.002 C 
BRANCH  48  49
HETATM   49  C29 UNL     1      -0.380  -2.874  -3.162  1.00  0.00    -0.004 C 
HETATM   50  C30 UNL     1      -1.634  -3.523  -2.656  1.00  0.00     0.005 C 
ENDBRANCH  48  49
ENDBRANCH  47  48
ENDBRANCH  37  47
ENDBRANCH  13  14
ENDBRANCH  12  13
ENDBRANCH  11  12
ENDBRANCH   7  11
BRANCH   9  51
HETATM   51  O5  UNL     1      -6.539  -0.250   2.167  1.00  0.00    -0.348 OA
ATOM     52  H5  UNL     1      -5.895  -0.928   2.336  1.00  0.00     0.214 HD
ENDBRANCH   9  51
ENDBRANCH   3   4
TORSDOF 14
