REMARK  12 active torsions:
REMARK  status: ('A' for Active; 'I' for Inactive)
REMARK    1  A    between atoms: C2_2  and  C4_4 
REMARK    2  A    between atoms: C4_4  and  C5_5 
REMARK    3  A    between atoms: C12_19  and  C13_20 
REMARK    4  A    between atoms: C13_20  and  C14_21 
REMARK    5  A    between atoms: C14_21  and  C15_22 
REMARK    6  A    between atoms: C15_22  and  C16_23 
REMARK    7  A    between atoms: C16_23  and  C17_24 
REMARK    8  A    between atoms: C17_24  and  N4_25 
REMARK    9  A    between atoms: C19_34  and  C20_35 
REMARK   10  A    between atoms: C20_35  and  C21_36 
REMARK   11  A    between atoms: C25_43  and  C26_44 
REMARK   12  A    between atoms: C26_44  and  C27_45 
ROOT
HETATM    1  C5  UNL     1      -3.207  -1.504   0.040  1.00  0.00     0.177 C 
HETATM    2  N1  UNL     1      -2.192  -2.273  -0.621  1.00  0.00    -0.348 N 
ATOM      3  H1  UNL     1      -2.157  -2.137  -1.631  1.00  0.00     0.163 HD
HETATM    4  C6  UNL     1      -1.249  -3.168  -0.137  1.00  0.00     0.220 C 
HETATM    5  O1  UNL     1      -1.377  -4.402  -0.510  1.00  0.00    -0.274 OA
HETATM    6  C7  UNL     1      -0.096  -2.933   0.754  1.00  0.00     0.124 C 
HETATM    7  C8  UNL     1       0.757  -1.744   0.379  1.00  0.00     0.161 C 
HETATM    8  N2  UNL     1       1.366  -1.904  -0.920  1.00  0.00    -0.254 N 
HETATM    9  C9  UNL     1       1.275  -2.532  -2.196  1.00  0.00     0.258 C 
HETATM   10  O2  UNL     1       0.385  -2.855  -2.969  1.00  0.00    -0.270 OA
HETATM   11  C10 UNL     1       2.746  -2.603  -2.136  1.00  0.00     0.257 C 
HETATM   12  N3  UNL     1       2.523  -1.330  -1.405  1.00  0.00    -0.246 N 
HETATM   13  C11 UNL     1       3.063  -0.053  -1.199  1.00  0.00     0.261 C 
HETATM   14  O3  UNL     1       3.247   0.734  -2.211  1.00  0.00    -0.269 OA
HETATM   15  C12 UNL     1       3.485   0.583   0.070  1.00  0.00     0.178 C 
HETATM   16  N6  UNL     1       3.292   2.027   0.047  1.00  0.00    -0.346 N 
ATOM     17  H6  UNL     1       4.066   2.580  -0.322  1.00  0.00     0.163 HD
HETATM   18  C18 UNL     1       2.161   2.745   0.475  1.00  0.00     0.241 C 
HETATM   19  O4  UNL     1       2.349   3.713   1.299  1.00  0.00    -0.271 OA
HETATM   20  C19 UNL     1       0.760   2.486   0.063  1.00  0.00     0.177 C 
HETATM   21  N7  UNL     1      -0.111   2.862   1.184  1.00  0.00    -0.346 N 
ATOM     22  H7  UNL     1      -0.029   3.820   1.525  1.00  0.00     0.163 HD
HETATM   23  C24 UNL     1      -1.039   2.047   1.832  1.00  0.00     0.241 C 
HETATM   24  O5  UNL     1      -1.030   1.927   3.111  1.00  0.00    -0.271 OA
HETATM   25  C25 UNL     1      -2.105   1.259   1.104  1.00  0.00     0.177 C 
HETATM   26  N8  UNL     1      -2.480   0.133   1.863  1.00  0.00    -0.346 N 
ATOM     27  H8  UNL     1      -2.438   0.261   2.874  1.00  0.00     0.163 HD
HETATM   28  C30 UNL     1      -2.904  -1.142   1.442  1.00  0.00     0.241 C 
HETATM   29  O6  UNL     1      -3.054  -2.086   2.296  1.00  0.00    -0.271 OA
ENDROOT
BRANCH  15  30
HETATM   30  C13 UNL     1       5.005   0.379   0.169  1.00  0.00     0.035 C 
BRANCH  30  31
HETATM   31  C14 UNL     1       5.437  -1.037   0.177  1.00  0.00     0.002 C 
BRANCH  31  32
HETATM   32  C15 UNL     1       4.902  -1.865   1.309  1.00  0.00     0.002 C 
BRANCH  32  33
HETATM   33  C16 UNL     1       5.355  -3.292   1.260  1.00  0.00     0.021 C 
BRANCH  33  34
HETATM   34  C17 UNL     1       6.848  -3.395   1.324  1.00  0.00     0.139 C 
BRANCH  34  35
HETATM   35  N4  UNL     1       7.265  -4.794   1.281  1.00  0.00    -0.343 N 
HETATM   36  N5  UNL     1       6.765  -5.557   0.454  1.00  0.00    -0.349 N 
ATOM     37  H52 UNL     1       6.063  -5.197  -0.192  1.00  0.00     0.176 HD
ATOM     38  H51 UNL     1       7.056  -6.534   0.424  1.00  0.00     0.176 HD
ATOM     39  H4  UNL     1       7.969  -5.138   1.934  1.00  0.00     0.179 HD
ENDBRANCH  34  35
ENDBRANCH  33  34
ENDBRANCH  32  33
ENDBRANCH  31  32
ENDBRANCH  30  31
ENDBRANCH  15  30
BRANCH  20  40
HETATM   40  C20 UNL     1       0.301   3.075  -1.208  1.00  0.00     0.038 C 
BRANCH  40  41
HETATM   41  C21 UNL     1       0.289   4.534  -1.397  1.00  0.00    -0.020 C 
HETATM   42  C22 UNL     1      -0.292   4.761  -2.827  1.00  0.00     0.009 C 
HETATM   43  C23 UNL     1       1.650   5.142  -1.452  1.00  0.00     0.009 C 
ENDBRANCH  40  41
ENDBRANCH  20  40
BRANCH  25  44
HETATM   44  C26 UNL     1      -3.143   2.197   0.622  1.00  0.00     0.038 C 
BRANCH  44  45
HETATM   45  C27 UNL     1      -3.828   3.016   1.677  1.00  0.00    -0.020 C 
HETATM   46  C28 UNL     1      -4.539   2.130   2.655  1.00  0.00     0.009 C 
HETATM   47  C29 UNL     1      -4.905   3.845   0.952  1.00  0.00     0.009 C 
ENDBRANCH  44  45
ENDBRANCH  25  44
BRANCH   1  48
HETATM   48  C4  UNL     1      -4.603  -2.059  -0.076  1.00  0.00     0.038 C 
BRANCH  48  49
HETATM   49  C2  UNL     1      -5.183  -2.198  -1.423  1.00  0.00    -0.020 C 
HETATM   50  C1  UNL     1      -4.476  -3.107  -2.385  1.00  0.00     0.009 C 
HETATM   51  C3  UNL     1      -6.602  -2.785  -1.268  1.00  0.00     0.009 C 
ENDBRANCH  48  49
ENDBRANCH   1  48
TORSDOF 12
