REMARK  11 active torsions:
REMARK  status: ('A' for Active; 'I' for Inactive)
REMARK    1  A    between atoms: C2_2  and  N1_3 
REMARK    2  A    between atoms: N1_3  and  C3_4 
REMARK    3  A    between atoms: N2_10  and  C9_11 
REMARK    4  A    between atoms: C9_11  and  C10_12 
REMARK       I    between atoms: C10_12  and  N3_14 
REMARK    5  A    between atoms: C16_21  and  C17_22 
REMARK    6  A    between atoms: C17_22  and  C18_23 
REMARK    7  A    between atoms: C22_30  and  C23_31 
REMARK    8  A    between atoms: C23_31  and  C24_32 
REMARK    9  A    between atoms: C24_32  and  C25_33 
REMARK   10  A    between atoms: C25_33  and  C26_34 
REMARK   11  A    between atoms: C26_34  and  N5_35 
REMARK       I    between atoms: N5_35  and  C27_37 
ROOT
HETATM    1  N1  UNL     1       0.183   3.647  -0.141  1.00  0.00     0.021 N 
HETATM    2  C5  UNL     1      -0.648   3.188  -1.263  1.00  0.00     0.265 C 
HETATM    3  C6  UNL     1      -1.800   2.367  -0.804  1.00  0.00     0.032 C 
HETATM    4  C7  UNL     1      -2.324   1.471  -1.908  1.00  0.00     0.022 C 
HETATM    5  C8  UNL     1      -2.035   0.011  -1.600  1.00  0.00     0.126 C 
HETATM    6  N2  UNL     1      -2.741  -0.434  -0.416  1.00  0.00    -0.342 N 
HETATM    7  C15 UNL     1      -2.209  -0.705   0.840  1.00  0.00     0.243 C 
HETATM    8  O2  UNL     1      -2.894  -0.276   1.841  1.00  0.00    -0.271 OA
HETATM    9  C16 UNL     1      -0.973  -1.410   1.236  1.00  0.00     0.177 C 
HETATM   10  N4  UNL     1      -0.162  -1.885   0.168  1.00  0.00    -0.346 N 
ATOM     11  H4  UNL     1      -0.630  -2.486  -0.511  1.00  0.00     0.163 HD
HETATM   12  C21 UNL     1       1.223  -1.630  -0.077  1.00  0.00     0.241 C 
HETATM   13  O3  UNL     1       1.904  -2.672  -0.259  1.00  0.00    -0.271 OA
HETATM   14  C22 UNL     1       1.836  -0.291  -0.123  1.00  0.00     0.186 C 
HETATM   15  N8  UNL     1       1.728   0.279   1.198  1.00  0.00    -0.288 N 
ATOM     16  H8  UNL     1       1.640  -0.293   2.038  1.00  0.00     0.174 HD
HETATM   17  S1  UNL     1       1.760   2.000   1.246  1.00  0.00     0.339 S 
HETATM   18  O4  UNL     1       3.034   2.463   0.676  1.00  0.00    -0.181 OA
HETATM   19  O5  UNL     1       1.867   2.321   2.747  1.00  0.00    -0.181 OA
HETATM   20  N9  UNL     1       0.340   2.650   0.718  1.00  0.00    -0.125 N 
ATOM     21  H9  UNL     1      -0.514   2.239   1.095  1.00  0.00     0.208 HD
ENDROOT
BRANCH  14  22
HETATM   22  C23 UNL     1       3.233  -0.304  -0.637  1.00  0.00     0.035 C 
BRANCH  22  23
HETATM   23  C24 UNL     1       4.244  -1.066   0.145  1.00  0.00     0.004 C 
BRANCH  23  24
HETATM   24  C25 UNL     1       5.628  -0.993  -0.482  1.00  0.00     0.020 C 
BRANCH  24  25
HETATM   25  C26 UNL     1       6.163   0.397  -0.587  1.00  0.00     0.122 C 
BRANCH  25  26
HETATM   26  N5  UNL     1       7.482   0.291  -1.197  1.00  0.00    -0.365 N 
HETATM   27  C27 UNL     1       8.582  -0.310  -0.528  1.00  0.00     0.181 C 
HETATM   28  N6  UNL     1       9.063   0.103   0.578  1.00  0.00    -0.374 N 
HETATM   29  N7  UNL     1       9.169  -1.445  -1.154  1.00  0.00    -0.064 NA
ATOM     30  H62 UNL     1       8.642   0.917   1.027  1.00  0.00     0.158 HD
ATOM     31  H61 UNL     1       9.853  -0.328   1.058  1.00  0.00     0.158 HD
ATOM     32  H5  UNL     1       7.621   0.661  -2.137  1.00  0.00     0.162 HD
ENDBRANCH  25  26
ENDBRANCH  24  25
ENDBRANCH  23  24
ENDBRANCH  22  23
ENDBRANCH  14  22
BRANCH   9  33
HETATM   33  C17 UNL     1      -1.384  -2.592   2.146  1.00  0.00     0.038 C 
BRANCH  33  34
HETATM   34  C18 UNL     1      -0.224  -3.388   2.626  1.00  0.00    -0.020 C 
HETATM   35  C19 UNL     1      -0.801  -4.511   3.503  1.00  0.00     0.009 C 
HETATM   36  C20 UNL     1       0.707  -2.612   3.525  1.00  0.00     0.009 C 
ENDBRANCH  33  34
ENDBRANCH   9  33
BRANCH   1  37
HETATM   37  C2  UNL     1      -0.620   4.690   0.509  1.00  0.00     0.261 C 
HETATM   38  C1  UNL     1      -1.335   5.594  -0.420  1.00  0.00     0.037 C 
ENDBRANCH   1  37
BRANCH   1  39
HETATM   39  C3  UNL     1       1.308   4.307  -0.722  1.00  0.00     0.261 C 
HETATM   40  C4  UNL     1       1.979   5.323   0.144  1.00  0.00     0.037 C 
ENDBRANCH   1  39
BRANCH   6  41
HETATM   41  C9  UNL     1      -4.198  -0.575  -0.672  1.00  0.00     0.228 C 
BRANCH  41  42
HETATM   42  C10 UNL     1      -4.396  -1.973  -1.120  1.00  0.00     0.237 C 
HETATM   43  O1  UNL     1      -3.469  -2.804  -1.229  1.00  0.00    -0.272 OA
HETATM   44  N3  UNL     1      -5.706  -2.429  -1.454  1.00  0.00    -0.351 N 
HETATM   45  C11 UNL     1      -6.115  -3.743  -1.906  1.00  0.00     0.126 C 
HETATM   46  C14 UNL     1      -6.894  -1.611  -1.395  1.00  0.00     0.126 C 
HETATM   47  C12 UNL     1      -7.592  -3.829  -1.603  1.00  0.00     0.021 C 
HETATM   48  C13 UNL     1      -7.907  -2.577  -0.791  1.00  0.00     0.021 C 
ENDBRANCH  41  42
ENDBRANCH   6  41
TORSDOF 11
