REMARK  13 active torsions:
REMARK  status: ('A' for Active; 'I' for Inactive)
REMARK    1  A    between atoms: C2_2  and  C3_3 
REMARK    2  A    between atoms: C2_2  and  C31_46 
REMARK    3  A    between atoms: C4_4  and  C5_5 
REMARK    4  A    between atoms: N1_8  and  C8_9 
REMARK    5  A    between atoms: C8_9  and  C9_10 
REMARK    6  A    between atoms: C9_10  and  C10_12 
REMARK    7  A    between atoms: C10_12  and  C11_13 
REMARK    8  A    between atoms: C14_17  and  C15_18 
REMARK    9  A    between atoms: C19_25  and  C20_26 
REMARK   10  A    between atoms: C20_26  and  C21_27 
REMARK   11  A    between atoms: C25_34  and  C26_35 
REMARK   12  A    between atoms: C26_35  and  C28_37 
REMARK   13  A    between atoms: C30_41  and  O5_42 
REMARK       I    between atoms: C31_46  and  N6_48 
ROOT
HETATM    1  C5  UNL     1       2.925   0.917  -0.145  1.00  0.00     0.091 C 
HETATM    2  C6  UNL     1       1.749   0.323  -0.520  1.00  0.00     0.038 C 
HETATM    3  C7  UNL     1       0.856   1.205  -1.270  1.00  0.00     0.183 C 
HETATM    4  N1  UNL     1       0.305   2.371  -0.582  1.00  0.00    -0.338 N 
HETATM    5  C13 UNL     1      -0.443   2.297   0.613  1.00  0.00     0.243 C 
HETATM    6  O2  UNL     1      -0.207   3.120   1.565  1.00  0.00    -0.271 OA
HETATM    7  C14 UNL     1      -1.541   1.293   0.872  1.00  0.00     0.180 C 
HETATM    8  N2  UNL     1      -2.605   1.467  -0.087  1.00  0.00    -0.346 N 
ATOM      9  H2  UNL     1      -2.935   2.427  -0.190  1.00  0.00     0.163 HD
HETATM   10  C18 UNL     1      -3.256   0.535  -0.897  1.00  0.00     0.241 C 
HETATM   11  O3  UNL     1      -3.292   0.806  -2.152  1.00  0.00    -0.271 OA
HETATM   12  C19 UNL     1      -3.912  -0.732  -0.430  1.00  0.00     0.177 C 
HETATM   13  N3  UNL     1      -3.091  -1.581   0.366  1.00  0.00    -0.346 N 
ATOM     14  H3  UNL     1      -3.327  -1.659   1.355  1.00  0.00     0.163 HD
HETATM   15  C24 UNL     1      -1.964  -2.335  -0.097  1.00  0.00     0.241 C 
HETATM   16  O4  UNL     1      -1.336  -3.000   0.788  1.00  0.00    -0.271 OA
HETATM   17  C25 UNL     1      -1.478  -2.408  -1.462  1.00  0.00     0.181 C 
HETATM   18  N4  UNL     1      -0.066  -2.319  -1.686  1.00  0.00    -0.343 N 
ATOM     19  H4  UNL     1       0.192  -2.398  -2.670  1.00  0.00     0.164 HD
HETATM   20  C30 UNL     1       1.028  -2.147  -0.841  1.00  0.00     0.217 C 
HETATM   21  N5  UNL     1       1.496  -1.022  -0.135  1.00  0.00    -0.324 N 
ATOM     22  H5  UNL     1       1.693  -1.209   0.848  1.00  0.00     0.169 HD
ENDROOT
BRANCH   1  23
HETATM   23  C4  UNL     1       3.914   0.258   0.574  1.00  0.00    -0.071 C 
HETATM   24  C3  UNL     1       4.794  -0.215   1.182  1.00  0.00    -0.057 C 
BRANCH  24  25
HETATM   25  C2  UNL     1       5.883  -0.812   1.937  1.00  0.00     0.076 C 
HETATM   26  C1  UNL     1       6.828   0.120   2.303  1.00  0.00     0.039 C 
BRANCH  25  27
HETATM   27  C31 UNL     1       6.255  -2.206   2.076  1.00  0.00     0.265 C 
HETATM   28  O6  UNL     1       5.562  -3.199   1.882  1.00  0.00    -0.267 OA
HETATM   29  N6  UNL     1       7.641  -2.402   2.495  1.00  0.00    -0.299 N 
HETATM   30  C32 UNL     1       8.363  -3.271   1.828  1.00  0.00     0.203 C 
ATOM     31  H6  UNL     1       8.034  -1.881   3.279  1.00  0.00     0.171 HD
HETATM   32  N7  UNL     1       9.703  -3.496   2.190  1.00  0.00    -0.066 NA
HETATM   33  N8  UNL     1       7.789  -3.995   0.759  1.00  0.00    -0.066 NA
ENDBRANCH  25  27
ENDBRANCH  24  25
ENDBRANCH   1  23
BRANCH   4  34
HETATM   34  C8  UNL     1       0.455   3.692  -1.208  1.00  0.00     0.204 C 
BRANCH  34  35
HETATM   35  C9  UNL     1       1.520   4.541  -0.682  1.00  0.00     0.144 C 
HETATM   36  O1  UNL     1       2.070   4.480   0.392  1.00  0.00    -0.296 OA
BRANCH  35  37
HETATM   37  C10 UNL     1       2.036   5.662  -1.573  1.00  0.00     0.079 C 
BRANCH  37  38
HETATM   38  C11 UNL     1       1.769   7.011  -0.995  1.00  0.00     0.003 C 
HETATM   39  C12 UNL     1       2.390   7.271   0.344  1.00  0.00     0.005 C 
ENDBRANCH  37  38
ENDBRANCH  35  37
ENDBRANCH  34  35
ENDBRANCH   4  34
BRANCH  20  40
HETATM   40  O5  UNL     1       1.723  -3.284  -0.715  1.00  0.00    -0.333 OA
ATOM     41  H5  UNL     1       2.469  -3.167  -0.139  1.00  0.00     0.220 HD
ENDBRANCH  20  40
BRANCH   7  42
HETATM   42  C15 UNL     1      -2.072   1.440   2.289  1.00  0.00     0.009 C 
HETATM   43  C16 UNL     1      -2.647   2.784   2.593  1.00  0.00     0.012 C 
HETATM   44  C17 UNL     1      -1.087   0.967   3.312  1.00  0.00     0.012 C 
ENDBRANCH   7  42
BRANCH  17  45
HETATM   45  C26 UNL     1      -2.074  -3.637  -2.128  1.00  0.00     0.013 C 
HETATM   46  C27 UNL     1      -1.677  -4.889  -1.373  1.00  0.00     0.012 C 
BRANCH  45  47
HETATM   47  C28 UNL     1      -1.728  -3.778  -3.565  1.00  0.00     0.002 C 
HETATM   48  C29 UNL     1      -2.194  -2.633  -4.437  1.00  0.00     0.005 C 
ENDBRANCH  45  47
ENDBRANCH  17  45
BRANCH  12  49
HETATM   49  C20 UNL     1      -5.209  -0.303   0.188  1.00  0.00     0.038 C 
BRANCH  49  50
HETATM   50  C21 UNL     1      -6.088  -1.350   0.745  1.00  0.00    -0.020 C 
HETATM   51  C22 UNL     1      -7.327  -0.605   1.309  1.00  0.00     0.009 C 
HETATM   52  C23 UNL     1      -6.607  -2.338  -0.252  1.00  0.00     0.009 C 
ENDBRANCH  49  50
ENDBRANCH  12  49
TORSDOF 13
