REMARK  12 active torsions:
REMARK  status: ('A' for Active; 'I' for Inactive)
REMARK    1  A    between atoms: C2_2  and  C3_3 
REMARK    2  A    between atoms: C3_3  and  C5_5 
REMARK    3  A    between atoms: C7_10  and  C8_11 
REMARK    4  A    between atoms: C8_11  and  C9_12 
REMARK    5  A    between atoms: C13_17  and  O2_18 
REMARK    6  A    between atoms: C14_20  and  C15_21 
REMARK    7  A    between atoms: C15_21  and  C16_22 
REMARK    8  A    between atoms: C16_22  and  C17_23 
REMARK    9  A    between atoms: C17_23  and  N3_24 
REMARK   10  A    between atoms: C20_33  and  C21_34 
REMARK   11  A    between atoms: C26_42  and  C27_43 
REMARK   12  A    between atoms: C27_43  and  C28_44 
ROOT
HETATM    1  C5  UNL     1      -1.951  -2.213  -0.031  1.00  0.00     0.180 C 
HETATM    2  N1  UNL     1      -0.871  -1.519  -0.683  1.00  0.00    -0.346 N 
ATOM      3  H1  UNL     1      -0.652  -0.625  -0.243  1.00  0.00     0.163 HD
HETATM    4  C6  UNL     1      -0.057  -1.795  -1.781  1.00  0.00     0.241 C 
HETATM    5  O1  UNL     1      -0.352  -1.140  -2.862  1.00  0.00    -0.271 OA
HETATM    6  C7  UNL     1       1.092  -2.699  -1.943  1.00  0.00     0.178 C 
HETATM    7  N2  UNL     1       2.301  -1.962  -2.387  1.00  0.00    -0.351 N 
HETATM    8  C12 UNL     1       3.154  -2.823  -3.248  1.00  0.00     0.152 C 
HETATM    9  C13 UNL     1       2.694  -0.690  -2.146  1.00  0.00     0.161 C 
HETATM   10  C14 UNL     1       2.949   0.171  -0.958  1.00  0.00     0.063 C 
HETATM   11  N6  UNL     1       2.559   1.548  -1.194  1.00  0.00    -0.325 N 
ATOM     12  H6  UNL     1       3.339   2.204  -1.154  1.00  0.00     0.169 HD
HETATM   13  C19 UNL     1       1.338   2.156  -1.464  1.00  0.00     0.245 C 
HETATM   14  O3  UNL     1       1.120   2.607  -2.659  1.00  0.00    -0.271 OA
HETATM   15  C20 UNL     1       0.155   2.410  -0.593  1.00  0.00     0.184 C 
HETATM   16  N7  UNL     1      -1.068   2.155  -1.332  1.00  0.00    -0.345 N 
ATOM     17  H7  UNL     1      -0.959   2.048  -2.340  1.00  0.00     0.163 HD
HETATM   18  C25 UNL     1      -2.369   2.037  -0.852  1.00  0.00     0.241 C 
HETATM   19  O4  UNL     1      -3.291   2.715  -1.433  1.00  0.00    -0.271 OA
HETATM   20  C26 UNL     1      -2.864   1.209   0.274  1.00  0.00     0.177 C 
HETATM   21  N8  UNL     1      -3.358  -0.022  -0.279  1.00  0.00    -0.346 N 
ATOM     22  H8  UNL     1      -3.971   0.111  -1.083  1.00  0.00     0.163 HD
HETATM   23  C31 UNL     1      -3.171  -1.348   0.057  1.00  0.00     0.241 C 
HETATM   24  O5  UNL     1      -4.174  -1.993   0.521  1.00  0.00    -0.271 OA
ENDROOT
BRANCH  10  25
HETATM   25  C15 UNL     1       2.657  -0.385   0.365  1.00  0.00     0.063 C 
BRANCH  25  26
HETATM   26  C16 UNL     1       3.021   0.605   1.450  1.00  0.00     0.026 C 
BRANCH  26  27
HETATM   27  C17 UNL     1       4.480   0.930   1.447  1.00  0.00     0.122 C 
BRANCH  27  28
HETATM   28  N3  UNL     1       4.736   1.886   2.539  1.00  0.00    -0.367 N 
HETATM   29  C18 UNL     1       5.937   2.192   2.865  1.00  0.00     0.196 C 
HETATM   30  N4  UNL     1       6.104   3.131   3.939  1.00  0.00    -0.067 NA
HETATM   31  N5  UNL     1       7.061   1.639   2.208  1.00  0.00    -0.067 NA
ATOM     32  H3  UNL     1       3.952   2.307   3.038  1.00  0.00     0.161 HD
ENDBRANCH  27  28
ENDBRANCH  26  27
ENDBRANCH  25  26
ENDBRANCH  10  25
BRANCH   9  33
HETATM   33  O2  UNL     1       2.932   0.033  -3.218  1.00  0.00    -0.345 OA
ATOM     34  H2  UNL     1       3.208   0.926  -3.049  1.00  0.00     0.219 HD
ENDBRANCH   9  33
BRANCH   6  35
HETATM   35  C8  UNL     1       0.744  -3.767  -2.940  1.00  0.00     0.038 C 
BRANCH  35  36
HETATM   36  C9  UNL     1      -0.417  -4.638  -2.574  1.00  0.00    -0.020 C 
HETATM   37  C10 UNL     1      -0.206  -5.415  -1.278  1.00  0.00     0.009 C 
HETATM   38  C11 UNL     1      -0.630  -5.630  -3.730  1.00  0.00     0.009 C 
ENDBRANCH  35  36
ENDBRANCH   6  35
BRANCH  15  39
HETATM   39  C21 UNL     1       0.236   3.925  -0.305  1.00  0.00    -0.022 C 
HETATM   40  C22 UNL     1       0.150   4.752  -1.556  1.00  0.00     0.017 C 
HETATM   41  C23 UNL     1       1.546   4.292   0.360  1.00  0.00     0.017 C 
HETATM   42  C24 UNL     1      -0.848   4.370   0.639  1.00  0.00     0.017 C 
ENDBRANCH  15  39
BRANCH   1  43
HETATM   43  C3  UNL     1      -1.517  -2.667   1.354  1.00  0.00     0.013 C 
HETATM   44  C4  UNL     1      -2.578  -3.503   2.035  1.00  0.00     0.012 C 
BRANCH  43  45
HETATM   45  C2  UNL     1      -1.117  -1.569   2.273  1.00  0.00     0.002 C 
HETATM   46  C1  UNL     1      -0.571  -2.230   3.538  1.00  0.00     0.005 C 
ENDBRANCH  43  45
ENDBRANCH   1  43
BRANCH  20  47
HETATM   47  C27 UNL     1      -3.805   1.907   1.180  1.00  0.00     0.038 C 
BRANCH  47  48
HETATM   48  C28 UNL     1      -5.071   2.460   0.707  1.00  0.00    -0.020 C 
HETATM   49  C29 UNL     1      -5.993   1.425   0.117  1.00  0.00     0.009 C 
HETATM   50  C30 UNL     1      -5.813   2.978   1.970  1.00  0.00     0.009 C 
ENDBRANCH  47  48
ENDBRANCH  20  47
TORSDOF 12
