REMARK  13 active torsions:
REMARK  status: ('A' for Active; 'I' for Inactive)
REMARK    1  A    between atoms: C3_5  and  C4_6 
REMARK    2  A    between atoms: C7_9  and  C8_10 
REMARK    3  A    between atoms: C8_10  and  C9_11 
REMARK    4  A    between atoms: C10_14  and  C11_15 
REMARK    5  A    between atoms: C11_15  and  C12_16 
REMARK    6  A    between atoms: C12_16  and  C13_17 
REMARK    7  A    between atoms: C17_23  and  C18_24 
REMARK    8  A    between atoms: C18_24  and  C19_25 
REMARK    9  A    between atoms: C23_32  and  C24_33 
REMARK   10  A    between atoms: C24_33  and  C25_34 
REMARK   11  A    between atoms: C26_39  and  O4_40 
REMARK   12  A    between atoms: C27_42  and  C28_43 
REMARK   13  A    between atoms: C28_43  and  C29_44 
ROOT
HETATM    1  C9  UNL     1       1.965   0.220  -0.633  1.00  0.00     0.175 C 
HETATM    2  N2  UNL     1       1.725  -1.073  -0.158  1.00  0.00    -0.388 N 
ATOM      3  H2  UNL     1       2.384  -1.511   0.485  1.00  0.00     0.156 HD
HETATM    4  C10 UNL     1       0.560  -1.777  -0.573  1.00  0.00     0.182 C 
HETATM    5  N3  UNL     1      -0.031  -2.269   0.690  1.00  0.00    -0.330 N 
HETATM    6  C15 UNL     1       0.745  -3.343   1.285  1.00  0.00     0.155 C 
HETATM    7  C16 UNL     1      -1.206  -1.732   1.270  1.00  0.00     0.267 C 
HETATM    8  O1  UNL     1      -1.069  -1.519   2.537  1.00  0.00    -0.266 OA
HETATM    9  C17 UNL     1      -2.474  -1.400   0.673  1.00  0.00     0.081 C 
HETATM   10  N4  UNL     1      -2.599  -0.150   0.016  1.00  0.00    -0.320 N 
ATOM     11  H4  UNL     1      -2.464  -0.201  -0.994  1.00  0.00     0.169 HD
HETATM   12  C22 UNL     1      -2.872   1.143   0.485  1.00  0.00     0.272 C 
HETATM   13  O2  UNL     1      -3.737   1.774  -0.230  1.00  0.00    -0.266 OA
HETATM   14  C23 UNL     1      -2.285   1.820   1.668  1.00  0.00     0.107 C 
HETATM   15  N6  UNL     1      -0.879   2.120   1.566  1.00  0.00    -0.334 N 
ATOM     16  H6  UNL     1      -0.309   1.582   2.219  1.00  0.00     0.168 HD
HETATM   17  C26 UNL     1      -0.128   2.983   0.772  1.00  0.00     0.139 C 
HETATM   18  C27 UNL     1       0.187   2.992  -0.668  1.00  0.00     0.159 C 
HETATM   19  N7  UNL     1       0.079   1.797  -1.395  1.00  0.00    -0.347 N 
ATOM     20  H7  UNL     1      -0.827   1.658  -1.843  1.00  0.00     0.163 HD
HETATM   21  C32 UNL     1       0.994   0.762  -1.614  1.00  0.00     0.241 C 
HETATM   22  O5  UNL     1       1.012   0.213  -2.770  1.00  0.00    -0.271 OA
ENDROOT
BRANCH   1  23
HETATM   23  C8  UNL     1       3.383   0.431  -1.129  1.00  0.00     0.075 C 
BRANCH  23  24
HETATM   24  C7  UNL     1       4.413   0.195  -0.094  1.00  0.00    -0.028 A 
HETATM   25  C2  UNL     1       4.967  -1.004   0.265  1.00  0.00     0.029 A 
HETATM   26  C1  UNL     1       4.762  -2.211  -0.287  1.00  0.00     0.043 C 
HETATM   27  N1  UNL     1       5.827  -0.786   1.301  1.00  0.00    -0.357 N 
HETATM   28  C3  UNL     1       5.836   0.517   1.607  1.00  0.00     0.029 A 
ATOM     29  H1  UNL     1       6.378  -1.505   1.770  1.00  0.00     0.166 HD
HETATM   30  C6  UNL     1       4.972   1.148   0.760  1.00  0.00     0.038 A 
BRANCH  28  31
HETATM   31  C4  UNL     1       6.579   1.064   2.585  1.00  0.00    -0.002 C 
HETATM   32  C5  UNL     1       7.451   0.172   3.386  1.00  0.00     0.038 C 
ENDBRANCH  28  31
ENDBRANCH  23  24
ENDBRANCH   1  23
BRANCH   4  33
HETATM   33  C11 UNL     1       0.938  -3.008  -1.366  1.00  0.00     0.046 C 
BRANCH  33  34
HETATM   34  C12 UNL     1      -0.230  -3.793  -1.859  1.00  0.00     0.003 C 
BRANCH  34  35
HETATM   35  C13 UNL     1      -1.128  -3.022  -2.799  1.00  0.00    -0.004 C 
HETATM   36  C14 UNL     1      -2.263  -3.959  -3.207  1.00  0.00     0.005 C 
ENDBRANCH  34  35
ENDBRANCH  33  34
ENDBRANCH   4  33
BRANCH  18  37
HETATM   37  C28 UNL     1      -0.645   4.129  -1.281  1.00  0.00     0.037 C 
BRANCH  37  38
HETATM   38  C29 UNL     1      -0.391   4.225  -2.770  1.00  0.00    -0.020 C 
HETATM   39  C30 UNL     1      -1.240   5.363  -3.295  1.00  0.00     0.009 C 
HETATM   40  C31 UNL     1       1.070   4.499  -3.052  1.00  0.00     0.009 C 
ENDBRANCH  37  38
ENDBRANCH  18  37
BRANCH  17  41
HETATM   41  O4  UNL     1       0.443   4.013   1.348  1.00  0.00    -0.348 OA
ATOM     42  H4  UNL     1       0.955   4.602   0.806  1.00  0.00     0.219 HD
ENDBRANCH  17  41
BRANCH   9  43
HETATM   43  C18 UNL     1      -3.703  -1.661   1.502  1.00  0.00     0.067 C 
BRANCH  43  44
HETATM   44  C19 UNL     1      -3.978  -3.063   1.880  1.00  0.00    -0.017 C 
HETATM   45  C20 UNL     1      -4.144  -3.944   0.635  1.00  0.00     0.010 C 
HETATM   46  C21 UNL     1      -3.119  -3.720   2.894  1.00  0.00     0.010 C 
ENDBRANCH  43  44
ENDBRANCH   9  43
BRANCH  14  47
HETATM   47  C24 UNL     1      -3.121   2.875   2.302  1.00  0.00     0.106 C 
BRANCH  47  48
HETATM   48  C25 UNL     1      -3.549   4.040   1.591  1.00  0.00     0.257 C 
HETATM   49  N5  UNL     1      -4.795   4.260   0.941  1.00  0.00    -0.058 NA
HETATM   50  O3  UNL     1      -2.758   5.049   1.490  1.00  0.00    -0.272 OA
ENDBRANCH  47  48
ENDBRANCH  14  47
TORSDOF 13
