REMARK  17 active torsions:
REMARK  status: ('A' for Active; 'I' for Inactive)
REMARK    1  A    between atoms: C2_2  and  C3_3 
REMARK    2  A    between atoms: C3_3  and  C4_4 
REMARK    3  A    between atoms: C4_4  and  C5_5 
REMARK    4  A    between atoms: C5_5  and  C6_6 
REMARK    5  A    between atoms: C7_9  and  C8_10 
REMARK    6  A    between atoms: C8_10  and  C9_11 
REMARK    7  A    between atoms: C9_11  and  O1_13 
REMARK    8  A    between atoms: C12_19  and  C13_20 
REMARK    9  A    between atoms: C13_20  and  C14_21 
REMARK   10  A    between atoms: C14_21  and  C15_22 
REMARK   11  A    between atoms: C15_22  and  N3_23 
REMARK       I    between atoms: N7_34  and  C20_35 
REMARK   12  A    between atoms: C20_35  and  C21_37 
REMARK   13  A    between atoms: C21_37  and  C22_38 
REMARK   14  A    between atoms: C22_38  and  C23_39 
REMARK   15  A    between atoms: C23_39  and  C24_40 
REMARK   16  A    between atoms: C24_40  and  C25_41 
REMARK   17  A    between atoms: C25_41  and  N8_42 
ROOT
HETATM    1  C6  UNL     1       1.407   1.196  -0.048  1.00  0.00     0.090 C 
HETATM    2  N1  UNL     1       1.800   2.046   0.871  1.00  0.00    -0.366 N 
ATOM      3  H1  UNL     1       1.031   2.651   1.160  1.00  0.00     0.161 HD
HETATM    4  C7  UNL     1       2.990   2.366   1.580  1.00  0.00     0.177 C 
HETATM    5  C11 UNL     1       4.111   2.695   0.627  1.00  0.00     0.241 C 
HETATM    6  O2  UNL     1       4.645   3.806   0.855  1.00  0.00    -0.271 OA
HETATM    7  N2  UNL     1       4.659   1.978  -0.468  1.00  0.00    -0.346 N 
ATOM      8  H2  UNL     1       5.097   2.616  -1.132  1.00  0.00     0.163 HD
HETATM    9  C12 UNL     1       4.780   0.602  -0.922  1.00  0.00     0.177 C 
HETATM   10  C17 UNL     1       3.501  -0.081  -1.023  1.00  0.00     0.245 C 
HETATM   11  O3  UNL     1       3.580  -1.212  -1.566  1.00  0.00    -0.271 OA
HETATM   12  N6  UNL     1       2.158   0.181  -0.674  1.00  0.00    -0.314 N 
ATOM     13  H6  UNL     1       1.555  -0.591  -0.958  1.00  0.00     0.170 HD
ENDROOT
BRANCH   1  14
HETATM   14  C5  UNL     1       0.010   1.354  -0.401  1.00  0.00     0.036 C 
HETATM   15  C18 UNL     1      -0.545   2.544   0.413  1.00  0.00     0.039 C 
HETATM   16  C19 UNL     1      -2.020   2.290   0.341  1.00  0.00     0.127 C 
HETATM   17  N7  UNL     1      -2.168   0.849   0.202  1.00  0.00    -0.351 N 
HETATM   18  C20 UNL     1      -3.453   0.241   0.210  1.00  0.00     0.219 C 
HETATM   19  C27 UNL     1      -0.871   0.231   0.086  1.00  0.00     0.143 C 
HETATM   20  O4  UNL     1      -3.509  -1.006   0.077  1.00  0.00    -0.273 OA
BRANCH  14  21
HETATM   21  C4  UNL     1      -0.281   1.666  -1.835  1.00  0.00     0.019 C 
BRANCH  21  22
HETATM   22  C3  UNL     1       0.149   0.694  -2.855  1.00  0.00     0.001 C 
BRANCH  22  23
HETATM   23  C2  UNL     1      -0.306   1.209  -4.245  1.00  0.00    -0.005 C 
HETATM   24  C1  UNL     1       0.129   0.221  -5.306  1.00  0.00     0.005 C 
ENDBRANCH  22  23
ENDBRANCH  21  22
ENDBRANCH  14  21
BRANCH  18  25
HETATM   25  C21 UNL     1      -4.711   0.986   0.365  1.00  0.00     0.103 C 
BRANCH  25  26
HETATM   26  C22 UNL     1      -5.920   0.050   0.398  1.00  0.00     0.009 C 
BRANCH  26  27
HETATM   27  C23 UNL     1      -7.120   0.942   0.567  1.00  0.00     0.002 C 
BRANCH  27  28
HETATM   28  C24 UNL     1      -8.425   0.233   0.631  1.00  0.00     0.020 C 
BRANCH  28  29
HETATM   29  C25 UNL     1      -8.781  -0.585  -0.565  1.00  0.00     0.122 C 
BRANCH  29  30
HETATM   30  N8  UNL     1     -10.075  -1.184  -0.301  1.00  0.00    -0.367 N 
HETATM   31  C26 UNL     1     -10.298  -2.444  -0.351  1.00  0.00     0.196 C 
HETATM   32  N9  UNL     1      -9.245  -3.323  -0.679  1.00  0.00    -0.067 NA
HETATM   33  N10 UNL     1     -11.582  -2.966  -0.082  1.00  0.00    -0.067 NA
ATOM     34  H8  UNL     1     -10.851  -0.567  -0.062  1.00  0.00     0.161 HD
ENDBRANCH  29  30
ENDBRANCH  28  29
ENDBRANCH  27  28
ENDBRANCH  26  27
ENDBRANCH  25  26
ENDBRANCH  18  25
ENDBRANCH   1  14
BRANCH   4  35
HETATM   35  C8  UNL     1       3.409   1.459   2.639  1.00  0.00     0.066 C 
BRANCH  35  36
HETATM   36  C9  UNL     1       2.531   1.257   3.819  1.00  0.00     0.116 C 
HETATM   37  C10 UNL     1       1.184   0.674   3.541  1.00  0.00     0.039 C 
BRANCH  36  38
HETATM   38  O1  UNL     1       3.180   0.460   4.803  1.00  0.00    -0.396 OA
ATOM     39  H1  UNL     1       2.618   0.331   5.558  1.00  0.00     0.210 HD
ENDBRANCH  36  38
ENDBRANCH  35  36
ENDBRANCH   4  35
BRANCH   9  40
HETATM   40  C13 UNL     1       5.844  -0.075  -0.128  1.00  0.00     0.036 C 
BRANCH  40  41
HETATM   41  C14 UNL     1       6.112  -1.505  -0.450  1.00  0.00     0.022 C 
BRANCH  41  42
HETATM   42  C15 UNL     1       7.254  -1.933   0.496  1.00  0.00     0.122 C 
BRANCH  42  43
HETATM   43  N3  UNL     1       7.625  -3.299   0.306  1.00  0.00    -0.367 N 
HETATM   44  C16 UNL     1       8.823  -3.749   0.391  1.00  0.00     0.196 C 
HETATM   45  N4  UNL     1       9.959  -2.948   0.688  1.00  0.00    -0.067 NA
HETATM   46  N5  UNL     1       9.032  -5.138   0.177  1.00  0.00    -0.067 NA
ATOM     47  H3  UNL     1       6.884  -3.965   0.087  1.00  0.00     0.161 HD
ENDBRANCH  42  43
ENDBRANCH  41  42
ENDBRANCH  40  41
ENDBRANCH   9  40
TORSDOF 17
