REMARK  16 active torsions:
REMARK  status: ('A' for Active; 'I' for Inactive)
REMARK    1  A    between atoms: C2_2  and  C3_3 
REMARK    2  A    between atoms: C3_3  and  C4_4 
REMARK    3  A    between atoms: C4_4  and  C5_5 
REMARK    4  A    between atoms: C7_10  and  C8_11 
REMARK    5  A    between atoms: C8_11  and  O2_12 
REMARK    6  A    between atoms: C11_19  and  C12_20 
REMARK    7  A    between atoms: C14_26  and  C15_27 
REMARK    8  A    between atoms: C15_27  and  C16_28 
REMARK    9  A    between atoms: C16_28  and  C17_29 
REMARK   10  A    between atoms: C17_29  and  C18_30 
REMARK   11  A    between atoms: C18_30  and  C19_31 
REMARK   12  A    between atoms: C19_31  and  C20_32 
REMARK   13  A    between atoms: C20_32  and  N4_33 
REMARK       I    between atoms: N4_33  and  C21_35 
REMARK   14  A    between atoms: C21_35  and  C22_37 
REMARK   15  A    between atoms: C22_37  and  C23_38 
REMARK   16  A    between atoms: C23_38  and  S1_39 
ROOT
HETATM    1  C5  UNL     1      -3.472   0.470   2.469  1.00  0.00     0.176 C 
HETATM    2  N1  UNL     1      -3.971   1.563   1.681  1.00  0.00    -0.346 N 
ATOM      3  H1  UNL     1      -3.634   2.485   1.958  1.00  0.00     0.163 HD
HETATM    4  C6  UNL     1      -4.851   1.555   0.589  1.00  0.00     0.243 C 
HETATM    5  O1  UNL     1      -5.897   2.299   0.682  1.00  0.00    -0.271 OA
HETATM    6  C7  UNL     1      -4.751   0.808  -0.671  1.00  0.00     0.200 C 
HETATM    7  N2  UNL     1      -3.530   0.938  -1.414  1.00  0.00    -0.346 N 
ATOM      8  H2  UNL     1      -3.218   0.076  -1.862  1.00  0.00     0.163 HD
HETATM    9  C9  UNL     1      -2.695   2.030  -1.633  1.00  0.00     0.220 C 
HETATM   10  O3  UNL     1      -1.634   1.809  -2.329  1.00  0.00    -0.274 OA
HETATM   11  C10 UNL     1      -2.802   3.428  -1.204  1.00  0.00     0.135 C 
HETATM   12  C11 UNL     1      -1.556   4.045  -0.656  1.00  0.00     0.154 C 
HETATM   13  N3  UNL     1      -0.416   3.180  -0.523  1.00  0.00    -0.348 N 
ATOM     14  H3  UNL     1       0.157   3.136  -1.366  1.00  0.00     0.163 HD
HETATM   15  C13 UNL     1       0.071   2.389   0.516  1.00  0.00     0.241 C 
HETATM   16  O5  UNL     1       1.212   2.749   1.019  1.00  0.00    -0.271 OA
HETATM   17  C14 UNL     1      -0.478   1.182   1.170  1.00  0.00     0.176 C 
HETATM   18  N5  UNL     1      -1.090   1.471   2.468  1.00  0.00    -0.346 N 
ATOM     19  H5  UNL     1      -0.696   2.256   2.987  1.00  0.00     0.163 HD
HETATM   20  C26 UNL     1      -2.144   0.801   3.076  1.00  0.00     0.241 C 
HETATM   21  O7  UNL     1      -2.011   0.411   4.270  1.00  0.00    -0.271 OA
ENDROOT
BRANCH  17  22
HETATM   22  C15 UNL     1       0.683   0.223   1.539  1.00  0.00     0.035 C 
BRANCH  22  23
HETATM   23  C16 UNL     1       1.469  -0.217   0.338  1.00  0.00     0.002 C 
BRANCH  23  24
HETATM   24  C17 UNL     1       0.681  -0.943  -0.682  1.00  0.00     0.000 C 
BRANCH  24  25
HETATM   25  C18 UNL     1       1.556  -1.363  -1.825  1.00  0.00     0.002 C 
BRANCH  25  26
HETATM   26  C19 UNL     1       2.184  -0.185  -2.491  1.00  0.00     0.020 C 
BRANCH  26  27
HETATM   27  C20 UNL     1       3.053  -0.586  -3.669  1.00  0.00     0.122 C 
BRANCH  27  28
HETATM   28  N4  UNL     1       4.124  -1.470  -3.285  1.00  0.00    -0.361 N 
HETATM   29  C21 UNL     1       5.146  -1.161  -2.365  1.00  0.00     0.218 C 
HETATM   30  O6  UNL     1       5.234  -0.061  -1.774  1.00  0.00    -0.274 OA
ATOM     31  H4  UNL     1       4.144  -2.395  -3.714  1.00  0.00     0.162 HD
BRANCH  29  32
HETATM   32  C22 UNL     1       6.190  -2.179  -2.064  1.00  0.00     0.112 C 
BRANCH  32  33
HETATM   33  C23 UNL     1       7.191  -1.666  -1.054  1.00  0.00     0.072 C 
BRANCH  33  34
HETATM   34  S1  UNL     1       6.408  -1.244   0.481  1.00  0.00    -0.228 SA
HETATM   35  C24 UNL     1       7.622  -0.650   1.629  1.00  0.00     0.078 C 
HETATM   36  C25 UNL     1       5.569  -2.611   1.198  1.00  0.00     0.078 C 
ENDBRANCH  33  34
ENDBRANCH  32  33
ENDBRANCH  29  32
ENDBRANCH  27  28
ENDBRANCH  26  27
ENDBRANCH  25  26
ENDBRANCH  24  25
ENDBRANCH  23  24
ENDBRANCH  22  23
ENDBRANCH  17  22
BRANCH  12  37
HETATM   37  C12 UNL     1      -1.872   4.881   0.532  1.00  0.00     0.256 C 
HETATM   38  O4  UNL     1      -1.174   4.832   1.516  1.00  0.00    -0.305 OA
ENDBRANCH  12  37
BRANCH   1  39
HETATM   39  C4  UNL     1      -3.534  -0.875   1.850  1.00  0.00     0.035 C 
BRANCH  39  40
HETATM   40  C3  UNL     1      -2.967  -1.883   2.844  1.00  0.00     0.002 C 
BRANCH  40  41
HETATM   41  C2  UNL     1      -3.010  -3.287   2.280  1.00  0.00    -0.004 C 
HETATM   42  C1  UNL     1      -4.408  -3.732   1.951  1.00  0.00     0.005 C 
ENDBRANCH  40  41
ENDBRANCH  39  40
ENDBRANCH   1  39
BRANCH   6  43
HETATM   43  C8  UNL     1      -5.868   1.209  -1.656  1.00  0.00     0.199 C 
BRANCH  43  44
HETATM   44  O2  UNL     1      -5.731   2.492  -2.118  1.00  0.00    -0.398 OA
ATOM     45  H2  UNL     1      -6.419   2.739  -2.725  1.00  0.00     0.209 HD
ENDBRANCH  43  44
ENDBRANCH   6  43
TORSDOF 16
