REMARK  20 active torsions:
REMARK  status: ('A' for Active; 'I' for Inactive)
REMARK    1  A    between atoms: C2_2  and  C3_3 
REMARK    2  A    between atoms: C5_5  and  C6_6 
REMARK    3  A    between atoms: C6_6  and  N1_8 
REMARK    4  A    between atoms: N1_8  and  C7_10 
REMARK    5  A    between atoms: C7_10  and  C8_11 
REMARK    6  A    between atoms: C7_10  and  C15_18 
REMARK    7  A    between atoms: C8_11  and  C9_12 
REMARK    8  A    between atoms: C15_18  and  O1_19 
REMARK    9  A    between atoms: C15_18  and  N2_21 
REMARK   10  A    between atoms: N2_21  and  C16_22 
REMARK   11  A    between atoms: N2_21  and  C21_31 
REMARK   12  A    between atoms: C16_22  and  C17_23 
REMARK   13  A    between atoms: C17_23  and  C18_24 
REMARK   14  A    between atoms: C18_24  and  C19_25 
REMARK   15  A    between atoms: C19_25  and  N3_26 
REMARK   16  A    between atoms: C21_31  and  C22_32 
REMARK       I    between atoms: N6_35  and  C23_36 
REMARK   17  A    between atoms: C23_36  and  C24_38 
REMARK   18  A    between atoms: C24_38  and  N7_39 
REMARK   19  A    between atoms: C24_38  and  C25_43 
REMARK   20  A    between atoms: C25_43  and  C26_44 
ROOT
HETATM    1  C7  UNL     1       0.554   1.071   0.422  1.00  0.00     0.157 C 
ENDROOT
BRANCH   1   2
HETATM    2  N1  UNL     1      -0.620   0.428   1.042  1.00  0.00    -0.371 N 
ATOM      3  H1  UNL     1      -1.105   0.940   1.779  1.00  0.00     0.161 HD
BRANCH   2   4
HETATM    4  C6  UNL     1      -1.121  -0.842   0.690  1.00  0.00     0.097 C 
HETATM    5  S1  UNL     1      -0.395  -1.727  -0.473  1.00  0.00    -0.063 SA
BRANCH   4   6
HETATM    6  C5  UNL     1      -2.297  -1.407   1.369  1.00  0.00     0.150 C 
HETATM    7  C4  UNL     1      -2.584  -2.795   0.846  1.00  0.00     0.057 C 
HETATM    8  C3  UNL     1      -4.019  -2.350   0.886  1.00  0.00     0.090 C 
HETATM    9  N6  UNL     1      -3.602  -0.976   1.042  1.00  0.00    -0.334 N 
HETATM   10  C23 UNL     1      -4.391   0.220   0.886  1.00  0.00     0.252 C 
HETATM   11  O4  UNL     1      -3.826   1.319   1.102  1.00  0.00    -0.271 OA
BRANCH   8  12
HETATM   12  C2  UNL     1      -4.670  -2.947   2.121  1.00  0.00     0.021 C 
HETATM   13  C1  UNL     1      -4.567  -4.451   1.993  1.00  0.00     0.007 C 
ENDBRANCH   8  12
BRANCH  10  14
HETATM   14  C24 UNL     1      -5.800   0.250   0.500  1.00  0.00     0.284 C 
BRANCH  14  15
HETATM   15  N7  UNL     1      -6.343   1.597   0.723  1.00  0.00    -0.066 N 
ATOM     16  H73 UNL     1      -6.200   1.916   1.681  1.00  0.00     0.275 HD
ATOM     17  H72 UNL     1      -5.798   2.315   0.246  1.00  0.00     0.275 HD
ATOM     18  H71 UNL     1      -7.327   1.618   0.454  1.00  0.00     0.275 HD
ENDBRANCH  14  15
BRANCH  14  19
HETATM   19  C25 UNL     1      -6.051  -0.005  -0.975  1.00  0.00     0.155 C 
BRANCH  19  20
HETATM   20  C26 UNL     1      -7.517   0.060  -1.197  1.00  0.00     0.175 C 
HETATM   21  O5  UNL     1      -8.015  -0.129  -2.338  1.00  0.00    -0.648 OA
HETATM   22  O6  UNL     1      -8.390   0.332  -0.157  1.00  0.00    -0.648 OA
ENDBRANCH  19  20
ENDBRANCH  14  19
ENDBRANCH  10  14
ENDBRANCH   4   6
ENDBRANCH   2   4
ENDBRANCH   1   2
BRANCH   1  23
HETATM   23  C8  UNL     1       0.359   1.315  -1.017  1.00  0.00     0.038 C 
BRANCH  23  24
HETATM   24  C9  UNL     1      -0.897   2.206  -1.223  1.00  0.00    -0.012 C 
HETATM   25  C10 UNL     1      -0.708   3.505  -0.513  1.00  0.00     0.005 C 
HETATM   26  C11 UNL     1      -1.550   4.549  -1.247  1.00  0.00     0.000 C 
HETATM   27  C12 UNL     1      -0.988   4.836  -2.605  1.00  0.00     0.000 C 
HETATM   28  C13 UNL     1      -0.246   3.618  -3.103  1.00  0.00     0.000 C 
HETATM   29  C14 UNL     1      -1.018   2.386  -2.721  1.00  0.00     0.005 C 
ENDBRANCH  23  24
ENDBRANCH   1  23
BRANCH   1  30
HETATM   30  C15 UNL     1       1.772   0.406   0.881  1.00  0.00     0.137 C 
BRANCH  30  31
HETATM   31  O1  UNL     1       1.539  -0.585   1.708  1.00  0.00    -0.348 OA
ATOM     32  H1  UNL     1       2.331  -1.017   2.006  1.00  0.00     0.219 HD
ENDBRANCH  30  31
BRANCH  30  33
HETATM   33  N2  UNL     1       3.135   0.614   0.625  1.00  0.00    -0.354 N 
BRANCH  33  34
HETATM   34  C16 UNL     1       4.112  -0.223   1.388  1.00  0.00     0.125 C 
BRANCH  34  35
HETATM   35  C17 UNL     1       4.460  -1.495   0.704  1.00  0.00     0.021 C 
BRANCH  35  36
HETATM   36  C18 UNL     1       5.415  -2.332   1.563  1.00  0.00     0.021 C 
BRANCH  36  37
HETATM   37  C19 UNL     1       6.695  -1.603   1.839  1.00  0.00     0.122 C 
BRANCH  37  38
HETATM   38  N3  UNL     1       7.392  -1.270   0.626  1.00  0.00    -0.367 N 
HETATM   39  C20 UNL     1       8.074  -2.137  -0.055  1.00  0.00     0.196 C 
HETATM   40  N4  UNL     1       8.752  -1.770  -1.255  1.00  0.00    -0.067 NA
HETATM   41  N5  UNL     1       8.143  -3.478   0.407  1.00  0.00    -0.067 NA
ATOM     42  H3  UNL     1       7.348  -0.309   0.286  1.00  0.00     0.161 HD
ENDBRANCH  37  38
ENDBRANCH  36  37
ENDBRANCH  35  36
ENDBRANCH  34  35
ENDBRANCH  33  34
BRANCH  33  43
HETATM   43  C21 UNL     1       3.710   1.563  -0.280  1.00  0.00     0.237 C 
BRANCH  43  44
HETATM   44  C22 UNL     1       3.934   1.071  -1.651  1.00  0.00     0.191 C 
HETATM   45  O2  UNL     1       4.612   1.837  -2.411  1.00  0.00    -0.647 OA
HETATM   46  O3  UNL     1       3.461  -0.123  -2.122  1.00  0.00    -0.647 OA
ENDBRANCH  43  44
ENDBRANCH  33  43
ENDBRANCH  30  33
ENDBRANCH   1  30
TORSDOF 20
