REMARK  18 active torsions:
REMARK  status: ('A' for Active; 'I' for Inactive)
REMARK    1  A    between atoms: C1_4  and  C2_5 
REMARK    2  A    between atoms: C1_4  and  N8_38 
REMARK    3  A    between atoms: C2_5  and  C3_6 
REMARK    4  A    between atoms: C6_12  and  N3_13 
REMARK       I    between atoms: N3_13  and  C7_15 
REMARK    5  A    between atoms: C7_15  and  C8_17 
REMARK    6  A    between atoms: C8_17  and  C9_18 
REMARK    7  A    between atoms: C9_18  and  C10_19 
REMARK    8  A    between atoms: C10_19  and  C11_20 
REMARK    9  A    between atoms: C11_20  and  C12_21 
REMARK   10  A    between atoms: C12_21  and  N4_22 
REMARK   11  A    between atoms: C14_27  and  C15_28 
REMARK   12  A    between atoms: C15_28  and  C16_29 
REMARK   13  A    between atoms: C16_29  and  C17_30 
REMARK   14  A    between atoms: C17_30  and  C18_31 
REMARK   15  A    between atoms: C18_31  and  C19_32 
REMARK   16  A    between atoms: C19_32  and  C20_33 
REMARK   17  A    between atoms: C20_33  and  N7_34 
REMARK       I    between atoms: N9_41  and  C23_42 
REMARK   18  A    between atoms: C23_42  and  C24_44 
ROOT
HETATM    1  C3  UNL     1       0.708   0.093  -0.050  1.00  0.00     0.012 C 
HETATM    2  C4  UNL     1       1.550   0.213  -1.257  1.00  0.00     0.109 C 
HETATM    3  C5  UNL     1       1.081  -0.879  -2.190  1.00  0.00     0.223 C 
HETATM    4  O1  UNL     1       1.880  -1.260  -3.082  1.00  0.00    -0.273 OA
HETATM    5  N2  UNL     1      -0.213  -1.419  -2.027  1.00  0.00    -0.316 N 
ATOM      6  H2  UNL     1      -0.455  -2.252  -2.563  1.00  0.00     0.170 HD
HETATM    7  C6  UNL     1      -1.129  -0.911  -1.223  1.00  0.00     0.090 C 
HETATM    8  C14 UNL     1      -0.744   0.305  -0.427  1.00  0.00     0.058 C 
ENDROOT
BRANCH   1   9
HETATM    9  C2  UNL     1       1.145   0.701   1.214  1.00  0.00     0.081 C 
BRANCH   9  10
HETATM   10  C1  UNL     1       2.405   0.146   1.730  1.00  0.00     0.073 C 
HETATM   11  N1  UNL     1       2.380  -0.644   2.803  1.00  0.00    -0.389 N 
ATOM     12  H12 UNL     1       1.437  -0.782   3.166  1.00  0.00     0.157 HD
ATOM     13  H11 UNL     1       3.254  -1.029   3.161  1.00  0.00     0.157 HD
BRANCH  10  14
HETATM   14  N8  UNL     1       3.709   0.337   1.228  1.00  0.00    -0.368 N 
HETATM   15  C21 UNL     1       4.546  -0.852   0.944  1.00  0.00     0.144 C 
HETATM   16  C22 UNL     1       5.620  -0.445  -0.058  1.00  0.00     0.145 C 
HETATM   17  N9  UNL     1       6.446   0.514   0.628  1.00  0.00    -0.347 N 
HETATM   18  C23 UNL     1       7.858   0.422   0.619  1.00  0.00     0.250 C 
HETATM   19  C28 UNL     1       5.785   1.591   1.350  1.00  0.00     0.145 C 
HETATM   20  O3  UNL     1       8.551   1.322   1.204  1.00  0.00    -0.271 OA
HETATM   21  C29 UNL     1       4.312   1.625   0.982  1.00  0.00     0.144 C 
BRANCH  18  22
HETATM   22  C24 UNL     1       8.540  -0.699  -0.060  1.00  0.00     0.277 C 
HETATM   23  C25 UNL     1       8.389  -1.960   0.772  1.00  0.00     0.044 C 
HETATM   24  C26 UNL     1       9.507  -1.833   1.780  1.00  0.00     0.030 C 
HETATM   25  C27 UNL     1      10.543  -0.986   1.118  1.00  0.00     0.233 C 
HETATM   26  N10 UNL     1       9.965  -0.435  -0.064  1.00  0.00    -0.062 N 
ATOM     27 2H10 UNL     1      10.420  -0.772  -0.912  1.00  0.00     0.278 HD
ATOM     28 1H10 UNL     1      10.176   0.557  -0.173  1.00  0.00     0.278 HD
ENDBRANCH  18  22
ENDBRANCH  10  14
ENDBRANCH   9  10
ENDBRANCH   1   9
BRANCH   8  29
HETATM   29  C15 UNL     1      -1.033   1.473  -1.284  1.00  0.00     0.013 C 
BRANCH  29  30
HETATM   30  C16 UNL     1      -0.683   2.820  -0.755  1.00  0.00     0.001 C 
BRANCH  30  31
HETATM   31  C17 UNL     1      -1.079   3.907  -1.805  1.00  0.00     0.000 C 
BRANCH  31  32
HETATM   32  C18 UNL     1      -0.691   5.228  -1.218  1.00  0.00     0.002 C 
BRANCH  32  33
HETATM   33  C19 UNL     1      -0.902   6.443  -2.016  1.00  0.00     0.027 C 
BRANCH  33  34
HETATM   34  C20 UNL     1      -2.289   6.789  -2.425  1.00  0.00     0.229 C 
BRANCH  34  35
HETATM   35  N7  UNL     1      -2.924   5.841  -3.277  1.00  0.00    -0.079 N 
ATOM     36  H73 UNL     1      -2.348   5.668  -4.101  1.00  0.00     0.274 HD
ATOM     37  H72 UNL     1      -2.905   4.916  -2.848  1.00  0.00     0.274 HD
ATOM     38  H71 UNL     1      -3.875   6.078  -3.558  1.00  0.00     0.274 HD
ENDBRANCH  34  35
ENDBRANCH  33  34
ENDBRANCH  32  33
ENDBRANCH  31  32
ENDBRANCH  30  31
ENDBRANCH  29  30
ENDBRANCH   8  29
BRANCH   7  39
HETATM   39  N3  UNL     1      -2.361  -1.567  -1.181  1.00  0.00    -0.316 N 
HETATM   40  C7  UNL     1      -3.516  -1.266  -0.451  1.00  0.00     0.223 C 
HETATM   41  O2  UNL     1      -3.606  -0.300   0.309  1.00  0.00    -0.273 OA
ATOM     42  H3  UNL     1      -2.429  -2.394  -1.774  1.00  0.00     0.170 HD
BRANCH  40  43
HETATM   43  C8  UNL     1      -4.734  -2.144  -0.574  1.00  0.00     0.103 C 
BRANCH  43  44
HETATM   44  C9  UNL     1      -5.871  -1.575   0.205  1.00  0.00     0.009 C 
BRANCH  44  45
HETATM   45  C10 UNL     1      -7.113  -2.404   0.130  1.00  0.00     0.002 C 
BRANCH  45  46
HETATM   46  C11 UNL     1      -6.944  -3.807   0.683  1.00  0.00     0.020 C 
BRANCH  46  47
HETATM   47  C12 UNL     1      -8.259  -4.550   0.551  1.00  0.00     0.122 C 
BRANCH  47  48
HETATM   48  N4  UNL     1      -9.320  -3.902   1.264  1.00  0.00    -0.367 N 
HETATM   49  C13 UNL     1     -10.327  -4.448   1.817  1.00  0.00     0.196 C 
HETATM   50  N5  UNL     1     -11.276  -3.630   2.480  1.00  0.00    -0.067 NA
HETATM   51  N6  UNL     1     -10.476  -5.856   1.761  1.00  0.00    -0.067 NA
ATOM     52  H4  UNL     1      -9.261  -2.886   1.336  1.00  0.00     0.161 HD
ENDBRANCH  47  48
ENDBRANCH  46  47
ENDBRANCH  45  46
ENDBRANCH  44  45
ENDBRANCH  43  44
ENDBRANCH  40  43
ENDBRANCH   7  39
TORSDOF 18
