REMARK  13 active torsions:
REMARK  status: ('A' for Active; 'I' for Inactive)
REMARK    1  A    between atoms: C2_2  and  C3_4 
REMARK    2  A    between atoms: C7_10  and  C8_11 
REMARK    3  A    between atoms: C8_11  and  O4_12 
REMARK    4  A    between atoms: O4_12  and  C9_13 
REMARK    5  A    between atoms: C9_13  and  C10_15 
REMARK    6  A    between atoms: C10_15  and  C11_16 
REMARK    7  A    between atoms: C11_16  and  C12_17 
REMARK    8  A    between atoms: C12_17  and  O6_18 
REMARK    9  A    between atoms: O6_18  and  S1_19 
REMARK   10  A    between atoms: S1_19  and  C13_22 
REMARK   11  A    between atoms: C14_26  and  C15_27 
REMARK   12  A    between atoms: C18_31  and  O9_32 
REMARK   13  A    between atoms: C19_34  and  O10_36 
ROOT
HETATM    1  C3  UNL     1      -1.290  -1.148   0.145  1.00  0.00     0.190 C 
HETATM    2  O2  UNL     1      -1.960  -1.346   1.358  1.00  0.00    -0.331 OA
HETATM    3  C4  UNL     1      -1.960  -0.181   2.071  1.00  0.00     0.160 C 
HETATM    4  C5  UNL     1      -1.195  -0.365   3.394  1.00  0.00     0.078 C 
HETATM    5  C6  UNL     1      -3.401   0.043   2.555  1.00  0.00     0.078 C 
HETATM    6  O3  UNL     1      -1.480   0.835   1.291  1.00  0.00    -0.338 OA
HETATM    7  C7  UNL     1      -1.072   0.320   0.076  1.00  0.00     0.137 C 
HETATM    8  C14 UNL     1      -2.088   0.740  -1.028  1.00  0.00     0.082 C 
HETATM    9  C18 UNL     1      -3.086  -0.316  -1.169  1.00  0.00     0.166 C 
HETATM   10  C19 UNL     1      -2.228  -1.576  -0.929  1.00  0.00     0.122 C 
HETATM   11  C20 UNL     1      -1.609  -1.937  -2.238  1.00  0.00     0.052 C 
ENDROOT
BRANCH   7  12
HETATM   12  C8  UNL     1       0.236   0.787  -0.442  1.00  0.00     0.221 C 
BRANCH  12  13
HETATM   13  O4  UNL     1       1.384   0.649   0.284  1.00  0.00    -0.318 OA
BRANCH  13  14
HETATM   14  C9  UNL     1       1.817   1.245   1.429  1.00  0.00     0.258 C 
HETATM   15  O5  UNL     1       0.993   2.111   1.913  1.00  0.00    -0.265 OA
BRANCH  14  16
HETATM   16  C10 UNL     1       3.107   0.987   2.126  1.00  0.00     0.113 C 
BRANCH  16  17
HETATM   17  C11 UNL     1       4.295   1.538   1.364  1.00  0.00     0.037 C 
BRANCH  17  18
HETATM   18  C12 UNL     1       4.419   0.864   0.007  1.00  0.00     0.191 C 
BRANCH  18  19
HETATM   19  O6  UNL     1       4.572  -0.490   0.279  1.00  0.00    -0.269 OA
BRANCH  19  20
HETATM   20  S1  UNL     1       4.725  -1.387  -1.126  1.00  0.00     0.369 S 
HETATM   21  O7  UNL     1       3.969  -0.800  -2.278  1.00  0.00    -0.189 OA
HETATM   22  O8  UNL     1       4.104  -2.742  -0.819  1.00  0.00    -0.189 OA
BRANCH  20  23
HETATM   23  C13 UNL     1       6.433  -1.606  -1.579  1.00  0.00     0.523 C 
HETATM   24  F1  UNL     1       6.507  -2.344  -2.737  1.00  0.00    -0.155 F 
HETATM   25  F2  UNL     1       7.016  -0.380  -1.790  1.00  0.00    -0.155 F 
HETATM   26  F3  UNL     1       7.080  -2.213  -0.529  1.00  0.00    -0.155 F 
ENDBRANCH  20  23
ENDBRANCH  19  20
ENDBRANCH  18  19
ENDBRANCH  17  18
ENDBRANCH  16  17
ENDBRANCH  14  16
ENDBRANCH  13  14
ENDBRANCH  12  13
ENDBRANCH   7  12
BRANCH   1  27
HETATM   27  C2  UNL     1      -0.049  -1.947   0.197  1.00  0.00     0.164 C 
HETATM   28  C1  UNL     1       0.363  -2.757   1.351  1.00  0.00     0.094 C 
HETATM   29  O1  UNL     1       0.681  -1.940  -0.769  1.00  0.00    -0.295 OA
ENDBRANCH   1  27
BRANCH   8  30
HETATM   30  C15 UNL     1      -2.487   2.127  -0.892  1.00  0.00     0.003 C 
HETATM   31  C16 UNL     1      -3.639   2.723  -0.880  1.00  0.00     0.004 C 
HETATM   32  C17 UNL     1      -3.730   4.206  -0.716  1.00  0.00     0.061 C 
HETATM   33 CL1  UNL     1      -5.137   1.865  -1.068  1.00  0.00    -0.090 Cl
ENDBRANCH   8  30
BRANCH  10  34
HETATM   34  O10 UNL     1      -3.146  -2.541  -0.500  1.00  0.00    -0.384 OA
ATOM     35  H10 UNL     1      -3.745  -2.814  -1.185  1.00  0.00     0.210 HD
ENDBRANCH  10  34
BRANCH   9  36
HETATM   36  O9  UNL     1      -3.493  -0.345  -2.532  1.00  0.00    -0.392 OA
ATOM     37  H9  UNL     1      -4.142  -1.032  -2.624  1.00  0.00     0.210 HD
ENDBRANCH   9  36
TORSDOF 13
