REMARK  12 active torsions:
REMARK  status: ('A' for Active; 'I' for Inactive)
REMARK    1  A    between atoms: O1_2  and  C2_3 
REMARK    2  A    between atoms: C2_3  and  C3_4 
REMARK    3  A    between atoms: C3_4  and  O2_5 
REMARK    4  A    between atoms: O2_5  and  C4_6 
REMARK    5  A    between atoms: C5_8  and  O4_9 
REMARK    6  A    between atoms: O4_9  and  C6_10 
REMARK    7  A    between atoms: C6_10  and  C7_12 
REMARK    8  A    between atoms: C11_19  and  O6_20 
REMARK    9  A    between atoms: C12_22  and  O7_23 
REMARK   10  A    between atoms: C14_27  and  C15_28 
REMARK   11  A    between atoms: C15_28  and  C16_29 
REMARK   12  A    between atoms: C16_29  and  C17_30 
ROOT
HETATM    1  C4  UNL     1      -2.589  -0.386   0.625  1.00  0.00     0.295 C 
HETATM    2  O3  UNL     1      -3.431  -0.779   1.673  1.00  0.00    -0.325 OA
HETATM    3  C5  UNL     1      -4.246  -1.845   1.332  1.00  0.00     0.297 C 
HETATM    4  C8  UNL     1      -3.479  -3.105   1.049  1.00  0.00     0.030 C 
HETATM    5  C9  UNL     1      -2.384  -3.319   0.355  1.00  0.00    -0.016 C 
HETATM    6  C10 UNL     1      -1.564  -2.329  -0.375  1.00  0.00     0.075 C 
HETATM    7  C11 UNL     1      -0.362  -2.875  -1.021  1.00  0.00     0.160 C 
HETATM    8  C12 UNL     1       0.932  -2.603  -0.350  1.00  0.00     0.190 C 
HETATM    9  C13 UNL     1       1.143  -1.174   0.054  1.00  0.00     0.157 C 
HETATM   10  O8  UNL     1       1.989  -1.167   1.191  1.00  0.00    -0.363 OA
HETATM   11  C14 UNL     1       3.081  -0.876   0.377  1.00  0.00     0.130 C 
HETATM   12  C20 UNL     1       2.188  -0.464  -0.734  1.00  0.00     0.056 C 
HETATM   13  C21 UNL     1       2.020   0.982  -1.019  1.00  0.00     0.016 C 
HETATM   14  C22 UNL     1      -0.088  -0.458   0.401  1.00  0.00     0.193 C 
HETATM   15  O9  UNL     1      -0.072   0.737   0.527  1.00  0.00    -0.292 OA
HETATM   16  C23 UNL     1      -1.339  -1.189   0.596  1.00  0.00     0.159 C 
HETATM   17 CL1  UNL     1      -1.200  -1.928   2.247  1.00  0.00    -0.104 Cl
ENDROOT
BRANCH   8  18
HETATM   18  O7  UNL     1       1.964  -2.959  -1.219  1.00  0.00    -0.389 OA
ATOM     19  H7  UNL     1       2.793  -2.785  -0.789  1.00  0.00     0.210 HD
ENDBRANCH   8  18
BRANCH   7  20
HETATM   20  O6  UNL     1      -0.504  -4.276  -1.111  1.00  0.00    -0.392 OA
ATOM     21  H6  UNL     1       0.273  -4.629  -1.529  1.00  0.00     0.210 HD
ENDBRANCH   7  20
BRANCH  11  22
HETATM   22  C15 UNL     1       3.938   0.156   1.023  1.00  0.00     0.033 C 
BRANCH  22  23
HETATM   23  C16 UNL     1       5.152   0.558   0.249  1.00  0.00     0.006 C 
BRANCH  23  24
HETATM   24  C17 UNL     1       5.882   1.605   1.065  1.00  0.00    -0.023 C 
HETATM   25  C18 UNL     1       7.115   2.025   0.299  1.00  0.00     0.009 C 
HETATM   26  C19 UNL     1       4.989   2.804   1.297  1.00  0.00     0.009 C 
ENDBRANCH  23  24
ENDBRANCH  22  23
ENDBRANCH  11  22
BRANCH   1  27
HETATM   27  O2  UNL     1      -2.448   0.982   0.674  1.00  0.00    -0.357 OA
BRANCH  27  28
HETATM   28  C3  UNL     1      -3.078   1.627  -0.380  1.00  0.00     0.197 C 
BRANCH  28  29
HETATM   29  C2  UNL     1      -2.947   3.125  -0.289  1.00  0.00     0.193 C 
BRANCH  29  30
HETATM   30  O1  UNL     1      -1.635   3.576  -0.306  1.00  0.00    -0.394 OA
HETATM   31  C1  UNL     1      -1.641   4.967  -0.218  1.00  0.00     0.201 C 
ENDBRANCH  29  30
ENDBRANCH  28  29
ENDBRANCH  27  28
ENDBRANCH   1  27
BRANCH   3  32
HETATM   32  O4  UNL     1      -5.027  -1.591   0.187  1.00  0.00    -0.279 OA
BRANCH  32  33
HETATM   33  C6  UNL     1      -6.408  -1.627   0.313  1.00  0.00     0.370 C 
HETATM   34  O5  UNL     1      -6.938  -1.885   1.448  1.00  0.00    -0.255 OA
BRANCH  33  35
HETATM   35  C7  UNL     1      -7.288  -1.368  -0.855  1.00  0.00     0.479 C 
HETATM   36  F1  UNL     1      -7.062  -0.096  -1.375  1.00  0.00    -0.162 F 
HETATM   37  F2  UNL     1      -8.607  -1.396  -0.460  1.00  0.00    -0.162 F 
HETATM   38  F3  UNL     1      -7.112  -2.354  -1.796  1.00  0.00    -0.162 F 
ENDBRANCH  33  35
ENDBRANCH  32  33
ENDBRANCH   3  32
TORSDOF 12
