REMARK  10 active torsions:
REMARK  status: ('A' for Active; 'I' for Inactive)
REMARK    1  A    between atoms: C2_2  and  O1_3 
REMARK    2  A    between atoms: O1_3  and  C3_4 
REMARK    3  A    between atoms: C4_5  and  O2_6 
REMARK    4  A    between atoms: C5_8  and  O3_9 
REMARK    5  A    between atoms: O3_9  and  C6_10 
REMARK    6  A    between atoms: C6_10  and  C7_11 
REMARK    7  A    between atoms: C7_11  and  N1_12 
REMARK    8  A    between atoms: N2_15  and  C10_16 
REMARK    9  A    between atoms: C11_19  and  C12_20 
REMARK   10  A    between atoms: C15_29  and  N7_30 
ROOT
HETATM    1  C10 UNL     1       2.389   0.342  -0.110  1.00  0.00     0.696 A 
HETATM    2  N3  UNL     1       2.532   1.474  -0.816  1.00  0.00    -0.175 N 
ATOM      3  H3  UNL     1       1.693   1.949  -1.148  1.00  0.00     0.186 HD
HETATM    4  C11 UNL     1       3.727   2.011  -1.106  1.00  0.00     0.149 A 
HETATM    5  N6  UNL     1       4.821   1.372  -0.661  1.00  0.00    -0.175 N 
ATOM      6  H6  UNL     1       5.740   1.762  -0.870  1.00  0.00     0.186 HD
HETATM    7  C15 UNL     1       4.743   0.228   0.056  1.00  0.00     0.696 A 
HETATM    8  N8  UNL     1       3.526  -0.254   0.311  1.00  0.00    -0.022 N 
ATOM      9  H8  UNL     1       3.450  -1.116   0.851  1.00  0.00     0.203 HD
ENDROOT
BRANCH   1  10
HETATM   10  N2  UNL     1       1.107  -0.195   0.188  1.00  0.00    -0.211 N 
HETATM   11  C9  UNL     1      -0.078   0.560  -0.135  1.00  0.00     0.186 C 
HETATM   12  C8  UNL     1      -1.335  -0.202   0.181  1.00  0.00     0.084 C 
HETATM   13  N1  UNL     1      -1.318  -0.800   1.439  1.00  0.00    -0.365 N 
HETATM   14  C23 UNL     1      -0.057  -1.276   1.942  1.00  0.00     0.147 C 
HETATM   15  C22 UNL     1       0.951  -1.477   0.804  1.00  0.00     0.161 C 
BRANCH  13  16
HETATM   16  C7  UNL     1      -2.411  -1.537   1.915  1.00  0.00     0.114 C 
BRANCH  16  17
HETATM   17  C6  UNL     1      -3.676  -0.873   2.254  1.00  0.00     0.152 C 
BRANCH  17  18
HETATM   18  O3  UNL     1      -4.453  -0.249   1.346  1.00  0.00    -0.351 OA
BRANCH  18  19
HETATM   19  C5  UNL     1      -5.046  -1.026   0.373  1.00  0.00     0.199 C 
HETATM   20  C4  UNL     1      -6.574  -1.042   0.582  1.00  0.00     0.185 C 
HETATM   21  C3  UNL     1      -7.192  -0.371  -0.611  1.00  0.00     0.227 C 
HETATM   22  C25 UNL     1      -6.199  -0.703  -1.714  1.00  0.00     0.304 C 
HETATM   23  C24 UNL     1      -4.890  -0.429  -0.979  1.00  0.00     0.276 C 
HETATM   24  F2  UNL     1      -6.366   0.140  -2.791  1.00  0.00    -0.200 F 
HETATM   25  F3  UNL     1      -6.324  -1.996  -2.120  1.00  0.00    -0.200 F 
HETATM   26  F1  UNL     1      -4.791   0.970  -0.931  1.00  0.00    -0.240 F 
BRANCH  20  27
HETATM   27  O2  UNL     1      -6.977  -2.372   0.556  1.00  0.00    -0.390 OA
ATOM     28  H2  UNL     1      -6.586  -2.796   1.311  1.00  0.00     0.210 HD
ENDBRANCH  20  27
BRANCH  21  29
HETATM   29  O1  UNL     1      -7.255   1.004  -0.412  1.00  0.00    -0.377 OA
BRANCH  29  30
HETATM   30  C2  UNL     1      -8.568   1.459  -0.534  1.00  0.00     0.164 C 
HETATM   31  C1  UNL     1      -8.686   2.934  -0.326  1.00  0.00     0.033 C 
ENDBRANCH  29  30
ENDBRANCH  21  29
ENDBRANCH  18  19
ENDBRANCH  17  18
ENDBRANCH  16  17
ENDBRANCH  13  16
ENDBRANCH   1  10
BRANCH   4  32
HETATM   32  C12 UNL     1       3.791   3.242  -1.881  1.00  0.00     0.043 A 
HETATM   33  C13 UNL     1       2.733   3.962  -2.383  1.00  0.00     0.123 A 
HETATM   34  N4  UNL     1       3.222   5.042  -3.044  1.00  0.00    -0.311 N 
HETATM   35  N5  UNL     1       4.562   5.030  -2.976  1.00  0.00    -0.311 N 
ATOM     36  H4  UNL     1       2.660   5.750  -3.517  1.00  0.00     0.186 HD
HETATM   37  C14 UNL     1       4.917   3.944  -2.275  1.00  0.00     0.123 A 
ATOM     38  H5  UNL     1       5.194   5.720  -3.383  1.00  0.00     0.186 HD
ENDBRANCH   4  32
BRANCH   7  39
HETATM   39  N7  UNL     1       5.936  -0.415   0.514  1.00  0.00    -0.217 N 
HETATM   40  C16 UNL     1       7.228   0.149   0.185  1.00  0.00     0.141 C 
HETATM   41  C17 UNL     1       8.359  -0.733   0.667  1.00  0.00     0.025 C 
HETATM   42  C18 UNL     1       8.116  -2.186   0.319  1.00  0.00    -0.007 A 
HETATM   43  C19 UNL     1       8.026  -3.093   1.528  1.00  0.00     0.011 A 
HETATM   44  C20 UNL     1       6.809  -2.695   0.778  1.00  0.00     0.009 A 
HETATM   45  C21 UNL     1       5.897  -1.611   1.298  1.00  0.00     0.146 C 
ENDBRANCH   7  39
TORSDOF 10
