REMARK  15 active torsions:
REMARK  status: ('A' for Active; 'I' for Inactive)
REMARK    1  A    between atoms: C2_2  and  C3_3 
REMARK    2  A    between atoms: C2_2  and  C4_6 
REMARK    3  A    between atoms: C3_3  and  O1_4 
REMARK    4  A    between atoms: C4_6  and  C5_7 
REMARK    5  A    between atoms: C5_7  and  C6_8 
REMARK    6  A    between atoms: C6_8  and  C7_9 
REMARK    7  A    between atoms: C7_9  and  N1_10 
REMARK       I    between atoms: N1_10  and  C8_12 
REMARK    8  A    between atoms: C8_12  and  C9_14 
REMARK    9  A    between atoms: N2_17  and  C12_18 
REMARK   10  A    between atoms: C13_19  and  C14_20 
REMARK   11  A    between atoms: N3_23  and  C17_24 
REMARK   12  A    between atoms: C17_24  and  C18_25 
REMARK   13  A    between atoms: C18_25  and  N4_26 
REMARK   14  A    between atoms: C21_29  and  C22_30 
REMARK   15  A    between atoms: N5_31  and  N6_33 
ROOT
HETATM    1  C12 UNL     1       0.649   0.044   1.113  1.00  0.00     0.118 C 
HETATM    2  C13 UNL     1       1.285   0.486   0.064  1.00  0.00     0.030 C 
ENDROOT
BRANCH   2   3
HETATM    3  C14 UNL     1       2.685   0.187  -0.180  1.00  0.00    -0.032 A 
HETATM    4  C15 UNL     1       3.295   0.700  -1.332  1.00  0.00     0.028 A 
HETATM    5  C16 UNL     1       4.622   0.440  -1.602  1.00  0.00     0.091 A 
HETATM    6  N3  UNL     1       5.387  -0.297  -0.805  1.00  0.00    -0.365 N 
HETATM    7  C23 UNL     1       4.829  -0.802   0.305  1.00  0.00     0.091 A 
HETATM    8  C24 UNL     1       3.486  -0.574   0.636  1.00  0.00     0.028 A 
BRANCH   6   9
HETATM    9  C17 UNL     1       6.764  -0.574  -1.073  1.00  0.00     0.149 C 
BRANCH   9  10
HETATM   10  C18 UNL     1       7.708   0.430  -0.494  1.00  0.00     0.168 C 
BRANCH  10  11
HETATM   11  N4  UNL     1       9.069  -0.003  -0.860  1.00  0.00    -0.301 N 
HETATM   12  C19 UNL     1       9.830  -0.816  -0.121  1.00  0.00     0.112 A 
HETATM   13  C20 UNL     1      11.021  -0.971  -0.810  1.00  0.00     0.051 A 
HETATM   14  C21 UNL     1      10.972  -0.240  -1.977  1.00  0.00     0.066 A 
HETATM   15  N8  UNL     1       9.726   0.340  -1.947  1.00  0.00    -0.298 N 
ATOM     16  H8  UNL     1       9.359   0.956  -2.673  1.00  0.00     0.187 HD
BRANCH  14  17
HETATM   17  C22 UNL     1      11.950  -0.070  -3.033  1.00  0.00     0.139 C 
HETATM   18  N5  UNL     1      13.082  -0.601  -3.055  1.00  0.00    -0.296 N 
ATOM     19  H5  UNL     1      13.635  -0.367  -3.880  1.00  0.00     0.187 HD
BRANCH  18  20
HETATM   20  N6  UNL     1      13.716  -1.437  -2.179  1.00  0.00    -0.250 N 
HETATM   21  N7  UNL     1      13.873  -2.670  -2.494  1.00  0.00    -0.331 N 
ATOM     22  H72 UNL     1      13.523  -3.007  -3.391  1.00  0.00     0.178 HD
ATOM     23  H71 UNL     1      14.346  -3.294  -1.840  1.00  0.00     0.178 HD
ATOM     24  H6  UNL     1      14.060  -1.084  -1.286  1.00  0.00     0.207 HD
ENDBRANCH  18  20
ENDBRANCH  14  17
ENDBRANCH  10  11
ENDBRANCH   9  10
ENDBRANCH   6   9
ENDBRANCH   2   3
BRANCH   1  25
HETATM   25  N2  UNL     1      -0.712   0.364   1.303  1.00  0.00    -0.264 N 
HETATM   26  C11 UNL     1      -1.497   0.486   0.312  1.00  0.00     0.119 A 
HETATM   27  C10 UNL     1      -2.907   0.819   0.526  1.00  0.00     0.056 A 
HETATM   28  C9  UNL     1      -3.411   1.002   1.718  1.00  0.00     0.118 A 
HETATM   29  N10 UNL     1      -2.500   0.857   2.816  1.00  0.00    -0.281 N 
HETATM   30  N9  UNL     1      -1.182   0.545   2.597  1.00  0.00    -0.236 N 
ATOM     31  H10 UNL     1      -2.836   0.987   3.770  1.00  0.00     0.188 HD
ATOM     32  H9  UNL     1      -0.545   0.446   3.388  1.00  0.00     0.209 HD
BRANCH  28  33
HETATM   33  C8  UNL     1      -4.804   1.334   1.983  1.00  0.00     0.269 C 
HETATM   34  N1  UNL     1      -5.731   1.486   0.955  1.00  0.00    -0.356 N 
ATOM     35  H1  UNL     1      -5.386   1.362   0.003  1.00  0.00     0.162 HD
HETATM   36  O2  UNL     1      -5.149   1.481   3.183  1.00  0.00    -0.266 OA
BRANCH  34  37
HETATM   37  C7  UNL     1      -7.145   1.805   1.103  1.00  0.00     0.123 C 
BRANCH  37  38
HETATM   38  C6  UNL     1      -7.813   0.688   1.860  1.00  0.00     0.020 C 
BRANCH  38  39
HETATM   39  C5  UNL     1      -7.668  -0.583   1.132  1.00  0.00     0.002 C 
BRANCH  39  40
HETATM   40  C4  UNL     1      -8.284  -0.787  -0.184  1.00  0.00     0.006 C 
BRANCH  40  41
HETATM   41  C2  UNL     1      -9.745  -0.809  -0.337  1.00  0.00     0.005 C 
HETATM   42  C1  UNL     1     -10.405  -1.882   0.530  1.00  0.00     0.012 C 
BRANCH  41  43
HETATM   43  C3  UNL     1     -10.536   0.437  -0.261  1.00  0.00     0.168 C 
BRANCH  43  44
HETATM   44  O1  UNL     1     -10.027   1.472  -1.041  1.00  0.00    -0.400 OA
ATOM     45  H1  UNL     1     -10.535   2.273  -0.992  1.00  0.00     0.209 HD
ENDBRANCH  43  44
ENDBRANCH  41  43
ENDBRANCH  40  41
ENDBRANCH  39  40
ENDBRANCH  38  39
ENDBRANCH  37  38
ENDBRANCH  34  37
ENDBRANCH  28  33
ENDBRANCH   1  25
TORSDOF 15
