REMARK  16 active torsions:
REMARK  status: ('A' for Active; 'I' for Inactive)
REMARK    1  A    between atoms: C2_2  and  C3_3 
REMARK    2  A    between atoms: N2_6  and  C4_7 
REMARK    3  A    between atoms: C4_7  and  C5_8 
REMARK    4  A    between atoms: C12_15  and  C13_16 
REMARK    5  A    between atoms: C13_16  and  C14_17 
REMARK    6  A    between atoms: C14_17  and  C15_18 
REMARK    7  A    between atoms: C15_18  and  N3_19 
REMARK    8  A    between atoms: C15_18  and  C22_32 
REMARK    9  A    between atoms: N3_19  and  C16_21 
REMARK   10  A    between atoms: C16_21  and  C17_22 
REMARK       I    between atoms: C17_22  and  N4_24 
REMARK   11  A    between atoms: N4_24  and  C18_25 
REMARK   12  A    between atoms: C22_32  and  C23_36 
REMARK   13  A    between atoms: C23_36  and  C24_37 
REMARK   14  A    between atoms: C24_37  and  C25_38 
REMARK   15  A    between atoms: C25_38  and  N8_39 
REMARK   16  A    between atoms: N8_39  and  N9_41 
ROOT
HETATM    1  C15 UNL     1      -1.334   0.421   0.880  1.00  0.00     0.122 C 
ENDROOT
BRANCH   1   2
HETATM    2  C14 UNL     1       0.074   0.161   0.384  1.00  0.00     0.035 C 
BRANCH   2   3
HETATM    3  C13 UNL     1       0.312  -1.264   0.051  1.00  0.00     0.044 C 
BRANCH   3   4
HETATM    4  C12 UNL     1       1.647  -1.640  -0.417  1.00  0.00    -0.017 A 
HETATM    5  C3  UNL     1       2.210  -1.548  -1.657  1.00  0.00     0.033 A 
HETATM    6  N1  UNL     1       3.495  -2.029  -1.607  1.00  0.00    -0.302 N 
HETATM    7  N2  UNL     1       3.725  -2.409  -0.369  1.00  0.00    -0.298 N 
ATOM      8  H1  UNL     1       4.151  -2.082  -2.387  1.00  0.00     0.186 HD
HETATM    9  C11 UNL     1       2.657  -2.203   0.397  1.00  0.00     0.119 A 
BRANCH   5  10
HETATM   10  C2  UNL     1       1.638  -1.038  -2.906  1.00  0.00     0.055 C 
HETATM   11  C1  UNL     1       1.716   0.450  -2.979  1.00  0.00     0.011 C 
ENDBRANCH   5  10
BRANCH   7  12
HETATM   12  C4  UNL     1       4.964  -2.980   0.126  1.00  0.00     0.186 C 
BRANCH  12  13
HETATM   13  C5  UNL     1       5.914  -1.948   0.627  1.00  0.00    -0.038 A 
HETATM   14  C6  UNL     1       5.874  -1.551   1.948  1.00  0.00     0.009 A 
HETATM   15  C7  UNL     1       6.718  -0.605   2.495  1.00  0.00     0.001 A 
HETATM   16  C8  UNL     1       7.650  -0.034   1.653  1.00  0.00     0.000 A 
HETATM   17  C9  UNL     1       7.701  -0.424   0.324  1.00  0.00     0.001 A 
HETATM   18  C10 UNL     1       6.848  -1.369  -0.196  1.00  0.00     0.009 A 
ENDBRANCH  12  13
ENDBRANCH   7  12
ENDBRANCH   3   4
ENDBRANCH   2   3
ENDBRANCH   1   2
BRANCH   1  19
HETATM   19  N3  UNL     1      -2.396   0.118   0.041  1.00  0.00    -0.403 N 
ATOM     20  H3  UNL     1      -3.060  -0.599   0.333  1.00  0.00     0.154 HD
BRANCH  19  21
HETATM   21  C16 UNL     1      -2.595   0.755  -1.191  1.00  0.00     0.234 C 
BRANCH  21  22
HETATM   22  C17 UNL     1      -3.827   0.109  -1.835  1.00  0.00     0.311 C 
HETATM   23  O1  UNL     1      -4.143   0.581  -2.990  1.00  0.00    -0.255 OA
HETATM   24  N4  UNL     1      -4.522  -0.846  -1.280  1.00  0.00    -0.334 NA
BRANCH  24  25
HETATM   25  C18 UNL     1      -5.148  -1.685  -0.728  1.00  0.00     0.256 C 
HETATM   26  N5  UNL     1      -5.549  -1.759   0.656  1.00  0.00    -0.349 N 
HETATM   27  C19 UNL     1      -5.833  -3.124   1.010  1.00  0.00     0.143 C 
ATOM     28  H5  UNL     1      -5.620  -0.962   1.289  1.00  0.00     0.163 HD
HETATM   29  C20 UNL     1      -5.833  -3.906  -0.289  1.00  0.00     0.146 C 
HETATM   30  N6  UNL     1      -5.697  -2.897  -1.312  1.00  0.00    -0.344 N 
HETATM   31  C21 UNL     1      -6.061  -3.095  -2.699  1.00  0.00     0.154 C 
ENDBRANCH  24  25
ENDBRANCH  21  22
ENDBRANCH  19  21
ENDBRANCH   1  19
BRANCH   1  32
HETATM   32  C22 UNL     1      -1.380   1.792   1.434  1.00  0.00     0.002 C 
HETATM   33  N7  UNL     1      -1.843   1.946   2.643  1.00  0.00    -0.404 N 
ATOM     34  H72 UNL     1      -2.138   1.090   3.112  1.00  0.00     0.155 HD
ATOM     35  H71 UNL     1      -1.875   2.891   3.025  1.00  0.00     0.155 HD
BRANCH  32  36
HETATM   36  C23 UNL     1      -0.957   3.022   0.760  1.00  0.00     0.056 C 
BRANCH  36  37
HETATM   37  C24 UNL     1      -1.150   4.258   1.627  1.00  0.00     0.027 C 
BRANCH  37  38
HETATM   38  C25 UNL     1      -0.674   5.437   0.797  1.00  0.00     0.141 C 
BRANCH  38  39
HETATM   39  N8  UNL     1      -0.791   6.689   1.475  1.00  0.00    -0.323 N 
ATOM     40  H8  UNL     1      -1.374   7.429   1.083  1.00  0.00     0.181 HD
BRANCH  39  41
HETATM   41  N9  UNL     1      -0.116   6.898   2.660  1.00  0.00    -0.254 N 
HETATM   42  N10 UNL     1       1.011   6.320   2.827  1.00  0.00    -0.331 N 
ATOM     43 2H10 UNL     1       1.389   5.722   2.092  1.00  0.00     0.178 HD
ATOM     44 1H10 UNL     1       1.510   6.475   3.703  1.00  0.00     0.178 HD
ATOM     45  H9  UNL     1      -0.507   7.499   3.385  1.00  0.00     0.207 HD
ENDBRANCH  39  41
ENDBRANCH  38  39
ENDBRANCH  37  38
ENDBRANCH  36  37
ENDBRANCH  32  36
ENDBRANCH   1  32
TORSDOF 16
