REMARK  16 active torsions:
REMARK  status: ('A' for Active; 'I' for Inactive)
REMARK    1  A    between atoms: C2_2  and  N1_3 
REMARK    2  A    between atoms: C2_2  and  C9_15 
REMARK    3  A    between atoms: N1_3  and  C3_4 
REMARK    4  A    between atoms: C3_4  and  C4_5 
REMARK    5  A    between atoms: C4_5  and  C5_6 
REMARK    6  A    between atoms: C5_6  and  C6_7 
REMARK    7  A    between atoms: C9_15  and  N6_19 
REMARK    8  A    between atoms: N6_19  and  C10_21 
REMARK    9  A    between atoms: C10_21  and  C11_22 
REMARK   10  A    between atoms: C10_21  and  C20_33 
REMARK   11  A    between atoms: C11_22  and  C12_23 
REMARK   12  A    between atoms: C20_33  and  N8_34 
REMARK       I    between atoms: N8_34  and  C22_36 
REMARK   13  A    between atoms: C22_36  and  C23_38 
REMARK   14  A    between atoms: C23_38  and  C24_39 
REMARK   15  A    between atoms: C24_39  and  N9_40 
REMARK   16  A    between atoms: N9_40  and  N10_42 
ROOT
HETATM    1  C10 UNL     1       1.924  -0.636   0.556  1.00  0.00     0.105 C 
ENDROOT
BRANCH   1   2
HETATM    2  N6  UNL     1       0.886  -0.474  -0.381  1.00  0.00    -0.368 N 
ATOM      3  H6  UNL     1       1.199  -0.192  -1.310  1.00  0.00     0.161 HD
BRANCH   2   4
HETATM    4  C9  UNL     1      -0.503  -0.632  -0.263  1.00  0.00     0.132 C 
HETATM    5  N5  UNL     1      -1.129  -1.188  -1.276  1.00  0.00    -0.383 N 
ATOM      6  H52 UNL     1      -2.139  -1.303  -1.190  1.00  0.00     0.157 HD
ATOM      7  H51 UNL     1      -0.568  -1.475  -2.078  1.00  0.00     0.157 HD
BRANCH   4   8
HETATM    8  C2  UNL     1      -1.281  -0.234   0.849  1.00  0.00     0.122 C 
HETATM    9  C1  UNL     1      -1.552  -0.850   2.127  1.00  0.00     0.089 C 
BRANCH   8  10
HETATM   10  N1  UNL     1      -1.887   0.880   0.702  1.00  0.00    -0.423 NA
BRANCH  10  11
HETATM   11  C3  UNL     1      -2.596   1.905   0.467  1.00  0.00     0.155 C 
BRANCH  11  12
HETATM   12  C4  UNL     1      -3.881   1.660  -0.150  1.00  0.00     0.067 C 
BRANCH  12  13
HETATM   13  C5  UNL     1      -4.797   0.773   0.642  1.00  0.00     0.084 C 
BRANCH  13  14
HETATM   14  C6  UNL     1      -6.096   0.550  -0.038  1.00  0.00     0.099 A 
HETATM   15  N2  UNL     1      -6.409  -0.445  -0.920  1.00  0.00    -0.340 N 
HETATM   16  C7  UNL     1      -7.678  -0.279  -1.291  1.00  0.00     0.199 A 
ATOM     17  H2  UNL     1      -5.782  -1.184  -1.238  1.00  0.00     0.168 HD
HETATM   18  N3  UNL     1      -8.181   0.790  -0.673  1.00  0.00    -0.293 N 
HETATM   19  N4  UNL     1      -7.205   1.295   0.095  1.00  0.00    -0.284 N 
ATOM     20  H3  UNL     1      -9.129   1.155  -0.767  1.00  0.00     0.188 HD
HETATM   21  C8  UNL     1      -7.317   2.465   0.945  1.00  0.00     0.179 C 
ENDBRANCH  13  14
ENDBRANCH  12  13
ENDBRANCH  11  12
ENDBRANCH  10  11
ENDBRANCH   8  10
ENDBRANCH   4   8
ENDBRANCH   2   4
ENDBRANCH   1   2
BRANCH   1  22
HETATM   22  C11 UNL     1       2.036  -1.961   1.254  1.00  0.00     0.065 C 
BRANCH  22  23
HETATM   23  C12 UNL     1       2.272  -3.111   0.325  1.00  0.00    -0.054 A 
HETATM   24  C13 UNL     1       3.559  -3.457  -0.040  1.00  0.00     0.008 A 
HETATM   25  C14 UNL     1       3.807  -4.511  -0.873  1.00  0.00     0.014 A 
HETATM   26  C15 UNL     1       2.743  -5.254  -1.367  1.00  0.00    -0.008 A 
HETATM   27  C16 UNL     1       2.750  -6.348  -2.212  1.00  0.00     0.030 A 
HETATM   28  C18 UNL     1       1.450  -4.940  -1.026  1.00  0.00     0.042 A 
HETATM   29  C17 UNL     1       1.413  -6.689  -2.375  1.00  0.00     0.089 A 
HETATM   30  N7  UNL     1       0.667  -5.833  -1.656  1.00  0.00    -0.365 N 
ATOM     31  H7  UNL     1      -0.351  -5.857  -1.597  1.00  0.00     0.165 HD
HETATM   32  C19 UNL     1       1.249  -3.877  -0.189  1.00  0.00     0.037 A 
ENDBRANCH  22  23
ENDBRANCH   1  22
BRANCH   1  33
HETATM   33  C20 UNL     1       2.124   0.478   1.555  1.00  0.00     0.150 C 
BRANCH  33  34
HETATM   34  N8  UNL     1       2.442   1.742   0.977  1.00  0.00    -0.354 N 
HETATM   35  C21 UNL     1       1.403   2.680   0.633  1.00  0.00     0.152 C 
HETATM   36  C22 UNL     1       3.790   2.110   0.731  1.00  0.00     0.221 C 
HETATM   37  O1  UNL     1       4.699   1.298   1.026  1.00  0.00    -0.273 OA
BRANCH  36  38
HETATM   38  C23 UNL     1       4.156   3.411   0.142  1.00  0.00     0.124 C 
BRANCH  38  39
HETATM   39  C24 UNL     1       5.638   3.509  -0.111  1.00  0.00     0.150 C 
BRANCH  39  40
HETATM   40  N9  UNL     1       5.943   4.801  -0.684  1.00  0.00    -0.322 N 
ATOM     41  H9  UNL     1       6.587   5.419  -0.191  1.00  0.00     0.181 HD
BRANCH  40  42
HETATM   42  N10 UNL     1       5.386   5.231  -1.889  1.00  0.00    -0.254 N 
HETATM   43  N11 UNL     1       5.238   6.459  -2.157  1.00  0.00    -0.331 N 
ATOM     44 2H11 UNL     1       5.540   7.141  -1.461  1.00  0.00     0.178 HD
ATOM     45 1H11 UNL     1       4.831   6.773  -3.038  1.00  0.00     0.178 HD
ATOM     46  H10 UNL     1       5.090   4.535  -2.574  1.00  0.00     0.207 HD
ENDBRANCH  40  42
ENDBRANCH  39  40
ENDBRANCH  38  39
ENDBRANCH  36  38
ENDBRANCH  33  34
ENDBRANCH   1  33
TORSDOF 16
