REMARK  16 active torsions:
REMARK  status: ('A' for Active; 'I' for Inactive)
REMARK    1  A    between atoms: C4_6  and  N2_8 
REMARK    2  A    between atoms: N3_10  and  N4_12 
REMARK    3  A    between atoms: N4_12  and  N5_14 
REMARK    4  A    between atoms: C9_23  and  C10_24 
REMARK    5  A    between atoms: C10_24  and  C11_25 
REMARK       I    between atoms: C11_25  and  N8_27 
REMARK    6  A    between atoms: N8_27  and  C12_29 
REMARK    7  A    between atoms: C12_29  and  C13_30 
REMARK    8  A    between atoms: C13_30  and  C14_31 
REMARK    9  A    between atoms: C14_31  and  C15_32 
REMARK   10  A    between atoms: C15_32  and  C16_33 
REMARK   11  A    between atoms: C16_33  and  C17_34 
REMARK   12  A    between atoms: C17_34  and  C18_35 
REMARK   13  A    between atoms: C18_35  and  C19_36 
REMARK   14  A    between atoms: C19_36  and  C20_37 
REMARK   15  A    between atoms: C20_37  and  C21_38 
REMARK   16  A    between atoms: C21_38  and  C22_39 
ROOT
HETATM    1  N2  UNL     1      -4.657   0.239  -0.070  1.00  0.00    -0.160 N 
HETATM    2  C6  UNL     1      -4.943   0.425   1.307  1.00  0.00     0.708 C 
HETATM    3  N3  UNL     1      -5.431  -0.435   2.100  1.00  0.00    -0.117 N 
ATOM      4  H3  UNL     1      -5.557  -0.088   3.051  1.00  0.00     0.207 HD
HETATM    5  N6  UNL     1      -4.641   1.726   1.901  1.00  0.00    -0.136 N 
HETATM    6  C7  UNL     1      -4.903   1.988   3.284  1.00  0.00     0.180 C 
HETATM    7  C8  UNL     1      -4.080   2.714   1.062  1.00  0.00     0.338 C 
HETATM    8  O1  UNL     1      -3.782   3.873   1.476  1.00  0.00    -0.246 OA
HETATM    9  N7  UNL     1      -3.837   2.406  -0.302  1.00  0.00    -0.320 N 
ATOM     10  H7  UNL     1      -3.862   3.121  -1.029  1.00  0.00     0.166 HD
HETATM   11  C9  UNL     1      -3.547   0.998  -0.608  1.00  0.00     0.220 C 
ENDROOT
BRANCH  11  12
HETATM   12  C10 UNL     1      -2.207   0.573  -0.115  1.00  0.00     0.150 C 
BRANCH  12  13
HETATM   13  C11 UNL     1      -1.167   1.424  -0.739  1.00  0.00     0.221 C 
HETATM   14  O2  UNL     1      -1.500   2.329  -1.539  1.00  0.00    -0.273 OA
HETATM   15  N8  UNL     1       0.234   1.268  -0.473  1.00  0.00    -0.361 N 
ATOM     16  H8  UNL     1       0.542   0.541   0.173  1.00  0.00     0.162 HD
BRANCH  15  17
HETATM   17  C12 UNL     1       1.199   2.103  -1.090  1.00  0.00     0.122 C 
BRANCH  17  18
HETATM   18  C13 UNL     1       2.624   1.879  -0.825  1.00  0.00     0.020 C 
BRANCH  18  19
HETATM   19  C14 UNL     1       3.282   0.628  -1.286  1.00  0.00     0.002 C 
BRANCH  19  20
HETATM   20  C15 UNL     1       2.693  -0.601  -0.757  1.00  0.00     0.000 C 
BRANCH  20  21
HETATM   21  C16 UNL     1       3.407  -1.873  -1.167  1.00  0.00     0.000 C 
BRANCH  21  22
HETATM   22  C17 UNL     1       4.831  -1.944  -0.742  1.00  0.00     0.000 C 
BRANCH  22  23
HETATM   23  C18 UNL     1       5.004  -1.863   0.758  1.00  0.00     0.000 C 
BRANCH  23  24
HETATM   24  C19 UNL     1       6.444  -1.948   1.135  1.00  0.00     0.000 C 
BRANCH  24  25
HETATM   25  C20 UNL     1       7.305  -0.865   0.563  1.00  0.00     0.009 C 
BRANCH  25  26
HETATM   26  C21 UNL     1       8.765  -1.031   1.003  1.00  0.00     0.099 C 
BRANCH  26  27
HETATM   27  C22 UNL     1       9.532   0.095   0.378  1.00  0.00     0.231 C 
HETATM   28  N9  UNL     1      10.945   0.224   0.584  1.00  0.00    -0.062 NA
HETATM   29  O3  UNL     1       8.986   0.964  -0.342  1.00  0.00    -0.277 OA
ENDBRANCH  26  27
ENDBRANCH  25  26
ENDBRANCH  24  25
ENDBRANCH  23  24
ENDBRANCH  22  23
ENDBRANCH  21  22
ENDBRANCH  20  21
ENDBRANCH  19  20
ENDBRANCH  18  19
ENDBRANCH  17  18
ENDBRANCH  15  17
ENDBRANCH  12  13
ENDBRANCH  11  12
BRANCH   1  30
HETATM   30  C4  UNL     1      -5.445  -0.631  -0.843  1.00  0.00     0.071 C 
HETATM   31  C3  UNL     1      -6.713  -0.395  -1.151  1.00  0.00     0.131 A 
HETATM   32  N1  UNL     1      -7.703  -0.967  -1.841  1.00  0.00    -0.328 N 
HETATM   33  N10 UNL     1      -7.584   0.613  -0.863  1.00  0.00    -0.328 N 
HETATM   34  C2  UNL     1      -8.555   0.016  -1.561  1.00  0.00     0.098 A 
ATOM     35  H1  UNL     1      -7.778  -1.830  -2.379  1.00  0.00     0.169 HD
HETATM   36  C1  UNL     1      -9.809   0.284  -1.849  1.00  0.00     0.063 C 
ATOM     37  H10 UNL     1      -7.520   1.479  -0.328  1.00  0.00     0.169 HD
HETATM   38  C5  UNL     1      -4.850  -1.879  -1.374  1.00  0.00     0.073 C 
ENDBRANCH   1  30
BRANCH   3  39
HETATM   39  N4  UNL     1      -5.820  -1.727   1.937  1.00  0.00    -0.235 N 
ATOM     40  H4  UNL     1      -5.168  -2.438   1.605  1.00  0.00     0.208 HD
BRANCH  39  41
HETATM   41  N5  UNL     1      -7.040  -2.021   2.216  1.00  0.00    -0.330 N 
ATOM     42  H52 UNL     1      -7.680  -1.299   2.547  1.00  0.00     0.178 HD
ATOM     43  H51 UNL     1      -7.332  -2.991   2.094  1.00  0.00     0.178 HD
ENDBRANCH  39  41
ENDBRANCH   3  39
TORSDOF 16
