REMARK  8 active torsions:
REMARK  status: ('A' for Active; 'I' for Inactive)
REMARK    1  A    between atoms: C3_3  and  C4_4 
REMARK    2  A    between atoms: C4_4  and  O1_5 
REMARK    3  A    between atoms: C4_4  and  C27_34 
REMARK    4  A    between atoms: O1_5  and  C5_6 
REMARK    5  A    between atoms: C14_15  and  C16_17 
REMARK    6  A    between atoms: C16_17  and  O2_18 
REMARK    7  A    between atoms: C18_21  and  O3_22 
REMARK    8  A    between atoms: C24_30  and  C26_32 
ROOT
HETATM    1  C1  UNL     1       4.437   3.393   2.050  1.00  0.00     0.012 C 
HETATM    2  C2  UNL     1       4.536   2.655   1.104  1.00  0.00    -0.115 C 
HETATM    3  C3  UNL     1       4.691   1.778  -0.030  1.00  0.00     0.130 C 
ENDROOT
BRANCH   3   4
HETATM    4  C4  UNL     1       3.665   0.680  -0.155  1.00  0.00     0.166 C 
BRANCH   4   5
HETATM    5  O1  UNL     1       2.389   1.084  -0.286  1.00  0.00    -0.374 OA
BRANCH   5   6
HETATM    6  C5  UNL     1       1.510   0.693   0.677  1.00  0.00     0.133 C 
HETATM    7  C6  UNL     1       0.959   1.947   1.439  1.00  0.00     0.043 C 
HETATM    8  C7  UNL     1      -0.554   1.842   1.230  1.00  0.00    -0.027 C 
HETATM    9  C8  UNL     1      -1.422   2.650   2.036  1.00  0.00     0.037 C 
HETATM   10  C20 UNL     1      -0.612   0.393   1.357  1.00  0.00     0.050 C 
HETATM   11  C23 UNL     1      -0.630   2.295  -0.209  1.00  0.00     0.011 C 
HETATM   12  C9  UNL     1      -2.749   2.191   2.424  1.00  0.00    -0.023 C 
HETATM   13  C10 UNL     1      -3.594   1.284   1.615  1.00  0.00    -0.080 C 
HETATM   14  C11 UNL     1      -4.467   2.005   0.568  1.00  0.00     0.043 C 
HETATM   15  C12 UNL     1      -3.123  -0.039   1.198  1.00  0.00     0.057 C 
HETATM   16  C13 UNL     1      -3.254  -0.383  -0.272  1.00  0.00     0.024 C 
HETATM   17  C19 UNL     1      -1.767  -0.355   1.725  1.00  0.00     0.142 C 
HETATM   18  C14 UNL     1      -2.503  -1.614  -0.672  1.00  0.00    -0.015 C 
HETATM   19  C15 UNL     1      -3.438  -2.793  -0.284  1.00  0.00     0.018 C 
HETATM   20  C17 UNL     1      -1.245  -1.918  -0.006  1.00  0.00     0.043 C 
HETATM   21  C18 UNL     1      -1.413  -1.841   1.472  1.00  0.00     0.165 C 
HETATM   22  C24 UNL     1       0.063  -1.235  -0.337  1.00  0.00     0.027 C 
HETATM   23  C21 UNL     1       0.201   0.109   0.132  1.00  0.00     0.007 C 
HETATM   24  C25 UNL     1       1.122  -2.141   0.327  1.00  0.00     0.024 C 
HETATM   25  C22 UNL     1      -0.080   1.122  -0.938  1.00  0.00     0.014 C 
HETATM   26  F1  UNL     1      -1.966  -0.435   3.128  1.00  0.00    -0.239 F 
BRANCH  18  27
HETATM   27  C16 UNL     1      -2.492  -1.696  -2.187  1.00  0.00     0.173 C 
BRANCH  27  28
HETATM   28  O2  UNL     1      -3.855  -1.750  -2.579  1.00  0.00    -0.400 OA
ATOM     29  H2  UNL     1      -3.848  -1.801  -3.528  1.00  0.00     0.209 HD
ENDBRANCH  27  28
ENDBRANCH  18  27
BRANCH  21  30
HETATM   30  O3  UNL     1      -2.275  -2.699   2.071  1.00  0.00    -0.392 OA
ATOM     31  H3  UNL     1      -2.382  -2.650   3.014  1.00  0.00     0.210 HD
ENDBRANCH  21  30
BRANCH  22  32
HETATM   32  C26 UNL     1       0.387  -1.403  -1.794  1.00  0.00     0.241 C 
HETATM   33  O4  UNL     1       0.795  -2.485  -2.248  1.00  0.00    -0.306 OA
ENDBRANCH  22  32
ENDBRANCH   5   6
ENDBRANCH   4   5
BRANCH   4  34
HETATM   34  C27 UNL     1       4.155  -0.189  -1.268  1.00  0.00    -0.029 A 
HETATM   35  C28 UNL     1       3.873   0.120  -2.577  1.00  0.00     0.010 A 
HETATM   36  C29 UNL     1       4.342  -0.688  -3.587  1.00  0.00     0.001 A 
HETATM   37  C30 UNL     1       5.093  -1.806  -3.305  1.00  0.00     0.000 A 
HETATM   38  C31 UNL     1       5.368  -2.106  -2.004  1.00  0.00     0.001 A 
HETATM   39  C32 UNL     1       4.907  -1.310  -1.004  1.00  0.00     0.010 A 
ENDBRANCH   4  34
ENDBRANCH   3   4
TORSDOF 8
