REMARK  9 active torsions:
REMARK  status: ('A' for Active; 'I' for Inactive)
REMARK    1  A    between atoms: C3_3  and  C4_4 
REMARK    2  A    between atoms: C6_6  and  C7_7 
REMARK    3  A    between atoms: C8_8  and  C9_9 
REMARK    4  A    between atoms: C11_11  and  C12_12 
REMARK    5  A    between atoms: C12_12  and  C13_13 
REMARK    6  A    between atoms: C12_12  and  C19_21 
REMARK    7  A    between atoms: C13_13  and  N1_14 
REMARK       I    between atoms: C19_21  and  N3_23 
REMARK    8  A    between atoms: N3_23  and  C20_25 
REMARK    9  A    between atoms: C30_35  and  C31_36 
ROOT
HETATM    1  C1  UNL     1      10.310  -3.307   2.651  1.00  0.00     0.112 C 
HETATM    2  C2  UNL     1       9.187  -2.635   1.992  1.00  0.00    -0.106 C 
HETATM    3  C3  UNL     1       8.251  -2.091   1.442  1.00  0.00    -0.072 C 
ENDROOT
BRANCH   3   4
HETATM    4  C4  UNL     1       7.148  -1.463   0.774  1.00  0.00    -0.001 C 
HETATM    5  C5  UNL     1       7.296  -0.145   0.074  1.00  0.00     0.059 C 
HETATM    6  C6  UNL     1       5.972  -2.047   0.766  1.00  0.00     0.080 C 
BRANCH   6   7
HETATM    7  C7  UNL     1       4.834  -1.466   0.113  1.00  0.00    -0.072 C 
HETATM    8  C8  UNL     1       3.864  -0.981  -0.463  1.00  0.00    -0.061 C 
BRANCH   8   9
HETATM    9  C9  UNL     1       2.712  -0.406  -1.104  1.00  0.00     0.035 A 
HETATM   10  C10 UNL     1       1.660   0.091  -0.316  1.00  0.00     0.029 A 
HETATM   11  C11 UNL     1       0.555   0.642  -0.909  1.00  0.00    -0.042 A 
HETATM   12  C28 UNL     1       0.469   0.713  -2.291  1.00  0.00     0.009 A 
HETATM   13  C29 UNL     1       1.488   0.233  -3.073  1.00  0.00     0.020 A 
HETATM   14  C30 UNL     1       2.627  -0.335  -2.470  1.00  0.00     0.059 A 
BRANCH  11  15
HETATM   15  C12 UNL     1      -0.569   1.173  -0.095  1.00  0.00     0.139 C 
BRANCH  15  16
HETATM   16  C13 UNL     1      -0.656   2.648  -0.357  1.00  0.00     0.291 C 
BRANCH  16  17
HETATM   17  N1  UNL     1      -1.746   3.269   0.410  1.00  0.00     0.093 N 
HETATM   18  C14 UNL     1      -1.739   4.656   0.085  1.00  0.00     0.302 C 
HETATM   19  C15 UNL     1      -2.252   5.552   1.172  1.00  0.00     0.302 C 
HETATM   20  N2  UNL     1      -1.704   5.229   2.469  1.00  0.00     0.087 N 
HETATM   21  C16 UNL     1      -0.283   5.420   2.530  1.00  0.00     0.310 C 
HETATM   22  C17 UNL     1      -2.111   3.877   2.783  1.00  0.00     0.302 C 
HETATM   23  C18 UNL     1      -1.528   2.948   1.780  1.00  0.00     0.302 C 
ENDBRANCH  16  17
ENDBRANCH  15  16
BRANCH  15  24
HETATM   24  C19 UNL     1      -1.836   0.472  -0.365  1.00  0.00     0.228 C 
HETATM   25  O1  UNL     1      -2.800   1.155  -0.799  1.00  0.00    -0.273 OA
HETATM   26  N3  UNL     1      -2.037  -0.907  -0.169  1.00  0.00    -0.356 N 
ATOM     27  H3  UNL     1      -1.263  -1.470   0.184  1.00  0.00     0.162 HD
BRANCH  26  28
HETATM   28  C20 UNL     1      -3.298  -1.556  -0.448  1.00  0.00     0.084 C 
HETATM   29  C21 UNL     1      -3.825  -2.096   0.829  1.00  0.00     0.025 C 
HETATM   30  C22 UNL     1      -5.283  -2.257   0.979  1.00  0.00     0.002 C 
HETATM   31  C23 UNL     1      -6.150  -2.019  -0.196  1.00  0.00     0.000 C 
HETATM   32  C24 UNL     1      -6.331  -3.262  -1.077  1.00  0.00     0.000 C 
HETATM   33  C25 UNL     1      -5.262  -3.370  -2.130  1.00  0.00     0.000 C 
HETATM   34  C26 UNL     1      -3.930  -3.754  -1.506  1.00  0.00     0.002 C 
HETATM   35  C27 UNL     1      -3.011  -2.588  -1.500  1.00  0.00     0.025 C 
ENDBRANCH  26  28
ENDBRANCH  15  24
ENDBRANCH  11  15
BRANCH  14  36
HETATM   36  C31 UNL     1       3.686  -0.834  -3.323  1.00  0.00     0.210 C 
HETATM   37  O2  UNL     1       3.547  -0.737  -4.584  1.00  0.00    -0.644 OA
HETATM   38  O3  UNL     1       4.850  -1.415  -2.893  1.00  0.00    -0.644 OA
ENDBRANCH  14  36
ENDBRANCH   8   9
ENDBRANCH   6   7
ENDBRANCH   3   4
TORSDOF 9
