REMARK  7 active torsions:
REMARK  status: ('A' for Active; 'I' for Inactive)
REMARK    1  A    between atoms: C2_2  and  N1_3 
REMARK    2  A    between atoms: C2_2  and  C17_29 
REMARK       I    between atoms: N1_3  and  C3_5 
REMARK       I    between atoms: C3_5  and  N2_7 
REMARK    3  A    between atoms: N2_7  and  C4_9 
REMARK    4  A    between atoms: C10_15  and  O2_16 
REMARK    5  A    between atoms: C13_20  and  N3_21 
REMARK    6  A    between atoms: N3_21  and  S1_23 
REMARK    7  A    between atoms: S1_23  and  C14_26 
ROOT
HETATM    1  C4  UNL     1       0.310  -1.271   0.244  1.00  0.00     0.059 C 
HETATM    2  C5  UNL     1       0.973  -2.161  -0.785  1.00  0.00     0.038 C 
HETATM    3  C6  UNL     1      -0.032  -3.079  -1.406  1.00  0.00    -0.009 C 
HETATM    4  C7  UNL     1      -1.140  -2.288  -2.078  1.00  0.00     0.011 C 
HETATM    5  C8  UNL     1      -1.809  -1.486  -0.995  1.00  0.00     0.014 C 
HETATM    6  C9  UNL     1      -2.414  -2.428  -0.007  1.00  0.00     0.044 C 
HETATM    7  C10 UNL     1      -1.290  -3.178   0.678  1.00  0.00     0.061 C 
HETATM    8  C11 UNL     1      -0.585  -4.013  -0.366  1.00  0.00     0.042 C 
HETATM    9  C12 UNL     1      -0.301  -2.245   1.287  1.00  0.00     0.071 C 
HETATM   10  C13 UNL     1      -0.861  -0.520  -0.296  1.00  0.00     0.125 C 
ENDROOT
BRANCH   1  11
HETATM   11  N2  UNL     1       1.263  -0.489   0.960  1.00  0.00    -0.332 N 
HETATM   12  C3  UNL     1       2.223   0.399   0.453  1.00  0.00     0.317 C 
HETATM   13  N1  UNL     1       3.124   1.141   1.262  1.00  0.00    -0.329 N 
HETATM   14  O1  UNL     1       2.325   0.578  -0.783  1.00  0.00    -0.247 OA
ATOM     15  H1  UNL     1       3.066   1.017   2.273  1.00  0.00     0.165 HD
ATOM     16  H2  UNL     1       1.244  -0.588   1.975  1.00  0.00     0.165 HD
BRANCH  13  17
HETATM   17  C2  UNL     1       4.106   2.049   0.761  1.00  0.00     0.183 C 
HETATM   18  C1  UNL     1       5.507   1.659   1.087  1.00  0.00     0.043 C 
BRANCH  17  19
HETATM   19  C17 UNL     1       3.855   3.454   1.158  1.00  0.00     0.196 C 
HETATM   20  O5  UNL     1       2.869   3.777   1.864  1.00  0.00    -0.646 OA
HETATM   21  O6  UNL     1       4.718   4.459   0.751  1.00  0.00    -0.646 OA
ENDBRANCH  17  19
ENDBRANCH  13  17
ENDBRANCH   1  11
BRANCH  10  22
HETATM   22  N3  UNL     1      -0.598   0.604  -1.105  1.00  0.00    -0.312 N 
ATOM     23  H3  UNL     1      -0.049   0.528  -1.961  1.00  0.00     0.172 HD
BRANCH  22  24
HETATM   24  S1  UNL     1      -1.238   2.093  -0.589  1.00  0.00     0.230 S 
HETATM   25  O3  UNL     1      -0.842   3.181  -1.585  1.00  0.00    -0.206 OA
HETATM   26  O4  UNL     1      -0.716   2.478   0.790  1.00  0.00    -0.206 OA
BRANCH  24  27
HETATM   27  C14 UNL     1      -3.008   2.141  -0.496  1.00  0.00     0.121 C 
HETATM   28  C15 UNL     1      -3.583   1.409   0.677  1.00  0.00     0.027 C 
HETATM   29  C16 UNL     1      -3.349   3.635  -0.251  1.00  0.00     0.027 C 
ENDBRANCH  24  27
ENDBRANCH  22  24
ENDBRANCH  10  22
BRANCH   7  30
HETATM   30  O2  UNL     1      -1.756  -4.018   1.667  1.00  0.00    -0.390 OA
ATOM     31  H2  UNL     1      -1.051  -4.488   2.097  1.00  0.00     0.210 HD
ENDBRANCH   7  30
TORSDOF 7
