REMARK  7 active torsions:
REMARK  status: ('A' for Active; 'I' for Inactive)
REMARK    1  A    between atoms: C2_2  and  N1_4 
REMARK       I    between atoms: N1_4  and  C4_6 
REMARK       I    between atoms: C4_6  and  N2_8 
REMARK    2  A    between atoms: N2_8  and  C5_10 
REMARK    3  A    between atoms: C5_10  and  C8_13 
REMARK       I    between atoms: C8_13  and  N3_15 
REMARK    4  A    between atoms: N3_15  and  C9_17 
REMARK    5  A    between atoms: C9_17  and  C11_19 
REMARK       I    between atoms: C11_19  and  N4_21 
REMARK    6  A    between atoms: N4_21  and  C12_23 
REMARK    7  A    between atoms: C19_30  and  O4_31 
ROOT
HETATM    1  C9  UNL     1       0.309   1.429   0.078  1.00  0.00     0.172 C 
HETATM    2  C10 UNL     1       0.698   2.828   0.577  1.00  0.00     0.042 C 
ENDROOT
BRANCH   1   3
HETATM    3  N3  UNL     1      -0.893   1.068   0.794  1.00  0.00    -0.346 N 
HETATM    4  C8  UNL     1      -2.090   0.869   0.046  1.00  0.00     0.246 C 
HETATM    5  O2  UNL     1      -2.121   0.999  -1.205  1.00  0.00    -0.271 OA
ATOM      6  H3  UNL     1      -0.885   0.958   1.808  1.00  0.00     0.163 HD
BRANCH   4   7
HETATM    7  C5  UNL     1      -3.303   0.497   0.832  1.00  0.00     0.108 C 
HETATM    8  C6  UNL     1      -2.964  -0.830   1.510  1.00  0.00     0.049 C 
HETATM    9  C7  UNL     1      -3.497   1.588   1.871  1.00  0.00     0.049 C 
BRANCH   7  10
HETATM   10  N2  UNL     1      -4.454   0.318   0.005  1.00  0.00    -0.326 N 
HETATM   11  C4  UNL     1      -5.677  -0.101   0.574  1.00  0.00     0.317 C 
HETATM   12  N1  UNL     1      -6.834  -0.288  -0.209  1.00  0.00    -0.339 N 
HETATM   13  O1  UNL     1      -5.729  -0.310   1.809  1.00  0.00    -0.247 OA
ATOM     14  H1  UNL     1      -6.761  -0.110  -1.211  1.00  0.00     0.164 HD
ATOM     15  H2  UNL     1      -4.393   0.493  -0.998  1.00  0.00     0.165 HD
BRANCH  12  16
HETATM   16  C2  UNL     1      -8.105  -0.710   0.299  1.00  0.00     0.078 C 
HETATM   17  C1  UNL     1      -8.600  -1.987  -0.318  1.00  0.00     0.032 C 
HETATM   18  C3  UNL     1      -9.136   0.406   0.093  1.00  0.00     0.032 C 
ENDBRANCH  12  16
ENDBRANCH   7  10
ENDBRANCH   4   7
ENDBRANCH   1   3
BRANCH   1  19
HETATM   19  C11 UNL     1       1.374   0.456   0.352  1.00  0.00     0.240 C 
HETATM   20  O3  UNL     1       1.195  -0.536   1.119  1.00  0.00    -0.271 OA
HETATM   21  N4  UNL     1       2.667   0.578  -0.231  1.00  0.00    -0.354 N 
ATOM     22  H4  UNL     1       2.841   1.367  -0.853  1.00  0.00     0.162 HD
BRANCH  21  23
HETATM   23  C12 UNL     1       3.735  -0.341   0.005  1.00  0.00     0.092 C 
HETATM   24  C13 UNL     1       4.919   0.299   0.693  1.00  0.00     0.012 C 
HETATM   25  C14 UNL     1       5.706   1.193  -0.228  1.00  0.00     0.011 C 
HETATM   26  C21 UNL     1       5.815  -0.817   1.187  1.00  0.00     0.044 C 
HETATM   27  C15 UNL     1       6.204   0.372  -1.412  1.00  0.00    -0.011 C 
HETATM   28  C16 UNL     1       4.990  -0.128  -2.143  1.00  0.00     0.011 C 
HETATM   29  C20 UNL     1       7.070  -0.754  -0.904  1.00  0.00     0.042 C 
HETATM   30  C17 UNL     1       4.223  -1.041  -1.222  1.00  0.00     0.012 C 
HETATM   31  C18 UNL     1       5.110  -2.202  -0.770  1.00  0.00     0.044 C 
HETATM   32  C19 UNL     1       6.274  -1.655   0.006  1.00  0.00     0.059 C 
BRANCH  32  33
HETATM   33  O4  UNL     1       7.063  -2.668   0.502  1.00  0.00    -0.390 OA
ATOM     34  H4  UNL     1       7.799  -2.322   0.993  1.00  0.00     0.210 HD
ENDBRANCH  32  33
ENDBRANCH  21  23
ENDBRANCH   1  19
TORSDOF 7
