REMARK  7 active torsions:
REMARK  status: ('A' for Active; 'I' for Inactive)
REMARK    1  A    between atoms: C2_2  and  C3_3 
REMARK    2  A    between atoms: C4_4  and  N1_5 
REMARK       I    between atoms: N1_5  and  C5_7 
REMARK    3  A    between atoms: C5_7  and  C6_9 
REMARK    4  A    between atoms: C6_9  and  N2_10 
REMARK       I    between atoms: N2_10  and  C7_12 
REMARK    5  A    between atoms: C7_12  and  C8_14 
REMARK    6  A    between atoms: C8_14  and  N3_15 
REMARK    7  A    between atoms: C15_27  and  O3_28 
ROOT
HETATM    1  C3  UNL     1       0.346  -1.898  -1.172  1.00  0.00     0.015 C 
HETATM    2  C4  UNL     1       1.073  -0.658  -0.649  1.00  0.00     0.093 C 
HETATM    3  C9  UNL     1      -0.151  -0.503   0.273  1.00  0.00     0.016 C 
HETATM    4  C10 UNL     1      -0.440   0.910   0.550  1.00  0.00     0.014 C 
HETATM    5  C11 UNL     1      -1.873   1.181   1.011  1.00  0.00     0.013 C 
HETATM    6  C12 UNL     1      -2.318   0.212   2.075  1.00  0.00     0.077 C 
HETATM    7  C13 UNL     1      -1.255  -0.021   3.116  1.00  0.00     0.032 C 
HETATM    8  N4  UNL     1      -2.873  -0.990   1.601  1.00  0.00    -0.410 N 
ATOM      9  H4  UNL     1      -3.073  -1.747   2.255  1.00  0.00     0.154 HD
HETATM   10  C14 UNL     1      -3.153  -1.158   0.246  1.00  0.00     0.110 C 
HETATM   11  C15 UNL     1      -2.012  -1.979  -0.378  1.00  0.00     0.145 C 
HETATM   12  C16 UNL     1      -0.933  -1.095  -0.882  1.00  0.00     0.028 C 
HETATM   13  C17 UNL     1      -3.409   0.008  -0.598  1.00  0.00     0.019 C 
HETATM   14  C18 UNL     1      -4.867   0.427  -0.735  1.00  0.00    -0.008 C 
HETATM   15  C19 UNL     1      -5.500   0.799   0.565  1.00  0.00     0.005 C 
HETATM   16  C20 UNL     1      -4.923   2.157   0.866  1.00  0.00     0.005 C 
HETATM   17  C21 UNL     1      -3.827   2.344  -0.125  1.00  0.00    -0.009 C 
HETATM   18  C22 UNL     1      -4.629   1.825  -1.352  1.00  0.00     0.010 C 
HETATM   19  C23 UNL     1      -2.757   1.292  -0.154  1.00  0.00     0.002 C 
ENDROOT
BRANCH   2  20
HETATM   20  N1  UNL     1       2.291  -0.931   0.048  1.00  0.00    -0.354 N 
HETATM   21  C5  UNL     1       3.428  -0.118  -0.218  1.00  0.00     0.235 C 
HETATM   22  O1  UNL     1       3.401   0.828  -1.040  1.00  0.00    -0.272 OA
ATOM     23  H1  UNL     1       2.344  -1.694   0.723  1.00  0.00     0.162 HD
BRANCH  21  24
HETATM   24  C6  UNL     1       4.697  -0.395   0.502  1.00  0.00     0.225 C 
BRANCH  24  25
HETATM   25  N2  UNL     1       5.732   0.531   0.100  1.00  0.00    -0.351 N 
HETATM   26  C7  UNL     1       7.014   0.424   0.678  1.00  0.00     0.243 C 
HETATM   27  O2  UNL     1       7.238  -0.460   1.522  1.00  0.00    -0.272 OA
ATOM     28  H2  UNL     1       5.537   1.253  -0.593  1.00  0.00     0.163 HD
BRANCH  26  29
HETATM   29  C8  UNL     1       8.135   1.336   0.320  1.00  0.00     0.332 C 
BRANCH  29  30
HETATM   30  N3  UNL     1       7.654   2.278  -0.671  1.00  0.00    -0.071 N 
ATOM     31  H33 UNL     1       7.246   1.818  -1.485  1.00  0.00     0.274 HD
ATOM     32  H32 UNL     1       6.821   2.780  -0.364  1.00  0.00     0.274 HD
ATOM     33  H31 UNL     1       8.422   2.903  -0.916  1.00  0.00     0.274 HD
ENDBRANCH  29  30
ENDBRANCH  26  29
ENDBRANCH  24  25
ENDBRANCH  21  24
ENDBRANCH   2  20
BRANCH   1  34
HETATM   34  C2  UNL     1       0.585  -2.154  -2.642  1.00  0.00     0.002 C 
HETATM   35  C1  UNL     1       2.081  -2.352  -2.840  1.00  0.00     0.005 C 
ENDBRANCH   1  34
BRANCH  11  36
HETATM   36  O3  UNL     1      -2.513  -2.849  -1.343  1.00  0.00    -0.393 OA
ATOM     37  H3  UNL     1      -1.808  -3.356  -1.728  1.00  0.00     0.210 HD
ENDBRANCH  11  36
TORSDOF 7
