REMARK  6 active torsions:
REMARK  status: ('A' for Active; 'I' for Inactive)
REMARK       I    between atoms: N1_2  and  C2_4 
REMARK       I    between atoms: C2_4  and  N2_6 
REMARK    1  A    between atoms: C8_12  and  C9_13 
REMARK    2  A    between atoms: C9_13  and  N3_14 
REMARK       I    between atoms: N3_14  and  C10_16 
REMARK       I    between atoms: N6_22  and  C11_23 
REMARK       I    between atoms: C11_23  and  N7_25 
REMARK    3  A    between atoms: N7_25  and  C12_27 
REMARK    4  A    between atoms: C12_27  and  C13_28 
REMARK    5  A    between atoms: C13_28  and  C14_29 
REMARK    6  A    between atoms: C14_29  and  C15_30 
ROOT
HETATM    1  C1  UNL     1      -6.125   1.326   3.006  1.00  0.00     0.151 C 
HETATM    2  N1  UNL     1      -5.189   1.415   1.912  1.00  0.00    -0.347 N 
ATOM      3  H1  UNL     1      -5.538   1.438   0.954  1.00  0.00     0.163 HD
HETATM    4  C2  UNL     1      -3.807   1.471   2.145  1.00  0.00     0.317 C 
HETATM    5  O1  UNL     1      -3.400   1.441   3.344  1.00  0.00    -0.247 OA
HETATM    6  N2  UNL     1      -2.857   1.559   1.068  1.00  0.00    -0.334 N 
HETATM    7  C3  UNL     1      -1.445   1.616   1.424  1.00  0.00     0.129 C 
HETATM    8  C4  UNL     1      -0.761   2.303   0.255  1.00  0.00     0.048 C 
HETATM    9  C5  UNL     1      -0.921   1.399  -0.927  1.00  0.00     0.127 C 
HETATM   10  C6  UNL     1      -2.376   1.531  -1.371  1.00  0.00     0.032 C 
HETATM   11  C7  UNL     1      -2.685   0.390  -2.321  1.00  0.00     0.044 C 
HETATM   12  C8  UNL     1      -2.277  -0.960  -1.786  1.00  0.00     0.170 C 
HETATM   13  O2  UNL     1      -1.704  -0.830  -0.515  1.00  0.00    -0.267 OA
HETATM   14  N6  UNL     1      -0.664   0.016  -0.669  1.00  0.00    -0.202 N 
HETATM   15  C11 UNL     1       0.660  -0.486  -0.590  1.00  0.00     0.342 C 
HETATM   16  O3  UNL     1       0.803  -1.734  -0.335  1.00  0.00    -0.245 OA
HETATM   17  N7  UNL     1       1.751   0.360  -0.786  1.00  0.00    -0.341 N 
ATOM     18  H7  UNL     1       1.572   1.342  -0.998  1.00  0.00     0.164 HD
HETATM   19  C20 UNL     1      -3.360   1.586  -0.263  1.00  0.00     0.134 C 
ENDROOT
BRANCH  12  20
HETATM   20  C9  UNL     1      -3.460  -1.875  -1.806  1.00  0.00     0.156 C 
BRANCH  20  21
HETATM   21  N3  UNL     1      -3.125  -3.220  -1.381  1.00  0.00    -0.362 N 
HETATM   22  C10 UNL     1      -4.152  -4.187  -1.356  1.00  0.00     0.181 C 
HETATM   23  N4  UNL     1      -4.996  -4.241  -2.315  1.00  0.00    -0.374 N 
HETATM   24  N5  UNL     1      -4.244  -5.087  -0.274  1.00  0.00    -0.064 NA
ATOM     25  H42 UNL     1      -4.929  -3.590  -3.098  1.00  0.00     0.158 HD
ATOM     26  H41 UNL     1      -5.738  -4.940  -2.297  1.00  0.00     0.158 HD
ATOM     27  H3  UNL     1      -2.172  -3.461  -1.107  1.00  0.00     0.162 HD
ENDBRANCH  20  21
ENDBRANCH  12  20
BRANCH  17  28
HETATM   28  C12 UNL     1       3.114  -0.085  -0.704  1.00  0.00     0.124 C 
BRANCH  28  29
HETATM   29  C13 UNL     1       3.434  -0.550   0.674  1.00  0.00     0.020 C 
BRANCH  29  30
HETATM   30  C14 UNL     1       4.756  -1.096   0.931  1.00  0.00     0.006 C 
BRANCH  30  31
HETATM   31  C15 UNL     1       6.021  -0.421   0.785  1.00  0.00    -0.014 C 
HETATM   32  C16 UNL     1       6.426   0.071  -0.566  1.00  0.00     0.004 C 
HETATM   33  C17 UNL     1       6.711   1.554  -0.453  1.00  0.00     0.000 C 
HETATM   34  C18 UNL     1       6.073   1.935   0.852  1.00  0.00     0.000 C 
HETATM   35  C19 UNL     1       6.294   0.732   1.714  1.00  0.00     0.004 C 
ENDBRANCH  30  31
ENDBRANCH  29  30
ENDBRANCH  28  29
ENDBRANCH  17  28
TORSDOF 6
