REMARK  7 active torsions:
REMARK  status: ('A' for Active; 'I' for Inactive)
REMARK    1  A    between atoms: C2_2  and  C4_4 
REMARK    2  A    between atoms: C4_4  and  N1_5 
REMARK    3  A    between atoms: C4_4  and  C5_9 
REMARK       I    between atoms: C5_9  and  N2_11 
REMARK    4  A    between atoms: N2_11  and  C6_13 
REMARK    5  A    between atoms: C6_13  and  C7_14 
REMARK       I    between atoms: C7_14  and  N3_16 
REMARK    6  A    between atoms: N3_16  and  C8_18 
REMARK    7  A    between atoms: C11_21  and  N4_22 
ROOT
HETATM    1  C6  UNL     1      -1.635  -0.981  -0.083  1.00  0.00     0.117 C 
HETATM    2  C16 UNL     1      -2.082  -2.461   0.004  1.00  0.00     0.046 C 
HETATM    3  C17 UNL     1      -2.621  -2.568   1.434  1.00  0.00    -0.011 C 
HETATM    4  C18 UNL     1      -3.745  -1.614   1.682  1.00  0.00     0.005 C 
HETATM    5  C19 UNL     1      -3.088  -0.243   1.719  1.00  0.00     0.008 C 
HETATM    6  C20 UNL     1      -1.635  -0.527   1.326  1.00  0.00     0.024 C 
HETATM    7  C21 UNL     1      -1.465  -1.816   2.124  1.00  0.00     0.012 C 
ENDROOT
BRANCH   1   8
HETATM    8  N2  UNL     1      -2.625  -0.332  -0.927  1.00  0.00    -0.341 N 
HETATM    9  C5  UNL     1      -2.492   1.039  -1.269  1.00  0.00     0.249 C 
HETATM   10  O1  UNL     1      -1.483   1.709  -0.827  1.00  0.00    -0.271 OA
ATOM     11  H2  UNL     1      -3.421  -0.866  -1.276  1.00  0.00     0.163 HD
BRANCH   9  12
HETATM   12  C4  UNL     1      -3.446   1.777  -2.116  1.00  0.00     0.278 C 
BRANCH  12  13
HETATM   13  C2  UNL     1      -4.821   1.931  -1.493  1.00  0.00     0.017 C 
HETATM   14  C1  UNL     1      -5.621   2.794  -2.486  1.00  0.00     0.012 C 
HETATM   15  C3  UNL     1      -5.591   0.629  -1.425  1.00  0.00     0.012 C 
ENDBRANCH  12  13
BRANCH  12  16
HETATM   16  N1  UNL     1      -2.958   3.161  -2.268  1.00  0.00    -0.066 N 
ATOM     17  H13 UNL     1      -3.587   3.771  -2.790  1.00  0.00     0.275 HD
ATOM     18  H12 UNL     1      -2.967   3.704  -1.405  1.00  0.00     0.275 HD
ATOM     19  H11 UNL     1      -2.034   3.057  -2.687  1.00  0.00     0.275 HD
ENDBRANCH  12  16
ENDBRANCH   9  12
ENDBRANCH   1   8
BRANCH   1  20
HETATM   20  C7  UNL     1      -0.315  -0.898  -0.757  1.00  0.00     0.246 C 
HETATM   21  O2  UNL     1      -0.339  -0.777  -2.029  1.00  0.00    -0.271 OA
HETATM   22  N3  UNL     1       0.941  -0.934  -0.149  1.00  0.00    -0.354 N 
ATOM     23  H3  UNL     1       0.990  -1.019   0.866  1.00  0.00     0.162 HD
BRANCH  22  24
HETATM   24  C8  UNL     1       2.200  -0.855  -0.911  1.00  0.00     0.085 C 
HETATM   25  C9  UNL     1       3.059  -2.007  -0.568  1.00  0.00     0.027 C 
HETATM   26  C10 UNL     1       4.061  -1.743   0.530  1.00  0.00     0.027 C 
HETATM   27  C11 UNL     1       4.806  -0.496   0.159  1.00  0.00     0.087 C 
HETATM   28  C13 UNL     1       3.802   0.650   0.322  1.00  0.00     0.006 C 
HETATM   29  C14 UNL     1       4.480   1.992   0.244  1.00  0.00     0.012 C 
HETATM   30  C15 UNL     1       2.841   0.503  -0.818  1.00  0.00     0.031 C 
BRANCH  27  31
HETATM   31  N4  UNL     1       6.036  -0.267   0.799  1.00  0.00    -0.362 N 
HETATM   32  C12 UNL     1       6.330   0.029   1.984  1.00  0.00     0.197 C 
HETATM   33  N5  UNL     1       7.688   0.202   2.350  1.00  0.00    -0.067 NA
HETATM   34  N6  UNL     1       5.320   0.195   2.962  1.00  0.00    -0.067 NA
ATOM     35  H4  UNL     1       6.844  -0.359   0.184  1.00  0.00     0.162 HD
ENDBRANCH  27  31
ENDBRANCH  22  24
ENDBRANCH   1  20
TORSDOF 7
