REMARK  6 active torsions:
REMARK  status: ('A' for Active; 'I' for Inactive)
REMARK    1  A    between atoms: C2_2  and  C4_4 
REMARK    2  A    between atoms: C5_7  and  N2_8 
REMARK    3  A    between atoms: N3_11  and  C8_12 
REMARK    4  A    between atoms: C11_15  and  N4_16 
REMARK       I    between atoms: N4_16  and  C12_18 
REMARK    5  A    between atoms: C12_18  and  O2_20 
REMARK    6  A    between atoms: O2_20  and  C13_21 
ROOT
HETATM    1  N2  UNL     1       4.060  -0.307   1.272  1.00  0.00    -0.197 N 
HETATM    2  C6  UNL     1       2.979  -0.414   2.229  1.00  0.00     0.173 C 
HETATM    3  C7  UNL     1       1.733   0.293   1.710  1.00  0.00     0.293 C 
HETATM    4  N3  UNL     1       1.354  -0.455   0.533  1.00  0.00     0.097 N 
HETATM    5  C20 UNL     1       2.326  -0.277  -0.478  1.00  0.00     0.313 C 
HETATM    6  C21 UNL     1       3.707   0.062  -0.068  1.00  0.00     0.237 C 
HETATM    7  C22 UNL     1       4.625  -0.526  -1.079  1.00  0.00     0.087 C 
HETATM    8  N5  UNL     1       5.322  -0.986  -1.883  1.00  0.00    -0.195 NA
ENDROOT
BRANCH   1   9
HETATM    9  C5  UNL     1       5.403  -0.573   1.717  1.00  0.00     0.688 A 
HETATM   10  N1  UNL     1       6.440  -0.378   0.950  1.00  0.00    -0.187 N 
HETATM   11  C4  UNL     1       7.646  -0.638   1.401  1.00  0.00     0.088 A 
ATOM     12  H1  UNL     1       6.315  -0.024   0.002  1.00  0.00     0.184 HD
HETATM   13  S1  UNL     1       7.331  -1.186   2.983  1.00  0.00     0.016 SA
HETATM   14  N6  UNL     1       5.653  -1.040   2.951  1.00  0.00    -0.159 N 
ATOM     15  H6  UNL     1       4.986  -1.255   3.692  1.00  0.00     0.193 HD
BRANCH  11  16
HETATM   16  C2  UNL     1       8.929  -0.465   0.641  1.00  0.00     0.037 C 
HETATM   17  C1  UNL     1       8.987  -1.351  -0.576  1.00  0.00     0.016 C 
HETATM   18  C3  UNL     1       9.077   0.961   0.223  1.00  0.00     0.016 C 
ENDBRANCH  11  16
ENDBRANCH   1   9
BRANCH   4  19
HETATM   19  C8  UNL     1       0.009  -0.248   0.130  1.00  0.00     0.223 C 
HETATM   20  C9  UNL     1      -0.337   1.159  -0.279  1.00  0.00     0.038 C 
HETATM   21  C10 UNL     1      -1.845   1.301  -0.271  1.00  0.00     0.027 C 
HETATM   22  C11 UNL     1      -2.558  -0.001  -0.559  1.00  0.00     0.086 C 
HETATM   23  C18 UNL     1      -1.790  -0.896  -1.483  1.00  0.00     0.027 C 
HETATM   24  C19 UNL     1      -0.393  -1.180  -0.971  1.00  0.00     0.038 C 
BRANCH  22  25
HETATM   25  N4  UNL     1      -3.838   0.298  -1.132  1.00  0.00    -0.332 N 
HETATM   26  C12 UNL     1      -5.060  -0.082  -0.521  1.00  0.00     0.361 C 
HETATM   27  O1  UNL     1      -4.992  -0.708   0.572  1.00  0.00    -0.238 OA
ATOM     28  H4  UNL     1      -3.871   0.805  -2.016  1.00  0.00     0.165 HD
BRANCH  26  29
HETATM   29  O2  UNL     1      -6.299   0.186  -1.037  1.00  0.00    -0.299 OA
BRANCH  29  30
HETATM   30  C13 UNL     1      -7.461  -0.234  -0.351  1.00  0.00     0.133 C 
HETATM   31  C14 UNL     1      -8.285  -1.164  -1.211  1.00  0.00     0.032 C 
HETATM   32  C15 UNL     1      -9.631  -1.138  -0.518  1.00  0.00     0.002 C 
HETATM   33  C16 UNL     1      -9.685   0.141   0.281  1.00  0.00     0.002 C 
HETATM   34  C17 UNL     1      -8.416   0.908  -0.099  1.00  0.00     0.032 C 
ENDBRANCH  29  30
ENDBRANCH  26  29
ENDBRANCH  22  25
ENDBRANCH   4  19
TORSDOF 6
