REMARK  6 active torsions:
REMARK  status: ('A' for Active; 'I' for Inactive)
REMARK    1  A    between atoms: C2_2  and  C3_3 
REMARK    2  A    between atoms: C3_3  and  C4_4 
REMARK    3  A    between atoms: C4_4  and  C5_5 
REMARK    4  A    between atoms: C5_5  and  C7_7 
REMARK    5  A    between atoms: C9_9  and  O1_10 
REMARK    6  A    between atoms: C15_20  and  C16_21 
ROOT
HETATM    1  C7  UNL     1      -2.163  -0.272  -0.432  1.00  0.00    -0.008 C 
HETATM    2  C8  UNL     1      -2.397  -1.524   0.302  1.00  0.00     0.037 C 
HETATM    3  C9  UNL     1      -1.361  -1.875   1.330  1.00  0.00     0.123 C 
HETATM    4  C10 UNL     1       0.009  -1.407   1.064  1.00  0.00     0.026 C 
HETATM    5  C11 UNL     1       0.801  -2.394   0.179  1.00  0.00     0.011 C 
HETATM    6  C12 UNL     1       2.042  -1.481   0.033  1.00  0.00     0.043 C 
HETATM    7  C13 UNL     1       1.333  -0.286  -0.520  1.00  0.00     0.108 C 
HETATM    8  O2  UNL     1       0.633  -0.781  -1.682  1.00  0.00    -0.283 OA
HETATM    9  C14 UNL     1       1.062  -0.165  -2.817  1.00  0.00     0.407 C 
HETATM   10  O3  UNL     1       0.789  -0.527  -3.987  1.00  0.00    -0.229 OA
HETATM   11  O4  UNL     1       1.832   0.903  -2.413  1.00  0.00    -0.289 OA
HETATM   12  C15 UNL     1       2.067   0.840  -0.989  1.00  0.00     0.186 C 
HETATM   13  C22 UNL     1       0.192  -0.057   0.484  1.00  0.00    -0.003 C 
HETATM   14  C23 UNL     1       0.621   0.871   1.605  1.00  0.00     0.019 C 
HETATM   15  C24 UNL     1      -1.004   0.565  -0.154  1.00  0.00     0.018 C 
ENDROOT
BRANCH  12  16
HETATM   16  C16 UNL     1       3.511   1.032  -0.824  1.00  0.00     0.142 C 
HETATM   17  C17 UNL     1       4.095   1.099   0.529  1.00  0.00     0.188 C 
HETATM   18  O5  UNL     1       5.401   1.646   0.400  1.00  0.00    -0.354 OA
HETATM   19  C18 UNL     1       6.257   0.668  -0.100  1.00  0.00     0.165 C 
HETATM   20  C19 UNL     1       6.857  -0.035   1.102  1.00  0.00     0.079 C 
HETATM   21  C20 UNL     1       7.380   1.382  -0.823  1.00  0.00     0.079 C 
HETATM   22  O6  UNL     1       5.597  -0.223  -0.971  1.00  0.00    -0.284 OA
HETATM   23  C21 UNL     1       4.372   0.082  -1.580  1.00  0.00     0.270 C 
HETATM   24  O7  UNL     1       4.132  -0.456  -2.658  1.00  0.00    -0.265 OA
ENDBRANCH  12  16
BRANCH   3  25
HETATM   25  O1  UNL     1      -1.735  -1.412   2.616  1.00  0.00    -0.395 OA
ATOM     26  H1  UNL     1      -1.079  -1.634   3.267  1.00  0.00     0.210 HD
ENDBRANCH   3  25
BRANCH   1  27
HETATM   27  C5  UNL     1      -3.486   0.535  -0.427  1.00  0.00    -0.014 C 
HETATM   28  C6  UNL     1      -3.831   1.020   0.919  1.00  0.00     0.010 C 
BRANCH  27  29
HETATM   29  C4  UNL     1      -4.562  -0.218  -1.101  1.00  0.00     0.004 C 
BRANCH  29  30
HETATM   30  C3  UNL     1      -5.848   0.397  -1.407  1.00  0.00     0.000 C 
BRANCH  30  31
HETATM   31  C2  UNL     1      -6.778   0.858  -0.367  1.00  0.00    -0.005 C 
HETATM   32  C1  UNL     1      -7.303  -0.220   0.563  1.00  0.00     0.005 C 
ENDBRANCH  30  31
ENDBRANCH  29  30
ENDBRANCH  27  29
ENDBRANCH   1  27
TORSDOF 6
