REMARK  5 active torsions:
REMARK  status: ('A' for Active; 'I' for Inactive)
REMARK    1  A    between atoms: C4_8  and  C5_9 
REMARK    2  A    between atoms: C6_12  and  C7_13 
REMARK    3  A    between atoms: C7_13  and  C8_14 
REMARK    4  A    between atoms: N4_17  and  C11_18 
REMARK    5  A    between atoms: N5_21  and  C14_22 
ROOT
HETATM    1  C7  UNL     1      -2.765  -0.779  -1.245  1.00  0.00     0.063 C 
ENDROOT
BRANCH   1   2
HETATM    2  C6  UNL     1      -4.006  -0.013  -0.995  1.00  0.00     0.026 A 
HETATM    3  N3  UNL     1      -5.182  -0.537  -0.533  1.00  0.00    -0.343 N 
HETATM    4  C5  UNL     1      -6.127   0.401  -0.438  1.00  0.00     0.134 A 
ATOM      5  H3  UNL     1      -5.319  -1.519  -0.292  1.00  0.00     0.167 HD
HETATM    6  N6  UNL     1      -5.553   1.553  -0.845  1.00  0.00    -0.348 N 
HETATM    7  C24 UNL     1      -4.274   1.327  -1.186  1.00  0.00     0.114 A 
ATOM      8  H6  UNL     1      -6.020   2.459  -0.887  1.00  0.00     0.167 HD
BRANCH   4   9
HETATM    9  C4  UNL     1      -7.500   0.208   0.016  1.00  0.00     0.109 A 
HETATM   10  N2  UNL     1      -8.042  -0.944   0.415  1.00  0.00    -0.186 N 
HETATM   11  C3  UNL     1      -9.340  -0.748   0.767  1.00  0.00     0.688 A 
ATOM     12  H2  UNL     1      -7.554  -1.839   0.451  1.00  0.00     0.184 HD
HETATM   13  N1  UNL     1     -10.322  -1.540   1.225  1.00  0.00    -0.201 N 
HETATM   14  N7  UNL     1      -9.582   0.540   0.577  1.00  0.00    -0.166 N 
HETATM   15  C2  UNL     1     -11.550  -1.076   1.501  1.00  0.00     0.107 A 
ATOM     16  H1  UNL     1     -10.127  -2.531   1.368  1.00  0.00     0.183 HD
HETATM   17  C1  UNL     1     -11.781   0.263   1.298  1.00  0.00     0.036 A 
HETATM   18  C26 UNL     1     -10.794   1.084   0.833  1.00  0.00     0.116 A 
HETATM   19  C25 UNL     1      -8.481   1.166   0.118  1.00  0.00     0.148 A 
ENDBRANCH   4   9
ENDBRANCH   1   2
BRANCH   1  20
HETATM   20  C8  UNL     1      -1.884  -0.932  -0.056  1.00  0.00    -0.006 C 
HETATM   21  C9  UNL     1      -0.654  -1.756  -0.432  1.00  0.00     0.035 C 
HETATM   22  C10 UNL     1       0.457  -1.627   0.579  1.00  0.00     0.273 C 
HETATM   23  N4  UNL     1       0.837  -0.267   0.696  1.00  0.00     0.093 N 
HETATM   24  C22 UNL     1      -0.009   0.655   0.015  1.00  0.00     0.273 C 
HETATM   25  C23 UNL     1      -1.429   0.388   0.474  1.00  0.00     0.035 C 
BRANCH  23  26
HETATM   26  C11 UNL     1       2.217   0.042   0.507  1.00  0.00     0.226 C 
HETATM   27  C12 UNL     1       2.615  -0.307  -0.906  1.00  0.00     0.066 C 
HETATM   28  C13 UNL     1       4.117  -0.610  -0.873  1.00  0.00     0.275 C 
HETATM   29  N5  UNL     1       4.694   0.336   0.072  1.00  0.00     0.093 N 
HETATM   30  C20 UNL     1       4.483  -0.152   1.411  1.00  0.00     0.275 C 
HETATM   31  C21 UNL     1       3.109  -0.786   1.446  1.00  0.00     0.066 C 
BRANCH  29  32
HETATM   32  C14 UNL     1       6.071   0.498  -0.270  1.00  0.00     0.223 C 
HETATM   33  C15 UNL     1       6.869  -0.792  -0.140  1.00  0.00     0.036 C 
HETATM   34  C16 UNL     1       8.145  -0.574  -0.939  1.00  0.00     0.002 C 
HETATM   35  C17 UNL     1       8.905   0.637  -0.519  1.00  0.00     0.000 C 
HETATM   36  C18 UNL     1       8.083   1.851  -0.240  1.00  0.00     0.002 C 
HETATM   37  C19 UNL     1       6.798   1.545   0.516  1.00  0.00     0.036 C 
ENDBRANCH  29  32
ENDBRANCH  23  26
ENDBRANCH   1  20
TORSDOF 5
