REMARK  6 active torsions:
REMARK  status: ('A' for Active; 'I' for Inactive)
REMARK    1  A    between atoms: N1_2  and  C2_4 
REMARK    2  A    between atoms: C4_6  and  C5_7 
REMARK    3  A    between atoms: C8_12  and  N3_13 
REMARK    4  A    between atoms: N5_22  and  C14_23 
REMARK    5  A    between atoms: C14_23  and  C15_24 
REMARK    6  A    between atoms: C15_24  and  C16_25 
ROOT
HETATM    1  C5  UNL     1       3.586   0.394  -0.008  1.00  0.00     0.118 A 
HETATM    2  N2  UNL     1       2.702   1.224  -0.564  1.00  0.00    -0.344 N 
ATOM      3  H2  UNL     1       2.995   2.163  -0.834  1.00  0.00     0.167 HD
HETATM    4  C6  UNL     1       1.405   0.833  -0.778  1.00  0.00     0.024 A 
HETATM    5  C7  UNL     1       0.981  -0.426  -0.425  1.00  0.00     0.026 A 
HETATM    6  C8  UNL     1       1.897  -1.278   0.145  1.00  0.00     0.115 A 
HETATM    7  N4  UNL     1       3.164  -0.802   0.320  1.00  0.00    -0.327 N 
ATOM      8  H4  UNL     1       3.843  -1.434   0.744  1.00  0.00     0.169 HD
HETATM    9  C13 UNL     1      -0.453  -0.832  -0.615  1.00  0.00     0.166 C 
HETATM   10  N5  UNL     1      -1.185   0.322  -0.977  1.00  0.00    -0.389 N 
HETATM   11  C22 UNL     1      -0.666   1.136  -2.005  1.00  0.00     0.128 C 
HETATM   12  C23 UNL     1       0.517   1.871  -1.418  1.00  0.00     0.077 C 
ENDROOT
BRANCH   1  13
HETATM   13  C4  UNL     1       5.004   0.813   0.232  1.00  0.00     0.017 A 
HETATM   14  C3  UNL     1       5.471   2.027  -0.089  1.00  0.00     0.052 A 
HETATM   15  C2  UNL     1       6.793   2.287   0.184  1.00  0.00     0.070 A 
HETATM   16  S1  UNL     1       7.335   0.827   0.877  1.00  0.00    -0.084 SA
HETATM   17  C24 UNL     1       5.891  -0.066   0.805  1.00  0.00     0.067 A 
BRANCH  15  18
HETATM   18  N1  UNL     1       7.507   3.507  -0.069  1.00  0.00    -0.389 N 
HETATM   19  C1  UNL     1       6.819   4.603  -0.668  1.00  0.00     0.147 C 
ATOM     20  H1  UNL     1       8.494   3.589   0.177  1.00  0.00     0.159 HD
ENDBRANCH  15  18
ENDBRANCH   1  13
BRANCH   6  21
HETATM   21  N3  UNL     1       1.613  -2.593   0.500  1.00  0.00    -0.363 N 
HETATM   22  C9  UNL     1       2.405  -3.181   1.595  1.00  0.00     0.150 C 
HETATM   23  C10 UNL     1       3.194  -4.292   0.943  1.00  0.00     0.187 C 
HETATM   24  O1  UNL     1       2.369  -5.181   0.329  1.00  0.00    -0.388 OA
HETATM   25  C11 UNL     1       1.034  -4.935   0.319  1.00  0.00     0.187 C 
HETATM   26  C12 UNL     1       0.701  -3.484  -0.098  1.00  0.00     0.150 C 
ENDBRANCH   6  21
BRANCH  10  27
HETATM   27  C14 UNL     1      -2.443   0.570  -0.435  1.00  0.00     0.059 C 
BRANCH  27  28
HETATM   28  C15 UNL     1      -3.539  -0.354  -0.837  1.00  0.00     0.049 C 
BRANCH  28  29
HETATM   29  C16 UNL     1      -4.863  -0.026  -0.221  1.00  0.00    -0.010 C 
HETATM   30  C17 UNL     1      -4.900  -0.064   1.278  1.00  0.00     0.005 C 
HETATM   31  C18 UNL     1      -5.799   1.046   1.834  1.00  0.00     0.000 C 
HETATM   32  C19 UNL     1      -7.080   1.155   1.065  1.00  0.00     0.000 C 
HETATM   33  C20 UNL     1      -6.866   1.371  -0.406  1.00  0.00     0.000 C 
HETATM   34  C21 UNL     1      -5.379   1.329  -0.668  1.00  0.00     0.005 C 
ENDBRANCH  28  29
ENDBRANCH  27  28
ENDBRANCH  10  27
TORSDOF 6
