REMARK  3 active torsions:
REMARK  status: ('A' for Active; 'I' for Inactive)
REMARK    1  A    between atoms: C2_2  and  C13_20 
REMARK       I    between atoms: N1_3  and  C3_5 
REMARK    2  A    between atoms: C3_5  and  C4_7 
REMARK    3  A    between atoms: N2_11  and  C8_12 
ROOT
HETATM    1  C4  UNL     1      -0.381   0.037  -0.767  1.00  0.00     0.322 C 
HETATM    2  C5  UNL     1      -0.908   1.457  -1.017  1.00  0.00     0.053 C 
HETATM    3  C6  UNL     1      -0.831   1.873  -2.451  1.00  0.00     0.014 C 
HETATM    4  C7  UNL     1       0.336   1.838  -0.231  1.00  0.00     0.283 C 
HETATM    5  N2  UNL     1       0.844   0.506  -0.278  1.00  0.00     0.134 N 
ENDROOT
BRANCH   1   6
HETATM    6  C3  UNL     1      -1.325  -0.694   0.061  1.00  0.00     0.256 C 
HETATM    7  N1  UNL     1      -2.542  -1.173  -0.493  1.00  0.00    -0.323 N 
HETATM    8  C2  UNL     1      -3.714  -0.914  -0.085  1.00  0.00     0.085 C 
ATOM      9  H1  UNL     1      -2.465  -1.789  -1.302  1.00  0.00     0.169 HD
HETATM   10  C1  UNL     1      -3.999  -0.036   1.077  1.00  0.00     0.076 C 
HETATM   11  O1  UNL     1      -1.122  -0.933   1.272  1.00  0.00    -0.271 OA
BRANCH   8  12
HETATM   12  C13 UNL     1      -4.837  -1.521  -0.811  1.00  0.00     0.222 C 
HETATM   13  O2  UNL     1      -4.679  -2.268  -1.794  1.00  0.00    -0.643 OA
HETATM   14  O3  UNL     1      -6.145  -1.269  -0.405  1.00  0.00    -0.643 OA
ENDBRANCH   8  12
ENDBRANCH   1   6
BRANCH   5  15
HETATM   15  C8  UNL     1       1.498  -0.043   0.843  1.00  0.00     0.421 C 
HETATM   16  C9  UNL     1       1.839  -1.489   0.547  1.00  0.00     0.067 C 
HETATM   17  C10 UNL     1       3.270  -1.531   0.084  1.00  0.00     0.036 C 
HETATM   18  C11 UNL     1       3.609  -0.054  -0.072  1.00  0.00     0.184 C 
HETATM   19  C12 UNL     1       5.071   0.198   0.087  1.00  0.00     0.040 C 
HETATM   20  N3  UNL     1       2.826   0.537   1.001  1.00  0.00    -0.040 N 
ATOM     21  H32 UNL     1       2.837   1.557   1.012  1.00  0.00     0.280 HD
ATOM     22  H31 UNL     1       3.229   0.410   1.930  1.00  0.00     0.280 HD
ENDBRANCH   5  15
TORSDOF 3
