REMARK  5 active torsions:
REMARK  status: ('A' for Active; 'I' for Inactive)
REMARK    1  A    between atoms: C3_3  and  N1_4 
REMARK       I    between atoms: N1_4  and  C4_6 
REMARK       I    between atoms: C4_6  and  N2_8 
REMARK    2  A    between atoms: N2_8  and  C5_10 
REMARK    3  A    between atoms: C6_11  and  O2_12 
REMARK    4  A    between atoms: C6_11  and  N3_14 
REMARK    5  A    between atoms: C10_18  and  C11_19 
REMARK       I    between atoms: C11_19  and  N4_21 
REMARK       I    between atoms: N5_24  and  C14_25 
ROOT
HETATM    1  C1  UNL     1       8.716  -1.005   2.005  1.00  0.00     0.014 C 
HETATM    2  C2  UNL     1       7.713  -1.191   1.355  1.00  0.00    -0.098 C 
HETATM    3  C3  UNL     1       6.507  -1.439   0.566  1.00  0.00     0.217 C 
ENDROOT
BRANCH   3   4
HETATM    4  N1  UNL     1       5.958  -0.208   0.059  1.00  0.00    -0.333 N 
HETATM    5  C4  UNL     1       4.792  -0.199  -0.732  1.00  0.00     0.320 C 
HETATM    6  O1  UNL     1       4.223  -1.280  -0.999  1.00  0.00    -0.247 OA
HETATM    7  N2  UNL     1       4.224   1.007  -1.248  1.00  0.00    -0.315 N 
ATOM      8  H2  UNL     1       4.702   1.881  -1.027  1.00  0.00     0.170 HD
ATOM      9  H1  UNL     1       6.422   0.674   0.277  1.00  0.00     0.165 HD
BRANCH   7  10
HETATM   10  C5  UNL     1       3.065   1.088  -2.032  1.00  0.00     0.148 C 
HETATM   11  C6  UNL     1       1.746   0.766  -1.549  1.00  0.00     0.154 C 
BRANCH  11  12
HETATM   12  O2  UNL     1       0.821   0.770  -2.519  1.00  0.00    -0.345 OA
ATOM     13  H2  UNL     1      -0.049   0.558  -2.201  1.00  0.00     0.219 HD
ENDBRANCH  11  12
BRANCH  11  14
HETATM   14  N3  UNL     1       1.199   0.456  -0.314  1.00  0.00    -0.347 N 
HETATM   15  C7  UNL     1       1.775   0.468   0.997  1.00  0.00     0.126 C 
HETATM   16  C8  UNL     1       1.330  -0.870   1.602  1.00  0.00     0.022 C 
HETATM   17  C9  UNL     1       0.030  -1.123   0.939  1.00  0.00     0.037 C 
HETATM   18  C10 UNL     1      -0.174  -0.027  -0.051  1.00  0.00     0.178 C 
BRANCH  18  19
HETATM   19  C11 UNL     1      -1.093   0.987   0.407  1.00  0.00     0.242 C 
HETATM   20  O3  UNL     1      -0.703   2.147   0.668  1.00  0.00    -0.271 OA
HETATM   21  N4  UNL     1      -2.469   0.711   0.579  1.00  0.00    -0.347 N 
HETATM   22  C12 UNL     1      -3.021  -0.584   0.263  1.00  0.00     0.145 C 
HETATM   23  C17 UNL     1      -3.395   1.706   1.095  1.00  0.00     0.145 C 
HETATM   24  C13 UNL     1      -4.155  -0.343  -0.751  1.00  0.00     0.145 C 
HETATM   25  N5  UNL     1      -5.150   0.451  -0.068  1.00  0.00    -0.349 N 
HETATM   26  C14 UNL     1      -6.490   0.013   0.120  1.00  0.00     0.215 C 
HETATM   27  C16 UNL     1      -4.722   1.733   0.428  1.00  0.00     0.145 C 
HETATM   28  C15 UNL     1      -6.961  -1.295  -0.377  1.00  0.00     0.117 C 
HETATM   29  O4  UNL     1      -7.323   0.738   0.721  1.00  0.00    -0.274 OA
ENDBRANCH  18  19
ENDBRANCH  11  14
ENDBRANCH   7  10
ENDBRANCH   3   4
TORSDOF 5
