REMARK  6 active torsions:
REMARK  status: ('A' for Active; 'I' for Inactive)
REMARK    1  A    between atoms: O1_2  and  C2_3 
REMARK    2  A    between atoms: C5_6  and  C6_7 
REMARK    3  A    between atoms: C8_11  and  C9_12 
REMARK    4  A    between atoms: N3_22  and  O2_23 
REMARK    5  A    between atoms: C17_25  and  C18_26 
REMARK    6  A    between atoms: N4_33  and  O3_34 
ROOT
HETATM    1  C6  UNL     1       2.323   0.567  -0.261  1.00  0.00     0.143 A 
HETATM    2  N1  UNL     1       1.594   1.700  -0.497  1.00  0.00    -0.349 N 
ATOM      3  H1  UNL     1       2.089   2.548  -0.773  1.00  0.00     0.167 HD
HETATM    4  C7  UNL     1       0.277   1.748  -0.384  1.00  0.00     0.107 A 
HETATM    5  C8  UNL     1      -0.425   0.597  -0.007  1.00  0.00     0.056 A 
HETATM    6  C17 UNL     1       0.283  -0.548   0.234  1.00  0.00     0.090 A 
HETATM    7  N4  UNL     1       1.651  -0.500   0.091  1.00  0.00    -0.206 N 
ENDROOT
BRANCH   5   8
HETATM    8  C9  UNL     1      -1.875   0.647   0.111  1.00  0.00     0.148 A 
HETATM    9  N2  UNL     1      -2.619  -0.387   0.602  1.00  0.00    -0.338 N 
HETATM   10  C10 UNL     1      -3.910  -0.035   0.567  1.00  0.00     0.063 A 
ATOM     11  H2  UNL     1      -2.253  -1.278   0.939  1.00  0.00     0.167 HD
HETATM   12  C11 UNL     1      -5.094  -0.654   0.924  1.00  0.00     0.032 A 
HETATM   13  C16 UNL     1      -4.023   1.241   0.049  1.00  0.00     0.091 A 
HETATM   14  C12 UNL     1      -6.331  -0.071   0.788  1.00  0.00     0.009 A 
HETATM   15  C13 UNL     1      -6.399   1.204   0.267  1.00  0.00    -0.060 A 
HETATM   16  C14 UNL     1      -7.732   1.830   0.121  1.00  0.00     0.048 C 
HETATM   17  C15 UNL     1      -5.241   1.846  -0.098  1.00  0.00     0.041 A 
HETATM   18  N3  UNL     1      -2.726   1.611  -0.215  1.00  0.00    -0.205 N 
BRANCH  18  19
HETATM   19  O2  UNL     1      -2.466   2.830  -0.751  1.00  0.00    -0.281 OA
ATOM     20  H2  UNL     1      -3.075   3.520  -0.984  1.00  0.00     0.245 HD
ENDBRANCH  18  19
ENDBRANCH   5   8
BRANCH   6  21
HETATM   21  C18 UNL     1      -0.335  -1.803   0.613  1.00  0.00    -0.006 A 
HETATM   22  C19 UNL     1      -0.825  -2.720  -0.297  1.00  0.00     0.017 A 
HETATM   23  C20 UNL     1      -1.376  -3.922   0.095  1.00  0.00     0.043 A 
HETATM   24  C21 UNL     1      -1.445  -4.226   1.436  1.00  0.00     0.116 A 
HETATM   25  F1  UNL     1      -1.976  -5.393   1.888  1.00  0.00    -0.206 F 
HETATM   26  C22 UNL     1      -0.963  -3.328   2.364  1.00  0.00     0.043 A 
HETATM   27  C23 UNL     1      -0.416  -2.133   1.959  1.00  0.00     0.017 A 
ENDBRANCH   6  21
BRANCH   7  28
HETATM   28  O3  UNL     1       2.296  -1.662   0.343  1.00  0.00    -0.281 OA
ATOM     29  H3  UNL     1       1.808  -2.436   0.598  1.00  0.00     0.245 HD
ENDBRANCH   7  28
BRANCH   1  30
HETATM   30  C5  UNL     1       3.765   0.703  -0.435  1.00  0.00     0.012 A 
HETATM   31  C4  UNL     1       4.675  -0.294  -0.242  1.00  0.00     0.018 A 
HETATM   32  C3  UNL     1       6.067  -0.111  -0.427  1.00  0.00     0.039 A 
HETATM   33  C2  UNL     1       6.538   1.121  -0.818  1.00  0.00     0.085 A 
HETATM   34  C25 UNL     1       5.646   2.151  -1.023  1.00  0.00     0.045 A 
HETATM   35  C24 UNL     1       4.307   1.933  -0.833  1.00  0.00     0.037 A 
HETATM   36 BR1  UNL     1       6.325   3.844  -1.566  1.00  0.00    -0.048 Br
BRANCH  33  37
HETATM   37  O1  UNL     1       7.901   1.295  -0.998  1.00  0.00    -0.355 OA
HETATM   38  C1  UNL     1       8.802   0.248  -0.789  1.00  0.00     0.210 C 
ENDBRANCH  33  37
ENDBRANCH   1  30
TORSDOF 6
