REMARK  4 active torsions:
REMARK  status: ('A' for Active; 'I' for Inactive)
REMARK    1  A    between atoms: N3_8  and  S1_10 
REMARK    2  A    between atoms: S1_10  and  C4_13 
REMARK    3  A    between atoms: C9_18  and  C10_19 
REMARK    4  A    between atoms: C15_26  and  C16_27 
ROOT
HETATM    1  C4  UNL     1       3.086   0.512   1.168  1.00  0.00     0.080 A 
HETATM    2  C5  UNL     1       1.985   0.196   1.936  1.00  0.00     0.026 A 
HETATM    3  C6  UNL     1       0.691   0.415   1.457  1.00  0.00     0.014 A 
HETATM    4  C7  UNL     1       0.495   0.954   0.202  1.00  0.00    -0.025 A 
HETATM    5  C8  UNL     1      -0.810   1.168  -0.265  1.00  0.00     0.026 A 
HETATM    6  C9  UNL     1      -1.029   1.694  -1.494  1.00  0.00    -0.007 A 
HETATM    7  C23 UNL     1       0.083   2.022  -2.290  1.00  0.00     0.014 A 
HETATM    8  C24 UNL     1       1.346   1.807  -1.815  1.00  0.00     0.013 A 
HETATM    9  C25 UNL     1       1.588   1.273  -0.572  1.00  0.00    -0.024 A 
HETATM   10  C26 UNL     1       2.865   1.049  -0.083  1.00  0.00     0.037 A 
ENDROOT
BRANCH   6  11
HETATM   11  C10 UNL     1      -2.326   1.895  -2.142  1.00  0.00     0.066 A 
HETATM   12  C11 UNL     1      -2.544   2.730  -3.243  1.00  0.00     0.120 A 
HETATM   13  N4  UNL     1      -3.811   2.658  -3.625  1.00  0.00    -0.350 N 
HETATM   14  C12 UNL     1      -4.426   1.800  -2.807  1.00  0.00     0.111 A 
ATOM     15  H4  UNL     1      -4.238   3.165  -4.401  1.00  0.00     0.166 HD
HETATM   16  C13 UNL     1      -5.728   1.343  -2.759  1.00  0.00     0.050 A 
HETATM   17  N5  UNL     1      -3.517   1.332  -1.901  1.00  0.00    -0.305 N 
HETATM   18  C14 UNL     1      -6.130   0.415  -1.808  1.00  0.00     0.017 A 
HETATM   19  C15 UNL     1      -5.226  -0.067  -0.893  1.00  0.00    -0.007 A 
HETATM   20  C22 UNL     1      -3.923   0.420  -0.974  1.00  0.00     0.111 A 
BRANCH  19  21
HETATM   21  C16 UNL     1      -5.623  -1.041   0.109  1.00  0.00     0.014 A 
HETATM   22  C17 UNL     1      -5.232  -0.853   1.440  1.00  0.00     0.018 A 
HETATM   23  C18 UNL     1      -5.567  -1.725   2.448  1.00  0.00     0.043 A 
HETATM   24  C19 UNL     1      -6.324  -2.841   2.146  1.00  0.00     0.119 A 
HETATM   25  F1  UNL     1      -6.679  -3.730   3.109  1.00  0.00    -0.206 F 
HETATM   26  C20 UNL     1      -6.714  -3.034   0.839  1.00  0.00     0.085 A 
HETATM   27  C21 UNL     1      -6.375  -2.155  -0.171  1.00  0.00     0.130 A 
HETATM   28  F2  UNL     1      -6.760  -2.351  -1.458  1.00  0.00    -0.205 F 
ENDBRANCH  19  21
ENDBRANCH   6  11
BRANCH   1  29
HETATM   29  S1  UNL     1       4.703   0.234   1.777  1.00  0.00     0.265 S 
HETATM   30  O1  UNL     1       4.709   0.339   3.285  1.00  0.00    -0.200 OA
HETATM   31  O2  UNL     1       5.669   1.239   1.217  1.00  0.00    -0.200 OA
BRANCH  29  32
HETATM   32  N3  UNL     1       5.268  -1.341   1.366  1.00  0.00    -0.244 N 
HETATM   33  C3  UNL     1       6.555  -1.509   1.178  1.00  0.00     0.254 A 
HETATM   34  N2  UNL     1       7.179  -2.656   0.853  1.00  0.00    -0.262 N 
HETATM   35  O3  UNL     1       7.491  -0.598   1.267  1.00  0.00    -0.264 OA
HETATM   36  N1  UNL     1       8.467  -2.409   0.756  1.00  0.00    -0.280 N 
ATOM     37  H2  UNL     1       6.731  -3.560   0.707  1.00  0.00     0.190 HD
HETATM   38  C2  UNL     1       8.670  -1.109   1.017  1.00  0.00     0.138 A 
ATOM     39  H1  UNL     1       9.189  -3.090   0.522  1.00  0.00     0.189 HD
HETATM   40  C1  UNL     1       9.943  -0.357   1.032  1.00  0.00     0.099 C 
ATOM     41  H3  UNL     1       4.619  -2.122   1.271  1.00  0.00     0.182 HD
ENDBRANCH  29  32
ENDBRANCH   1  29
TORSDOF 4
