REMARK  7 active torsions:
REMARK  status: ('A' for Active; 'I' for Inactive)
REMARK    1  A    between atoms: N1_2  and  C2_4 
REMARK    2  A    between atoms: C5_7  and  C6_8 
REMARK    3  A    between atoms: C7_9  and  C8_10 
REMARK    4  A    between atoms: C14_18  and  O1_19 
REMARK    5  A    between atoms: C17_24  and  C18_25 
REMARK    6  A    between atoms: C21_29  and  C22_30 
REMARK    7  A    between atoms: C26_36  and  O2_37 
ROOT
HETATM    1  C8  UNL     1       1.924   2.291  -0.033  1.00  0.00     0.053 A 
HETATM    2  C9  UNL     1       2.727   3.398  -0.043  1.00  0.00     0.025 A 
HETATM    3  C10 UNL     1       4.143   3.273  -0.479  1.00  0.00     0.070 C 
HETATM    4  N2  UNL     1       2.303   4.624   0.325  1.00  0.00    -0.357 N 
ATOM      5  H2  UNL     1       2.933   5.426   0.302  1.00  0.00     0.166 HD
HETATM    6  C11 UNL     1       1.038   4.757   0.719  1.00  0.00     0.060 A 
HETATM    7  C12 UNL     1       0.550   5.982   1.105  1.00  0.00     0.036 A 
HETATM    8  C13 UNL     1      -0.769   6.056   1.500  1.00  0.00     0.058 A 
HETATM    9  C14 UNL     1      -1.581   4.939   1.511  1.00  0.00     0.142 A 
HETATM   10  N3  UNL     1      -1.097   3.743   1.132  1.00  0.00    -0.334 N 
ATOM     11  H3  UNL     1      -1.690   2.913   1.137  1.00  0.00     0.168 HD
HETATM   12  C16 UNL     1       0.179   3.670   0.749  1.00  0.00     0.073 A 
HETATM   13  C17 UNL     1       0.628   2.401   0.365  1.00  0.00     0.024 A 
ENDROOT
BRANCH  13  14
HETATM   14  C18 UNL     1      -0.225   1.240   0.380  1.00  0.00    -0.016 A 
HETATM   15  C19 UNL     1      -0.824   0.843  -0.812  1.00  0.00     0.055 A 
HETATM   16  C20 UNL     1      -1.648  -0.259  -0.854  1.00  0.00     0.131 A 
HETATM   17  F1  UNL     1      -2.189  -0.573  -2.061  1.00  0.00    -0.205 F 
HETATM   18  C21 UNL     1      -1.886  -0.978   0.282  1.00  0.00     0.054 A 
HETATM   19  C28 UNL     1      -1.289  -0.587   1.480  1.00  0.00     0.131 A 
HETATM   20  F2  UNL     1      -1.547  -1.323   2.591  1.00  0.00    -0.205 F 
HETATM   21  C29 UNL     1      -0.474   0.507   1.511  1.00  0.00     0.055 A 
BRANCH  18  22
HETATM   22  C22 UNL     1      -2.759  -2.134   0.212  1.00  0.00     0.016 A 
HETATM   23  C23 UNL     1      -2.307  -3.403  -0.060  1.00  0.00     0.032 A 
HETATM   24  C24 UNL     1      -3.185  -4.489  -0.118  1.00  0.00     0.088 A 
HETATM   25  N4  UNL     1      -4.492  -4.264   0.098  1.00  0.00    -0.373 N 
HETATM   26  C25 UNL     1      -4.991  -3.043   0.368  1.00  0.00     0.125 A 
ATOM     27  H4  UNL     1      -5.135  -5.054   0.055  1.00  0.00     0.164 HD
HETATM   28  C26 UNL     1      -4.115  -1.957   0.427  1.00  0.00     0.094 A 
BRANCH  28  29
HETATM   29  O2  UNL     1      -4.596  -0.691   0.702  1.00  0.00    -0.354 OA
HETATM   30  C27 UNL     1      -5.973  -0.520   0.921  1.00  0.00     0.210 C 
ENDBRANCH  28  29
ENDBRANCH  18  22
ENDBRANCH  13  14
BRANCH   1  31
HETATM   31  C7  UNL     1       2.402   0.976  -0.437  1.00  0.00    -0.058 C 
HETATM   32  C6  UNL     1       2.783  -0.115  -0.787  1.00  0.00    -0.060 C 
BRANCH  32  33
HETATM   33  C5  UNL     1       3.216  -1.417  -1.218  1.00  0.00     0.033 A 
HETATM   34  C4  UNL     1       3.979  -2.262  -0.434  1.00  0.00     0.026 A 
HETATM   35  C3  UNL     1       4.386  -3.504  -0.860  1.00  0.00     0.050 A 
HETATM   36  C2  UNL     1       4.036  -3.952  -2.112  1.00  0.00     0.100 A 
HETATM   37  N5  UNL     1       3.296  -3.138  -2.880  1.00  0.00    -0.351 N 
HETATM   38  C30 UNL     1       2.895  -1.928  -2.473  1.00  0.00     0.110 A 
ATOM     39  H5  UNL     1       3.028  -3.454  -3.812  1.00  0.00     0.166 HD
BRANCH  36  40
HETATM   40  N1  UNL     1       4.408  -5.130  -2.547  1.00  0.00    -0.381 N 
HETATM   41  C1  UNL     1       5.210  -5.976  -1.676  1.00  0.00     0.147 C 
ATOM     42  H1  UNL     1       4.141  -5.448  -3.478  1.00  0.00     0.160 HD
ENDBRANCH  36  40
ENDBRANCH  32  33
ENDBRANCH   1  31
BRANCH   9  43
HETATM   43  O1  UNL     1      -2.910   5.097   1.925  1.00  0.00    -0.341 OA
HETATM   44  C15 UNL     1      -3.734   3.953   1.934  1.00  0.00     0.211 C 
ENDBRANCH   9  43
TORSDOF 7
