REMARK  3 active torsions:
REMARK  status: ('A' for Active; 'I' for Inactive)
REMARK    1  A    between atoms: C5_8  and  S2_9 
REMARK    2  A    between atoms: S2_9  and  C6_10 
REMARK    3  A    between atoms: C6_10  and  C7_11 
ROOT
HETATM    1  S2  UNL     1       1.579  -2.074  -0.669  1.00  0.00    -0.111 SA
ENDROOT
BRANCH   1   2
HETATM    2  C5  UNL     1       2.624  -0.672  -0.422  1.00  0.00     0.087 A 
HETATM    3  C1  UNL     1       3.066  -0.383   0.857  1.00  0.00     0.045 A 
HETATM    4  S1  UNL     1       2.732  -1.479   2.261  1.00  0.00    -0.050 SA
HETATM    5  C2  UNL     1       3.824   0.749   1.034  1.00  0.00     0.023 A 
HETATM    6  C3  UNL     1       4.131   1.563  -0.039  1.00  0.00     0.018 A 
HETATM    7  C4  UNL     1       3.670   1.234  -1.302  1.00  0.00     0.089 A 
HETATM    8  N1  UNL     1       2.938   0.147  -1.481  1.00  0.00    -0.359 N 
ATOM      9  H1  UNL     1       2.602  -0.086  -2.416  1.00  0.00     0.166 HD
ENDBRANCH   1   2
BRANCH   1  10
HETATM   10  C6  UNL     1      -0.163  -1.761  -0.790  1.00  0.00     0.085 C 
BRANCH  10  11
HETATM   11  C7  UNL     1      -0.888  -1.191   0.378  1.00  0.00    -0.005 C 
HETATM   12  C8  UNL     1      -0.405   0.154   0.731  1.00  0.00     0.005 C 
HETATM   13  C9  UNL     1      -1.522   1.178   0.909  1.00  0.00     0.000 C 
HETATM   14  C10 UNL     1      -2.024   1.589  -0.456  1.00  0.00     0.000 C 
HETATM   15  C11 UNL     1      -3.332   0.852  -0.670  1.00  0.00     0.000 C 
HETATM   16  C12 UNL     1      -2.931  -0.598  -0.977  1.00  0.00     0.000 C 
HETATM   17  C13 UNL     1      -2.393  -1.298   0.223  1.00  0.00     0.005 C 
ENDBRANCH  10  11
ENDBRANCH   1  10
TORSDOF 3
