REMARK  2 active torsions:
REMARK  status: ('A' for Active; 'I' for Inactive)
REMARK    1  A    between atoms: C1_2  and  C2_3 
REMARK    2  A    between atoms: C2_3  and  N1_4 
ROOT
HETATM    1  N1  UNL     1      -0.179  -0.523   0.224  1.00  0.00     0.089 N 
HETATM    2  C3  UNL     1       0.594   0.122   1.279  1.00  0.00     0.272 C 
HETATM    3  C4  UNL     1       1.765   0.912   0.761  1.00  0.00     0.030 C 
HETATM    4  C5  UNL     1       2.544   0.011  -0.180  1.00  0.00     0.003 C 
HETATM    5  C6  UNL     1       1.640  -0.252  -1.359  1.00  0.00     0.030 C 
HETATM    6  C7  UNL     1       0.212   0.081  -1.076  1.00  0.00     0.272 C 
ENDROOT
BRANCH   1   7
HETATM    7  C2  UNL     1      -1.556  -0.167   0.493  1.00  0.00     0.283 C 
BRANCH   7   8
HETATM    8  C1  UNL     1      -2.576  -0.970  -0.261  1.00  0.00     0.116 C 
HETATM    9  S1  UNL     1      -4.221  -0.315   0.247  1.00  0.00    -0.096 SA
ENDBRANCH   7   8
ENDBRANCH   1   7
TORSDOF 2
