REMARK  2 active torsions:
REMARK  status: ('A' for Active; 'I' for Inactive)
REMARK    1  A    between atoms: N1_1  and  C1_5 
REMARK    2  A    between atoms: C1_5  and  C2_6 
ROOT
HETATM    1  C2  UNL     1      -1.376   0.320   0.744  1.00  0.00     0.016 C 
HETATM    2  C3  UNL     1      -0.557  -0.941   0.909  1.00  0.00     0.038 C 
HETATM    3  C4  UNL     1       0.467  -1.215  -0.169  1.00  0.00     0.122 C 
HETATM    4  C5  UNL     1       1.918  -1.165   0.255  1.00  0.00     0.032 C 
HETATM    5  C6  UNL     1       2.751  -0.074  -0.438  1.00  0.00     0.005 C 
HETATM    6  C7  UNL     1       2.000   1.287  -0.492  1.00  0.00     0.032 C 
HETATM    7  C8  UNL     1       0.718   0.926  -0.008  1.00  0.00     0.122 C 
HETATM    8  C9  UNL     1      -0.567   1.520   0.186  1.00  0.00     0.038 C 
HETATM    9  O1  UNL     1       0.368  -0.091  -0.946  1.00  0.00    -0.381 OA
ENDROOT
BRANCH   1  10
HETATM   10  C1  UNL     1      -2.668   0.137   0.046  1.00  0.00     0.234 C 
BRANCH  10  11
HETATM   11  N1  UNL     1      -2.606  -0.370  -1.286  1.00  0.00    -0.079 N 
ATOM     12  H13 UNL     1      -1.992   0.219  -1.849  1.00  0.00     0.274 HD
ATOM     13  H12 UNL     1      -2.084  -1.246  -1.296  1.00  0.00     0.274 HD
ATOM     14  H11 UNL     1      -3.497  -0.496  -1.767  1.00  0.00     0.274 HD
ENDBRANCH  10  11
ENDBRANCH   1  10
TORSDOF 2
