REMARK  3 active torsions:
REMARK  status: ('A' for Active; 'I' for Inactive)
REMARK    1  A    between atoms: N1_1  and  C1_5 
REMARK    2  A    between atoms: C1_5  and  C2_6 
REMARK    3  A    between atoms: C2_6  and  C3_7 
ROOT
HETATM    1  C3  UNL     1      -0.225  -0.344   0.047  1.00  0.00     0.122 C 
HETATM    2  C4  UNL     1       0.096   1.067   0.305  1.00  0.00     0.032 C 
HETATM    3  C5  UNL     1       1.450   1.553   0.053  1.00  0.00     0.002 C 
HETATM    4  C6  UNL     1       2.505   0.559  -0.279  1.00  0.00     0.002 C 
HETATM    5  C7  UNL     1       2.554  -0.650   0.592  1.00  0.00     0.026 C 
HETATM    6  C8  UNL     1       1.547  -1.697   0.165  1.00  0.00     0.168 C 
HETATM    7  O1  UNL     1       0.661  -1.059  -0.703  1.00  0.00    -0.386 OA
ENDROOT
BRANCH   1   8
HETATM    8  C2  UNL     1      -1.613  -0.479  -0.604  1.00  0.00     0.059 C 
BRANCH   8   9
HETATM    9  C1  UNL     1      -2.626   0.117   0.369  1.00  0.00     0.232 C 
BRANCH   9  10
HETATM   10  N1  UNL     1      -3.957   0.018  -0.190  1.00  0.00    -0.079 N 
ATOM     11  H13 UNL     1      -4.017   0.443  -1.115  1.00  0.00     0.274 HD
ATOM     12  H12 UNL     1      -4.193  -0.939  -0.452  1.00  0.00     0.274 HD
ATOM     13  H11 UNL     1      -4.634   0.416   0.460  1.00  0.00     0.274 HD
ENDBRANCH   9  10
ENDBRANCH   8   9
ENDBRANCH   1   8
TORSDOF 3
