REMARK  3 active torsions:
REMARK  status: ('A' for Active; 'I' for Inactive)
REMARK    1  A    between atoms: N1_1  and  C1_5 
REMARK    2  A    between atoms: C3_7  and  C4_8 
REMARK    3  A    between atoms: C4_8  and  C5_9 
ROOT
HETATM    1  C1  UNL     1      -3.056  -0.248   0.296  1.00  0.00     0.188 A 
HETATM    2  C2  UNL     1      -2.209  -0.945  -0.784  1.00  0.00     0.039 A 
HETATM    3  C3  UNL     1      -1.599  -0.439   0.475  1.00  0.00     0.018 A 
ENDROOT
BRANCH   3   4
HETATM    4  C4  UNL     1      -0.644   0.726   0.321  1.00  0.00     0.011 C 
BRANCH   4   5
HETATM    5  C5  UNL     1       0.746   0.193   0.565  1.00  0.00    -0.010 C 
HETATM    6  C6  UNL     1       1.805   1.258   0.443  1.00  0.00     0.031 C 
HETATM    7  C7  UNL     1       3.014   0.795  -0.309  1.00  0.00     0.168 C 
HETATM    8  O1  UNL     1       3.414  -0.483  -0.018  1.00  0.00    -0.391 OA
HETATM    9  C8  UNL     1       2.434  -1.433  -0.051  1.00  0.00     0.168 C 
HETATM   10  C9  UNL     1       1.076  -0.885  -0.443  1.00  0.00     0.031 C 
ENDBRANCH   4   5
ENDBRANCH   3   4
BRANCH   1  11
HETATM   11  N1  UNL     1      -3.594   1.014  -0.138  1.00  0.00    -0.075 N 
ATOM     12  H13 UNL     1      -2.853   1.630  -0.473  1.00  0.00     0.274 HD
ATOM     13  H12 UNL     1      -4.124   0.906  -1.003  1.00  0.00     0.274 HD
ATOM     14  H11 UNL     1      -4.155   1.476   0.578  1.00  0.00     0.274 HD
ENDBRANCH   1  11
TORSDOF 3
