REMARK  1 active torsions:
REMARK  status: ('A' for Active; 'I' for Inactive)
REMARK    1  A    between atoms: N3_6  and  C3_7 
ROOT
HETATM    1  C1  UNL     1      -2.293   1.443  -0.239  1.00  0.00     0.181 C 
HETATM    2  N1  UNL     1      -2.019   0.025  -0.278  1.00  0.00    -0.270 N 
HETATM    3  C2  UNL     1      -2.764  -1.084  -0.436  1.00  0.00     0.220 A 
HETATM    4  N2  UNL     1      -1.640  -1.773  -0.322  1.00  0.00    -0.273 N 
ATOM      5  H2  UNL     1      -1.427  -2.770  -0.346  1.00  0.00     0.190 HD
HETATM    6  N3  UNL     1      -0.896  -0.694  -0.165  1.00  0.00    -0.193 N 
ENDROOT
BRANCH   6   7
HETATM    7  C3  UNL     1       0.467  -0.340   0.036  1.00  0.00     0.075 A 
HETATM    8  C4  UNL     1       1.417  -0.908  -0.742  1.00  0.00     0.033 A 
HETATM    9  C5  UNL     1       2.738  -0.550  -0.529  1.00  0.00     0.002 A 
HETATM   10  C6  UNL     1       3.119   0.358   0.439  1.00  0.00     0.000 A 
HETATM   11  C7  UNL     1       2.133   0.921   1.217  1.00  0.00     0.002 A 
HETATM   12  C8  UNL     1       0.825   0.570   1.012  1.00  0.00     0.033 A 
ENDBRANCH   6   7
TORSDOF 1
