REMARK  4 active torsions:
REMARK  status: ('A' for Active; 'I' for Inactive)
REMARK    1  A    between atoms: O1_1  and  C1_3 
REMARK    2  A    between atoms: C1_3  and  C2_4 
REMARK    3  A    between atoms: C3_5  and  C4_6 
REMARK    4  A    between atoms: C4_6  and  C5_7 
ROOT
HETATM    1  C5  UNL     1      -0.874  -0.759  -0.031  1.00  0.00    -0.047 A 
HETATM    2  C6  UNL     1      -1.730  -0.410   0.999  1.00  0.00     0.008 A 
HETATM    3  C7  UNL     1      -2.909   0.249   0.777  1.00  0.00     0.001 A 
HETATM    4  C8  UNL     1      -3.282   0.590  -0.511  1.00  0.00     0.000 A 
HETATM    5  C9  UNL     1      -2.450   0.254  -1.543  1.00  0.00     0.001 A 
HETATM    6  C10 UNL     1      -1.270  -0.407  -1.304  1.00  0.00     0.008 A 
ENDROOT
BRANCH   1   7
HETATM    7  C4  UNL     1       0.382  -1.469   0.278  1.00  0.00     0.132 C 
BRANCH   7   8
HETATM    8  C3  UNL     1       1.491  -0.517   0.521  1.00  0.00    -0.100 C 
HETATM    9  C2  UNL     1       2.388   0.270   0.704  1.00  0.00    -0.080 C 
BRANCH   9  10
HETATM   10  C1  UNL     1       3.472   1.244   0.910  1.00  0.00     0.257 C 
BRANCH  10  11
HETATM   11  O1  UNL     1       4.694   0.601   1.156  1.00  0.00    -0.389 OA
ATOM     12  H1  UNL     1       5.394   1.230   1.289  1.00  0.00     0.210 HD
ENDBRANCH  10  11
ENDBRANCH   9  10
ENDBRANCH   7   8
ENDBRANCH   1   7
TORSDOF 4
