REMARK  1 active torsions:
REMARK  status: ('A' for Active; 'I' for Inactive)
REMARK    1  A    between atoms: O1_1  and  N1_3 
ROOT
HETATM    1  N1  UNL     1       1.706   0.927  -0.203  1.00  0.00    -0.218 N 
HETATM    2  C1  UNL     1       2.388  -0.230  -0.188  1.00  0.00     0.214 A 
HETATM    3  N2  UNL     1       1.487  -1.214  -0.049  1.00  0.00    -0.349 N 
ATOM      4  H2  UNL     1       1.720  -2.206  -0.006  1.00  0.00     0.167 HD
HETATM    5  C2  UNL     1       0.237  -0.725   0.026  1.00  0.00     0.062 A 
HETATM    6  C3  UNL     1      -1.017  -1.313   0.169  1.00  0.00     0.032 A 
HETATM    7  C4  UNL     1      -2.160  -0.514   0.215  1.00  0.00     0.002 A 
HETATM    8  C5  UNL     1      -2.008   0.842   0.117  1.00  0.00     0.002 A 
HETATM    9  C6  UNL     1      -0.768   1.418  -0.025  1.00  0.00     0.034 A 
HETATM   10  C7  UNL     1       0.397   0.648  -0.075  1.00  0.00     0.090 A 
ENDROOT
BRANCH   1  11
HETATM   11  O1  UNL     1       2.243   2.178  -0.328  1.00  0.00    -0.282 OA
ATOM     12  H1  UNL     1       1.761   2.996  -0.339  1.00  0.00     0.245 HD
ENDBRANCH   1  11
TORSDOF 1
