REMARK  1 active torsions:
REMARK  status: ('A' for Active; 'I' for Inactive)
REMARK    1  A    between atoms: N1_3  and  C3_4 
ROOT
HETATM    1  C1  UNL     1       2.779   0.090  -1.109  1.00  0.00     0.100 A 
HETATM    2  C2  UNL     1       1.852  -0.774  -0.753  1.00  0.00     0.089 A 
HETATM    3  N1  UNL     1       1.273  -0.328   0.447  1.00  0.00    -0.221 NA
HETATM    4  C9  UNL     1       1.934   0.865   0.767  1.00  0.00     0.160 A 
HETATM    5  N2  UNL     1       2.809   1.113  -0.133  1.00  0.00    -0.365 N 
ATOM      6  H2  UNL     1       3.431   1.922  -0.145  1.00  0.00     0.165 HD
ENDROOT
BRANCH   3   7
HETATM    7  C3  UNL     1      -0.139  -0.149   0.332  1.00  0.00     0.019 A 
HETATM    8  C4  UNL     1      -0.711  -0.424  -0.890  1.00  0.00     0.024 A 
HETATM    9  C5  UNL     1      -2.066  -0.278  -1.084  1.00  0.00     0.002 A 
HETATM   10  C6  UNL     1      -2.842   0.148  -0.034  1.00  0.00     0.000 A 
HETATM   11  C7  UNL     1      -2.252   0.419   1.185  1.00  0.00     0.002 A 
HETATM   12  C8  UNL     1      -0.906   0.276   1.385  1.00  0.00     0.024 A 
ENDBRANCH   3   7
TORSDOF 1
