REMARK  1 active torsions:
REMARK  status: ('A' for Active; 'I' for Inactive)
REMARK    1  A    between atoms: C1_4  and  C2_5 
ROOT
HETATM    1  C2  UNL     1       1.406  -0.374   0.250  1.00  0.00     0.143 A 
HETATM    2  N2  UNL     1       1.938   0.863   0.158  1.00  0.00    -0.282 N 
ATOM      3  H2  UNL     1       2.928   1.080   0.270  1.00  0.00     0.188 HD
HETATM    4  N3  UNL     1       0.999   1.749  -0.096  1.00  0.00    -0.283 N 
ATOM      5  H3  UNL     1       1.145   2.752  -0.212  1.00  0.00     0.188 HD
HETATM    6  C3  UNL     1      -0.199   1.108  -0.179  1.00  0.00     0.127 A 
HETATM    7  C4  UNL     1      -1.476   1.573  -0.423  1.00  0.00     0.050 A 
HETATM    8  C5  UNL     1      -2.520   0.682  -0.450  1.00  0.00     0.005 A 
HETATM    9  C6  UNL     1      -2.231  -0.651  -0.228  1.00  0.00     0.018 A 
HETATM   10  C7  UNL     1      -0.947  -1.074   0.011  1.00  0.00     0.100 A 
HETATM   11  N4  UNL     1       0.081  -0.183   0.036  1.00  0.00    -0.291 N 
ENDROOT
BRANCH   1  12
HETATM   12  C1  UNL     1       2.066  -1.635   0.515  1.00  0.00     0.131 C 
HETATM   13  N1  UNL     1       3.328  -1.653   0.697  1.00  0.00    -0.405 N 
ATOM     14  H12 UNL     1       3.852  -0.779   0.653  1.00  0.00     0.155 HD
ATOM     15  H11 UNL     1       3.793  -2.541   0.884  1.00  0.00     0.155 HD
ENDBRANCH   1  12
TORSDOF 1
