REMARK  2 active torsions:
REMARK  status: ('A' for Active; 'I' for Inactive)
REMARK    1  A    between atoms: C3_3  and  C4_4 
REMARK    2  A    between atoms: C4_4  and  N1_5 
ROOT
HETATM    1  C1  UNL     1       4.289   0.258   0.151  1.00  0.00     0.096 C 
HETATM    2  C2  UNL     1       3.151  -0.084   0.443  1.00  0.00    -0.186 C 
HETATM    3  C3  UNL     1       1.807  -0.519   0.784  1.00  0.00     0.109 C 
ENDROOT
BRANCH   3   4
HETATM    4  C4  UNL     1       0.828  -0.135  -0.315  1.00  0.00     0.285 C 
BRANCH   4   5
HETATM    5  N1  UNL     1      -0.500  -0.548  -0.024  1.00  0.00     0.116 N 
HETATM    6  C5  UNL     1      -1.031   0.212   1.078  1.00  0.00     0.302 C 
HETATM    7  C6  UNL     1      -2.386   0.710   0.628  1.00  0.00     0.264 C 
HETATM    8  N2  UNL     1      -2.649   0.035  -0.627  1.00  0.00    -0.047 N 
HETATM    9  C7  UNL     1      -1.365  -0.381  -1.155  1.00  0.00     0.502 C 
ATOM     10  H22 UNL     1      -3.315  -0.732  -0.539  1.00  0.00     0.279 HD
ATOM     11  H21 UNL     1      -3.189   0.600  -1.282  1.00  0.00     0.279 HD
ENDBRANCH   4   5
ENDBRANCH   3   4
TORSDOF 2
