REMARK  5 active torsions:
REMARK  status: ('A' for Active; 'I' for Inactive)
REMARK       I    between atoms: N1_2  and  C2_4 
REMARK       I    between atoms: C2_4  and  N3_8 
REMARK    1  A    between atoms: N3_8  and  C3_10 
REMARK    2  A    between atoms: C3_10  and  C4_11 
REMARK    3  A    between atoms: C4_11  and  C5_12 
REMARK    4  A    between atoms: C8_15  and  O1_16 
REMARK    5  A    between atoms: N4_20  and  O2_22 
ROOT
HETATM    1  C3  UNL     1      -1.321   0.925   0.598  1.00  0.00     0.121 C 
HETATM    2  N4  UNL     1      -1.644   1.614   1.644  1.00  0.00    -0.254 N 
ATOM      3  H4  UNL     1      -2.335   1.244   2.296  1.00  0.00     0.195 HD
ENDROOT
BRANCH   1   4
HETATM    4  N3  UNL     1      -1.963  -0.317   0.431  1.00  0.00    -0.179 N 
HETATM    5  C2  UNL     1      -3.192  -0.499  -0.253  1.00  0.00     0.672 C 
HETATM    6  N1  UNL     1      -3.263  -1.110  -1.545  1.00  0.00    -0.231 N 
HETATM    7  N2  UNL     1      -4.304  -0.114   0.276  1.00  0.00    -0.235 N 
HETATM    8  C1  UNL     1      -4.077  -2.249  -1.844  1.00  0.00     0.165 C 
ATOM      9  H1  UNL     1      -2.701  -0.711  -2.297  1.00  0.00     0.177 HD
ATOM     10  H22 UNL     1      -5.188  -0.245  -0.216  1.00  0.00     0.174 HD
ATOM     11  H21 UNL     1      -4.253   0.322   1.197  1.00  0.00     0.174 HD
ATOM     12  H3  UNL     1      -1.514  -1.142   0.829  1.00  0.00     0.185 HD
ENDBRANCH   1   4
BRANCH   1  13
HETATM   13  C4  UNL     1      -0.316   1.465  -0.346  1.00  0.00     0.117 C 
BRANCH  13  14
HETATM   14  C5  UNL     1       0.871   0.590  -0.485  1.00  0.00    -0.051 A 
HETATM   15  C6  UNL     1       1.980   0.722   0.325  1.00  0.00     0.010 A 
HETATM   16  C7  UNL     1       3.083  -0.079   0.207  1.00  0.00     0.037 A 
HETATM   17  C8  UNL     1       3.095  -1.061  -0.759  1.00  0.00     0.068 A 
HETATM   18  C10 UNL     1       2.010  -1.232  -1.593  1.00  0.00     0.037 A 
HETATM   19  C11 UNL     1       0.897  -0.396  -1.446  1.00  0.00     0.010 A 
BRANCH  17  20
HETATM   20  O1  UNL     1       4.208  -1.896  -0.904  1.00  0.00    -0.356 OA
HETATM   21  C9  UNL     1       5.348  -1.780  -0.090  1.00  0.00     0.210 C 
ENDBRANCH  17  20
ENDBRANCH  13  14
ENDBRANCH   1  13
BRANCH   2  22
HETATM   22  O2  UNL     1      -1.074   2.824   1.885  1.00  0.00    -0.284 OA
HETATM   23  C12 UNL     1      -0.914   3.407   3.148  1.00  0.00     0.237 C 
ENDBRANCH   2  22
TORSDOF 5
