REMARK  5 active torsions:
REMARK  status: ('A' for Active; 'I' for Inactive)
REMARK    1  A    between atoms: C2_2  and  C3_3 
REMARK    2  A    between atoms: C2_2  and  C8_10 
REMARK    3  A    between atoms: N2_13  and  C11_14 
REMARK    4  A    between atoms: C11_14  and  C12_15 
REMARK    5  A    between atoms: C12_15  and  N3_16 
ROOT
HETATM    1  C8  UNL     1       0.015  -0.918   0.592  1.00  0.00    -0.021 A 
HETATM    2  C9  UNL     1      -0.780  -1.818  -0.107  1.00  0.00     0.029 A 
HETATM    3  C10 UNL     1      -1.835  -1.393  -0.891  1.00  0.00     0.093 A 
HETATM    4  N2  UNL     1      -2.139  -0.080  -1.012  1.00  0.00    -0.344 N 
HETATM    5  C13 UNL     1      -1.384   0.787  -0.346  1.00  0.00     0.119 A 
HETATM    6  N4  UNL     1      -1.663   2.179  -0.426  1.00  0.00    -0.083 NA
HETATM    7  C14 UNL     1      -0.311   0.408   0.457  1.00  0.00     0.057 A 
ENDROOT
BRANCH   1   8
HETATM    8  C2  UNL     1       1.115  -1.353   1.455  1.00  0.00    -0.024 C 
HETATM    9  C1  UNL     1       1.029  -2.555   1.994  1.00  0.00     0.025 C 
BRANCH   8  10
HETATM   10  C3  UNL     1       2.289  -0.556   1.751  1.00  0.00    -0.011 A 
HETATM   11  C4  UNL     1       2.997  -0.754   2.918  1.00  0.00     0.015 A 
HETATM   12  C5  UNL     1       4.153  -0.018   3.211  1.00  0.00     0.018 A 
HETATM   13  C6  UNL     1       4.599   0.924   2.320  1.00  0.00     0.087 A 
HETATM   14  N1  UNL     1       3.897   1.099   1.195  1.00  0.00    -0.374 N 
HETATM   15  C7  UNL     1       2.771   0.394   0.892  1.00  0.00     0.099 A 
ATOM     16  H1  UNL     1       4.222   1.798   0.528  1.00  0.00     0.164 HD
ENDBRANCH   8  10
ENDBRANCH   1   8
BRANCH   4  17
HETATM   17  C11 UNL     1      -3.224   0.362  -1.830  1.00  0.00     0.156 C 
BRANCH  17  18
HETATM   18  C12 UNL     1      -2.886   0.613  -3.266  1.00  0.00     0.249 C 
BRANCH  18  19
HETATM   19  N3  UNL     1      -1.877   1.620  -3.473  1.00  0.00    -0.078 N 
ATOM     20  H33 UNL     1      -2.144   2.490  -3.013  1.00  0.00     0.274 HD
ATOM     21  H32 UNL     1      -1.035   1.394  -2.944  1.00  0.00     0.274 HD
ATOM     22  H31 UNL     1      -1.647   1.791  -4.452  1.00  0.00     0.274 HD
ENDBRANCH  18  19
ENDBRANCH  17  18
ENDBRANCH   4  17
TORSDOF 5
