REMARK  5 active torsions:
REMARK  status: ('A' for Active; 'I' for Inactive)
REMARK    1  A    between atoms: C5_5  and  C6_6 
REMARK    2  A    between atoms: N1_7  and  N2_9 
REMARK       I    between atoms: N2_9  and  C7_11 
REMARK       I    between atoms: C7_11  and  N4_15 
REMARK    3  A    between atoms: N4_15  and  C8_17 
REMARK    4  A    between atoms: C8_17  and  C9_18 
REMARK    5  A    between atoms: C9_18  and  N5_19 
ROOT
HETATM    1  N2  UNL     1      -0.255  -0.806   1.257  1.00  0.00    -0.133 N 
ATOM      2  H2  UNL     1      -0.634  -0.562   2.172  1.00  0.00     0.205 HD
HETATM    3  C7  UNL     1       0.945  -0.145   0.843  1.00  0.00     0.686 C 
HETATM    4  N3  UNL     1       0.896   0.786  -0.016  1.00  0.00    -0.234 N 
ATOM      5  H31 UNL     1       1.751   1.257  -0.311  1.00  0.00     0.174 HD
ATOM      6  H32 UNL     1       0.008   1.076  -0.425  1.00  0.00     0.174 HD
HETATM    7  N4  UNL     1       2.172  -0.546   1.408  1.00  0.00    -0.224 N 
ATOM      8  H4  UNL     1       2.436  -0.227   2.340  1.00  0.00     0.177 HD
ENDROOT
BRANCH   1   9
HETATM    9  N1  UNL     1      -0.922  -1.722   0.536  1.00  0.00    -0.297 N 
HETATM   10  C6  UNL     1      -1.981  -1.852  -0.064  1.00  0.00     0.119 C 
ATOM     11  H1  UNL     1      -0.373  -2.579   0.467  1.00  0.00     0.186 HD
BRANCH  10  12
HETATM   12  C5  UNL     1      -3.023  -0.853  -0.192  1.00  0.00    -0.019 A 
HETATM   13  C4  UNL     1      -2.961   0.418   0.347  1.00  0.00     0.013 A 
HETATM   14  C3  UNL     1      -4.027   1.302   0.168  1.00  0.00     0.007 A 
HETATM   15  C2  UNL     1      -5.146   0.933  -0.540  1.00  0.00    -0.062 A 
HETATM   16  C1  UNL     1      -6.287   1.854  -0.743  1.00  0.00     0.048 C 
HETATM   17  C13 UNL     1      -5.182  -0.347  -1.070  1.00  0.00     0.007 A 
HETATM   18  C12 UNL     1      -4.163  -1.237  -0.916  1.00  0.00     0.013 A 
ENDBRANCH  10  12
ENDBRANCH   1   9
BRANCH   7  19
HETATM   19  C8  UNL     1       3.051  -1.408   0.664  1.00  0.00     0.168 C 
BRANCH  19  20
HETATM   20  C9  UNL     1       3.623  -0.681  -0.533  1.00  0.00     0.291 C 
BRANCH  20  21
HETATM   21  N5  UNL     1       4.346   0.462  -0.031  1.00  0.00     0.081 N 
HETATM   22  C10 UNL     1       4.933   1.258  -1.079  1.00  0.00     0.309 C 
HETATM   23  C11 UNL     1       5.296   0.109   0.998  1.00  0.00     0.309 C 
ENDBRANCH  20  21
ENDBRANCH  19  20
ENDBRANCH   7  19
TORSDOF 5
