REMARK  5 active torsions:
REMARK  status: ('A' for Active; 'I' for Inactive)
REMARK    1  A    between atoms: C2_3  and  C3_4 
REMARK    2  A    between atoms: C3_4  and  N2_5 
REMARK       I    between atoms: N2_5  and  C4_7 
REMARK       I    between atoms: C4_7  and  N4_11 
REMARK    3  A    between atoms: N4_11  and  C5_13 
REMARK    4  A    between atoms: C5_13  and  C7_16 
REMARK    5  A    between atoms: C7_16  and  C8_17 
ROOT
HETATM    1  N1  UNL     1       4.165   0.724  -3.084  1.00  0.00    -0.197 NA
HETATM    2  C1  UNL     1       4.545   0.583  -1.985  1.00  0.00     0.060 C 
HETATM    3  C2  UNL     1       5.026   0.422  -0.610  1.00  0.00     0.144 C 
ENDROOT
BRANCH   3   4
HETATM    4  C3  UNL     1       3.802   0.439   0.309  1.00  0.00     0.152 C 
BRANCH   4   5
HETATM    5  N2  UNL     1       2.933  -0.639  -0.052  1.00  0.00    -0.226 N 
HETATM    6  C4  UNL     1       1.715  -0.864   0.639  1.00  0.00     0.668 C 
HETATM    7  N3  UNL     1       1.215  -2.032   0.774  1.00  0.00    -0.235 N 
HETATM    8  N4  UNL     1       0.986   0.238   1.222  1.00  0.00    -0.209 N 
ATOM      9  H32 UNL     1       1.730  -2.810   0.362  1.00  0.00     0.174 HD
ATOM     10  H31 UNL     1       0.339  -2.194   1.271  1.00  0.00     0.174 HD
ATOM     11  H4  UNL     1       1.492   1.018   1.641  1.00  0.00     0.179 HD
ATOM     12  H2  UNL     1       3.194  -1.257  -0.820  1.00  0.00     0.177 HD
BRANCH   8  13
HETATM   13  C5  UNL     1      -0.449   0.236   1.212  1.00  0.00     0.211 C 
HETATM   14  C6  UNL     1      -0.968  -0.931   1.938  1.00  0.00     0.085 C 
HETATM   15  N5  UNL     1      -1.384  -1.845   2.530  1.00  0.00    -0.195 NA
BRANCH  13  16
HETATM   16  C7  UNL     1      -0.912   0.182  -0.232  1.00  0.00     0.079 C 
BRANCH  16  17
HETATM   17  C8  UNL     1      -2.395   0.177  -0.319  1.00  0.00    -0.055 A 
HETATM   18  C9  UNL     1      -3.108  -1.003  -0.319  1.00  0.00     0.007 A 
HETATM   19  C10 UNL     1      -4.503  -0.931  -0.402  1.00  0.00     0.001 A 
HETATM   20  C11 UNL     1      -5.138   0.291  -0.482  1.00  0.00     0.000 A 
HETATM   21  C12 UNL     1      -4.435   1.479  -0.483  1.00  0.00     0.001 A 
HETATM   22  C13 UNL     1      -3.045   1.388  -0.399  1.00  0.00     0.007 A 
ENDBRANCH  16  17
ENDBRANCH  13  16
ENDBRANCH   8  13
ENDBRANCH   4   5
ENDBRANCH   3   4
TORSDOF 5
