REMARK  6 active torsions:
REMARK  status: ('A' for Active; 'I' for Inactive)
REMARK    1  A    between atoms: C4_6  and  N2_7 
REMARK    2  A    between atoms: C5_12  and  N4_13 
REMARK    3  A    between atoms: N4_13  and  C6_15 
REMARK    4  A    between atoms: C6_15  and  C7_16 
REMARK    5  A    between atoms: C7_16  and  O1_17 
REMARK    6  A    between atoms: O1_17  and  C8_18 
ROOT
HETATM    1  C1  UNL     1      -2.341  -1.377  -2.138  1.00  0.00     0.054 C 
HETATM    2  C2  UNL     1      -2.790  -0.692  -0.879  1.00  0.00    -0.001 A 
HETATM    3  C3  UNL     1      -4.010  -0.011  -0.885  1.00  0.00     0.116 A 
HETATM    4  N1  UNL     1      -4.456   0.615   0.212  1.00  0.00    -0.202 N 
ATOM      5  H1  UNL     1      -5.351   1.103   0.175  1.00  0.00     0.183 HD
HETATM    6  C4  UNL     1      -3.757   0.619   1.361  1.00  0.00     0.677 A 
HETATM    7  N3  UNL     1      -2.602  -0.019   1.385  1.00  0.00    -0.176 N 
ATOM      8  H3  UNL     1      -2.069  -0.018   2.255  1.00  0.00     0.186 HD
HETATM    9  C5  UNL     1      -2.072  -0.692   0.290  1.00  0.00     0.128 A 
ENDROOT
BRANCH   9  10
HETATM   10  N4  UNL     1      -0.980  -1.263   0.410  1.00  0.00    -0.353 N 
ATOM     11  H4  UNL     1      -0.687  -1.098   1.373  1.00  0.00     0.166 HD
BRANCH  10  12
HETATM   12  C6  UNL     1       0.005  -2.007  -0.151  1.00  0.00     0.089 C 
BRANCH  12  13
HETATM   13  C7  UNL     1       1.210  -1.198  -0.680  1.00  0.00     0.220 C 
BRANCH  13  14
HETATM   14  O1  UNL     1       1.743  -0.517   0.421  1.00  0.00    -0.346 OA
BRANCH  14  15
HETATM   15  C8  UNL     1       2.837   0.324   0.375  1.00  0.00     0.069 A 
HETATM   16  C9  UNL     1       3.226   0.915   1.565  1.00  0.00     0.037 A 
HETATM   17  C10 UNL     1       4.310   1.775   1.634  1.00  0.00     0.003 A 
HETATM   18  C11 UNL     1       5.032   2.060   0.498  1.00  0.00     0.000 A 
HETATM   19  C12 UNL     1       4.631   1.463  -0.679  1.00  0.00     0.003 A 
HETATM   20  C13 UNL     1       3.551   0.607  -0.747  1.00  0.00     0.037 A 
ENDBRANCH  14  15
ENDBRANCH  13  14
ENDBRANCH  12  13
ENDBRANCH  10  12
ENDBRANCH   9  10
BRANCH   6  21
HETATM   21  N2  UNL     1      -4.237   1.247   2.407  1.00  0.00    -0.234 N 
ATOM     22  H22 UNL     1      -5.130   1.740   2.388  1.00  0.00     0.174 HD
ATOM     23  H21 UNL     1      -3.707   1.250   3.278  1.00  0.00     0.174 HD
ENDBRANCH   6  21
TORSDOF 6
