REMARK  5 active torsions:
REMARK  status: ('A' for Active; 'I' for Inactive)
REMARK    1  A    between atoms: C3_4  and  C4_5 
REMARK    2  A    between atoms: C4_5  and  N1_6 
REMARK    3  A    between atoms: C8_10  and  O2_11 
REMARK    4  A    between atoms: C9_13  and  O3_14 
REMARK    5  A    between atoms: C10_16  and  C11_17 
ROOT
HETATM    1  C1  UNL     1       2.489  -2.299  -1.415  1.00  0.00     0.040 C 
HETATM    2  C2  UNL     1       1.776  -1.519  -0.298  1.00  0.00     0.133 C 
HETATM    3  O1  UNL     1       0.452  -1.597  -0.561  1.00  0.00    -0.376 OA
HETATM    4  C3  UNL     1      -0.401  -0.863   0.285  1.00  0.00     0.179 C 
HETATM    5  C8  UNL     1       0.387   0.133   1.026  1.00  0.00     0.178 C 
HETATM    6  C9  UNL     1       1.324   0.900   0.102  1.00  0.00     0.164 C 
HETATM    7  C10 UNL     1       2.348  -0.124  -0.352  1.00  0.00     0.135 C 
ENDROOT
BRANCH   4   8
HETATM    8  C4  UNL     1      -1.531  -0.435  -0.561  1.00  0.00     0.270 C 
BRANCH   8   9
HETATM    9  N1  UNL     1      -2.613   0.301   0.025  1.00  0.00    -0.076 N 
HETATM   10  C5  UNL     1      -3.769   0.031  -0.890  1.00  0.00     0.271 C 
HETATM   11  C6  UNL     1      -2.464   1.741  -0.040  1.00  0.00     0.271 C 
HETATM   12  C7  UNL     1      -3.038  -0.126   1.319  1.00  0.00     0.271 C 
ENDBRANCH   8   9
ENDBRANCH   4   8
BRANCH   5  13
HETATM   13  O2  UNL     1      -0.250   0.944   1.919  1.00  0.00    -0.390 OA
ATOM     14  H2  UNL     1       0.259   1.588   2.398  1.00  0.00     0.210 HD
ENDBRANCH   5  13
BRANCH   6  15
HETATM   15  O3  UNL     1       1.902   1.915   0.866  1.00  0.00    -0.392 OA
ATOM     16  H3  UNL     1       2.486   2.393   0.290  1.00  0.00     0.210 HD
ENDBRANCH   6  15
BRANCH   7  17
HETATM   17  C11 UNL     1       3.490  -0.063   0.594  1.00  0.00     0.240 C 
HETATM   18  N2  UNL     1       4.252   1.112   0.786  1.00  0.00    -0.062 NA
HETATM   19  O4  UNL     1       3.845  -1.077   1.288  1.00  0.00    -0.276 OA
ENDBRANCH   7  17
TORSDOF 5
