REMARK  12 active torsions:
REMARK  status: ('A' for Active; 'I' for Inactive)
REMARK    1  A    between atoms: C2_2  and  C3_4 
REMARK    2  A    between atoms: C4_5  and  O2_6 
REMARK    3  A    between atoms: C12_15  and  N1_16 
REMARK       I    between atoms: N1_16  and  C14_18 
REMARK    4  A    between atoms: C14_18  and  C15_20 
REMARK    5  A    between atoms: C15_20  and  C16_21 
REMARK    6  A    between atoms: C16_21  and  C17_22 
REMARK    7  A    between atoms: C17_22  and  C18_23 
REMARK    8  A    between atoms: C18_23  and  C19_24 
REMARK    9  A    between atoms: C19_24  and  C20_25 
REMARK   10  A    between atoms: C20_25  and  O4_26 
REMARK   11  A    between atoms: N2_28  and  O5_30 
REMARK   12  A    between atoms: C28_39  and  O6_40 
ROOT
HETATM    1  C3  UNL     1      -5.005   0.808  -0.646  1.00  0.00     0.082 A 
HETATM    2  C4  UNL     1      -4.073   1.974  -0.469  1.00  0.00     0.138 C 
HETATM    3  C5  UNL     1      -2.658   1.719  -0.794  1.00  0.00     0.038 C 
HETATM    4  C6  UNL     1      -2.221   0.301  -0.818  1.00  0.00    -0.002 C 
HETATM    5  C7  UNL     1      -0.739   0.092  -0.589  1.00  0.00     0.001 C 
HETATM    6  C8  UNL     1      -0.112  -0.766  -1.633  1.00  0.00     0.010 C 
HETATM    7  C9  UNL     1       0.636  -1.967  -1.230  1.00  0.00    -0.016 C 
HETATM    8  C10 UNL     1      -0.122  -3.274  -1.536  1.00  0.00     0.010 C 
HETATM    9  C11 UNL     1       1.175  -1.993   0.151  1.00  0.00     0.030 C 
HETATM   10  C12 UNL     1       1.090  -0.632   0.787  1.00  0.00     0.095 C 
HETATM   11  C21 UNL     1      -0.348  -0.180   0.838  1.00  0.00    -0.019 C 
HETATM   12  C22 UNL     1      -0.303   1.153   1.618  1.00  0.00     0.018 C 
HETATM   13  C23 UNL     1      -1.249  -1.053   1.615  1.00  0.00     0.012 C 
HETATM   14  C24 UNL     1      -2.698  -0.678   1.444  1.00  0.00     0.007 C 
HETATM   15  C25 UNL     1      -3.055  -0.652  -0.006  1.00  0.00     0.002 C 
HETATM   16  C26 UNL     1      -4.500  -0.504  -0.303  1.00  0.00     0.007 A 
HETATM   17  C27 UNL     1      -5.227  -1.689  -0.954  1.00  0.00     0.020 C 
HETATM   18  C28 UNL     1      -5.395   0.190   0.723  1.00  0.00     0.147 A 
ENDROOT
BRANCH  10  19
HETATM   19  N1  UNL     1       1.840  -0.521   1.987  1.00  0.00    -0.351 N 
HETATM   20  C13 UNL     1       1.521  -1.378   3.109  1.00  0.00     0.153 C 
HETATM   21  C14 UNL     1       2.948   0.378   2.157  1.00  0.00     0.219 C 
HETATM   22  O3  UNL     1       3.548   0.413   3.260  1.00  0.00    -0.273 OA
BRANCH  21  23
HETATM   23  C15 UNL     1       3.415   1.268   1.085  1.00  0.00     0.103 C 
BRANCH  23  24
HETATM   24  C16 UNL     1       4.647   2.044   1.379  1.00  0.00     0.009 C 
BRANCH  24  25
HETATM   25  C17 UNL     1       5.877   1.253   1.662  1.00  0.00     0.001 C 
BRANCH  25  26
HETATM   26  C18 UNL     1       6.304   0.345   0.535  1.00  0.00     0.008 C 
BRANCH  26  27
HETATM   27  C19 UNL     1       6.603   1.110  -0.732  1.00  0.00     0.086 C 
BRANCH  27  28
HETATM   28  C20 UNL     1       7.027   0.225  -1.832  1.00  0.00     0.135 C 
HETATM   29  N2  UNL     1       7.110  -1.048  -1.684  1.00  0.00    -0.251 N 
ATOM     30  H2  UNL     1       6.872  -1.444  -0.775  1.00  0.00     0.196 HD
BRANCH  28  31
HETATM   31  O4  UNL     1       7.348   0.772  -3.060  1.00  0.00    -0.348 OA
ATOM     32  H4  UNL     1       7.621   0.202  -3.769  1.00  0.00     0.219 HD
ENDBRANCH  28  31
BRANCH  29  33
HETATM   33  O5  UNL     1       7.497  -1.896  -2.672  1.00  0.00    -0.288 OA
ATOM     34  H5  UNL     1       7.558  -2.838  -2.563  1.00  0.00     0.244 HD
ENDBRANCH  29  33
ENDBRANCH  27  28
ENDBRANCH  26  27
ENDBRANCH  25  26
ENDBRANCH  24  25
ENDBRANCH  23  24
ENDBRANCH  21  23
ENDBRANCH  10  19
BRANCH   2  35
HETATM   35  O2  UNL     1      -4.203   2.543   0.822  1.00  0.00    -0.394 OA
ATOM     36  H2  UNL     1      -3.614   3.280   0.934  1.00  0.00     0.210 HD
ENDBRANCH   2  35
BRANCH   1  37
HETATM   37  C2  UNL     1      -6.153   0.972  -1.583  1.00  0.00     0.137 C 
HETATM   38  C1  UNL     1      -7.217   1.984  -1.419  1.00  0.00     0.092 C 
HETATM   39  O1  UNL     1      -6.215   0.225  -2.542  1.00  0.00    -0.297 OA
ENDBRANCH   1  37
BRANCH  18  40
HETATM   40  O6  UNL     1      -6.717  -0.199   0.859  1.00  0.00    -0.393 OA
ATOM     41  H6  UNL     1      -6.956  -0.577   1.697  1.00  0.00     0.210 HD
ENDBRANCH  18  40
TORSDOF 12
