REMARK  11 active torsions:
REMARK  status: ('A' for Active; 'I' for Inactive)
REMARK    1  A    between atoms: C5_6  and  C6_7 
REMARK    2  A    between atoms: C7_8  and  C9_10 
REMARK    3  A    between atoms: C10_11  and  C11_12 
REMARK    4  A    between atoms: C12_13  and  C13_14 
REMARK    5  A    between atoms: C12_13  and  C16_19 
REMARK    6  A    between atoms: C13_14  and  C14_15 
REMARK    7  A    between atoms: C14_15  and  C15_16 
REMARK    8  A    between atoms: C16_19  and  O4_20 
REMARK    9  A    between atoms: C18_22  and  O5_23 
REMARK   10  A    between atoms: C19_25  and  O6_27 
REMARK   11  A    between atoms: C27_35  and  O7_36 
ROOT
HETATM    1  C1  UNL     1      -2.986   1.553  -2.503  1.00  0.00     0.021 C 
HETATM    2  C2  UNL     1      -2.473   0.812  -1.562  1.00  0.00    -0.014 C 
HETATM    3  C3  UNL     1      -2.708  -0.603  -1.246  1.00  0.00     0.118 A 
HETATM    4  O1  UNL     1      -2.068  -1.501  -2.029  1.00  0.00    -0.363 OA
HETATM    5  C4  UNL     1      -1.392  -1.219  -0.864  1.00  0.00     0.173 A 
HETATM    6  C5  UNL     1      -0.526   0.016  -0.742  1.00  0.00     0.083 C 
HETATM    7  C18 UNL     1      -1.457   1.162  -0.481  1.00  0.00     0.123 C 
HETATM    8  C19 UNL     1      -2.221   1.266   0.744  1.00  0.00     0.090 C 
HETATM    9  C20 UNL     1      -2.006   0.344   1.884  1.00  0.00     0.049 C 
HETATM   10  C21 UNL     1      -3.708   1.474   0.573  1.00  0.00     0.046 C 
HETATM   11  C22 UNL     1      -4.522   0.452  -0.038  1.00  0.00    -0.003 C 
HETATM   12  C23 UNL     1      -5.723   0.192   0.896  1.00  0.00     0.016 C 
HETATM   13  C24 UNL     1      -6.498  -1.018   0.477  1.00  0.00    -0.021 C 
HETATM   14  C25 UNL     1      -7.982  -0.667   0.663  1.00  0.00     0.017 C 
HETATM   15  C26 UNL     1      -6.212  -2.197   1.409  1.00  0.00     0.017 C 
HETATM   16  C27 UNL     1      -6.315  -1.426  -0.937  1.00  0.00     0.126 C 
HETATM   17  C28 UNL     1      -4.897  -1.545  -1.394  1.00  0.00     0.041 C 
HETATM   18  C29 UNL     1      -3.917  -0.847  -0.439  1.00  0.00     0.034 C 
ENDROOT
BRANCH   6  19
HETATM   19  C6  UNL     1       0.630  -0.117   0.084  1.00  0.00    -0.009 C 
HETATM   20  C7  UNL     1       1.933  -0.118  -0.257  1.00  0.00    -0.065 C 
HETATM   21  C8  UNL     1       2.372   0.030  -1.653  1.00  0.00     0.048 C 
BRANCH  20  22
HETATM   22  C9  UNL     1       2.880  -0.275   0.813  1.00  0.00     0.006 C 
HETATM   23  C10 UNL     1       4.163  -0.316   0.883  1.00  0.00     0.001 C 
BRANCH  23  24
HETATM   24  C11 UNL     1       5.202  -0.219  -0.103  1.00  0.00     0.005 C 
HETATM   25  C12 UNL     1       6.486  -0.286   0.142  1.00  0.00    -0.056 C 
BRANCH  25  26
HETATM   26  C13 UNL     1       7.074  -0.469   1.460  1.00  0.00     0.047 C 
BRANCH  26  27
HETATM   27  C14 UNL     1       8.029   0.598   1.903  1.00  0.00     0.117 C 
BRANCH  27  28
HETATM   28  C15 UNL     1       7.497   1.958   1.989  1.00  0.00     0.172 C 
HETATM   29  O2  UNL     1       6.341   2.349   1.733  1.00  0.00    -0.648 OA
HETATM   30  O3  UNL     1       8.377   2.981   2.411  1.00  0.00    -0.648 OA
ENDBRANCH  27  28
ENDBRANCH  26  27
ENDBRANCH  25  26
BRANCH  25  31
HETATM   31  C16 UNL     1       7.463  -0.167  -1.024  1.00  0.00     0.201 C 
BRANCH  31  32
HETATM   32  O4  UNL     1       8.177  -1.351  -1.027  1.00  0.00    -0.392 OA
HETATM   33  C17 UNL     1       9.112  -1.370  -2.056  1.00  0.00     0.201 C 
ENDBRANCH  31  32
ENDBRANCH  25  31
ENDBRANCH  23  24
ENDBRANCH  20  22
ENDBRANCH   6  19
BRANCH   7  34
HETATM   34  O5  UNL     1      -0.840   2.327  -0.933  1.00  0.00    -0.381 OA
ATOM     35  H5  UNL     1      -0.207   2.545  -0.259  1.00  0.00     0.211 HD
ENDBRANCH   7  34
BRANCH   8  36
HETATM   36  O6  UNL     1      -1.821   2.535   1.294  1.00  0.00    -0.387 OA
ATOM     37  H6  UNL     1      -2.322   2.603   2.098  1.00  0.00     0.210 HD
ENDBRANCH   8  36
BRANCH  16  38
HETATM   38  O7  UNL     1      -7.088  -0.594  -1.751  1.00  0.00    -0.395 OA
ATOM     39  H7  UNL     1      -6.971  -0.855  -2.657  1.00  0.00     0.210 HD
ENDBRANCH  16  38
TORSDOF 11
