REMARK  11 active torsions:
REMARK  status: ('A' for Active; 'I' for Inactive)
REMARK    1  A    between atoms: C3_3  and  O1_4 
REMARK    2  A    between atoms: C4_6  and  C5_7 
REMARK    3  A    between atoms: C5_7  and  C6_8 
REMARK    4  A    between atoms: C6_8  and  C7_10 
REMARK    5  A    between atoms: C11_16  and  C12_17 
REMARK    6  A    between atoms: C12_17  and  C13_18 
REMARK    7  A    between atoms: C12_17  and  O4_26 
REMARK    8  A    between atoms: C13_18  and  C14_19 
REMARK    9  A    between atoms: C15_20  and  C16_21 
REMARK   10  A    between atoms: C16_21  and  O3_24 
REMARK   11  A    between atoms: C22_30  and  O5_31 
ROOT
HETATM    1  C7  UNL     1      -3.941   0.583  -0.281  1.00  0.00     0.142 C 
HETATM    2  C8  UNL     1      -2.741   1.462  -0.660  1.00  0.00     0.134 C 
HETATM    3  N1  UNL     1      -1.788   1.309   0.360  1.00  0.00    -0.415 N 
ATOM      4  H1  UNL     1      -1.668   2.051   1.050  1.00  0.00     0.153 HD
HETATM    5  C9  UNL     1      -0.999   0.155   0.446  1.00  0.00     0.086 C 
HETATM    6  C10 UNL     1       0.428   0.623   0.270  1.00  0.00     0.062 C 
HETATM    7  C11 UNL     1       1.447  -0.398   0.131  1.00  0.00    -0.046 C 
HETATM    8  C20 UNL     1       1.178  -1.660  -0.030  1.00  0.00    -0.064 C 
HETATM    9  C21 UNL     1       2.232  -2.688  -0.181  1.00  0.00     0.067 C 
HETATM   10  C22 UNL     1       1.788  -3.884  -1.022  1.00  0.00     0.122 C 
HETATM   11  C23 UNL     1       0.473  -4.388  -0.572  1.00  0.00     0.033 C 
HETATM   12  C24 UNL     1      -0.588  -3.298  -0.762  1.00  0.00     0.016 C 
HETATM   13  C25 UNL     1      -0.243  -2.069  -0.003  1.00  0.00    -0.014 C 
HETATM   14  C26 UNL     1      -0.545  -2.368   1.464  1.00  0.00     0.020 C 
HETATM   15  C27 UNL     1      -1.191  -0.961  -0.503  1.00  0.00     0.027 C 
HETATM   16  C28 UNL     1      -2.506  -1.597  -0.624  1.00  0.00     0.086 C 
HETATM   17  C29 UNL     1      -3.650  -0.716  -0.910  1.00  0.00     0.140 C 
HETATM   18  O6  UNL     1      -4.469  -1.056  -1.748  1.00  0.00    -0.297 OA
ENDROOT
BRANCH   7  19
HETATM   19  C12 UNL     1       2.902   0.156   0.205  1.00  0.00     0.153 C 
BRANCH  19  20
HETATM   20  C13 UNL     1       3.105   0.865  -1.041  1.00  0.00     0.063 C 
BRANCH  20  21
HETATM   21  C14 UNL     1       4.378   1.520  -1.325  1.00  0.00    -0.025 C 
HETATM   22  C15 UNL     1       5.452   1.589  -0.596  1.00  0.00     0.006 C 
BRANCH  22  23
HETATM   23  C16 UNL     1       6.650   2.348  -1.149  1.00  0.00     0.068 C 
HETATM   24  C17 UNL     1       7.172   3.187  -0.011  1.00  0.00     0.050 C 
HETATM   25  C18 UNL     1       7.708   1.394  -1.619  1.00  0.00     0.050 C 
BRANCH  23  26
HETATM   26  O3  UNL     1       6.265   3.195  -2.180  1.00  0.00    -0.387 OA
ATOM     27  H3  UNL     1       7.013   3.669  -2.525  1.00  0.00     0.211 HD
ENDBRANCH  23  26
ENDBRANCH  22  23
ENDBRANCH  20  21
ENDBRANCH  19  20
BRANCH  19  28
HETATM   28  O4  UNL     1       3.724  -0.769   0.709  1.00  0.00    -0.386 OA
HETATM   29  C19 UNL     1       3.922  -0.559   2.095  1.00  0.00     0.202 C 
ENDBRANCH  19  28
ENDBRANCH   7  19
BRANCH  10  30
HETATM   30  O5  UNL     1       2.735  -4.891  -0.864  1.00  0.00    -0.395 OA
ATOM     31  H5  UNL     1       2.459  -5.635  -1.387  1.00  0.00     0.210 HD
ENDBRANCH  10  30
BRANCH   1  32
HETATM   32  C6  UNL     1      -5.213   1.198  -0.663  1.00  0.00     0.140 C 
HETATM   33  O2  UNL     1      -5.227   2.274  -1.217  1.00  0.00    -0.297 OA
BRANCH  32  34
HETATM   34  C5  UNL     1      -6.469   0.467  -0.352  1.00  0.00     0.091 C 
BRANCH  34  35
HETATM   35  C4  UNL     1      -7.148   0.993   0.902  1.00  0.00     0.056 A 
HETATM   36  C2  UNL     1      -7.525   2.430   0.808  1.00  0.00    -0.053 A 
HETATM   37  C1  UNL     1      -7.328   3.721   0.740  1.00  0.00     0.017 C 
HETATM   38  C3  UNL     1      -8.559   1.298   0.843  1.00  0.00     0.155 A 
BRANCH  38  39
HETATM   39  O1  UNL     1      -9.268   1.063  -0.315  1.00  0.00    -0.391 OA
ATOM     40  H1  UNL     1      -9.909   0.362  -0.293  1.00  0.00     0.210 HD
ENDBRANCH  38  39
ENDBRANCH  34  35
ENDBRANCH  32  34
ENDBRANCH   1  32
TORSDOF 11
