REMARK  16 active torsions:
REMARK  status: ('A' for Active; 'I' for Inactive)
REMARK    1  A    between atoms: C2_2  and  O1_3 
REMARK    2  A    between atoms: C2_2  and  C3_5 
REMARK       I    between atoms: C3_5  and  N1_7 
REMARK    3  A    between atoms: N1_7  and  C4_9 
REMARK    4  A    between atoms: C4_9  and  C5_10 
REMARK    5  A    between atoms: C6_12  and  N2_13 
REMARK    6  A    between atoms: C7_14  and  N3_15 
REMARK    7  A    between atoms: N4_18  and  C8_19 
REMARK    8  A    between atoms: C8_19  and  C9_20 
REMARK    9  A    between atoms: C9_20  and  O4_21 
REMARK   10  A    between atoms: C9_20  and  C10_23 
REMARK   11  A    between atoms: C10_23  and  O5_24 
REMARK   12  A    between atoms: C12_27  and  N5_28 
REMARK   13  A    between atoms: C13_33  and  C14_34 
REMARK       I    between atoms: C14_34  and  N7_36 
REMARK   14  A    between atoms: N8_38  and  C15_40 
REMARK   15  A    between atoms: C16_45  and  N11_46 
REMARK   16  A    between atoms: N12_49  and  N13_50 
ROOT
HETATM    1  N2  UNL     1      -0.927  -1.307   0.529  1.00  0.00    -0.114 N 
HETATM    2  C7  UNL     1      -0.944  -2.666   0.483  1.00  0.00     0.690 A 
HETATM    3  N4  UNL     1       0.319  -3.107   0.602  1.00  0.00    -0.148 N 
HETATM    4  C11 UNL     1       1.131  -2.036   0.723  1.00  0.00     0.144 A 
HETATM    5  C12 UNL     1       2.491  -1.871   0.872  1.00  0.00     0.132 A 
HETATM    6  N6  UNL     1       3.004  -0.635   0.967  1.00  0.00    -0.322 N 
ATOM      7  H6  UNL     1       4.013  -0.539   1.077  1.00  0.00     0.169 HD
HETATM    8  C13 UNL     1       2.252   0.494   0.925  1.00  0.00     0.179 A 
HETATM    9  N14 UNL     1       0.927   0.331   0.780  1.00  0.00    -0.321 N 
ATOM     10  H14 UNL     1       0.331   1.158   0.745  1.00  0.00     0.169 HD
HETATM   11  C17 UNL     1       0.357  -0.883   0.679  1.00  0.00     0.162 A 
ENDROOT
BRANCH   8  12
HETATM   12  C14 UNL     1       2.868   1.815   1.034  1.00  0.00     0.304 C 
HETATM   13  O6  UNL     1       2.124   2.824   0.989  1.00  0.00    -0.263 OA
HETATM   14  N7  UNL     1       4.252   1.994   1.187  1.00  0.00    -0.249 N 
HETATM   15  N8  UNL     1       5.028   1.470   0.347  1.00  0.00    -0.126 N 
ATOM     16  H7  UNL     1       4.622   2.539   1.966  1.00  0.00     0.191 HD
ATOM     17  H8  UNL     1       4.653   0.926  -0.430  1.00  0.00     0.206 HD
BRANCH  15  18
HETATM   18  C15 UNL     1       6.432   1.642   0.488  1.00  0.00     0.748 A 
HETATM   19  N9  UNL     1       7.107   1.100   1.530  1.00  0.00    -0.114 N 
HETATM   20  N10 UNL     1       8.370   1.451   1.351  1.00  0.00    -0.116 N 
ATOM     21  H9  UNL     1       6.723   0.540   2.291  1.00  0.00     0.206 HD
HETATM   22  C16 UNL     1       8.519   2.190   0.244  1.00  0.00     0.727 A 
ATOM     23  H10 UNL     1       9.133   1.192   1.976  1.00  0.00     0.206 HD
HETATM   24  N12 UNL     1       7.284   2.312  -0.307  1.00  0.00     0.087 N 
BRANCH  22  25
HETATM   25  N11 UNL     1       9.596   2.709  -0.251  1.00  0.00    -0.231 N 
ATOM     26 2H11 UNL     1      10.524   2.617   0.163  1.00  0.00     0.174 HD
ATOM     27 1H11 UNL     1       9.709   3.272  -1.094  1.00  0.00     0.174 HD
ENDBRANCH  22  25
BRANCH  24  28
HETATM   28  N13 UNL     1       6.933   2.994  -1.473  1.00  0.00    -0.309 N 
ATOM     29 2H13 UNL     1       6.005   3.086  -1.887  1.00  0.00     0.178 HD
ATOM     30 1H13 UNL     1       7.580   3.502  -2.076  1.00  0.00     0.178 HD
ENDBRANCH  24  28
ENDBRANCH  15  18
ENDBRANCH   8  12
BRANCH   5  31
HETATM   31  N5  UNL     1       3.214  -2.938   0.914  1.00  0.00    -0.383 N 
ATOM     32  H52 UNL     1       2.824  -3.878   0.842  1.00  0.00     0.157 HD
ATOM     33  H51 UNL     1       4.221  -2.816   1.024  1.00  0.00     0.157 HD
ENDBRANCH   5  31
BRANCH   1  34
HETATM   34  C6  UNL     1      -2.083  -0.447   0.436  1.00  0.00     0.405 C 
HETATM   35  O3  UNL     1      -1.991   0.466  -0.614  1.00  0.00    -0.326 OA
HETATM   36  C5  UNL     1      -2.893   1.483  -0.310  1.00  0.00     0.243 C 
HETATM   37  C18 UNL     1      -2.906   1.503   1.160  1.00  0.00     0.293 C 
HETATM   38  O7  UNL     1      -2.269   0.352   1.604  1.00  0.00    -0.268 OA
HETATM   39  O8  UNL     1      -3.384   2.365   1.950  1.00  0.00    -0.262 OA
BRANCH  36  40
HETATM   40  C4  UNL     1      -4.246   1.071  -0.832  1.00  0.00     0.165 C 
BRANCH  40  41
HETATM   41  N1  UNL     1      -5.251   2.082  -0.555  1.00  0.00    -0.356 N 
HETATM   42  C3  UNL     1      -6.598   1.954  -0.933  1.00  0.00     0.246 C 
HETATM   43  O2  UNL     1      -6.958   0.917  -1.539  1.00  0.00    -0.271 OA
ATOM     44  H1  UNL     1      -4.965   2.927  -0.061  1.00  0.00     0.162 HD
BRANCH  42  45
HETATM   45  C2  UNL     1      -7.576   3.013  -0.626  1.00  0.00     0.205 C 
HETATM   46  C1  UNL     1      -8.673   2.408   0.238  1.00  0.00     0.049 C 
BRANCH  45  47
HETATM   47  O1  UNL     1      -7.031   4.081   0.044  1.00  0.00    -0.387 OA
ATOM     48  H1  UNL     1      -6.346   4.459  -0.495  1.00  0.00     0.210 HD
ENDBRANCH  45  47
ENDBRANCH  42  45
ENDBRANCH  40  41
ENDBRANCH  36  40
ENDBRANCH   1  34
BRANCH   3  49
HETATM   49  C8  UNL     1       0.776  -4.465   0.606  1.00  0.00     0.150 C 
BRANCH  49  50
HETATM   50  C9  UNL     1       1.031  -5.130  -0.488  1.00  0.00     0.083 C 
BRANCH  50  51
HETATM   51  O4  UNL     1       1.467  -6.428  -0.434  1.00  0.00    -0.361 OA
ATOM     52  H4  UNL     1       1.653  -6.912  -1.230  1.00  0.00     0.217 HD
ENDBRANCH  50  51
BRANCH  50  53
HETATM   53  C10 UNL     1       0.848  -4.483  -1.799  1.00  0.00     0.229 C 
BRANCH  53  54
HETATM   54  O5  UNL     1      -0.095  -5.213  -2.517  1.00  0.00    -0.394 OA
ATOM     55  H5  UNL     1      -0.213  -4.796  -3.362  1.00  0.00     0.209 HD
ENDBRANCH  53  54
ENDBRANCH  50  53
ENDBRANCH  49  50
ENDBRANCH   3  49
BRANCH   2  56
HETATM   56  N3  UNL     1      -1.959  -3.453   0.349  1.00  0.00    -0.234 N 
ATOM     57  H32 UNL     1      -2.918  -3.118   0.259  1.00  0.00     0.174 HD
ATOM     58  H31 UNL     1      -1.972  -4.472   0.314  1.00  0.00     0.174 HD
ENDBRANCH   2  56
TORSDOF 16
