REMARK  2 active torsions:
REMARK  status: ('A' for Active; 'I' for Inactive)
REMARK    1  A    between atoms: N1_1  and  C1_4 
REMARK    2  A    between atoms: N2_8  and  N3_9 
ROOT
HETATM    1  C1  UNL     1      -1.089   1.450   0.484  1.00  0.00     0.163 A 
HETATM    2  S1  UNL     1      -2.735   1.070   0.703  1.00  0.00    -0.063 SA
HETATM    3  C2  UNL     1      -2.709  -0.529   0.094  1.00  0.00     0.072 A 
HETATM    4  C3  UNL     1      -1.396  -0.671  -0.248  1.00  0.00     0.126 A 
HETATM    5  N2  UNL     1      -0.589   0.333  -0.048  1.00  0.00    -0.244 N 
ENDROOT
BRANCH   5   6
HETATM    6  N3  UNL     1       0.813   0.321  -0.361  1.00  0.00    -0.290 N 
HETATM    7  C4  UNL     1       1.526  -0.697  -0.108  1.00  0.00     0.207 C 
HETATM    8  N4  UNL     1       2.897  -0.679  -0.427  1.00  0.00    -0.095 NA
ATOM      9  H3  UNL     1       1.240   1.141  -0.792  1.00  0.00     0.188 HD
ENDBRANCH   5   6
BRANCH   1  10
HETATM   10  N1  UNL     1      -0.522   2.579   0.784  1.00  0.00    -0.378 N 
ATOM     11  H12 UNL     1      -0.904   3.433   1.191  1.00  0.00     0.158 HD
ATOM     12  H11 UNL     1       0.464   2.807   0.653  1.00  0.00     0.158 HD
ENDBRANCH   1  10
TORSDOF 2
