REMARK  2 active torsions:
REMARK  status: ('A' for Active; 'I' for Inactive)
REMARK    1  A    between atoms: N1_2  and  S1_4 
REMARK    2  A    between atoms: S1_4  and  C3_5 
ROOT
HETATM    1  C3  UNL     1       0.877  -0.246   0.674  1.00  0.00     0.156 C 
HETATM    2  N2  UNL     1       0.988   0.644  -0.257  1.00  0.00    -0.368 N 
ATOM      3  H2  UNL     1       0.203   1.116  -0.705  1.00  0.00     0.161 HD
HETATM    4  C4  UNL     1       2.379   0.878  -0.575  1.00  0.00     0.141 C 
HETATM    5  C5  UNL     1       3.031  -0.378  -0.043  1.00  0.00     0.141 C 
HETATM    6  N3  UNL     1       2.163  -0.700   1.073  1.00  0.00    -0.368 N 
ATOM      7  H3  UNL     1       2.419  -1.152   1.951  1.00  0.00     0.161 HD
ENDROOT
BRANCH   1   8
HETATM    8  S1  UNL     1      -0.654  -0.837   1.371  1.00  0.00     0.019 SA
BRANCH   8   9
HETATM    9  N1  UNL     1      -2.040  -0.125   0.708  1.00  0.00    -0.358 N 
HETATM   10  C1  UNL     1      -3.238  -0.874   0.667  1.00  0.00     0.157 C 
HETATM   11  C2  UNL     1      -1.889   0.921  -0.227  1.00  0.00     0.157 C 
ENDBRANCH   8   9
ENDBRANCH   1   8
TORSDOF 2
