REMARK  3 active torsions:
REMARK  status: ('A' for Active; 'I' for Inactive)
REMARK    1  A    between atoms: C2_2  and  N1_3 
REMARK    2  A    between atoms: C5_7  and  N2_8 
REMARK    3  A    between atoms: N2_8  and  N3_10 
ROOT
HETATM    1  N1  UNL     1      -0.261   0.408   0.135  1.00  0.00    -0.336 N 
HETATM    2  C3  UNL     1      -0.621   1.669   0.105  1.00  0.00     0.100 A 
HETATM    3  C4  UNL     1       0.340   2.596  -0.193  1.00  0.00     0.070 A 
HETATM    4  S1  UNL     1       1.724   1.624  -0.421  1.00  0.00    -0.063 SA
HETATM    5  C5  UNL     1       1.009   0.106  -0.126  1.00  0.00     0.164 A 
ENDROOT
BRANCH   5   6
HETATM    6  N2  UNL     1       1.552  -1.099  -0.143  1.00  0.00    -0.286 N 
ATOM      7  H2  UNL     1       1.013  -1.943   0.053  1.00  0.00     0.188 HD
BRANCH   6   8
HETATM    8  N3  UNL     1       2.915  -1.137  -0.448  1.00  0.00    -0.343 N 
ATOM      9  H32 UNL     1       3.441  -0.285  -0.642  1.00  0.00     0.176 HD
ATOM     10  H31 UNL     1       3.334  -2.067  -0.461  1.00  0.00     0.176 HD
ENDBRANCH   6   8
ENDBRANCH   5   6
BRANCH   1  11
HETATM   11  C2  UNL     1      -1.236  -0.672   0.451  1.00  0.00     0.126 C 
HETATM   12  C1  UNL     1      -1.890  -1.176  -0.813  1.00  0.00     0.027 C 
ENDBRANCH   1  11
TORSDOF 3
