REMARK  2 active torsions:
REMARK  status: ('A' for Active; 'I' for Inactive)
REMARK    1  A    between atoms: N1_2  and  C2_5 
REMARK    2  A    between atoms: C3_8  and  S1_9 
ROOT
HETATM    1  C2  UNL     1      -1.051  -0.511   0.726  1.00  0.00     0.454 C 
HETATM    2  N2  UNL     1       0.226   0.067   0.436  1.00  0.00    -0.319 N 
ATOM      3  H2  UNL     1       0.535   1.001   0.706  1.00  0.00     0.166 HD
HETATM    4  C3  UNL     1       0.913  -0.790  -0.220  1.00  0.00     0.163 C 
HETATM    5  N3  UNL     1       0.121  -1.947  -0.385  1.00  0.00    -0.241 N 
ATOM      6  H3  UNL     1       0.450  -2.876  -0.647  1.00  0.00     0.196 HD
HETATM    7  O1  UNL     1      -1.173  -1.582  -0.125  1.00  0.00    -0.223 OA
ENDROOT
BRANCH   1   8
HETATM    8  N1  UNL     1      -2.151   0.412   0.527  1.00  0.00    -0.033 N 
HETATM    9  C1  UNL     1      -2.243   0.895  -0.814  1.00  0.00     0.272 C 
ATOM     10  H12 UNL     1      -2.100   1.186   1.189  1.00  0.00     0.281 HD
ATOM     11  H11 UNL     1      -3.033  -0.005   0.824  1.00  0.00     0.281 HD
ENDBRANCH   1   8
BRANCH   4  12
HETATM   12  S1  UNL     1       2.578  -0.658  -0.862  1.00  0.00    -0.097 SA
HETATM   13  C4  UNL     1       3.261   0.971  -0.447  1.00  0.00     0.099 C 
ENDBRANCH   4  12
TORSDOF 2
