REMARK  10 active torsions:
REMARK  status: ('A' for Active; 'I' for Inactive)
REMARK    1  A    between atoms: O1_2  and  C2_3 
REMARK    2  A    between atoms: C4_5  and  O2_6 
REMARK    3  A    between atoms: C23_26  and  C24_27 
REMARK       I    between atoms: C24_27  and  N1_29 
REMARK    4  A    between atoms: N1_29  and  C25_31 
REMARK    5  A    between atoms: C25_31  and  C26_32 
REMARK    6  A    between atoms: C26_32  and  C28_34 
REMARK    7  A    between atoms: C28_34  and  N2_35 
REMARK    8  A    between atoms: C30_37  and  N3_38 
REMARK    9  A    between atoms: N3_38  and  N4_40 
REMARK   10  A    between atoms: C32_46  and  O4_47 
ROOT
HETATM    1  C2  UNL     1      -6.398  -0.186   0.711  1.00  0.00     0.131 C 
HETATM    2  C3  UNL     1      -5.609  -1.298   0.076  1.00  0.00     0.065 C 
HETATM    3  C4  UNL     1      -4.438  -0.925  -0.731  1.00  0.00     0.129 C 
HETATM    4  C5  UNL     1      -4.424   0.410  -1.395  1.00  0.00    -0.009 C 
HETATM    5  C6  UNL     1      -4.879   0.183  -2.838  1.00  0.00     0.018 C 
HETATM    6  C7  UNL     1      -5.396   1.399  -0.809  1.00  0.00     0.007 C 
HETATM    7  C8  UNL     1      -4.860   2.221   0.301  1.00  0.00     0.007 C 
HETATM    8  C9  UNL     1      -3.492   1.729   0.805  1.00  0.00     0.011 C 
HETATM    9  C10 UNL     1      -2.496   1.747  -0.353  1.00  0.00    -0.032 C 
HETATM   10  C11 UNL     1      -2.557   3.243  -0.760  1.00  0.00     0.016 C 
HETATM   11  C12 UNL     1      -3.000   0.976  -1.489  1.00  0.00     0.005 C 
HETATM   12  C13 UNL     1      -2.115  -0.092  -2.064  1.00  0.00     0.007 C 
HETATM   13  C14 UNL     1      -0.689   0.459  -1.931  1.00  0.00     0.006 C 
HETATM   14  C15 UNL     1      -0.407   0.347  -0.471  1.00  0.00    -0.000 C 
HETATM   15  C16 UNL     1       0.997   0.139  -0.060  1.00  0.00     0.009 C 
HETATM   16  C17 UNL     1       1.721  -0.944  -0.790  1.00  0.00     0.015 C 
HETATM   17  C18 UNL     1       1.390  -2.351  -0.440  1.00  0.00    -0.047 C 
HETATM   18  C19 UNL     1       2.648  -3.231  -0.578  1.00  0.00     0.015 C 
HETATM   19  C20 UNL     1       0.437  -2.944  -1.496  1.00  0.00     0.015 C 
HETATM   20  C21 UNL     1       0.781  -2.596   0.882  1.00  0.00     0.010 C 
HETATM   21  C22 UNL     1       0.656  -1.473   1.827  1.00  0.00     0.020 C 
HETATM   22  C23 UNL     1       1.051  -0.113   1.409  1.00  0.00     0.045 C 
HETATM   23  C33 UNL     1       0.240   0.884   2.211  1.00  0.00     0.020 C 
HETATM   24  C34 UNL     1      -1.112   1.174   1.657  1.00  0.00     0.011 C 
HETATM   25  C35 UNL     1      -1.110   1.502   0.178  1.00  0.00    -0.032 C 
HETATM   26  C36 UNL     1      -0.237   2.740   0.034  1.00  0.00     0.016 C 
HETATM   27  C37 UNL     1      -6.690   0.812  -0.353  1.00  0.00    -0.017 C 
HETATM   28  C38 UNL     1      -7.523   1.933   0.234  1.00  0.00     0.018 C 
HETATM   29  C39 UNL     1      -7.559   0.220  -1.432  1.00  0.00     0.018 C 
ENDROOT
BRANCH  22  30
HETATM   30  C24 UNL     1       2.469   0.158   1.862  1.00  0.00     0.230 C 
HETATM   31  O3  UNL     1       2.815   1.389   1.913  1.00  0.00    -0.272 OA
HETATM   32  N1  UNL     1       3.405  -0.802   2.220  1.00  0.00    -0.336 N 
ATOM     33  H1  UNL     1       3.032  -1.750   2.164  1.00  0.00     0.168 HD
BRANCH  32  34
HETATM   34  C25 UNL     1       4.735  -0.777   2.638  1.00  0.00     0.099 C 
BRANCH  34  35
HETATM   35  C26 UNL     1       5.843  -0.306   1.756  1.00  0.00    -0.031 C 
HETATM   36  C27 UNL     1       5.796   1.086   1.278  1.00  0.00     0.051 C 
BRANCH  35  37
HETATM   37  C28 UNL     1       6.209  -1.329   0.722  1.00  0.00     0.096 C 
BRANCH  37  38
HETATM   38  N2  UNL     1       7.228  -1.038  -0.141  1.00  0.00    -0.361 N 
HETATM   39  C29 UNL     1       7.267  -0.159  -1.195  1.00  0.00     0.151 C 
HETATM   40  C30 UNL     1       8.693   0.441  -1.249  1.00  0.00     0.122 C 
HETATM   41  C31 UNL     1       9.518  -0.530  -0.447  1.00  0.00     0.082 C 
HETATM   42  C32 UNL     1       8.554  -1.530   0.156  1.00  0.00     0.221 C 
BRANCH  40  43
HETATM   43  N3  UNL     1       9.115   0.517  -2.629  1.00  0.00    -0.316 N 
ATOM     44  H3  UNL     1       8.643  -0.009  -3.365  1.00  0.00     0.182 HD
BRANCH  43  45
HETATM   45  N4  UNL     1      10.079   1.253  -2.871  1.00  0.00    -0.253 N 
HETATM   46  N5  UNL     1      10.753   2.150  -3.418  1.00  0.00    -0.331 N 
ATOM     47  H52 UNL     1      10.043   2.460  -4.082  1.00  0.00     0.178 HD
ATOM     48  H51 UNL     1      11.548   2.757  -3.618  1.00  0.00     0.178 HD
ATOM     49  H4  UNL     1      10.753   0.906  -2.189  1.00  0.00     0.207 HD
ENDBRANCH  43  45
ENDBRANCH  40  43
BRANCH  42  50
HETATM   50  O4  UNL     1       8.729  -1.488   1.536  1.00  0.00    -0.377 OA
ATOM     51  H4  UNL     1       9.601  -1.811   1.731  1.00  0.00     0.212 HD
ENDBRANCH  42  50
ENDBRANCH  37  38
ENDBRANCH  35  37
ENDBRANCH  34  35
ENDBRANCH  32  34
ENDBRANCH  22  30
BRANCH   3  52
HETATM   52  O2  UNL     1      -4.319  -1.975  -1.687  1.00  0.00    -0.395 OA
ATOM     53  H2  UNL     1      -3.562  -1.734  -2.208  1.00  0.00     0.210 HD
ENDBRANCH   3  52
BRANCH   1  54
HETATM   54  O1  UNL     1      -7.606  -0.767   1.116  1.00  0.00    -0.390 OA
HETATM   55  C1  UNL     1      -7.819  -0.756   2.468  1.00  0.00     0.202 C 
ENDBRANCH   1  54
TORSDOF 10
