REMARK  9 active torsions:
REMARK  status: ('A' for Active; 'I' for Inactive)
REMARK    1  A    between atoms: C3_3  and  C4_4 
REMARK    2  A    between atoms: C6_6  and  O1_7 
REMARK    3  A    between atoms: O1_7  and  C7_8 
REMARK    4  A    between atoms: C11_12  and  C12_13 
REMARK       I    between atoms: C12_13  and  N1_15 
REMARK    5  A    between atoms: N1_15  and  C13_17 
REMARK    6  A    between atoms: C13_17  and  C14_18 
REMARK    7  A    between atoms: C36_44  and  C37_45 
REMARK    8  A    between atoms: C37_45  and  C38_47 
REMARK    9  A    between atoms: C38_47  and  O5_48 
ROOT
HETATM    1  C4  UNL     1       0.190   0.769  -1.364  1.00  0.00     0.004 C 
HETATM    2  C5  UNL     1       0.651  -0.345  -2.306  1.00  0.00     0.022 C 
HETATM    3  C6  UNL     1       0.948   0.589  -0.088  1.00  0.00     0.137 C 
HETATM    4  C19 UNL     1       0.543   1.764   0.790  1.00  0.00     0.034 C 
HETATM    5  C20 UNL     1      -0.867   1.502   1.219  1.00  0.00     0.012 C 
HETATM    6  C21 UNL     1      -1.827   1.362   0.057  1.00  0.00    -0.035 C 
HETATM    7  C22 UNL     1      -2.021   2.858  -0.314  1.00  0.00     0.016 C 
HETATM    8  C23 UNL     1      -1.310   0.703  -1.155  1.00  0.00     0.008 C 
HETATM    9  C24 UNL     1      -1.711  -0.730  -1.334  1.00  0.00     0.007 C 
HETATM   10  C25 UNL     1      -3.137  -1.034  -0.920  1.00  0.00     0.011 C 
HETATM   11  C26 UNL     1      -3.455  -0.550   0.458  1.00  0.00    -0.032 C 
HETATM   12  C27 UNL     1      -2.504  -1.329   1.385  1.00  0.00     0.016 C 
HETATM   13  C28 UNL     1      -3.176   0.919   0.502  1.00  0.00     0.003 C 
HETATM   14  C29 UNL     1      -4.318   1.597  -0.226  1.00  0.00     0.006 C 
HETATM   15  C30 UNL     1      -5.507   1.513   0.744  1.00  0.00     0.006 C 
HETATM   16  C31 UNL     1      -5.930   0.080   0.716  1.00  0.00    -0.000 C 
HETATM   17  C32 UNL     1      -6.735  -0.167  -0.496  1.00  0.00     0.006 C 
HETATM   18  C33 UNL     1      -7.744   0.806  -0.891  1.00  0.00     0.006 C 
HETATM   19  C34 UNL     1      -8.595   0.056  -1.878  1.00  0.00     0.002 C 
HETATM   20  C35 UNL     1      -8.145  -1.410  -1.803  1.00  0.00     0.018 C 
HETATM   21  C36 UNL     1      -7.429  -1.493  -0.468  1.00  0.00     0.027 C 
HETATM   22  C39 UNL     1      -6.271  -2.467  -0.509  1.00  0.00     0.018 C 
HETATM   23  C40 UNL     1      -5.286  -2.276   0.569  1.00  0.00     0.011 C 
HETATM   24  C41 UNL     1      -4.829  -0.915   0.934  1.00  0.00    -0.032 C 
HETATM   25  C42 UNL     1      -4.697  -0.915   2.488  1.00  0.00     0.016 C 
ENDROOT
BRANCH   3  26
HETATM   26  O1  UNL     1       2.292   0.547  -0.316  1.00  0.00    -0.355 OA
BRANCH  26  27
HETATM   27  C7  UNL     1       2.932  -0.580   0.192  1.00  0.00     0.261 C 
HETATM   28  C8  UNL     1       3.770  -1.314  -0.787  1.00  0.00     0.068 C 
HETATM   29  C9  UNL     1       5.168  -1.157  -0.291  1.00  0.00     0.024 C 
HETATM   30  C10 UNL     1       6.127  -0.792  -1.387  1.00  0.00     0.013 C 
HETATM   31  C11 UNL     1       5.050  -0.075   0.756  1.00  0.00     0.220 C 
HETATM   32  O3  UNL     1       3.753  -0.111   1.216  1.00  0.00    -0.346 OA
BRANCH  31  33
HETATM   33  C12 UNL     1       6.045  -0.189   1.827  1.00  0.00     0.247 C 
HETATM   34  O2  UNL     1       5.628  -0.307   3.019  1.00  0.00    -0.271 OA
HETATM   35  N1  UNL     1       7.444  -0.171   1.587  1.00  0.00    -0.358 N 
ATOM     36  H1  UNL     1       7.776  -0.074   0.627  1.00  0.00     0.162 HD
BRANCH  35  37
HETATM   37  C13 UNL     1       8.413  -0.284   2.648  1.00  0.00     0.127 C 
BRANCH  37  38
HETATM   38  C14 UNL     1       9.828  -0.239   2.137  1.00  0.00     0.006 C 
HETATM   39  C15 UNL     1      10.111   1.044   1.422  1.00  0.00     0.034 C 
HETATM   40  C16 UNL     1      10.576   0.820  -0.002  1.00  0.00     0.232 C 
HETATM   41  N2  UNL     1      11.707  -0.059   0.010  1.00  0.00    -0.075 N 
HETATM   42  C17 UNL     1      11.439  -1.331   0.606  1.00  0.00     0.232 C 
ATOM     43  H22 UNL     1      12.083  -0.174  -0.931  1.00  0.00     0.277 HD
ATOM     44  H21 UNL     1      12.506   0.388   0.460  1.00  0.00     0.277 HD
HETATM   45  C18 UNL     1      10.108  -1.453   1.273  1.00  0.00     0.034 C 
ENDBRANCH  37  38
ENDBRANCH  35  37
ENDBRANCH  31  33
ENDBRANCH  26  27
ENDBRANCH   3  26
BRANCH   1  46
HETATM   46  C3  UNL     1       0.548   2.007  -2.113  1.00  0.00    -0.019 C 
HETATM   47  C2  UNL     1       1.743   2.332  -2.527  1.00  0.00    -0.034 C 
HETATM   48  C1  UNL     1       1.973   3.620  -3.277  1.00  0.00     0.036 C 
ENDBRANCH   1  46
BRANCH  21  49
HETATM   49  C37 UNL     1      -8.311  -1.810   0.634  1.00  0.00     0.159 C 
HETATM   50  O4  UNL     1      -8.069  -2.814   1.283  1.00  0.00    -0.295 OA
BRANCH  49  51
HETATM   51  C38 UNL     1      -9.509  -1.046   1.083  1.00  0.00     0.243 C 
BRANCH  51  52
HETATM   52  O5  UNL     1     -10.168  -1.691   2.149  1.00  0.00    -0.394 OA
ATOM     53  H5  UNL     1     -10.932  -1.204   2.435  1.00  0.00     0.209 HD
ENDBRANCH  51  52
ENDBRANCH  49  51
ENDBRANCH  21  49
TORSDOF 9
