REMARK  9 active torsions:
REMARK  status: ('A' for Active; 'I' for Inactive)
REMARK    1  A    between atoms: C2_2  and  C4_4 
REMARK       I    between atoms: C4_4  and  N1_6 
REMARK    2  A    between atoms: C6_8  and  O2_9 
REMARK    3  A    between atoms: O2_9  and  C7_10 
REMARK    4  A    between atoms: C7_10  and  C8_11 
REMARK    5  A    between atoms: C8_11  and  O3_12 
REMARK    6  A    between atoms: C8_11  and  C9_14 
REMARK    7  A    between atoms: C9_14  and  O4_15 
REMARK    8  A    between atoms: O4_15  and  C10_16 
REMARK    9  A    between atoms: C30_39  and  O5_40 
ROOT
HETATM    1  C4  UNL     1       2.071  -2.848   0.579  1.00  0.00     0.224 C 
HETATM    2  O1  UNL     1       1.472  -3.775   1.147  1.00  0.00    -0.273 OA
HETATM    3  N1  UNL     1       1.425  -1.591   0.539  1.00  0.00    -0.340 N 
HETATM    4  C5  UNL     1       2.212  -0.562  -0.113  1.00  0.00     0.158 C 
HETATM    5  C6  UNL     1       2.066   0.653   0.790  1.00  0.00     0.140 C 
HETATM    6  C16 UNL     1       0.632   1.080   0.467  1.00  0.00     0.045 C 
HETATM    7  C17 UNL     1      -0.365   0.059   1.023  1.00  0.00    -0.012 C 
HETATM    8  C18 UNL     1      -0.609   0.638   2.438  1.00  0.00     0.018 C 
HETATM    9  C19 UNL     1      -1.647   0.371   0.290  1.00  0.00     0.005 C 
HETATM   10  C20 UNL     1      -1.461   0.467  -1.242  1.00  0.00     0.007 C 
HETATM   11  C21 UNL     1      -2.808   0.139  -1.823  1.00  0.00     0.012 C 
HETATM   12  C22 UNL     1      -3.769  -0.050  -0.635  1.00  0.00    -0.021 C 
HETATM   13  C23 UNL     1      -4.528  -1.351  -0.691  1.00  0.00    -0.004 C 
HETATM   14  C24 UNL     1      -6.000  -1.271  -0.994  1.00  0.00     0.006 C 
HETATM   15  C25 UNL     1      -6.124  -0.163  -1.938  1.00  0.00     0.007 C 
HETATM   16  C26 UNL     1      -5.889   1.125  -1.163  1.00  0.00     0.005 C 
HETATM   17  C27 UNL     1      -7.084   1.654  -0.470  1.00  0.00    -0.017 C 
HETATM   18  C28 UNL     1      -7.287   3.169  -0.670  1.00  0.00     0.018 C 
HETATM   19  C29 UNL     1      -8.310   1.079  -1.208  1.00  0.00     0.018 C 
HETATM   20  C30 UNL     1      -7.286   1.356   0.948  1.00  0.00     0.126 C 
HETATM   21  C31 UNL     1      -6.017   1.281   1.684  1.00  0.00     0.033 C 
HETATM   22  C32 UNL     1      -4.780   1.658   0.969  1.00  0.00     0.013 C 
HETATM   23  C33 UNL     1      -4.547   1.165  -0.438  1.00  0.00    -0.031 C 
HETATM   24  C34 UNL     1      -3.967   2.436  -1.110  1.00  0.00     0.016 C 
HETATM   25  C35 UNL     1      -4.477  -1.975   0.686  1.00  0.00     0.006 C 
HETATM   26  C36 UNL     1      -3.358  -1.227   1.441  1.00  0.00     0.011 C 
HETATM   27  C37 UNL     1      -2.727  -0.576   0.316  1.00  0.00    -0.027 C 
HETATM   28  C38 UNL     1      -2.025  -1.804  -0.318  1.00  0.00     0.013 C 
HETATM   29  C39 UNL     1      -0.899  -2.312   0.498  1.00  0.00     0.032 C 
HETATM   30  C40 UNL     1       0.083  -1.331   1.087  1.00  0.00     0.039 C 
HETATM   31  C41 UNL     1       0.244  -1.778   2.549  1.00  0.00     0.039 C 
ENDROOT
BRANCH   5  32
HETATM   32  O2  UNL     1       2.900   1.624   0.301  1.00  0.00    -0.382 OA
BRANCH  32  33
HETATM   33  C7  UNL     1       3.737   2.211   1.244  1.00  0.00     0.202 C 
BRANCH  33  34
HETATM   34  C8  UNL     1       4.607   3.229   0.542  1.00  0.00     0.165 C 
BRANCH  34  35
HETATM   35  O3  UNL     1       5.451   3.892   1.434  1.00  0.00    -0.391 OA
ATOM     36  H3  UNL     1       5.998   4.532   0.993  1.00  0.00     0.210 HD
ENDBRANCH  34  35
BRANCH  34  37
HETATM   37  C9  UNL     1       5.431   2.584  -0.560  1.00  0.00     0.202 C 
BRANCH  37  38
HETATM   38  O4  UNL     1       6.343   1.677  -0.035  1.00  0.00    -0.383 OA
BRANCH  38  39
HETATM   39  C10 UNL     1       7.134   1.042  -0.957  1.00  0.00     0.123 C 
HETATM   40  C11 UNL     1       6.862  -0.434  -0.860  1.00  0.00     0.034 C 
HETATM   41  C12 UNL     1       7.655  -1.128   0.195  1.00  0.00     0.030 C 
HETATM   42  C13 UNL     1       8.975  -1.691  -0.294  1.00  0.00     0.232 C 
HETATM   43  N2  UNL     1       9.941  -0.613  -0.387  1.00  0.00    -0.075 N 
HETATM   44  C14 UNL     1       9.452   0.308  -1.410  1.00  0.00     0.235 C 
ATOM     45  H22 UNL     1      10.123  -0.159   0.508  1.00  0.00     0.277 HD
ATOM     46  H21 UNL     1      10.891  -0.940  -0.562  1.00  0.00     0.277 HD
HETATM   47  C15 UNL     1       8.602   1.372  -0.800  1.00  0.00     0.059 C 
ENDBRANCH  38  39
ENDBRANCH  37  38
ENDBRANCH  34  37
ENDBRANCH  33  34
ENDBRANCH  32  33
ENDBRANCH   5  32
BRANCH   1  48
HETATM   48  C2  UNL     1       3.392  -3.161   0.004  1.00  0.00     0.070 C 
HETATM   49  C1  UNL     1       3.410  -3.152  -1.497  1.00  0.00     0.019 C 
HETATM   50  C3  UNL     1       3.817  -4.545   0.447  1.00  0.00     0.019 C 
ENDBRANCH   1  48
BRANCH  20  51
HETATM   51  O5  UNL     1      -8.146   2.344   1.499  1.00  0.00    -0.395 OA
ATOM     52  H5  UNL     1      -8.277   2.150   2.420  1.00  0.00     0.210 HD
ENDBRANCH  20  51
TORSDOF 9
