REMARK  9 active torsions:
REMARK  status: ('A' for Active; 'I' for Inactive)
REMARK    1  A    between atoms: C2_2  and  C3_3 
REMARK    2  A    between atoms: C3_3  and  C4_4 
REMARK    3  A    between atoms: C4_4  and  N1_5 
REMARK    4  A    between atoms: C4_4  and  C10_13 
REMARK       I    between atoms: N1_5  and  C5_6 
REMARK    5  A    between atoms: C5_6  and  C6_8 
REMARK    6  A    between atoms: C6_8  and  C7_10 
REMARK       I    between atoms: C10_13  and  N2_15 
REMARK    7  A    between atoms: N2_15  and  C11_17 
REMARK    8  A    between atoms: C11_17  and  C12_18 
REMARK    9  A    between atoms: C11_17  and  C14_23 
REMARK       I    between atoms: C12_18  and  N3_20 
ROOT
HETATM    1  C10 UNL     1      -0.896  -1.118  -0.252  1.00  0.00     0.254 C 
HETATM    2  O2  UNL     1      -1.762  -1.295  -1.131  1.00  0.00    -0.270 OA
HETATM    3  N2  UNL     1      -1.437  -0.300   0.881  1.00  0.00    -0.345 N 
ATOM      4  H2  UNL     1      -0.884  -0.011   1.688  1.00  0.00     0.163 HD
ENDROOT
BRANCH   1   5
HETATM    5  C4  UNL     1       0.464  -1.678  -0.383  1.00  0.00     0.258 C 
BRANCH   5   6
HETATM    6  C3  UNL     1       0.418  -2.326  -1.807  1.00  0.00     0.049 C 
BRANCH   6   7
HETATM    7  C2  UNL     1       1.685  -2.906  -2.277  1.00  0.00    -0.001 C 
HETATM    8  C1  UNL     1       1.474  -3.374  -3.733  1.00  0.00     0.005 C 
ENDBRANCH   6   7
ENDBRANCH   5   6
BRANCH   5   9
HETATM    9  N1  UNL     1       1.455  -0.622  -0.431  1.00  0.00    -0.399 NA
HETATM   10  C5  UNL     1       2.342   0.358  -0.480  1.00  0.00     0.302 C 
HETATM   11  O1  UNL     1       2.087   1.590  -0.755  1.00  0.00    -0.256 OA
BRANCH  10  12
HETATM   12  C6  UNL     1       3.831   0.135  -0.195  1.00  0.00     0.168 C 
HETATM   13 BR1  UNL     1       4.047  -1.615   0.688  1.00  0.00    -0.080 Br
BRANCH  12  14
HETATM   14  C7  UNL     1       4.280   1.168   0.792  1.00  0.00     0.002 C 
HETATM   15  C8  UNL     1       5.790   0.887   1.100  1.00  0.00     0.011 C 
HETATM   16  C9  UNL     1       4.281   2.541   0.144  1.00  0.00     0.011 C 
ENDBRANCH  12  14
ENDBRANCH  10  12
ENDBRANCH   5   9
ENDBRANCH   1   5
BRANCH   3  17
HETATM   17  C11 UNL     1      -2.834   0.033   0.701  1.00  0.00     0.180 C 
BRANCH  17  18
HETATM   18  C12 UNL     1      -2.714   1.510   0.312  1.00  0.00     0.240 C 
HETATM   19  O3  UNL     1      -1.651   1.848  -0.308  1.00  0.00    -0.271 OA
HETATM   20  N3  UNL     1      -3.646   2.508   0.597  1.00  0.00    -0.364 N 
HETATM   21  C13 UNL     1      -3.275   3.879   0.104  1.00  0.00     0.149 C 
ATOM     22  H3  UNL     1      -4.513   2.322   1.101  1.00  0.00     0.161 HD
ENDBRANCH  17  18
BRANCH  17  23
HETATM   23  C14 UNL     1      -3.781  -0.029   1.820  1.00  0.00     0.009 C 
HETATM   24  C15 UNL     1      -5.235  -0.057   1.209  1.00  0.00     0.012 C 
HETATM   25  C16 UNL     1      -3.737  -1.107   2.837  1.00  0.00     0.012 C 
ENDBRANCH  17  23
ENDBRANCH   3  17
TORSDOF 9
