REMARK  6 active torsions:
REMARK  status: ('A' for Active; 'I' for Inactive)
REMARK    1  A    between atoms: C2_2  and  C3_3 
REMARK    2  A    between atoms: C3_3  and  N1_4 
REMARK    3  A    between atoms: N1_4  and  C4_7 
REMARK    4  A    between atoms: C4_7  and  C5_8 
REMARK    5  A    between atoms: C5_8  and  N2_9 
REMARK    6  A    between atoms: N2_9  and  C6_12 
ROOT
HETATM    1  N2  UNL     1       0.411   0.639   0.204  1.00  0.00    -0.043 N 
ATOM      2  H21 UNL     1       0.231   1.594   0.515  1.00  0.00     0.279 HD
ATOM      3  H22 UNL     1       0.155   0.744  -0.778  1.00  0.00     0.279 HD
ENDROOT
BRANCH   1   4
HETATM    4  C5  UNL     1      -0.445  -0.313   0.880  1.00  0.00     0.262 C 
BRANCH   4   5
HETATM    5  C4  UNL     1      -1.893   0.112   0.691  1.00  0.00     0.260 C 
BRANCH   5   6
HETATM    6  N1  UNL     1      -2.226   0.147  -0.730  1.00  0.00    -0.070 N 
ATOM      7  H12 UNL     1      -2.039  -0.729  -1.218  1.00  0.00     0.277 HD
ATOM      8  H11 UNL     1      -1.598   0.729  -1.285  1.00  0.00     0.277 HD
BRANCH   6   9
HETATM    9  C3  UNL     1      -3.634   0.570  -0.789  1.00  0.00     0.259 C 
BRANCH   9  10
HETATM   10  C2  UNL     1      -4.466  -0.522  -0.224  1.00  0.00    -0.010 C 
HETATM   11  C1  UNL     1      -5.215  -0.285   0.825  1.00  0.00     0.008 C 
ENDBRANCH   9  10
ENDBRANCH   6   9
ENDBRANCH   5   6
ENDBRANCH   4   5
ENDBRANCH   1   4
BRANCH   1  12
HETATM   12  C6  UNL     1       1.793   0.286   0.355  1.00  0.00     0.408 C 
HETATM   13  C7  UNL     1       2.162  -1.041  -0.259  1.00  0.00     0.294 C 
HETATM   14  N3  UNL     1       3.233  -0.897  -1.235  1.00  0.00    -0.070 N 
HETATM   15  C8  UNL     1       4.395  -0.248  -0.703  1.00  0.00     0.260 C 
ATOM     16  H32 UNL     1       3.476  -1.799  -1.644  1.00  0.00     0.277 HD
ATOM     17  H31 UNL     1       2.900  -0.418  -2.072  1.00  0.00     0.277 HD
HETATM   18  C9  UNL     1       3.995   0.956   0.119  1.00  0.00     0.262 C 
HETATM   19  N4  UNL     1       2.630   1.298  -0.274  1.00  0.00    -0.043 N 
ATOM     20  H42 UNL     1       2.497   1.376  -1.282  1.00  0.00     0.279 HD
ATOM     21  H41 UNL     1       2.362   2.256  -0.047  1.00  0.00     0.279 HD
ENDBRANCH   1  12
TORSDOF 6
