REMARK  6 active torsions:
REMARK  status: ('A' for Active; 'I' for Inactive)
REMARK    1  A    between atoms: C1_4  and  C2_5 
REMARK    2  A    between atoms: C2_5  and  C3_6 
REMARK    3  A    between atoms: C4_10  and  N3_11 
REMARK    4  A    between atoms: C5_15  and  C6_16 
REMARK    5  A    between atoms: C6_16  and  N4_17 
REMARK    6  A    between atoms: N4_17  and  C7_18 
ROOT
HETATM    1  C3  UNL     1      -0.314   0.396   0.397  1.00  0.00     0.206 C 
HETATM    2  N2  UNL     1      -1.274   0.015  -0.603  1.00  0.00    -0.040 N 
ATOM      3  H21 UNL     1      -1.243   0.434  -1.533  1.00  0.00     0.280 HD
ATOM      4  H22 UNL     1      -2.250   0.299  -0.515  1.00  0.00     0.280 HD
HETATM    5  C4  UNL     1      -0.901  -1.351  -0.415  1.00  0.00     0.392 C 
HETATM    6  C5  UNL     1       0.411  -0.891   0.156  1.00  0.00     0.127 C 
ENDROOT
BRANCH   1   7
HETATM    7  C2  UNL     1      -0.934   0.624   1.733  1.00  0.00     0.077 C 
BRANCH   7   8
HETATM    8  C1  UNL     1      -1.947   1.736   1.580  1.00  0.00     0.054 C 
HETATM    9  N1  UNL     1      -1.634   2.748   0.889  1.00  0.00    -0.411 N 
ATOM     10  H12 UNL     1      -0.714   2.797   0.451  1.00  0.00     0.155 HD
ATOM     11  H11 UNL     1      -2.317   3.498   0.786  1.00  0.00     0.155 HD
ENDBRANCH   7   8
ENDBRANCH   1   7
BRANCH   6  12
HETATM   12  C6  UNL     1       1.457  -0.822  -0.944  1.00  0.00     0.169 C 
BRANCH  12  13
HETATM   13  N4  UNL     1       2.482   0.109  -0.752  1.00  0.00    -0.395 NA
BRANCH  13  14
HETATM   14  C7  UNL     1       3.455   0.992  -0.570  1.00  0.00     0.440 C 
HETATM   15  O1  UNL     1       4.308   1.071   0.348  1.00  0.00    -0.268 OA
ENDBRANCH  13  14
ENDBRANCH  12  13
ENDBRANCH   6  12
BRANCH   5  16
HETATM   16  N3  UNL     1      -1.746  -2.142   0.433  1.00  0.00    -0.049 N 
ATOM     17  H33 UNL     1      -1.841  -1.686   1.341  1.00  0.00     0.276 HD
ATOM     18  H32 UNL     1      -2.708  -2.094   0.097  1.00  0.00     0.276 HD
ATOM     19  H31 UNL     1      -1.480  -3.117   0.567  1.00  0.00     0.276 HD
ENDBRANCH   5  16
TORSDOF 6
