REMARK  6 active torsions:
REMARK  status: ('A' for Active; 'I' for Inactive)
REMARK    1  A    between atoms: N1_1  and  C1_5 
REMARK    2  A    between atoms: C1_5  and  C2_6 
REMARK    3  A    between atoms: C2_6  and  N2_7 
REMARK    4  A    between atoms: N2_7  and  C3_10 
REMARK    5  A    between atoms: C5_12  and  N3_13 
REMARK    6  A    between atoms: N3_13  and  C6_15 
ROOT
HETATM    1  C3  UNL     1      -0.115   0.230   0.303  1.00  0.00     0.384 C 
HETATM    2  C4  UNL     1       1.056  -0.720   0.570  1.00  0.00     0.089 C 
HETATM    3  C5  UNL     1       2.162   0.164   0.008  1.00  0.00     0.113 C 
HETATM    4  C7  UNL     1       1.488   0.686  -1.244  1.00  0.00     0.259 C 
HETATM    5  N4  UNL     1       0.079   0.398  -1.133  1.00  0.00    -0.044 N 
ATOM      6  H41 UNL     1      -0.531   1.092  -1.565  1.00  0.00     0.279 HD
ATOM      7  H42 UNL     1      -0.239  -0.389  -1.699  1.00  0.00     0.279 HD
ENDROOT
BRANCH   1   8
HETATM    8  N2  UNL     1      -1.390  -0.416   0.473  1.00  0.00    -0.044 N 
ATOM      9  H22 UNL     1      -1.447  -0.994   1.312  1.00  0.00     0.279 HD
ATOM     10  H21 UNL     1      -1.563  -1.162  -0.200  1.00  0.00     0.279 HD
BRANCH   8  11
HETATM   11  C2  UNL     1      -2.380   0.650   0.430  1.00  0.00     0.262 C 
BRANCH  11  12
HETATM   12  C1  UNL     1      -3.781   0.152   0.585  1.00  0.00     0.257 C 
BRANCH  12  13
HETATM   13  N1  UNL     1      -4.102  -0.769  -0.480  1.00  0.00    -0.078 N 
ATOM     14  H13 UNL     1      -3.943  -0.359  -1.400  1.00  0.00     0.274 HD
ATOM     15  H12 UNL     1      -3.430  -1.534  -0.539  1.00  0.00     0.274 HD
ATOM     16  H11 UNL     1      -5.058  -1.109  -0.374  1.00  0.00     0.274 HD
ENDBRANCH  12  13
ENDBRANCH  11  12
ENDBRANCH   8  11
ENDBRANCH   1   8
BRANCH   3  17
HETATM   17  N3  UNL     1       3.327  -0.561  -0.363  1.00  0.00    -0.362 N 
ATOM     18  H3  UNL     1       3.276  -1.324  -1.038  1.00  0.00     0.162 HD
BRANCH  17  19
HETATM   19  C6  UNL     1       4.560  -0.197   0.229  1.00  0.00     0.348 C 
HETATM   20  O1  UNL     1       4.638   0.753   1.072  1.00  0.00    -0.284 OA
ENDBRANCH  17  19
ENDBRANCH   3  17
TORSDOF 6
