REMARK  3 active torsions:
REMARK  status: ('A' for Active; 'I' for Inactive)
REMARK       I    between atoms: N1_2  and  C2_5 
REMARK       I    between atoms: C2_5  and  N2_6 
REMARK       I    between atoms: C2_5  and  N3_10 
REMARK    1  A    between atoms: N3_10  and  C3_13 
REMARK    2  A    between atoms: C3_13  and  C4_14 
REMARK    3  A    between atoms: C4_14  and  C5_15 
ROOT
HETATM    1  C1  UNL     1      -3.035   1.975   0.253  1.00  0.00     0.271 C 
HETATM    2  N1  UNL     1      -2.055   1.109  -0.324  1.00  0.00    -0.026 N 
ATOM      3  H11 UNL     1      -1.112   1.450  -0.139  1.00  0.00     0.281 HD
ATOM      4  H12 UNL     1      -2.059   1.179  -1.342  1.00  0.00     0.281 HD
HETATM    5  C2  UNL     1      -2.204  -0.273   0.104  1.00  0.00     0.577 C 
HETATM    6  N2  UNL     1      -3.520  -0.707  -0.308  1.00  0.00    -0.026 N 
ATOM      7  H21 UNL     1      -3.624  -1.676  -0.008  1.00  0.00     0.278 HD
ATOM      8  H22 UNL     1      -3.690  -0.577  -1.305  1.00  0.00     0.278 HD
ATOM      9  H23 UNL     1      -4.266  -0.100   0.032  1.00  0.00     0.278 HD
HETATM   10  N3  UNL     1      -1.153  -1.042  -0.576  1.00  0.00    -0.021 N 
ATOM     11  H31 UNL     1      -1.262  -1.073  -1.590  1.00  0.00     0.281 HD
ATOM     12  H32 UNL     1      -1.215  -2.047  -0.415  1.00  0.00     0.281 HD
ENDROOT
BRANCH  10  13
HETATM   13  C3  UNL     1       0.104  -0.463  -0.146  1.00  0.00     0.243 C 
BRANCH  13  14
HETATM   14  C4  UNL     1       1.289  -1.166  -0.777  1.00  0.00     0.086 C 
BRANCH  14  15
HETATM   15  C5  UNL     1       2.514  -0.498  -0.272  1.00  0.00     0.027 A 
HETATM   16  C6  UNL     1       3.283  -0.768   0.839  1.00  0.00     0.114 A 
HETATM   17  N4  UNL     1       4.311   0.130   0.876  1.00  0.00    -0.360 N 
HETATM   18  C7  UNL     1       4.188   0.935  -0.179  1.00  0.00     0.180 A 
ATOM     19  H4  UNL     1       5.043   0.176   1.585  1.00  0.00     0.166 HD
HETATM   20  N5  UNL     1       3.109   0.555  -0.865  1.00  0.00    -0.355 N 
ATOM     21  H5  UNL     1       2.780   1.001  -1.721  1.00  0.00     0.166 HD
ENDBRANCH  14  15
ENDBRANCH  13  14
ENDBRANCH  10  13
TORSDOF 3
