REMARK  12 active torsions:
REMARK  status: ('A' for Active; 'I' for Inactive)
REMARK       I    between atoms: C2_2  and  N1_4 
REMARK    1  A    between atoms: N1_4  and  C3_6 
REMARK    2  A    between atoms: C4_11  and  C5_12 
REMARK    3  A    between atoms: C5_12  and  C6_13 
REMARK    4  A    between atoms: C6_13  and  C7_14 
REMARK    5  A    between atoms: C7_14  and  C8_15 
REMARK    6  A    between atoms: C8_15  and  C9_16 
REMARK    7  A    between atoms: N6_22  and  C11_24 
REMARK    8  A    between atoms: C11_24  and  C13_26 
REMARK    9  A    between atoms: C13_26  and  C14_27 
REMARK   10  A    between atoms: C14_27  and  C15_28 
REMARK       I    between atoms: C15_28  and  N7_30 
REMARK   11  A    between atoms: N7_30  and  C17_32 
REMARK   12  A    between atoms: C17_32  and  C18_33 
ROOT
HETATM    1  C9  UNL     1       2.474   0.892  -0.120  1.00  0.00     0.069 A 
HETATM    2  N4  UNL     1       1.931   2.001   0.372  1.00  0.00    -0.296 N 
ATOM      3  H4  UNL     1       2.437   2.553   1.065  1.00  0.00     0.187 HD
HETATM    4  N5  UNL     1       0.785   2.373  -0.019  1.00  0.00    -0.279 N 
ATOM      5  H5  UNL     1       0.365   3.223   0.357  1.00  0.00     0.189 HD
HETATM    6  C10 UNL     1       0.134   1.647  -0.923  1.00  0.00     0.161 A 
HETATM    7  N6  UNL     1      -1.033   1.860  -1.477  1.00  0.00    -0.365 N 
ATOM      8  H6  UNL     1      -1.421   1.214  -2.165  1.00  0.00     0.162 HD
HETATM    9  S1  UNL     1       1.256   0.373  -1.200  1.00  0.00    -0.038 SA
ENDROOT
BRANCH   7  10
HETATM   10  C11 UNL     1      -1.750   3.052  -1.072  1.00  0.00     0.080 C 
HETATM   11  C12 UNL     1      -1.097   4.292  -1.700  1.00  0.00     0.032 C 
BRANCH  10  12
HETATM   12  C13 UNL     1      -3.182   2.951  -1.518  1.00  0.00     0.034 C 
BRANCH  12  13
HETATM   13  C14 UNL     1      -3.844   1.761  -0.914  1.00  0.00     0.105 C 
BRANCH  13  14
HETATM   14  C15 UNL     1      -3.924   1.795   0.548  1.00  0.00     0.219 C 
HETATM   15  O2  UNL     1      -3.575   2.794   1.214  1.00  0.00    -0.273 OA
HETATM   16  N7  UNL     1      -4.409   0.683   1.280  1.00  0.00    -0.356 N 
HETATM   17  C16 UNL     1      -4.460   0.682   2.729  1.00  0.00     0.152 C 
BRANCH  16  18
HETATM   18  C17 UNL     1      -4.888  -0.482   0.570  1.00  0.00     0.130 C 
BRANCH  18  19
HETATM   19  C18 UNL     1      -6.351  -0.434   0.248  1.00  0.00     0.004 C 
HETATM   20  C19 UNL     1      -7.221  -0.334   1.475  1.00  0.00     0.006 C 
HETATM   21  C20 UNL     1      -8.671  -0.254   1.055  1.00  0.00     0.000 C 
HETATM   22  C21 UNL     1      -9.077  -1.263   0.038  1.00  0.00     0.000 C 
HETATM   23  C22 UNL     1      -8.082  -1.508  -1.054  1.00  0.00     0.000 C 
HETATM   24  C23 UNL     1      -6.723  -1.749  -0.434  1.00  0.00     0.006 C 
ENDBRANCH  18  19
ENDBRANCH  16  18
ENDBRANCH  13  14
ENDBRANCH  12  13
ENDBRANCH  10  12
ENDBRANCH   7  10
BRANCH   1  25
HETATM   25  C8  UNL     1       3.824   0.305   0.206  1.00  0.00     0.066 C 
BRANCH  25  26
HETATM   26  C7  UNL     1       3.980  -0.963  -0.597  1.00  0.00     0.007 C 
BRANCH  26  27
HETATM   27  C6  UNL     1       5.331  -1.604  -0.362  1.00  0.00     0.007 C 
BRANCH  27  28
HETATM   28  C5  UNL     1       6.460  -0.690  -0.756  1.00  0.00     0.066 C 
BRANCH  28  29
HETATM   29  C4  UNL     1       7.758  -1.371  -0.496  1.00  0.00     0.069 A 
HETATM   30  N3  UNL     1       8.483  -1.344   0.612  1.00  0.00    -0.296 N 
HETATM   31  N2  UNL     1       9.587  -1.966   0.681  1.00  0.00    -0.279 N 
ATOM     32  H3  UNL     1       8.150  -0.817   1.419  1.00  0.00     0.187 HD
HETATM   33  C3  UNL     1      10.003  -2.650  -0.391  1.00  0.00     0.167 A 
ATOM     34  H2  UNL     1      10.145  -1.945   1.535  1.00  0.00     0.189 HD
HETATM   35  S2  UNL     1       8.740  -2.360  -1.499  1.00  0.00    -0.038 SA
BRANCH  33  36
HETATM   36  N1  UNL     1      11.111  -3.340  -0.522  1.00  0.00    -0.306 N 
HETATM   37  C2  UNL     1      12.028  -3.414   0.564  1.00  0.00     0.219 C 
HETATM   38  C1  UNL     1      12.888  -2.269   0.939  1.00  0.00     0.117 C 
HETATM   39  O1  UNL     1      12.089  -4.492   1.207  1.00  0.00    -0.274 OA
ATOM     40  H1  UNL     1      11.314  -3.821  -1.398  1.00  0.00     0.171 HD
ENDBRANCH  33  36
ENDBRANCH  28  29
ENDBRANCH  27  28
ENDBRANCH  26  27
ENDBRANCH  25  26
ENDBRANCH   1  25
TORSDOF 12
