REMARK  14 active torsions:
REMARK  status: ('A' for Active; 'I' for Inactive)
REMARK    1  A    between atoms: N1_2  and  C2_5 
REMARK    2  A    between atoms: C2_5  and  C3_6 
REMARK    3  A    between atoms: C2_5  and  C10_13 
REMARK    4  A    between atoms: C3_6  and  C4_7 
REMARK    5  A    between atoms: C10_13  and  O1_14 
REMARK    6  A    between atoms: C10_13  and  N2_16 
REMARK    7  A    between atoms: N3_19  and  C13_20 
REMARK    8  A    between atoms: C15_22  and  C16_23 
REMARK    9  A    between atoms: N4_26  and  C19_27 
REMARK   10  A    between atoms: C23_32  and  C24_33 
REMARK   11  A    between atoms: C24_33  and  N5_34 
REMARK   12  A    between atoms: N5_34  and  C25_37 
REMARK   13  A    between atoms: C25_37  and  C26_38 
REMARK   14  A    between atoms: C26_38  and  O3_39 
ROOT
HETATM    1  N2  UNL     1       1.259   0.666   1.394  1.00  0.00    -0.361 N 
HETATM    2  C11 UNL     1       1.027  -0.074   0.196  1.00  0.00     0.144 C 
HETATM    3  C12 UNL     1      -0.311   0.422  -0.407  1.00  0.00     0.143 C 
HETATM    4  N3  UNL     1      -1.356   0.018   0.489  1.00  0.00    -0.377 N 
HETATM    5  C27 UNL     1      -1.094   0.102   1.941  1.00  0.00     0.143 C 
HETATM    6  C28 UNL     1       0.057   1.068   2.151  1.00  0.00     0.144 C 
ENDROOT
BRANCH   4   7
HETATM    7  C13 UNL     1      -2.591  -0.442   0.056  1.00  0.00     0.045 A 
HETATM    8  C14 UNL     1      -3.021  -1.744   0.366  1.00  0.00     0.055 A 
HETATM    9  C15 UNL     1      -4.242  -2.239  -0.034  1.00  0.00     0.021 A 
HETATM   10  N4  UNL     1      -5.061  -1.442  -0.753  1.00  0.00    -0.312 N 
HETATM   11  C22 UNL     1      -4.653  -0.177  -1.059  1.00  0.00     0.258 A 
HETATM   12  O2  UNL     1      -5.455   0.511  -1.725  1.00  0.00    -0.267 OA
HETATM   13  C23 UNL     1      -3.445   0.350  -0.679  1.00  0.00     0.062 A 
BRANCH   9  14
HETATM   14  C16 UNL     1      -4.596  -3.623   0.348  1.00  0.00     0.036 A 
HETATM   15  C17 UNL     1      -3.555  -4.714   0.148  1.00  0.00     0.011 A 
HETATM   16  C18 UNL     1      -4.031  -4.304   1.526  1.00  0.00     0.011 A 
ENDBRANCH   9  14
BRANCH  10  17
HETATM   17  C19 UNL     1      -6.320  -1.993  -1.152  1.00  0.00     0.093 A 
HETATM   18  C20 UNL     1      -7.555  -1.267  -1.371  1.00  0.00     0.028 A 
HETATM   19  C21 UNL     1      -7.391  -1.958  -0.017  1.00  0.00     0.028 A 
ENDBRANCH  10  17
BRANCH  13  20
HETATM   20  C24 UNL     1      -3.055   1.711  -1.026  1.00  0.00     0.278 C 
BRANCH  20  21
HETATM   21  N5  UNL     1      -4.043   2.456  -1.803  1.00  0.00    -0.069 N 
ATOM     22  H52 UNL     1      -4.310   2.015  -2.683  1.00  0.00     0.277 HD
ATOM     23  H51 UNL     1      -4.980   2.464  -1.400  1.00  0.00     0.277 HD
BRANCH  21  24
HETATM   24  C25 UNL     1      -3.424   3.798  -1.949  1.00  0.00     0.258 C 
BRANCH  24  25
HETATM   25  C26 UNL     1      -4.344   4.689  -2.760  1.00  0.00     0.191 C 
BRANCH  25  26
HETATM   26  O3  UNL     1      -5.584   4.835  -2.138  1.00  0.00    -0.399 OA
ATOM     27  H3  UNL     1      -6.161   5.393  -2.646  1.00  0.00     0.209 HD
ENDBRANCH  25  26
ENDBRANCH  24  25
ENDBRANCH  21  24
ENDBRANCH  20  21
ENDBRANCH  13  20
ENDBRANCH   4   7
BRANCH   1  28
HETATM   28  C10 UNL     1       2.483   1.024   1.910  1.00  0.00     0.145 C 
BRANCH  28  29
HETATM   29  C2  UNL     1       3.875   0.802   1.546  1.00  0.00     0.259 C 
BRANCH  29  30
HETATM   30  N1  UNL     1       4.674   2.009   1.814  1.00  0.00    -0.067 N 
HETATM   31  C1  UNL     1       4.425   3.067   0.887  1.00  0.00     0.267 C 
ATOM     32  H12 UNL     1       5.668   1.785   1.850  1.00  0.00     0.277 HD
ATOM     33  H11 UNL     1       4.539   2.328   2.773  1.00  0.00     0.277 HD
ENDBRANCH  29  30
BRANCH  29  34
HETATM   34  C3  UNL     1       4.214   0.243   0.229  1.00  0.00     0.046 C 
BRANCH  34  35
HETATM   35  C4  UNL     1       5.716  -0.068   0.225  1.00  0.00    -0.012 C 
HETATM   36  C5  UNL     1       6.090  -1.053   1.288  1.00  0.00     0.005 C 
HETATM   37  C6  UNL     1       7.347  -1.835   0.871  1.00  0.00     0.000 C 
HETATM   38  C7  UNL     1       8.250  -0.902   0.073  1.00  0.00     0.000 C 
HETATM   39  C8  UNL     1       7.616  -0.540  -1.239  1.00  0.00     0.000 C 
HETATM   40  C9  UNL     1       6.117  -0.677  -1.111  1.00  0.00     0.005 C 
ENDBRANCH  34  35
ENDBRANCH  29  34
ENDBRANCH  28  29
BRANCH  28  41
HETATM   41  O1  UNL     1       2.395   1.754   3.015  1.00  0.00    -0.348 OA
ATOM     42  H1  UNL     1       1.487   1.899   3.253  1.00  0.00     0.219 HD
ENDBRANCH  28  41
ENDBRANCH   1  28
TORSDOF 14
