REMARK  13 active torsions:
REMARK  status: ('A' for Active; 'I' for Inactive)
REMARK    1  A    between atoms: C2_2  and  C4_4 
REMARK    2  A    between atoms: C4_4  and  C5_5 
REMARK    3  A    between atoms: C5_5  and  C6_6 
REMARK    4  A    between atoms: C6_6  and  C7_7 
REMARK       I    between atoms: C7_7  and  N1_9 
REMARK    5  A    between atoms: N1_9  and  C8_11 
REMARK    6  A    between atoms: C9_16  and  C10_17 
REMARK    7  A    between atoms: C10_17  and  C11_18 
REMARK    8  A    between atoms: C11_18  and  C12_19 
REMARK    9  A    between atoms: C12_19  and  C13_20 
REMARK   10  A    between atoms: C13_20  and  C14_21 
REMARK       I    between atoms: N6_27  and  C16_29 
REMARK   11  A    between atoms: C16_29  and  C17_31 
REMARK   12  A    between atoms: C17_31  and  C18_32 
REMARK   13  A    between atoms: C18_32  and  C19_33 
ROOT
HETATM    1  C14 UNL     1       2.861  -1.121  -1.090  1.00  0.00     0.069 A 
HETATM    2  N4  UNL     1       3.760  -0.417  -0.434  1.00  0.00    -0.296 N 
ATOM      3  H4  UNL     1       3.609   0.580  -0.284  1.00  0.00     0.187 HD
HETATM    4  N5  UNL     1       4.815  -0.968   0.014  1.00  0.00    -0.279 N 
ATOM      5  H5  UNL     1       5.506  -0.416   0.522  1.00  0.00     0.189 HD
HETATM    6  C15 UNL     1       5.013  -2.270  -0.184  1.00  0.00     0.167 A 
HETATM    7  N6  UNL     1       5.949  -3.076   0.141  1.00  0.00    -0.306 N 
ATOM      8  H6  UNL     1       5.765  -4.026  -0.182  1.00  0.00     0.171 HD
HETATM    9  C16 UNL     1       7.131  -2.984   0.811  1.00  0.00     0.223 C 
HETATM   10  O2  UNL     1       7.720  -4.092   1.131  1.00  0.00    -0.273 OA
HETATM   11  S1  UNL     1       3.560  -2.673  -1.073  1.00  0.00    -0.038 SA
ENDROOT
BRANCH   1  12
HETATM   12  C13 UNL     1       1.549  -0.662  -1.692  1.00  0.00     0.066 C 
BRANCH  12  13
HETATM   13  C12 UNL     1       0.519  -0.839  -0.629  1.00  0.00     0.007 C 
BRANCH  13  14
HETATM   14  C11 UNL     1      -0.864  -0.458  -1.011  1.00  0.00     0.007 C 
BRANCH  14  15
HETATM   15  C10 UNL     1      -1.066   0.967  -1.416  1.00  0.00     0.066 C 
BRANCH  15  16
HETATM   16  C9  UNL     1      -2.536   1.114  -1.754  1.00  0.00     0.069 A 
HETATM   17  N3  UNL     1      -3.472   0.175  -1.708  1.00  0.00    -0.296 N 
HETATM   18  N2  UNL     1      -4.668   0.444  -2.019  1.00  0.00    -0.279 N 
ATOM     19  H3  UNL     1      -3.225  -0.772  -1.419  1.00  0.00     0.187 HD
HETATM   20  C8  UNL     1      -4.973   1.692  -2.394  1.00  0.00     0.167 A 
ATOM     21  H2  UNL     1      -5.388  -0.278  -1.985  1.00  0.00     0.189 HD
HETATM   22  S2  UNL     1      -3.444   2.463  -2.277  1.00  0.00    -0.038 SA
BRANCH  20  23
HETATM   23  N1  UNL     1      -6.148   2.170  -2.752  1.00  0.00    -0.306 N 
HETATM   24  C7  UNL     1      -7.216   1.277  -2.745  1.00  0.00     0.223 C 
HETATM   25  O1  UNL     1      -7.398   0.449  -3.630  1.00  0.00    -0.273 OA
ATOM     26  H1  UNL     1      -6.269   3.146  -3.021  1.00  0.00     0.171 HD
BRANCH  24  27
HETATM   27  C6  UNL     1      -8.196   1.338  -1.584  1.00  0.00     0.107 C 
BRANCH  27  28
HETATM   28  C5  UNL     1      -9.110   0.178  -1.685  1.00  0.00     0.036 C 
BRANCH  28  29
HETATM   29  C4  UNL     1     -10.136   0.056  -0.678  1.00  0.00    -0.024 C 
BRANCH  29  30
HETATM   30  C2  UNL     1     -10.547   0.765   0.316  1.00  0.00    -0.091 C 
HETATM   31  C1  UNL     1     -11.716   0.240   1.165  1.00  0.00     0.042 C 
HETATM   32  C3  UNL     1     -10.004   2.068   0.713  1.00  0.00     0.042 C 
ENDBRANCH  29  30
ENDBRANCH  28  29
ENDBRANCH  27  28
ENDBRANCH  24  27
ENDBRANCH  20  23
ENDBRANCH  15  16
ENDBRANCH  14  15
ENDBRANCH  13  14
ENDBRANCH  12  13
ENDBRANCH   1  12
BRANCH   9  33
HETATM   33  C17 UNL     1       7.770  -1.694   1.188  1.00  0.00     0.108 C 
BRANCH  33  34
HETATM   34  C18 UNL     1       9.142  -2.015   1.749  1.00  0.00     0.049 C 
BRANCH  34  35
HETATM   35  C19 UNL     1       9.903  -0.830   2.172  1.00  0.00    -0.042 A 
HETATM   36  C20 UNL     1       9.815  -0.340   3.458  1.00  0.00     0.014 A 
HETATM   37  C21 UNL     1      10.537   0.782   3.872  1.00  0.00     0.075 A 
HETATM   38  C22 UNL     1      11.369   1.439   2.991  1.00  0.00     0.245 A 
HETATM   39  O3  UNL     1      12.045   2.457   3.316  1.00  0.00    -0.268 OA
HETATM   40  N7  UNL     1      11.442   0.945   1.741  1.00  0.00    -0.333 N 
HETATM   41  C23 UNL     1      10.753  -0.139   1.316  1.00  0.00     0.098 A 
ATOM     42  H7  UNL     1      12.053   1.416   1.074  1.00  0.00     0.168 HD
ENDBRANCH  34  35
ENDBRANCH  33  34
ENDBRANCH   9  33
TORSDOF 13
