REMARK  11 active torsions:
REMARK  status: ('A' for Active; 'I' for Inactive)
REMARK    1  A    between atoms: C2_2  and  C3_3 
REMARK    2  A    between atoms: C3_3  and  C4_4 
REMARK    3  A    between atoms: C4_4  and  N1_5 
REMARK    4  A    between atoms: N3_14  and  C9_16 
REMARK    5  A    between atoms: C9_16  and  C10_17 
REMARK    6  A    between atoms: C10_17  and  C11_18 
REMARK    7  A    between atoms: C11_18  and  N4_19 
REMARK    8  A    between atoms: N4_19  and  S3_21 
REMARK    9  A    between atoms: S3_21  and  N5_24 
REMARK   10  A    between atoms: N5_24  and  C12_25 
REMARK   11  A    between atoms: N5_24  and  C14_27 
ROOT
HETATM    1  N1  UNL     1       5.518  -0.400  -0.441  1.00  0.00    -0.290 N 
HETATM    2  C5  UNL     1       5.191  -1.316  -1.349  1.00  0.00     0.181 A 
HETATM    3  S1  UNL     1       6.257  -2.435  -1.898  1.00  0.00    -0.040 SA
HETATM    4  N2  UNL     1       3.928  -1.273  -1.797  1.00  0.00    -0.326 N 
ATOM      5  H2  UNL     1       3.613  -1.947  -2.495  1.00  0.00     0.169 HD
HETATM    6  C6  UNL     1       3.067  -0.336  -1.326  1.00  0.00     0.093 A 
HETATM    7  S2  UNL     1       1.431  -0.001  -1.667  1.00  0.00    -0.067 SA
HETATM    8  C7  UNL     1       1.181   1.327  -0.628  1.00  0.00     0.062 A 
HETATM    9  C8  UNL     1       0.069   2.114  -0.383  1.00  0.00     0.123 A 
HETATM   10  N3  UNL     1      -1.057   1.994  -0.917  1.00  0.00    -0.355 N 
ATOM     11  H3  UNL     1      -1.743   2.677  -0.596  1.00  0.00     0.166 HD
HETATM   12  N6  UNL     1       0.203   3.133   0.540  1.00  0.00    -0.351 N 
ATOM     13  H6  UNL     1      -0.585   3.742   0.758  1.00  0.00     0.166 HD
HETATM   14  C16 UNL     1       1.369   3.305   1.135  1.00  0.00     0.090 A 
HETATM   15  C17 UNL     1       2.459   2.536   0.897  1.00  0.00     0.031 A 
HETATM   16  C18 UNL     1       2.404   1.475  -0.032  1.00  0.00     0.005 A 
HETATM   17  C19 UNL     1       3.381   0.613  -0.393  1.00  0.00     0.078 A 
HETATM   18  C20 UNL     1       4.719   0.538   0.055  1.00  0.00     0.263 A 
HETATM   19  O3  UNL     1       5.178   1.333   0.911  1.00  0.00    -0.267 OA
ENDROOT
BRANCH  10  20
HETATM   20  C9  UNL     1      -1.554   1.093  -1.877  1.00  0.00     0.064 C 
BRANCH  20  21
HETATM   21  C10 UNL     1      -2.172  -0.156  -1.263  1.00  0.00     0.065 C 
BRANCH  21  22
HETATM   22  C11 UNL     1      -3.333   0.291  -0.380  1.00  0.00     0.138 C 
BRANCH  22  23
HETATM   23  N4  UNL     1      -3.959  -0.844   0.229  1.00  0.00    -0.306 N 
ATOM     24  H4  UNL     1      -3.665  -1.810   0.088  1.00  0.00     0.173 HD
BRANCH  23  25
HETATM   25  S3  UNL     1      -5.262  -0.366   1.223  1.00  0.00     0.298 S 
HETATM   26  O1  UNL     1      -5.321  -1.250   2.443  1.00  0.00    -0.188 OA
HETATM   27  O2  UNL     1      -4.955   1.026   1.727  1.00  0.00    -0.188 OA
BRANCH  25  28
HETATM   28  N5  UNL     1      -6.771  -0.317   0.434  1.00  0.00    -0.194 NA
BRANCH  28  29
HETATM   29  C12 UNL     1      -7.089   0.961  -0.161  1.00  0.00     0.104 C 
HETATM   30  C13 UNL     1      -7.839   1.770   0.902  1.00  0.00     0.022 C 
ENDBRANCH  28  29
BRANCH  28  31
HETATM   31  C14 UNL     1      -7.050  -1.441  -0.409  1.00  0.00     0.104 C 
HETATM   32  C15 UNL     1      -7.766  -2.503   0.413  1.00  0.00     0.022 C 
ENDBRANCH  28  31
ENDBRANCH  25  28
ENDBRANCH  23  25
ENDBRANCH  22  23
ENDBRANCH  21  22
ENDBRANCH  20  21
ENDBRANCH  10  20
BRANCH   1  33
HETATM   33  C4  UNL     1       6.903  -0.448   0.046  1.00  0.00     0.135 C 
BRANCH  33  34
HETATM   34  C3  UNL     1       6.880  -1.382   1.256  1.00  0.00     0.020 C 
BRANCH  34  35
HETATM   35  C2  UNL     1       8.306  -1.440   1.771  1.00  0.00    -0.003 C 
HETATM   36  C1  UNL     1       9.202  -1.969   0.693  1.00  0.00     0.005 C 
ENDBRANCH  34  35
ENDBRANCH  33  34
ENDBRANCH   1  33
TORSDOF 11
