REMARK  11 active torsions:
REMARK  status: ('A' for Active; 'I' for Inactive)
REMARK    1  A    between atoms: C2_2  and  N1_3 
REMARK       I    between atoms: N1_3  and  C4_5 
REMARK    2  A    between atoms: C4_5  and  C5_7 
REMARK    3  A    between atoms: C5_7  and  C6_8 
REMARK    4  A    between atoms: C6_8  and  C7_9 
REMARK    5  A    between atoms: C7_9  and  C8_10 
REMARK    6  A    between atoms: C12_15  and  C13_16 
REMARK    7  A    between atoms: C14_17  and  C15_18 
REMARK    8  A    between atoms: C17_22  and  N3_23 
REMARK    9  A    between atoms: N3_23  and  C18_25 
REMARK   10  A    between atoms: C18_25  and  C19_26 
REMARK   11  A    between atoms: C19_26  and  N4_27 
ROOT
HETATM    1  C13 UNL     1       0.963   0.706   0.915  1.00  0.00    -0.060 C 
HETATM    2  C14 UNL     1       1.996   0.183   0.566  1.00  0.00    -0.059 C 
ENDROOT
BRANCH   2   3
HETATM    3  C15 UNL     1       3.213  -0.446   0.131  1.00  0.00     0.050 A 
HETATM    4  C16 UNL     1       3.457  -0.718  -1.199  1.00  0.00     0.128 A 
HETATM    5  N2  UNL     1       4.601  -1.307  -1.587  1.00  0.00    -0.201 N 
HETATM    6  C17 UNL     1       5.568  -1.662  -0.692  1.00  0.00     0.677 A 
ATOM      7  H2  UNL     1       4.751  -1.494  -2.578  1.00  0.00     0.183 HD
HETATM    8  N7  UNL     1       5.350  -1.407   0.607  1.00  0.00    -0.201 N 
HETATM    9  C21 UNL     1       4.213  -0.818   1.019  1.00  0.00     0.128 A 
ATOM     10  H7  UNL     1       6.059  -1.664   1.294  1.00  0.00     0.183 HD
BRANCH   6  11
HETATM   11  N3  UNL     1       6.653  -2.225  -1.090  1.00  0.00    -0.224 N 
ATOM     12  H3  UNL     1       6.739  -2.384  -2.094  1.00  0.00     0.177 HD
BRANCH  11  13
HETATM   13  C18 UNL     1       7.746  -2.651  -0.288  1.00  0.00     0.157 C 
BRANCH  13  14
HETATM   14  C19 UNL     1       8.685  -1.522   0.085  1.00  0.00     0.142 C 
BRANCH  14  15
HETATM   15  N4  UNL     1       9.226  -0.936  -1.139  1.00  0.00    -0.365 N 
HETATM   16  C20 UNL     1       9.298   0.357  -1.305  1.00  0.00     0.197 C 
HETATM   17  N5  UNL     1       8.849   1.239  -0.293  1.00  0.00    -0.067 NA
HETATM   18  N6  UNL     1       9.846   0.791  -2.545  1.00  0.00    -0.067 NA
ATOM     19  H4  UNL     1       9.556  -1.552  -1.882  1.00  0.00     0.161 HD
ENDBRANCH  14  15
ENDBRANCH  13  14
ENDBRANCH  11  13
ENDBRANCH   6  11
ENDBRANCH   2   3
BRANCH   1  20
HETATM   20  C12 UNL     1      -0.275   1.317   1.311  1.00  0.00     0.035 A 
HETATM   21  C11 UNL     1      -0.350   2.288   2.296  1.00  0.00     0.029 A 
HETATM   22  C10 UNL     1      -1.529   2.884   2.686  1.00  0.00     0.021 A 
HETATM   23 BR1  UNL     1       1.286   2.824   3.154  1.00  0.00    -0.050 Br
HETATM   24  C9  UNL     1      -2.694   2.468   2.040  1.00  0.00     0.008 A 
HETATM   25  C8  UNL     1      -2.650   1.509   1.062  1.00  0.00    -0.057 A 
HETATM   26  C22 UNL     1      -1.458   0.929   0.690  1.00  0.00     0.029 A 
BRANCH  25  27
HETATM   27  C7  UNL     1      -3.918   1.100   0.402  1.00  0.00     0.039 C 
BRANCH  27  28
HETATM   28  C6  UNL     1      -4.490  -0.032   1.185  1.00  0.00     0.014 C 
BRANCH  28  29
HETATM   29  C5  UNL     1      -5.770  -0.582   0.663  1.00  0.00     0.103 C 
BRANCH  29  30
HETATM   30  C4  UNL     1      -6.904   0.354   0.622  1.00  0.00     0.219 C 
HETATM   31  N1  UNL     1      -8.123  -0.028   0.014  1.00  0.00    -0.357 N 
HETATM   32  C3  UNL     1      -9.241   0.894  -0.023  1.00  0.00     0.152 C 
HETATM   33  O1  UNL     1      -6.805   1.489   1.123  1.00  0.00    -0.273 OA
BRANCH  31  34
HETATM   34  C2  UNL     1      -8.328  -1.329  -0.593  1.00  0.00     0.120 C 
HETATM   35  C1  UNL     1      -7.938  -1.262  -2.033  1.00  0.00     0.026 C 
ENDBRANCH  31  34
ENDBRANCH  29  30
ENDBRANCH  28  29
ENDBRANCH  27  28
ENDBRANCH  25  27
ENDBRANCH   1  20
TORSDOF 11
