REMARK  11 active torsions:
REMARK  status: ('A' for Active; 'I' for Inactive)
REMARK    1  A    between atoms: N1_2  and  S1_4 
REMARK    2  A    between atoms: S1_4  and  N2_7 
REMARK    3  A    between atoms: N2_7  and  C3_9 
REMARK    4  A    between atoms: C5_11  and  C6_12 
REMARK    5  A    between atoms: C6_12  and  C7_13 
REMARK    6  A    between atoms: C7_13  and  N3_14 
REMARK    7  A    between atoms: N3_14  and  C8_16 
REMARK    8  A    between atoms: C11_21  and  N5_22 
REMARK    9  A    between atoms: N5_22  and  C12_24 
REMARK   10  A    between atoms: C12_24  and  C13_25 
REMARK   11  A    between atoms: C13_25  and  C14_26 
ROOT
HETATM    1  C8  UNL     1      -0.774  -2.096   0.712  1.00  0.00     0.118 A 
HETATM    2  C9  UNL     1      -1.164  -2.185   2.036  1.00  0.00     0.066 A 
HETATM    3  C10 UNL     1      -2.365  -1.669   2.433  1.00  0.00     0.110 A 
HETATM    4  N4  UNL     1      -3.136  -1.082   1.490  1.00  0.00    -0.202 N 
ATOM      5  H4  UNL     1      -4.038  -0.688   1.757  1.00  0.00     0.183 HD
HETATM    6  C11 UNL     1      -2.738  -1.006   0.207  1.00  0.00     0.679 A 
HETATM    7  N6  UNL     1      -1.566  -1.509  -0.182  1.00  0.00    -0.177 N 
ATOM      8  H6  UNL     1      -1.278  -1.444  -1.158  1.00  0.00     0.185 HD
ENDROOT
BRANCH   1   9
HETATM    9  N3  UNL     1       0.357  -2.584   0.339  1.00  0.00    -0.376 N 
ATOM     10  H3  UNL     1       0.963  -3.036   1.024  1.00  0.00     0.161 HD
BRANCH   9  11
HETATM   11  C7  UNL     1       0.779  -2.498  -1.045  1.00  0.00     0.126 C 
BRANCH  11  12
HETATM   12  C6  UNL     1       2.167  -3.114  -1.109  1.00  0.00     0.060 C 
BRANCH  12  13
HETATM   13  C5  UNL     1       3.122  -2.392  -0.243  1.00  0.00    -0.039 A 
HETATM   14  C4  UNL     1       3.441  -0.983  -0.410  1.00  0.00     0.040 A 
HETATM   15  C3  UNL     1       4.300  -0.330   0.369  1.00  0.00     0.059 A 
HETATM   16  C21 UNL     1       4.933  -1.103   1.433  1.00  0.00     0.117 A 
HETATM   17  N7  UNL     1       4.660  -2.354   1.594  1.00  0.00    -0.373 N 
HETATM   18  C20 UNL     1       3.725  -3.042   0.737  1.00  0.00     0.095 A 
ATOM     19  H7  UNL     1       5.117  -2.870   2.346  1.00  0.00     0.164 HD
BRANCH  15  20
HETATM   20  N2  UNL     1       4.591   1.049   0.180  1.00  0.00    -0.267 N 
ATOM     21  H2  UNL     1       3.961   1.766   0.540  1.00  0.00     0.180 HD
BRANCH  20  22
HETATM   22  S1  UNL     1       6.010   1.482  -0.658  1.00  0.00     0.320 S 
HETATM   23  O1  UNL     1       6.321   0.371  -1.649  1.00  0.00    -0.182 OA
HETATM   24  O2  UNL     1       5.692   2.695  -1.497  1.00  0.00    -0.182 OA
BRANCH  22  25
HETATM   25  N1  UNL     1       7.377   1.705   0.311  1.00  0.00    -0.303 N 
HETATM   26  C1  UNL     1       8.205   0.570   0.522  1.00  0.00     0.163 C 
HETATM   27  C2  UNL     1       8.035   2.964   0.209  1.00  0.00     0.163 C 
ENDBRANCH  22  25
ENDBRANCH  20  22
ENDBRANCH  15  20
ENDBRANCH  12  13
ENDBRANCH  11  12
ENDBRANCH   9  11
ENDBRANCH   1   9
BRANCH   6  28
HETATM   28  N5  UNL     1      -3.507  -0.437  -0.657  1.00  0.00    -0.226 N 
ATOM     29  H5  UNL     1      -3.211  -0.376  -1.631  1.00  0.00     0.177 HD
BRANCH  28  30
HETATM   30  C12 UNL     1      -4.801   0.124  -0.259  1.00  0.00     0.142 C 
BRANCH  30  31
HETATM   31  C13 UNL     1      -5.468   0.744  -1.462  1.00  0.00     0.058 C 
BRANCH  31  32
HETATM   32  C14 UNL     1      -6.777   1.299  -0.994  1.00  0.00    -0.057 A 
HETATM   33  C15 UNL     1      -6.916   2.582  -0.529  1.00  0.00     0.009 A 
HETATM   34  C16 UNL     1      -8.127   3.047  -0.110  1.00  0.00     0.024 A 
HETATM   35  C17 UNL     1      -9.212   2.210  -0.161  1.00  0.00     0.034 A 
HETATM   36 CL1  UNL     1     -10.748   2.883   0.397  1.00  0.00    -0.084 Cl
HETATM   37  C18 UNL     1      -9.096   0.930  -0.620  1.00  0.00     0.024 A 
HETATM   38  C19 UNL     1      -7.862   0.461  -1.045  1.00  0.00     0.009 A 
ENDBRANCH  31  32
ENDBRANCH  30  31
ENDBRANCH  28  30
ENDBRANCH   6  28
TORSDOF 11
