REMARK  11 active torsions:
REMARK  status: ('A' for Active; 'I' for Inactive)
REMARK    1  A    between atoms: C6_7  and  C7_8 
REMARK    2  A    between atoms: C7_8  and  N2_9 
REMARK    3  A    between atoms: N2_9  and  C8_10 
REMARK       I    between atoms: N2_9  and  C12_19 
REMARK    4  A    between atoms: C8_10  and  C9_11 
REMARK    5  A    between atoms: C12_19  and  C13_21 
REMARK    6  A    between atoms: C13_21  and  C14_22 
REMARK    7  A    between atoms: C14_22  and  N5_25 
REMARK       I    between atoms: N5_25  and  C17_27 
REMARK    8  A    between atoms: C17_27  and  C18_29 
REMARK    9  A    between atoms: C18_29  and  N6_30 
REMARK   10  A    between atoms: C18_29  and  C19_34 
REMARK   11  A    between atoms: C19_34  and  C20_35 
ROOT
HETATM    1  C13 UNL     1      -0.944  -1.319   1.104  1.00  0.00     0.133 C 
ENDROOT
BRANCH   1   2
HETATM    2  C12 UNL     1      -1.279  -1.027  -0.291  1.00  0.00     0.226 C 
HETATM    3  N2  UNL     1      -2.521  -0.363  -0.651  1.00  0.00    -0.320 N 
HETATM    4  O2  UNL     1      -0.513  -1.338  -1.223  1.00  0.00    -0.273 OA
BRANCH   3   5
HETATM    5  C7  UNL     1      -3.462   0.037   0.303  1.00  0.00     0.123 C 
BRANCH   5   6
HETATM    6  C6  UNL     1      -3.496   1.300   0.988  1.00  0.00     0.049 A 
HETATM    7  N1  UNL     1      -2.873   2.445   0.719  1.00  0.00    -0.360 N 
HETATM    8  C1  UNL     1      -1.995   2.640  -0.405  1.00  0.00     0.155 C 
HETATM    9  C2  UNL     1      -3.042   3.554   1.512  1.00  0.00     0.090 A 
HETATM   10  C3  UNL     1      -3.849   3.565   2.615  1.00  0.00     0.017 A 
HETATM   11  C4  UNL     1      -4.509   2.407   2.928  1.00  0.00     0.004 A 
HETATM   12  C5  UNL     1      -4.328   1.331   2.136  1.00  0.00     0.031 A 
ENDBRANCH   5   6
ENDBRANCH   3   5
BRANCH   3  13
HETATM   13  C8  UNL     1      -2.801  -0.204  -2.092  1.00  0.00     0.189 C 
BRANCH  13  14
HETATM   14  C9  UNL     1      -3.560  -1.427  -2.551  1.00  0.00     0.047 A 
HETATM   15  C10 UNL     1      -3.931  -2.514  -1.806  1.00  0.00     0.119 A 
HETATM   16  N3  UNL     1      -4.581  -3.355  -2.611  1.00  0.00    -0.317 N 
HETATM   17  C11 UNL     1      -4.613  -2.802  -3.832  1.00  0.00     0.324 A 
ATOM     18  H3  UNL     1      -4.981  -4.255  -2.346  1.00  0.00     0.170 HD
HETATM   19  O1  UNL     1      -5.168  -3.363  -4.833  1.00  0.00    -0.247 OA
HETATM   20  N4  UNL     1      -3.987  -1.620  -3.797  1.00  0.00    -0.309 N 
ATOM     21  H4  UNL     1      -3.860  -0.982  -4.583  1.00  0.00     0.170 HD
ENDBRANCH  13  14
ENDBRANCH   3  13
ENDBRANCH   1   2
BRANCH   1  22
HETATM   22  C14 UNL     1       0.384  -2.018   1.254  1.00  0.00     0.034 C 
HETATM   23  C15 UNL     1       0.670  -2.287   2.732  1.00  0.00     0.038 C 
HETATM   24  C16 UNL     1       0.267  -3.361   0.576  1.00  0.00     0.038 C 
BRANCH  22  25
HETATM   25  N5  UNL     1       1.477  -1.270   0.650  1.00  0.00    -0.350 N 
HETATM   26  C17 UNL     1       1.818   0.029   1.064  1.00  0.00     0.249 C 
HETATM   27  O3  UNL     1       1.179   0.581   1.978  1.00  0.00    -0.271 OA
ATOM     28  H5  UNL     1       2.014  -1.704  -0.100  1.00  0.00     0.163 HD
BRANCH  26  29
HETATM   29  C18 UNL     1       2.930   0.747   0.425  1.00  0.00     0.278 C 
BRANCH  29  30
HETATM   30  N6  UNL     1       3.161   2.053   0.944  1.00  0.00    -0.066 N 
ATOM     31  H63 UNL     1       2.307   2.609   0.902  1.00  0.00     0.275 HD
ATOM     32  H62 UNL     1       3.295   2.016   1.954  1.00  0.00     0.275 HD
ATOM     33  H61 UNL     1       3.933   2.551   0.501  1.00  0.00     0.275 HD
ENDBRANCH  29  30
BRANCH  29  34
HETATM   34  C19 UNL     1       4.167  -0.136   0.496  1.00  0.00     0.081 C 
BRANCH  34  35
HETATM   35  C20 UNL     1       5.332   0.548  -0.142  1.00  0.00    -0.056 A 
HETATM   36  C21 UNL     1       5.589   0.383  -1.481  1.00  0.00     0.010 A 
HETATM   37  C22 UNL     1       6.657   1.018  -2.038  1.00  0.00     0.043 A 
HETATM   38  C23 UNL     1       7.501   1.826  -1.314  1.00  0.00     0.116 A 
HETATM   39  F1  UNL     1       8.551   2.428  -1.943  1.00  0.00    -0.206 F 
HETATM   40  C24 UNL     1       7.256   2.002   0.034  1.00  0.00     0.043 A 
HETATM   41  C25 UNL     1       6.177   1.358   0.587  1.00  0.00     0.010 A 
ENDBRANCH  34  35
ENDBRANCH  29  34
ENDBRANCH  26  29
ENDBRANCH  22  25
ENDBRANCH   1  22
TORSDOF 11
