REMARK  13 active torsions:
REMARK  status: ('A' for Active; 'I' for Inactive)
REMARK    1  A    between atoms: C2_2  and  C3_3 
REMARK    2  A    between atoms: C14_16  and  N2_17 
REMARK       I    between atoms: N2_17  and  C15_19 
REMARK    3  A    between atoms: C15_19  and  C16_21 
REMARK    4  A    between atoms: C16_21  and  C17_22 
REMARK    5  A    between atoms: C17_22  and  C18_23 
REMARK    6  A    between atoms: C18_23  and  C19_24 
REMARK    7  A    between atoms: C19_24  and  C20_25 
REMARK    8  A    between atoms: C20_25  and  N3_26 
REMARK    9  A    between atoms: N3_26  and  C21_29 
REMARK   10  A    between atoms: C21_29  and  C22_30 
REMARK   11  A    between atoms: C22_30  and  C23_31 
REMARK   12  A    between atoms: C23_31  and  C24_32 
REMARK   13  A    between atoms: C24_32  and  N4_33 
ROOT
HETATM    1  C1  UNL     1      -5.740   2.432  -2.420  1.00  0.00     0.025 C 
HETATM    2  C2  UNL     1      -6.400   1.572  -1.324  1.00  0.00     0.039 C 
HETATM    3  C4  UNL     1      -6.872   2.582  -0.295  1.00  0.00     0.019 C 
HETATM    4  C5  UNL     1      -5.730   2.952   0.632  1.00  0.00     0.002 C 
HETATM    5  C6  UNL     1      -5.271   1.771   1.416  1.00  0.00     0.010 C 
HETATM    6  C7  UNL     1      -5.266   0.480   0.670  1.00  0.00    -0.035 C 
HETATM    7  C8  UNL     1      -6.339  -0.417   1.243  1.00  0.00     0.016 C 
HETATM    8  C9  UNL     1      -3.935  -0.221   0.986  1.00  0.00    -0.001 C 
HETATM    9  C10 UNL     1      -2.758   0.669   0.941  1.00  0.00     0.007 C 
HETATM   10  C11 UNL     1      -1.488  -0.009   0.438  1.00  0.00     0.012 C 
HETATM   11  C12 UNL     1      -1.427  -1.401   0.973  1.00  0.00    -0.016 C 
HETATM   12  C13 UNL     1      -1.348  -1.293   2.479  1.00  0.00     0.018 C 
HETATM   13  C14 UNL     1      -0.180  -2.080   0.478  1.00  0.00     0.093 C 
HETATM   14  C25 UNL     1      -0.607  -3.355  -0.214  1.00  0.00     0.027 C 
HETATM   15  C26 UNL     1      -2.015  -2.997  -0.666  1.00  0.00     0.012 C 
HETATM   16  C27 UNL     1      -2.590  -2.253   0.530  1.00  0.00    -0.031 C 
HETATM   17  C28 UNL     1      -2.847  -3.311   1.600  1.00  0.00     0.016 C 
HETATM   18  C29 UNL     1      -3.827  -1.492   0.203  1.00  0.00    -0.001 C 
HETATM   19  C30 UNL     1      -4.036  -1.338  -1.270  1.00  0.00     0.006 C 
HETATM   20  C31 UNL     1      -5.358  -0.659  -1.537  1.00  0.00     0.007 C 
HETATM   21  C32 UNL     1      -5.337   0.662  -0.806  1.00  0.00     0.011 C 
ENDROOT
BRANCH  13  22
HETATM   22  N2  UNL     1       0.596  -1.315  -0.458  1.00  0.00    -0.356 N 
HETATM   23  C15 UNL     1       1.968  -1.027  -0.221  1.00  0.00     0.217 C 
HETATM   24  O2  UNL     1       2.497  -1.452   0.829  1.00  0.00    -0.274 OA
ATOM     25  H2  UNL     1       0.154  -0.971  -1.310  1.00  0.00     0.162 HD
BRANCH  23  26
HETATM   26  C16 UNL     1       2.790  -0.241  -1.175  1.00  0.00     0.103 C 
BRANCH  26  27
HETATM   27  C17 UNL     1       4.214  -0.108  -0.641  1.00  0.00     0.009 C 
BRANCH  27  28
HETATM   28  C18 UNL     1       5.043   0.690  -1.614  1.00  0.00     0.002 C 
BRANCH  28  29
HETATM   29  C19 UNL     1       6.466   0.885  -1.178  1.00  0.00     0.027 C 
BRANCH  29  30
HETATM   30  C20 UNL     1       7.148  -0.427  -1.012  1.00  0.00     0.232 C 
BRANCH  30  31
HETATM   31  N3  UNL     1       8.514  -0.268  -0.604  1.00  0.00    -0.075 N 
ATOM     32  H32 UNL     1       9.030  -1.142  -0.705  1.00  0.00     0.277 HD
ATOM     33  H31 UNL     1       9.030   0.307  -1.270  1.00  0.00     0.277 HD
BRANCH  31  34
HETATM   34  C21 UNL     1       8.638   0.256   0.740  1.00  0.00     0.232 C 
BRANCH  34  35
HETATM   35  C22 UNL     1      10.076   0.256   1.127  1.00  0.00     0.029 C 
BRANCH  35  36
HETATM   36  C23 UNL     1      10.998   1.048   0.289  1.00  0.00     0.029 C 
BRANCH  36  37
HETATM   37  C24 UNL     1      10.769   2.509   0.230  1.00  0.00     0.229 C 
BRANCH  37  38
HETATM   38  N4  UNL     1       9.494   2.880  -0.309  1.00  0.00    -0.079 N 
ATOM     39  H43 UNL     1       9.358   2.459  -1.228  1.00  0.00     0.274 HD
ATOM     40  H42 UNL     1       8.742   2.421   0.204  1.00  0.00     0.274 HD
ATOM     41  H41 UNL     1       9.336   3.887  -0.350  1.00  0.00     0.274 HD
ENDBRANCH  37  38
ENDBRANCH  36  37
ENDBRANCH  35  36
ENDBRANCH  34  35
ENDBRANCH  31  34
ENDBRANCH  30  31
ENDBRANCH  29  30
ENDBRANCH  28  29
ENDBRANCH  27  28
ENDBRANCH  26  27
ENDBRANCH  23  26
ENDBRANCH  13  22
BRANCH   2  42
HETATM   42  C3  UNL     1      -7.530   0.885  -1.981  1.00  0.00     0.239 C 
HETATM   43  N1  UNL     1      -8.439   0.018  -1.310  1.00  0.00    -0.061 NA
HETATM   44  O1  UNL     1      -7.748   1.042  -3.210  1.00  0.00    -0.276 OA
ENDBRANCH   2  42
TORSDOF 13
