REMARK  15 active torsions:
REMARK  status: ('A' for Active; 'I' for Inactive)
REMARK    1  A    between atoms: C2_2  and  C3_3 
REMARK    2  A    between atoms: C3_3  and  C4_4 
REMARK    3  A    between atoms: C12_12  and  C13_13 
REMARK    4  A    between atoms: C13_13  and  C14_14 
REMARK    5  A    between atoms: C13_13  and  N4_31 
REMARK    6  A    between atoms: C14_14  and  C15_15 
REMARK    7  A    between atoms: C15_15  and  C16_16 
REMARK    8  A    between atoms: C16_16  and  C17_17 
REMARK    9  A    between atoms: C17_17  and  C18_18 
REMARK   10  A    between atoms: C18_18  and  C19_19 
REMARK   11  A    between atoms: C19_19  and  C20_20 
REMARK   12  A    between atoms: C20_20  and  C21_21 
REMARK   13  A    between atoms: C21_21  and  C22_22 
REMARK   14  A    between atoms: C22_22  and  N2_26 
REMARK   15  A    between atoms: N2_26  and  N3_28 
REMARK       I    between atoms: N4_31  and  C23_33 
REMARK       I    between atoms: C23_33  and  N5_35 
ROOT
HETATM    1  C13 UNL     1      -0.939  -0.422   0.159  1.00  0.00     0.099 C 
ENDROOT
BRANCH   1   2
HETATM    2  C12 UNL     1      -2.062  -1.324  -0.229  1.00  0.00     0.004 C 
HETATM    3  C4  UNL     1      -1.785  -2.589  -0.927  1.00  0.00    -0.069 C 
HETATM    4  C5  UNL     1      -3.069  -3.204  -1.422  1.00  0.00     0.016 C 
HETATM    5  C6  UNL     1      -3.776  -3.729  -0.133  1.00  0.00     0.013 C 
HETATM    6  C10 UNL     1      -4.072  -2.359  -2.073  1.00  0.00     0.013 C 
HETATM    7  C7  UNL     1      -4.002  -2.546   0.748  1.00  0.00    -0.012 C 
HETATM    8  C8  UNL     1      -5.040  -1.653   0.070  1.00  0.00     0.009 C 
HETATM    9  C28 UNL     1      -2.770  -1.761   1.100  1.00  0.00     0.020 C 
HETATM   10  C9  UNL     1      -4.385  -1.152  -1.208  1.00  0.00    -0.012 C 
HETATM   11  C11 UNL     1      -3.132  -0.428  -0.816  1.00  0.00     0.020 C 
BRANCH   3  12
HETATM   12  C3  UNL     1      -0.619  -2.752  -1.798  1.00  0.00    -0.023 C 
BRANCH  12  13
HETATM   13  C2  UNL     1      -0.450  -2.260  -3.148  1.00  0.00     0.023 C 
HETATM   14  C1  UNL     1      -1.336  -2.769  -4.239  1.00  0.00     0.009 C 
ENDBRANCH  12  13
ENDBRANCH   3  12
ENDBRANCH   1   2
BRANCH   1  15
HETATM   15  C14 UNL     1       0.050  -0.963   1.151  1.00  0.00     0.026 C 
BRANCH  15  16
HETATM   16  C15 UNL     1       1.174  -0.028   1.426  1.00  0.00     0.002 C 
BRANCH  16  17
HETATM   17  C16 UNL     1       2.044   0.344   0.271  1.00  0.00     0.000 C 
BRANCH  17  18
HETATM   18  C17 UNL     1       2.799  -0.751  -0.384  1.00  0.00     0.000 C 
BRANCH  18  19
HETATM   19  C18 UNL     1       3.741  -1.475   0.533  1.00  0.00     0.000 C 
BRANCH  19  20
HETATM   20  C19 UNL     1       4.798  -0.615   1.159  1.00  0.00     0.000 C 
BRANCH  20  21
HETATM   21  C20 UNL     1       5.670   0.024   0.129  1.00  0.00     0.007 C 
BRANCH  21  22
HETATM   22  C21 UNL     1       6.752   0.890   0.789  1.00  0.00     0.077 C 
BRANCH  22  23
HETATM   23  C22 UNL     1       7.565   1.480  -0.289  1.00  0.00     0.088 C 
HETATM   24  N1  UNL     1       7.290   1.220  -1.517  1.00  0.00    -0.388 N 
ATOM     25  H12 UNL     1       6.503   0.602  -1.716  1.00  0.00     0.157 HD
ATOM     26  H11 UNL     1       7.853   1.628  -2.263  1.00  0.00     0.157 HD
BRANCH  23  27
HETATM   27  N2  UNL     1       8.661   2.341  -0.012  1.00  0.00    -0.296 N 
ATOM     28  H2  UNL     1       8.515   3.308   0.278  1.00  0.00     0.187 HD
BRANCH  27  29
HETATM   29  N3  UNL     1       9.949   1.810  -0.152  1.00  0.00    -0.344 N 
ATOM     30  H32 UNL     1      10.078   0.841  -0.442  1.00  0.00     0.176 HD
ATOM     31  H31 UNL     1      10.736   2.428   0.047  1.00  0.00     0.176 HD
ENDBRANCH  27  29
ENDBRANCH  23  27
ENDBRANCH  22  23
ENDBRANCH  21  22
ENDBRANCH  20  21
ENDBRANCH  19  20
ENDBRANCH  18  19
ENDBRANCH  17  18
ENDBRANCH  16  17
ENDBRANCH  15  16
ENDBRANCH   1  15
BRANCH   1  32
HETATM   32  N4  UNL     1      -1.438   0.904   0.466  1.00  0.00    -0.337 N 
HETATM   33  C23 UNL     1      -1.707   1.516   1.682  1.00  0.00     0.318 C 
HETATM   34  O1  UNL     1      -1.588   1.047   2.844  1.00  0.00    -0.247 OA
HETATM   35  N5  UNL     1      -2.194   2.879   1.702  1.00  0.00    -0.333 N 
HETATM   36  C24 UNL     1      -2.484   3.544   2.928  1.00  0.00     0.142 C 
HETATM   37  C27 UNL     1      -2.363   3.514   0.395  1.00  0.00     0.142 C 
HETATM   38  C25 UNL     1      -3.876   4.140   2.980  1.00  0.00     0.160 C 
HETATM   39  S1  UNL     1      -4.193   5.116   1.525  1.00  0.00     0.147 S 
HETATM   40  O2  UNL     1      -4.371   6.564   1.876  1.00  0.00    -0.228 OA
HETATM   41  O3  UNL     1      -5.368   4.570   0.784  1.00  0.00    -0.228 OA
HETATM   42  C26 UNL     1      -2.717   4.977   0.515  1.00  0.00     0.160 C 
ATOM     43  H4  UNL     1      -1.623   1.486  -0.351  1.00  0.00     0.164 HD
ENDBRANCH   1  32
TORSDOF 15
