REMARK  3 active torsions:
REMARK  status: ('A' for Active; 'I' for Inactive)
REMARK    1  A    between atoms: C3_5  and  C4_6 
REMARK    2  A    between atoms: C4_6  and  C5_7 
REMARK    3  A    between atoms: C5_7  and  C6_8 
ROOT
HETATM    1  C6  UNL     1      -1.126   0.417  -0.799  1.00  0.00     0.083 C 
HETATM    2  C7  UNL     1      -1.843  -0.895  -0.805  1.00  0.00     0.031 C 
HETATM    3  C8  UNL     1      -3.311  -0.621  -1.087  1.00  0.00     0.089 C 
HETATM    4  C9  UNL     1      -3.948   0.071   0.092  1.00  0.00     0.300 C 
HETATM    5  F1  UNL     1      -5.172   0.592  -0.278  1.00  0.00    -0.198 F 
HETATM    6  F2  UNL     1      -4.189  -0.836   1.104  1.00  0.00    -0.198 F 
HETATM    7  C10 UNL     1      -3.077   1.184   0.545  1.00  0.00     0.144 C 
HETATM    8  N2  UNL     1      -3.607   2.163   1.237  1.00  0.00    -0.384 N 
ATOM      9  H21 UNL     1      -3.008   2.928   1.548  1.00  0.00     0.157 HD
ATOM     10  H22 UNL     1      -4.605   2.129   1.445  1.00  0.00     0.157 HD
HETATM   11  N3  UNL     1      -1.688   1.231   0.256  1.00  0.00    -0.370 N 
ATOM     12  H3  UNL     1      -1.080   1.845   0.798  1.00  0.00     0.161 HD
ENDROOT
BRANCH   1  13
HETATM   13  C5  UNL     1       0.358   0.293  -0.672  1.00  0.00     0.031 C 
BRANCH  13  14
HETATM   14  C4  UNL     1       0.744  -0.400   0.604  1.00  0.00     0.059 C 
BRANCH  14  15
HETATM   15  C3  UNL     1       2.247  -0.526   0.734  1.00  0.00     0.016 A 
HETATM   16  N1  UNL     1       3.069  -0.082  -0.161  1.00  0.00    -0.357 N 
HETATM   17  C2  UNL     1       4.372  -0.220   0.006  1.00  0.00     0.046 A 
ATOM     18  H1  UNL     1       2.710   0.376  -0.998  1.00  0.00     0.166 HD
HETATM   19  C1  UNL     1       5.520   0.196  -0.860  1.00  0.00     0.076 C 
HETATM   20  S1  UNL     1       4.467  -1.020   1.503  1.00  0.00    -0.087 SA
HETATM   21  C11 UNL     1       2.776  -1.136   1.843  1.00  0.00     0.076 A 
ENDBRANCH  14  15
ENDBRANCH  13  14
ENDBRANCH   1  13
TORSDOF 3
