REMARK  6 active torsions:
REMARK  status: ('A' for Active; 'I' for Inactive)
REMARK    1  A    between atoms: C5_7  and  C6_8 
REMARK    2  A    between atoms: C6_8  and  C7_9 
REMARK    3  A    between atoms: C7_9  and  N2_10 
REMARK    4  A    between atoms: C8_14  and  N3_15 
REMARK    5  A    between atoms: N3_15  and  O1_17 
REMARK    6  A    between atoms: C10_20  and  C11_21 
ROOT
HETATM    1  C1  UNL     1      -4.069  -0.794   1.826  1.00  0.00     0.050 C 
HETATM    2  C2  UNL     1      -2.809  -0.399   1.092  1.00  0.00    -0.037 A 
HETATM    3  C3  UNL     1      -1.640  -0.165   1.772  1.00  0.00     0.039 A 
HETATM    4  C4  UNL     1      -0.486   0.191   1.105  1.00  0.00     0.046 A 
HETATM    5  N1  UNL     1       0.765   0.475   1.509  1.00  0.00    -0.357 N 
ATOM      6  H1  UNL     1       1.068   0.462   2.483  1.00  0.00     0.166 HD
HETATM    7  C5  UNL     1       1.556   0.773   0.491  1.00  0.00     0.041 A 
HETATM    8  C8  UNL     1       0.823   0.694  -0.679  1.00  0.00     0.090 A 
HETATM    9  C9  UNL     1      -0.462   0.327  -0.291  1.00  0.00     0.035 A 
HETATM   10  C10 UNL     1      -1.644   0.087  -0.946  1.00  0.00     0.043 A 
HETATM   11  C12 UNL     1      -2.823  -0.276  -0.267  1.00  0.00     0.052 A 
HETATM   12 CL1  UNL     1      -4.316  -0.571  -1.142  1.00  0.00    -0.083 Cl
ENDROOT
BRANCH   7  13
HETATM   13  C6  UNL     1       3.005   1.125   0.516  1.00  0.00     0.086 C 
BRANCH  13  14
HETATM   14  C7  UNL     1       3.917   0.003   0.191  1.00  0.00     0.235 C 
BRANCH  14  15
HETATM   15  N2  UNL     1       3.779  -0.610  -1.083  1.00  0.00    -0.079 N 
ATOM     16  H23 UNL     1       2.813  -0.914  -1.207  1.00  0.00     0.274 HD
ATOM     17  H22 UNL     1       3.850   0.103  -1.809  1.00  0.00     0.274 HD
ATOM     18  H21 UNL     1       4.407  -1.382  -1.307  1.00  0.00     0.274 HD
ENDBRANCH  14  15
ENDBRANCH  13  14
ENDBRANCH   7  13
BRANCH   8  19
HETATM   19  N3  UNL     1       1.298   0.961  -2.002  1.00  0.00    -0.267 N 
ATOM     20  H3  UNL     1       1.502   0.194  -2.642  1.00  0.00     0.194 HD
BRANCH  19  21
HETATM   21  O1  UNL     1       1.462   2.163  -2.368  1.00  0.00    -0.289 OA
ATOM     22  H1  UNL     1       1.777   2.340  -3.246  1.00  0.00     0.244 HD
ENDBRANCH  19  21
ENDBRANCH   8  19
BRANCH  10  23
HETATM   23  C11 UNL     1      -1.728   0.186  -2.422  1.00  0.00     0.389 C 
HETATM   24  F1  UNL     1      -2.667   1.196  -2.703  1.00  0.00    -0.209 F 
HETATM   25  F2  UNL     1      -2.295  -0.966  -2.962  1.00  0.00    -0.209 F 
ENDBRANCH  10  23
TORSDOF 6
