REMARK  5 active torsions:
REMARK  status: ('A' for Active; 'I' for Inactive)
REMARK    1  A    between atoms: C2_2  and  C3_5 
REMARK    2  A    between atoms: C3_5  and  O2_7 
REMARK    3  A    between atoms: O2_7  and  C4_8 
REMARK    4  A    between atoms: C7_14  and  C8_15 
REMARK    5  A    between atoms: C9_16  and  C10_17 
ROOT
HETATM    1  C4  UNL     1       0.138   0.963   0.837  1.00  0.00     0.108 A 
HETATM    2  C5  UNL     1       0.515   2.270   1.150  1.00  0.00     0.127 A 
HETATM    3  N1  UNL     1      -0.471   3.116   0.853  1.00  0.00    -0.351 N 
ATOM      4  H1  UNL     1      -0.451   4.127   0.985  1.00  0.00     0.166 HD
HETATM    5  C6  UNL     1      -1.487   2.414   0.354  1.00  0.00     0.129 A 
HETATM    6  N2  UNL     1      -2.710   2.999  -0.072  1.00  0.00    -0.082 NA
HETATM    7  C7  UNL     1      -1.138   1.060   0.330  1.00  0.00     0.040 A 
ENDROOT
BRANCH   1   8
HETATM    8  O2  UNL     1       0.929  -0.181   1.017  1.00  0.00    -0.274 OA
BRANCH   8   9
HETATM    9  C3  UNL     1       1.966  -0.462   0.103  1.00  0.00     0.303 C 
HETATM   10  O1  UNL     1       2.107   0.359  -0.832  1.00  0.00    -0.261 OA
BRANCH   9  11
HETATM   11  C2  UNL     1       2.846  -1.628   0.202  1.00  0.00     0.197 C 
HETATM   12  C1  UNL     1       3.830  -1.606  -0.936  1.00  0.00     0.061 C 
HETATM   13 CL1  UNL     1       1.955  -3.165   0.129  1.00  0.00    -0.091 Cl
HETATM   14 CL2  UNL     1       3.798  -1.603   1.727  1.00  0.00    -0.091 Cl
ENDBRANCH   9  11
ENDBRANCH   8   9
ENDBRANCH   1   8
BRANCH   7  15
HETATM   15  C8  UNL     1      -2.015  -0.000  -0.133  1.00  0.00     0.016 C 
HETATM   16  C9  UNL     1      -1.777  -1.277  -0.129  1.00  0.00     0.005 C 
BRANCH  16  17
HETATM   17  C10 UNL     1      -2.748  -2.292  -0.631  1.00  0.00     0.249 C 
HETATM   18  F1  UNL     1      -3.117  -3.190   0.339  1.00  0.00    -0.251 F 
ENDBRANCH  16  17
ENDBRANCH   7  15
TORSDOF 5
