REMARK  4 active torsions:
REMARK  status: ('A' for Active; 'I' for Inactive)
REMARK    1  A    between atoms: C4_4  and  C5_5 
REMARK    2  A    between atoms: C5_5  and  C6_6 
REMARK    3  A    between atoms: C6_6  and  C7_8 
REMARK    4  A    between atoms: C11_17  and  O2_18 
ROOT
HETATM    1  C7  UNL     1       1.443   0.556   0.096  1.00  0.00     0.084 A 
HETATM    2  C8  UNL     1       2.322   1.353   0.800  1.00  0.00     0.121 A 
HETATM    3 CL1  UNL     1       1.676   2.784   1.576  1.00  0.00    -0.063 Cl
HETATM    4  N1  UNL     1       3.634   1.077   0.910  1.00  0.00    -0.333 N 
ATOM      5  H1  UNL     1       4.228   1.710   1.446  1.00  0.00     0.168 HD
HETATM    6  C9  UNL     1       4.192  -0.011   0.334  1.00  0.00     0.142 A 
HETATM    7  N2  UNL     1       5.582  -0.280   0.467  1.00  0.00    -0.081 NA
HETATM    8  C10 UNL     1       3.348  -0.837  -0.380  1.00  0.00     0.109 A 
HETATM    9 CL2  UNL     1       4.064  -2.251  -1.131  1.00  0.00    -0.078 Cl
HETATM   10  C11 UNL     1       1.991  -0.563  -0.502  1.00  0.00     0.107 A 
ENDROOT
BRANCH   1  11
HETATM   11  C6  UNL     1       0.015   0.892  -0.000  1.00  0.00     0.168 C 
HETATM   12  O1  UNL     1      -0.365   1.937   0.585  1.00  0.00    -0.292 OA
BRANCH  11  13
HETATM   13  C5  UNL     1      -0.968   0.099  -0.721  1.00  0.00     0.111 C 
BRANCH  13  14
HETATM   14  C4  UNL     1      -2.301   0.750  -0.614  1.00  0.00    -0.017 C 
HETATM   15  C2  UNL     1      -3.337   0.138  -0.061  1.00  0.00    -0.091 C 
HETATM   16  C1  UNL     1      -4.663   0.824   0.031  1.00  0.00     0.042 C 
HETATM   17  C3  UNL     1      -3.142  -1.240   0.463  1.00  0.00     0.042 C 
ENDBRANCH  13  14
ENDBRANCH  11  13
ENDBRANCH   1  11
BRANCH  10  18
HETATM   18  O2  UNL     1       1.184  -1.419  -1.229  1.00  0.00    -0.358 OA
ATOM     19  H2  UNL     1       1.561  -2.188  -1.640  1.00  0.00     0.217 HD
ENDBRANCH  10  18
TORSDOF 4
