REMARK  6 active torsions:
REMARK  status: ('A' for Active; 'I' for Inactive)
REMARK    1  A    between atoms: C2_2  and  N1_3 
REMARK    2  A    between atoms: N1_3  and  C3_5 
REMARK    3  A    between atoms: C3_5  and  N2_7 
REMARK    4  A    between atoms: N2_7  and  C4_9 
REMARK    5  A    between atoms: N3_12  and  C7_13 
REMARK    6  A    between atoms: C7_13  and  C8_14 
ROOT
HETATM    1  C4  UNL     1       0.040  -1.018   0.490  1.00  0.00     0.087 C 
HETATM    2  C5  UNL     1       0.848   0.139   1.100  1.00  0.00     0.055 C 
HETATM    3  C6  UNL     1       2.290  -0.385   1.129  1.00  0.00     0.274 C 
HETATM    4  N3  UNL     1       2.794  -0.188  -0.186  1.00  0.00     0.089 N 
HETATM    5  C9  UNL     1       1.914  -0.718  -1.189  1.00  0.00     0.274 C 
HETATM    6  C10 UNL     1       0.765  -1.526  -0.698  1.00  0.00     0.055 C 
ENDROOT
BRANCH   1   7
HETATM    7  N2  UNL     1      -1.287  -0.543   0.303  1.00  0.00    -0.363 N 
ATOM      8  H2  UNL     1      -1.486   0.435   0.514  1.00  0.00     0.162 HD
BRANCH   7   9
HETATM    9  C3  UNL     1      -2.343  -1.357  -0.160  1.00  0.00     0.167 C 
HETATM   10  S1  UNL     1      -2.052  -2.918  -0.491  1.00  0.00    -0.041 SA
BRANCH   9  11
HETATM   11  N1  UNL     1      -3.656  -0.837  -0.332  1.00  0.00    -0.368 N 
ATOM     12  H1  UNL     1      -4.415  -1.431  -0.664  1.00  0.00     0.161 HD
BRANCH  11  13
HETATM   13  C2  UNL     1      -3.886   0.566  -0.021  1.00  0.00     0.117 C 
HETATM   14  C1  UNL     1      -5.338   0.921  -0.142  1.00  0.00     0.026 C 
ENDBRANCH  11  13
ENDBRANCH   9  11
ENDBRANCH   7   9
ENDBRANCH   1   7
BRANCH   4  15
HETATM   15  C7  UNL     1       3.238   1.142  -0.449  1.00  0.00     0.283 C 
BRANCH  15  16
HETATM   16  C8  UNL     1       4.487   1.445   0.329  1.00  0.00     0.115 C 
HETATM   17 BR1  UNL     1       5.106   3.247  -0.031  1.00  0.00    -0.095 Br
ENDBRANCH  15  16
ENDBRANCH   4  15
TORSDOF 6
