REMARK  4 active torsions:
REMARK  status: ('A' for Active; 'I' for Inactive)
REMARK    1  A    between atoms: C2_2  and  C3_3 
REMARK    2  A    between atoms: C6_6  and  N1_7 
REMARK    3  A    between atoms: C6_6  and  N2_14 
REMARK       I    between atoms: N1_7  and  C7_9 
REMARK    4  A    between atoms: C7_9  and  C8_11 
REMARK       I    between atoms: N2_14  and  C11_16 
REMARK       I    between atoms: C11_16  and  N3_18 
ROOT
HETATM    1  C3  UNL     1      -0.402   2.543  -0.559  1.00  0.00     0.006 A 
HETATM    2  C4  UNL     1       0.901   3.029  -0.150  1.00  0.00     0.026 A 
HETATM    3  C5  UNL     1       0.497   1.774   0.444  1.00  0.00     0.051 A 
HETATM    4  C6  UNL     1       0.075   0.552  -0.340  1.00  0.00     0.132 C 
HETATM    5  C14 UNL     1      -0.365   1.330  -1.508  1.00  0.00     0.144 C 
HETATM    6 CL1  UNL     1       0.647   1.516  -2.914  1.00  0.00    -0.119 Cl
ENDROOT
BRANCH   4   7
HETATM    7  N1  UNL     1       1.027  -0.493  -0.403  1.00  0.00    -0.332 N 
HETATM    8  C7  UNL     1       2.366  -0.465  -0.827  1.00  0.00     0.223 C 
HETATM    9  O1  UNL     1       2.891   0.589  -1.213  1.00  0.00    -0.273 OA
ATOM     10  H1  UNL     1       0.690  -1.405  -0.094  1.00  0.00     0.165 HD
BRANCH   8  11
HETATM   11  C8  UNL     1       3.223  -1.675  -0.839  1.00  0.00     0.070 C 
HETATM   12  C9  UNL     1       4.615  -1.382  -1.335  1.00  0.00     0.019 C 
HETATM   13  C10 UNL     1       3.315  -2.142   0.620  1.00  0.00     0.019 C 
ENDBRANCH   8  11
ENDBRANCH   4   7
BRANCH   4  14
HETATM   14  N2  UNL     1      -1.160   0.009   0.289  1.00  0.00    -0.314 N 
HETATM   15  C11 UNL     1      -1.818  -1.123  -0.247  1.00  0.00     0.319 C 
HETATM   16  O2  UNL     1      -1.385  -1.711  -1.276  1.00  0.00    -0.247 OA
HETATM   17  N3  UNL     1      -3.002  -1.633   0.373  1.00  0.00    -0.343 N 
HETATM   18  C12 UNL     1      -3.533  -0.993   1.552  1.00  0.00     0.154 C 
HETATM   19  C13 UNL     1      -3.684  -2.786  -0.161  1.00  0.00     0.154 C 
ATOM     20  H2  UNL     1      -1.539   0.461   1.121  1.00  0.00     0.166 HD
ENDBRANCH   4  14
BRANCH   1  21
HETATM   21  C2  UNL     1      -1.679   2.974   0.007  1.00  0.00    -0.025 C 
HETATM   22  C1  UNL     1      -1.789   4.157   0.551  1.00  0.00     0.008 C 
ENDBRANCH   1  21
TORSDOF 4
