REMARK  3 active torsions:
REMARK  status: ('A' for Active; 'I' for Inactive)
REMARK    1  A    between atoms: C3_3  and  N1_4 
REMARK       I    between atoms: N1_4  and  C4_6 
REMARK    2  A    between atoms: C4_6  and  C5_8 
REMARK       I    between atoms: N2_16  and  C12_17 
REMARK       I    between atoms: C12_17  and  N3_19 
REMARK    3  A    between atoms: N3_19  and  C13_21 
ROOT
HETATM    1  C1  UNL     1       5.518   3.537  -0.929  1.00  0.00     0.098 C 
HETATM    2  C2  UNL     1       4.359   3.378  -0.581  1.00  0.00    -0.168 C 
HETATM    3  C3  UNL     1       2.973   3.186  -0.164  1.00  0.00     0.202 C 
ENDROOT
BRANCH   3   4
HETATM    4  N1  UNL     1       2.588   1.824  -0.455  1.00  0.00    -0.350 N 
HETATM    5  C4  UNL     1       1.295   1.337  -0.162  1.00  0.00     0.241 C 
HETATM    6  O1  UNL     1       0.478   2.116   0.362  1.00  0.00    -0.271 OA
ATOM      7  H1  UNL     1       3.269   1.197  -0.884  1.00  0.00     0.163 HD
BRANCH   5   8
HETATM    8  C5  UNL     1       0.954  -0.033  -0.471  1.00  0.00     0.188 C 
HETATM    9  C6  UNL     1       1.904  -1.033   0.148  1.00  0.00     0.052 C 
HETATM   10  C7  UNL     1       1.825  -0.947   1.658  1.00  0.00     0.012 C 
HETATM   11  C11 UNL     1       1.445  -2.397  -0.339  1.00  0.00     0.178 C 
HETATM   12  C8  UNL     1       0.379  -0.895   2.105  1.00  0.00     0.026 C 
HETATM   13  C9  UNL     1      -0.454  -1.409   0.954  1.00  0.00     0.092 C 
HETATM   14  C10 UNL     1       0.215  -2.722   0.510  1.00  0.00     0.063 C 
HETATM   15  N2  UNL     1      -0.384  -0.431  -0.111  1.00  0.00    -0.315 N 
HETATM   16  C12 UNL     1      -1.534   0.099  -0.756  1.00  0.00     0.319 C 
HETATM   17  O2  UNL     1      -1.335   0.950  -1.675  1.00  0.00    -0.247 OA
HETATM   18  N3  UNL     1      -2.870  -0.236  -0.466  1.00  0.00    -0.338 N 
ATOM     19  H3  UNL     1      -3.055  -0.918   0.269  1.00  0.00     0.164 HD
HETATM   20  F1  UNL     1       1.047  -2.225  -1.656  1.00  0.00    -0.249 F 
BRANCH  18  21
HETATM   21  C13 UNL     1      -3.984   0.345  -1.165  1.00  0.00     0.086 A 
HETATM   22  C14 UNL     1      -5.315   0.441  -0.530  1.00  0.00     0.027 A 
HETATM   23  C15 UNL     1      -5.058  -0.616  -1.611  1.00  0.00     0.027 A 
ENDBRANCH  18  21
ENDBRANCH   5   8
ENDBRANCH   3   4
TORSDOF 3
