REMARK  7 active torsions:
REMARK  status: ('A' for Active; 'I' for Inactive)
REMARK    1  A    between atoms: C2_2  and  C3_3 
REMARK    2  A    between atoms: C3_3  and  C4_4 
REMARK    3  A    between atoms: C4_4  and  O1_5 
REMARK    4  A    between atoms: O1_5  and  C5_6 
REMARK    5  A    between atoms: C5_6  and  C6_8 
REMARK    6  A    between atoms: C19_23  and  C20_24 
REMARK    7  A    between atoms: C25_31  and  O7_32 
ROOT
HETATM    1  C6  UNL     1       1.497   1.171   0.863  1.00  0.00     0.149 C 
HETATM    2  C7  UNL     1       0.859   1.446  -0.440  1.00  0.00    -0.003 C 
HETATM    3  C8  UNL     1       0.312   0.374  -1.288  1.00  0.00    -0.027 C 
HETATM    4  C9  UNL     1      -1.057   0.361  -1.838  1.00  0.00     0.049 C 
HETATM    5  C10 UNL     1      -2.240  -0.233  -1.042  1.00  0.00     0.023 C 
HETATM    6  C11 UNL     1      -3.282  -0.589  -2.121  1.00  0.00     0.029 C 
HETATM    7  C12 UNL     1      -2.044  -1.449  -0.358  1.00  0.00    -0.139 C 
HETATM    8  C13 UNL     1      -2.015  -2.764   0.170  1.00  0.00     0.133 C 
HETATM    9  C14 UNL     1      -1.515  -2.631   1.606  1.00  0.00     0.290 C 
HETATM   10  O3  UNL     1      -1.668  -3.683   2.309  1.00  0.00    -0.260 OA
HETATM   11  O4  UNL     1      -0.945  -1.530   2.177  1.00  0.00    -0.309 OA
HETATM   12  C15 UNL     1      -0.073  -0.553   1.762  1.00  0.00     0.176 A 
HETATM   13  C16 UNL     1      -0.677   0.725   1.684  1.00  0.00     0.057 A 
HETATM   14  C17 UNL     1      -2.049   0.677   2.217  1.00  0.00     0.011 C 
HETATM   15  C18 UNL     1      -3.135   0.806   1.171  1.00  0.00     0.011 C 
HETATM   16  C19 UNL     1      -2.818   0.956  -0.268  1.00  0.00     0.040 C 
HETATM   17  C24 UNL     1       0.590   0.602   2.003  1.00  0.00     0.122 A 
HETATM   18  O6  UNL     1       1.469   1.183   2.849  1.00  0.00    -0.344 OA
HETATM   19  C25 UNL     1       1.501   2.245   1.894  1.00  0.00     0.283 C 
ENDROOT
BRANCH   1  20
HETATM   20  C5  UNL     1       2.765   0.439   0.764  1.00  0.00     0.279 C 
HETATM   21  O2  UNL     1       3.819   0.953   1.248  1.00  0.00    -0.264 OA
BRANCH  20  22
HETATM   22  O1  UNL     1       2.857  -0.787   0.167  1.00  0.00    -0.320 OA
BRANCH  22  23
HETATM   23  C4  UNL     1       4.004  -1.570   0.010  1.00  0.00     0.178 C 
BRANCH  23  24
HETATM   24  C3  UNL     1       5.005  -0.878  -0.849  1.00  0.00     0.026 C 
BRANCH  24  25
HETATM   25  C2  UNL     1       6.263  -1.706  -1.048  1.00  0.00    -0.002 C 
HETATM   26  C1  UNL     1       6.941  -2.005   0.268  1.00  0.00     0.005 C 
ENDBRANCH  24  25
ENDBRANCH  23  24
ENDBRANCH  22  23
ENDBRANCH  20  22
ENDBRANCH   1  20
BRANCH  19  27
HETATM   27  O7  UNL     1       2.709   2.925   1.930  1.00  0.00    -0.369 OA
ATOM     28  H7  UNL     1       2.712   3.610   2.588  1.00  0.00     0.212 HD
ENDBRANCH  19  27
BRANCH  16  29
HETATM   29  C20 UNL     1      -4.141   1.403  -0.864  1.00  0.00    -0.028 A 
HETATM   30  C21 UNL     1      -4.427   2.540  -1.597  1.00  0.00     0.034 A 
HETATM   31  C22 UNL     1      -5.765   2.554  -1.921  1.00  0.00     0.142 A 
HETATM   32  O5  UNL     1      -6.258   1.474  -1.404  1.00  0.00    -0.334 OA
HETATM   33  C23 UNL     1      -5.371   0.758  -0.776  1.00  0.00     0.148 A 
ENDBRANCH  16  29
TORSDOF 7
