REMARK  5 active torsions:
REMARK  status: ('A' for Active; 'I' for Inactive)
REMARK    1  A    between atoms: C3_4  and  C4_5 
REMARK    2  A    between atoms: C5_10  and  C6_11 
REMARK    3  A    between atoms: C6_11  and  N4_12 
REMARK    4  A    between atoms: N5_23  and  C15_24 
REMARK    5  A    between atoms: C15_24  and  C16_25 
ROOT
HETATM    1  C1  UNL     1       0.605  -4.377   1.347  1.00  0.00     0.156 C 
HETATM    2  N1  UNL     1       0.388  -3.106   0.673  1.00  0.00    -0.358 N 
HETATM    3  C2  UNL     1       1.340  -2.215   0.387  1.00  0.00     0.109 A 
HETATM    4  C3  UNL     1       0.775  -1.102  -0.267  1.00  0.00     0.061 A 
HETATM    5  C11 UNL     1      -0.567  -1.382  -0.353  1.00  0.00     0.078 A 
HETATM    6  C12 UNL     1      -0.795  -2.638   0.238  1.00  0.00     0.070 A 
HETATM    7  C13 UNL     1      -2.136  -2.917   0.146  1.00  0.00    -0.006 A 
HETATM    8  C14 UNL     1      -2.745  -1.866  -0.486  1.00  0.00     0.020 A 
HETATM    9  N5  UNL     1      -1.769  -0.952  -0.774  1.00  0.00    -0.347 N 
HETATM   10  C22 UNL     1      -4.199  -1.954  -0.724  1.00  0.00     0.058 C 
HETATM   11  C23 UNL     1      -4.571  -3.341  -1.186  1.00  0.00     0.006 C 
HETATM   12  C24 UNL     1      -4.068  -4.438  -0.309  1.00  0.00     0.005 C 
HETATM   13  C25 UNL     1      -2.937  -4.079   0.592  1.00  0.00     0.043 C 
ENDROOT
BRANCH   4  14
HETATM   14  C4  UNL     1       1.523   0.054  -0.733  1.00  0.00     0.178 A 
HETATM   15  N2  UNL     1       1.243   1.180  -1.360  1.00  0.00    -0.277 N 
HETATM   16  N3  UNL     1       2.306   1.926  -1.562  1.00  0.00    -0.280 N 
ATOM     17  H2  UNL     1       0.303   1.443  -1.656  1.00  0.00     0.189 HD
HETATM   18  C5  UNL     1       3.322   1.251  -1.042  1.00  0.00     0.169 A 
ATOM     19  H3  UNL     1       2.342   2.835  -2.023  1.00  0.00     0.189 HD
HETATM   20  O2  UNL     1       2.857   0.147  -0.553  1.00  0.00    -0.275 OA
BRANCH  18  21
HETATM   21  C6  UNL     1       4.768   1.601  -0.975  1.00  0.00     0.358 C 
BRANCH  21  22
HETATM   22  N4  UNL     1       5.127   2.394   0.153  1.00  0.00     0.100 N 
HETATM   23  C7  UNL     1       6.549   2.656   0.086  1.00  0.00     0.299 C 
HETATM   24  C8  UNL     1       7.307   1.477   0.670  1.00  0.00     0.198 C 
HETATM   25  O1  UNL     1       6.966   1.415   2.020  1.00  0.00    -0.388 OA
HETATM   26  C9  UNL     1       5.649   0.983   2.095  1.00  0.00     0.198 C 
HETATM   27  C10 UNL     1       4.690   1.935   1.423  1.00  0.00     0.299 C 
ENDBRANCH  21  22
ENDBRANCH  18  21
ENDBRANCH   4  14
BRANCH   9  28
HETATM   28  C15 UNL     1      -2.047   0.273  -1.453  1.00  0.00     0.134 C 
BRANCH  28  29
HETATM   29  C16 UNL     1      -2.304   1.468  -0.581  1.00  0.00     0.004 C 
HETATM   30  C17 UNL     1      -3.480   1.266   0.311  1.00  0.00     0.006 C 
HETATM   31  C18 UNL     1      -3.695   2.467   1.233  1.00  0.00     0.000 C 
HETATM   32  C19 UNL     1      -3.445   3.760   0.497  1.00  0.00     0.000 C 
HETATM   33  C20 UNL     1      -3.601   3.539  -0.999  1.00  0.00     0.000 C 
HETATM   34  C21 UNL     1      -2.439   2.699  -1.455  1.00  0.00     0.006 C 
ENDBRANCH  28  29
ENDBRANCH   9  28
TORSDOF 5
