REMARK  8 active torsions:
REMARK  status: ('A' for Active; 'I' for Inactive)
REMARK    1  A    between atoms: C2_2  and  C3_3 
REMARK    2  A    between atoms: C3_3  and  C4_4 
REMARK    3  A    between atoms: C4_4  and  N1_5 
REMARK    4  A    between atoms: C4_4  and  C5_9 
REMARK    5  A    between atoms: C5_9  and  C6_10 
REMARK    6  A    between atoms: C6_10  and  N2_11 
REMARK    7  A    between atoms: C10_18  and  N5_19 
REMARK    8  A    between atoms: N5_19  and  C11_21 
ROOT
HETATM    1  N2  UNL     1      -0.567  -0.575  -0.184  1.00  0.00    -0.126 N 
HETATM    2  N3  UNL     1      -0.408  -1.669   0.677  1.00  0.00    -0.092 NA
HETATM    3  C7  UNL     1      -1.485  -2.574   0.298  1.00  0.00     0.131 C 
HETATM    4  C8  UNL     1      -2.153  -3.178   1.515  1.00  0.00     0.060 C 
HETATM    5  C9  UNL     1      -0.911  -3.633  -0.617  1.00  0.00     0.060 C 
HETATM    6  N4  UNL     1      -2.449  -1.736  -0.360  1.00  0.00    -0.201 N 
ATOM      7  H4  UNL     1      -3.409  -2.001  -0.580  1.00  0.00     0.180 HD
HETATM    8  C10 UNL     1      -1.913  -0.606  -0.627  1.00  0.00     0.691 C 
ENDROOT
BRANCH   1   9
HETATM    9  C6  UNL     1       0.419   0.418  -0.576  1.00  0.00     0.166 C 
BRANCH   9  10
HETATM   10  C5  UNL     1       1.755   0.169   0.069  1.00  0.00     0.055 C 
BRANCH  10  11
HETATM   11  C4  UNL     1       2.686   1.282  -0.429  1.00  0.00     0.185 C 
BRANCH  11  12
HETATM   12  C3  UNL     1       4.071   1.136   0.157  1.00  0.00     0.032 C 
BRANCH  12  13
HETATM   13  C2  UNL     1       4.695  -0.188  -0.203  1.00  0.00    -0.002 C 
HETATM   14  C1  UNL     1       6.083  -0.199   0.451  1.00  0.00     0.005 C 
ENDBRANCH  12  13
ENDBRANCH  11  12
BRANCH  11  15
HETATM   15  N1  UNL     1       2.139   2.561  -0.055  1.00  0.00    -0.075 N 
ATOM     16  H13 UNL     1       2.147   2.703   0.955  1.00  0.00     0.274 HD
ATOM     17  H12 UNL     1       2.752   3.334  -0.316  1.00  0.00     0.274 HD
ATOM     18  H11 UNL     1       1.204   2.660  -0.451  1.00  0.00     0.274 HD
ENDBRANCH  11  15
ENDBRANCH  10  11
ENDBRANCH   9  10
ENDBRANCH   1   9
BRANCH   8  19
HETATM   19  N5  UNL     1      -2.557   0.519  -1.290  1.00  0.00    -0.204 N 
ATOM     20  H5  UNL     1      -2.650   0.512  -2.306  1.00  0.00     0.179 HD
BRANCH  19  21
HETATM   21  C11 UNL     1      -3.063   1.634  -0.550  1.00  0.00     0.227 C 
HETATM   22  C12 UNL     1      -4.129   1.236   0.448  1.00  0.00     0.176 C 
HETATM   23  N6  UNL     1      -5.055   2.367   0.329  1.00  0.00    -0.127 NA
HETATM   24  N7  UNL     1      -5.104   2.524  -1.055  1.00  0.00    -0.038 NA
HETATM   25  N8  UNL     1      -3.760   2.518  -1.431  1.00  0.00    -0.103 NA
ENDBRANCH  19  21
ENDBRANCH   8  19
TORSDOF 8
