REMARK  10 active torsions:
REMARK  status: ('A' for Active; 'I' for Inactive)
REMARK    1  A    between atoms: N1_1  and  C1_4 
REMARK    2  A    between atoms: C2_7  and  S1_8 
REMARK    3  A    between atoms: S1_8  and  C3_9 
REMARK    4  A    between atoms: C3_9  and  C4_10 
REMARK    5  A    between atoms: C4_10  and  C5_11 
REMARK    6  A    between atoms: C5_11  and  C6_12 
REMARK    7  A    between atoms: C6_12  and  N3_13 
REMARK    8  A    between atoms: C6_12  and  N4_17 
REMARK    9  A    between atoms: C7_21  and  N5_22 
REMARK   10  A    between atoms: C8_25  and  N6_26 
ROOT
HETATM    1  C1  UNL     1       4.486   1.477  -0.009  1.00  0.00     0.678 A 
HETATM    2  N2  UNL     1       3.174   1.735  -0.016  1.00  0.00    -0.183 N 
ATOM      3  H2  UNL     1       2.854   2.704  -0.021  1.00  0.00     0.185 HD
HETATM    4  C2  UNL     1       2.252   0.723  -0.017  1.00  0.00     0.123 A 
HETATM    5  C7  UNL     1       2.735  -0.549  -0.009  1.00  0.00     0.180 A 
HETATM    6  C8  UNL     1       4.115  -0.798  -0.002  1.00  0.00     0.150 A 
HETATM    7  N7  UNL     1       4.974   0.222  -0.002  1.00  0.00    -0.175 N 
ATOM      8  H7  UNL     1       5.980   0.055   0.003  1.00  0.00     0.186 HD
ENDROOT
BRANCH   4   9
HETATM    9  S1  UNL     1       0.574   1.230  -0.067  1.00  0.00    -0.109 SA
BRANCH   9  10
HETATM   10  C3  UNL     1      -0.681  -0.002   0.022  1.00  0.00     0.081 C 
BRANCH  10  11
HETATM   11  C4  UNL     1      -2.053   0.699  -0.207  1.00  0.00     0.014 C 
BRANCH  11  12
HETATM   12  C5  UNL     1      -3.081  -0.384  -0.121  1.00  0.00     0.063 C 
BRANCH  12  13
HETATM   13  C6  UNL     1      -4.486   0.108  -0.312  1.00  0.00     0.378 C 
BRANCH  13  14
HETATM   14  N3  UNL     1      -4.898   1.090   0.666  1.00  0.00    -0.051 N 
ATOM     15  H33 UNL     1      -4.768   0.731   1.612  1.00  0.00     0.276 HD
ATOM     16  H32 UNL     1      -4.243   1.872   0.688  1.00  0.00     0.276 HD
ATOM     17  H31 UNL     1      -5.853   1.424   0.536  1.00  0.00     0.276 HD
ENDBRANCH  13  14
BRANCH  13  18
HETATM   18  N4  UNL     1      -5.357  -1.067  -0.156  1.00  0.00    -0.051 N 
ATOM     19  H43 UNL     1      -5.110  -1.840  -0.774  1.00  0.00     0.276 HD
ATOM     20  H42 UNL     1      -5.217  -1.562   0.725  1.00  0.00     0.276 HD
ATOM     21  H41 UNL     1      -6.312  -0.733  -0.286  1.00  0.00     0.276 HD
ENDBRANCH  13  18
ENDBRANCH  12  13
ENDBRANCH  11  12
ENDBRANCH  10  11
ENDBRANCH   9  10
ENDBRANCH   4   9
BRANCH   5  22
HETATM   22  N5  UNL     1       1.901  -1.701  -0.026  1.00  0.00    -0.109 N 
HETATM   23  O1  UNL     1       1.401  -2.097   1.031  1.00  0.00    -0.532 OA
HETATM   24  O2  UNL     1       1.706  -2.367  -1.204  1.00  0.00    -0.532 OA
ENDBRANCH   5  22
BRANCH   1  25
HETATM   25  N1  UNL     1       5.333   2.480  -0.009  1.00  0.00    -0.234 N 
ATOM     26  H12 UNL     1       4.963   3.431  -0.014  1.00  0.00     0.174 HD
ATOM     27  H11 UNL     1       6.334   2.283  -0.004  1.00  0.00     0.174 HD
ENDBRANCH   1  25
BRANCH   6  28
HETATM   28  N6  UNL     1       4.561  -1.998   0.005  1.00  0.00    -0.383 N 
ATOM     29  H62 UNL     1       3.904  -2.778   0.005  1.00  0.00     0.157 HD
ATOM     30  H61 UNL     1       5.565  -2.179   0.010  1.00  0.00     0.157 HD
ENDBRANCH   6  28
TORSDOF 10
