REMARK  7 active torsions:
REMARK  status: ('A' for Active; 'I' for Inactive)
REMARK    1  A    between atoms: C2_2  and  C3_3 
REMARK    2  A    between atoms: C3_3  and  C4_4 
REMARK    3  A    between atoms: C4_4  and  C5_5 
REMARK    4  A    between atoms: C5_5  and  C6_6 
REMARK    5  A    between atoms: C6_6  and  N1_7 
REMARK    6  A    between atoms: C8_13  and  N4_14 
REMARK    7  A    between atoms: C9_19  and  N6_20 
REMARK       I    between atoms: N7_24  and  C11_25 
ROOT
HETATM    1  N1  UNL     1      -0.309  -0.708   0.475  1.00  0.00    -0.129 NA
HETATM    2  N2  UNL     1      -0.437   0.466   1.266  1.00  0.00    -0.284 N 
ATOM      3  H2  UNL     1       0.171   0.788   2.019  1.00  0.00     0.184 HD
HETATM    4  C7  UNL     1      -1.627   1.092   0.754  1.00  0.00     0.165 A 
HETATM    5  N3  UNL     1      -2.028   2.371   0.774  1.00  0.00    -0.173 N 
ATOM      6  H3  UNL     1      -1.456   3.096   1.207  1.00  0.00     0.186 HD
HETATM    7  C8  UNL     1      -3.218   2.670   0.200  1.00  0.00     0.679 A 
HETATM    8  N5  UNL     1      -3.963   1.701  -0.368  1.00  0.00    -0.175 N 
ATOM      9  H5  UNL     1      -4.855   1.953  -0.794  1.00  0.00     0.186 HD
HETATM   10  C9  UNL     1      -3.569   0.396  -0.395  1.00  0.00     0.147 A 
HETATM   11  C10 UNL     1      -2.372   0.086   0.181  1.00  0.00     0.145 A 
HETATM   12  N7  UNL     1      -1.665  -1.137   0.333  1.00  0.00    -0.224 N 
HETATM   13  C11 UNL     1      -2.133  -2.498   0.336  1.00  0.00     0.220 C 
HETATM   14  N8  UNL     1      -1.733  -3.264  -0.830  1.00  0.00    -0.065 NA
HETATM   15  N9  UNL     1      -3.429  -2.750   0.835  1.00  0.00    -0.065 NA
ENDROOT
BRANCH   1  16
HETATM   16  C6  UNL     1       0.210  -0.264  -0.802  1.00  0.00     0.139 C 
BRANCH  16  17
HETATM   17  C5  UNL     1       1.564   0.415  -0.557  1.00  0.00     0.018 C 
BRANCH  17  18
HETATM   18  C4  UNL     1       2.514  -0.558   0.070  1.00  0.00     0.001 C 
BRANCH  18  19
HETATM   19  C3  UNL     1       3.860   0.031   0.346  1.00  0.00    -0.000 C 
BRANCH  19  20
HETATM   20  C2  UNL     1       4.533   0.522  -0.914  1.00  0.00    -0.005 C 
HETATM   21  C1  UNL     1       5.897   1.108  -0.593  1.00  0.00     0.005 C 
ENDBRANCH  19  20
ENDBRANCH  18  19
ENDBRANCH  17  18
ENDBRANCH  16  17
ENDBRANCH   1  16
BRANCH  10  22
HETATM   22  N6  UNL     1      -4.271  -0.514  -0.945  1.00  0.00    -0.383 N 
ATOM     23  H62 UNL     1      -5.166  -0.282  -1.376  1.00  0.00     0.157 HD
ATOM     24  H61 UNL     1      -3.976  -1.490  -0.965  1.00  0.00     0.157 HD
ENDBRANCH  10  22
BRANCH   7  25
HETATM   25  N4  UNL     1      -3.602   3.907   0.221  1.00  0.00    -0.234 N 
ATOM     26  H42 UNL     1      -3.038   4.640   0.651  1.00  0.00     0.174 HD
ATOM     27  H41 UNL     1      -4.498   4.132  -0.211  1.00  0.00     0.174 HD
ENDBRANCH   7  25
TORSDOF 7
