REMARK  9 active torsions:
REMARK  status: ('A' for Active; 'I' for Inactive)
REMARK    1  A    between atoms: S1_2  and  C2_3 
REMARK    2  A    between atoms: C3_5  and  C4_6 
REMARK    3  A    between atoms: C4_6  and  O2_7 
REMARK    4  A    between atoms: C5_9  and  O3_11 
REMARK    5  A    between atoms: C8_14  and  O4_15 
REMARK    6  A    between atoms: O4_15  and  C9_16 
REMARK    7  A    between atoms: C12_20  and  O6_21 
REMARK    8  A    between atoms: C13_23  and  O7_24 
REMARK    9  A    between atoms: C14_26  and  O8_27 
ROOT
HETATM    1  C2  UNL     1      -1.765   1.130  -0.304  1.00  0.00     0.212 C 
HETATM    2  O1  UNL     1      -3.095   0.837  -0.012  1.00  0.00    -0.363 OA
HETATM    3  C3  UNL     1      -3.277  -0.497   0.247  1.00  0.00     0.180 C 
HETATM    4  C5  UNL     1      -2.508  -0.999   1.420  1.00  0.00     0.085 C 
HETATM    5  C6  UNL     1      -3.448  -1.308   2.573  1.00  0.00     0.049 C 
HETATM    6  C7  UNL     1      -1.445  -0.047   1.897  1.00  0.00     0.075 C 
HETATM    7  C8  UNL     1      -0.795   0.717   0.758  1.00  0.00     0.166 C 
ENDROOT
BRANCH   7   8
HETATM    8  O4  UNL     1       0.144  -0.142   0.158  1.00  0.00    -0.350 OA
BRANCH   8   9
HETATM    9  C9  UNL     1       1.453   0.334   0.259  1.00  0.00     0.292 C 
HETATM   10  O5  UNL     1       2.131  -0.616   0.996  1.00  0.00    -0.351 OA
HETATM   11  C10 UNL     1       3.473  -0.621   0.984  1.00  0.00     0.152 C 
HETATM   12  C11 UNL     1       3.933  -2.047   1.278  1.00  0.00     0.042 C 
HETATM   13  C12 UNL     1       4.143  -0.191  -0.281  1.00  0.00     0.178 C 
HETATM   14  C13 UNL     1       3.451   0.920  -0.991  1.00  0.00     0.183 C 
HETATM   15  C14 UNL     1       1.986   0.475  -1.142  1.00  0.00     0.204 C 
BRANCH  13  16
HETATM   16  O6  UNL     1       4.160  -1.305  -1.152  1.00  0.00    -0.390 OA
ATOM     17  H6  UNL     1       4.586  -1.032  -1.956  1.00  0.00     0.210 HD
ENDBRANCH  13  16
BRANCH  14  18
HETATM   18  O7  UNL     1       3.983   1.085  -2.260  1.00  0.00    -0.390 OA
ATOM     19  H7  UNL     1       3.542   1.794  -2.713  1.00  0.00     0.210 HD
ENDBRANCH  14  18
BRANCH  15  20
HETATM   20  O8  UNL     1       1.268   1.371  -1.886  1.00  0.00    -0.388 OA
ATOM     21  H8  UNL     1       1.604   1.460  -2.770  1.00  0.00     0.210 HD
ENDBRANCH  15  20
ENDBRANCH   8   9
ENDBRANCH   7   8
BRANCH   1  22
HETATM   22  S1  UNL     1      -1.702   2.961  -0.430  1.00  0.00    -0.139 SA
HETATM   23  C1  UNL     1      -2.648   3.551  -1.835  1.00  0.00     0.092 C 
ENDBRANCH   1  22
BRANCH   4  24
HETATM   24  O3  UNL     1      -1.890  -2.202   1.095  1.00  0.00    -0.387 OA
ATOM     25  H3  UNL     1      -1.400  -2.522   1.843  1.00  0.00     0.210 HD
ENDBRANCH   4  24
BRANCH   3  26
HETATM   26  C4  UNL     1      -3.035  -1.381  -0.940  1.00  0.00     0.199 C 
BRANCH  26  27
HETATM   27  O2  UNL     1      -3.909  -1.066  -2.003  1.00  0.00    -0.398 OA
ATOM     28  H2  UNL     1      -3.756  -1.626  -2.755  1.00  0.00     0.209 HD
ENDBRANCH  26  27
ENDBRANCH   3  26
TORSDOF 9
