REMARK  6 active torsions:
REMARK  status: ('A' for Active; 'I' for Inactive)
REMARK    1  A    between atoms: C2_2  and  N1_4 
REMARK    2  A    between atoms: N1_4  and  C4_6 
REMARK    3  A    between atoms: C5_9  and  N3_10 
REMARK    4  A    between atoms: N3_10  and  C6_12 
REMARK    5  A    between atoms: C7_17  and  C8_18 
REMARK    6  A    between atoms: C10_25  and  C11_26 
ROOT
HETATM    1  C4  UNL     1      -1.789  -0.322   0.123  1.00  0.00     0.132 A 
HETATM    2  N2  UNL     1      -0.547  -0.766   0.376  1.00  0.00    -0.176 N 
ATOM      3  H2  UNL     1      -0.266  -0.878   1.350  1.00  0.00     0.186 HD
HETATM    4  C5  UNL     1       0.351  -1.073  -0.583  1.00  0.00     0.685 A 
HETATM    5  N7  UNL     1       0.003  -0.933  -1.875  1.00  0.00    -0.201 N 
ATOM      6  H7  UNL     1       0.665  -1.158  -2.618  1.00  0.00     0.183 HD
HETATM    7  C9  UNL     1      -1.223  -0.495  -2.169  1.00  0.00     0.125 A 
HETATM    8  C10 UNL     1      -2.162  -0.173  -1.197  1.00  0.00     0.071 A 
ENDROOT
BRANCH   4   9
HETATM    9  N3  UNL     1       1.653  -1.539  -0.294  1.00  0.00    -0.168 N 
ATOM     10  H3  UNL     1       1.794  -2.477   0.081  1.00  0.00     0.186 HD
BRANCH   9  11
HETATM   11  C6  UNL     1       2.671  -0.756  -0.513  1.00  0.00     0.180 A 
HETATM   12  N4  UNL     1       2.642   0.488  -0.999  1.00  0.00    -0.278 N 
HETATM   13  N5  UNL     1       3.739   1.109  -1.149  1.00  0.00    -0.287 N 
ATOM     14  H4  UNL     1       1.756   0.930  -1.245  1.00  0.00     0.189 HD
HETATM   15  C7  UNL     1       4.889   0.549  -0.836  1.00  0.00     0.158 A 
ATOM     16  H5  UNL     1       3.729   2.060  -1.519  1.00  0.00     0.188 HD
HETATM   17  S1  UNL     1       4.345  -0.996  -0.281  1.00  0.00    -0.028 SA
BRANCH  15  18
HETATM   18  C8  UNL     1       6.258   1.062  -0.921  1.00  0.00     0.289 C 
HETATM   19  N6  UNL     1       7.310   0.222  -0.507  1.00  0.00    -0.055 NA
HETATM   20  O1  UNL     1       6.484   2.191  -1.340  1.00  0.00    -0.269 OA
ENDBRANCH  15  18
ENDBRANCH   9  11
ENDBRANCH   4   9
BRANCH   1  21
HETATM   21  N1  UNL     1      -2.627  -0.036   1.023  1.00  0.00    -0.371 N 
ATOM     22  H1  UNL     1      -3.535   0.290   0.692  1.00  0.00     0.161 HD
BRANCH  21  23
HETATM   23  C2  UNL     1      -2.477  -0.106   2.428  1.00  0.00     0.075 C 
HETATM   24  C1  UNL     1      -1.739   1.033   3.052  1.00  0.00     0.031 C 
HETATM   25  C3  UNL     1      -1.817  -1.406   2.805  1.00  0.00     0.031 C 
ENDBRANCH  21  23
ENDBRANCH   1  21
BRANCH   8  26
HETATM   26  C11 UNL     1      -3.479   0.299  -1.574  1.00  0.00     0.152 A 
HETATM   27  N8  UNL     1      -3.912   0.468  -2.831  1.00  0.00    -0.268 N 
HETATM   28  N9  UNL     1      -5.163   0.912  -2.790  1.00  0.00    -0.227 N 
ATOM     29  H8  UNL     1      -3.372   0.286  -3.677  1.00  0.00     0.190 HD
HETATM   30  N10 UNL     1      -5.534   1.028  -1.535  1.00  0.00    -0.227 N 
ATOM     31  H9  UNL     1      -5.742   1.128  -3.601  1.00  0.00     0.210 HD
HETATM   32  N11 UNL     1      -4.507   0.654  -0.800  1.00  0.00    -0.268 N 
ATOM     33  H10 UNL     1      -6.442   1.346  -1.196  1.00  0.00     0.210 HD
ATOM     34  H11 UNL     1      -4.498   0.638   0.220  1.00  0.00     0.190 HD
ENDBRANCH   8  26
TORSDOF 6
