REMARK  12 active torsions:
REMARK  status: ('A' for Active; 'I' for Inactive)
REMARK    1  A    between atoms: O1_2  and  C2_3 
REMARK    2  A    between atoms: C2_3  and  C3_4 
REMARK    3  A    between atoms: C3_4  and  O3_6 
REMARK    4  A    between atoms: O3_6  and  C4_7 
REMARK    5  A    between atoms: C6_9  and  N1_10 
REMARK    6  A    between atoms: N1_10  and  N2_12 
REMARK    7  A    between atoms: N2_12  and  N3_13 
REMARK    8  A    between atoms: C7_16  and  O4_17 
REMARK    9  A    between atoms: C8_19  and  O5_20 
REMARK   10  A    between atoms: C9_22  and  O6_23 
REMARK   11  A    between atoms: C11_26  and  O7_27 
REMARK   12  A    between atoms: C13_30  and  O8_31 
ROOT
HETATM    1  C4  UNL     1       1.359   0.059  -0.177  1.00  0.00     0.165 C 
HETATM    2  C5  UNL     1       1.872   0.283   1.232  1.00  0.00     0.065 C 
HETATM    3  C6  UNL     1       3.330   0.597   1.288  1.00  0.00     0.148 C 
HETATM    4  C7  UNL     1       3.939   0.910  -0.044  1.00  0.00     0.174 C 
HETATM    5  C8  UNL     1       3.594  -0.026  -1.134  1.00  0.00     0.180 C 
HETATM    6  C9  UNL     1       2.312  -0.807  -0.898  1.00  0.00     0.179 C 
ENDROOT
BRANCH   1   7
HETATM    7  O3  UNL     1       0.045  -0.354  -0.082  1.00  0.00    -0.311 OA
BRANCH   7   8
HETATM    8  C3  UNL     1      -1.078   0.297  -0.491  1.00  0.00     0.297 C 
HETATM    9  O2  UNL     1      -0.857   1.420  -1.020  1.00  0.00    -0.262 OA
BRANCH   8  10
HETATM   10  C2  UNL     1      -2.474  -0.144  -0.391  1.00  0.00     0.175 C 
HETATM   11  C10 UNL     1      -3.031  -0.285  -1.836  1.00  0.00     0.083 C 
HETATM   12  C11 UNL     1      -4.505  -0.424  -1.534  1.00  0.00     0.124 C 
HETATM   13  C12 UNL     1      -4.753   0.578  -0.449  1.00  0.00     0.067 C 
HETATM   14  C13 UNL     1      -3.398   0.902   0.162  1.00  0.00     0.165 C 
BRANCH  10  15
HETATM   15  O1  UNL     1      -2.664  -1.347   0.210  1.00  0.00    -0.372 OA
HETATM   16  C1  UNL     1      -2.249  -1.481   1.500  1.00  0.00     0.203 C 
ENDBRANCH  10  15
BRANCH  12  17
HETATM   17  O7  UNL     1      -4.696  -1.719  -1.048  1.00  0.00    -0.395 OA
ATOM     18  H7  UNL     1      -5.623  -1.806  -0.858  1.00  0.00     0.210 HD
ENDBRANCH  12  17
BRANCH  14  19
HETATM   19  O8  UNL     1      -3.011   2.194  -0.179  1.00  0.00    -0.392 OA
ATOM     20  H8  UNL     1      -3.596   2.856   0.171  1.00  0.00     0.210 HD
ENDBRANCH  14  19
ENDBRANCH   8  10
ENDBRANCH   7   8
ENDBRANCH   1   7
BRANCH   6  21
HETATM   21  O6  UNL     1       2.658  -1.973  -0.250  1.00  0.00    -0.390 OA
ATOM     22  H6  UNL     1       3.271  -2.530  -0.714  1.00  0.00     0.210 HD
ENDBRANCH   6  21
BRANCH   3  23
HETATM   23  N1  UNL     1       4.004  -0.464   1.995  1.00  0.00    -0.245 N 
ATOM     24  H1  UNL     1       3.561  -1.383   1.997  1.00  0.00     0.197 HD
BRANCH  23  25
HETATM   25  N2  UNL     1       5.051  -0.350   2.585  1.00  0.00    -0.248 NA
BRANCH  25  26
HETATM   26  N3  UNL     1       6.148  -0.187   3.081  1.00  0.00    -0.261 N 
ATOM     27  H32 UNL     1       6.335   0.201   2.156  1.00  0.00     0.193 HD
ATOM     28  H31 UNL     1       7.033  -0.091   3.580  1.00  0.00     0.193 HD
ENDBRANCH  25  26
ENDBRANCH  23  25
ENDBRANCH   3  23
BRANCH   5  29
HETATM   29  O5  UNL     1       3.500   0.713  -2.325  1.00  0.00    -0.390 OA
ATOM     30  H5  UNL     1       3.278   0.111  -3.026  1.00  0.00     0.210 HD
ENDBRANCH   5  29
BRANCH   4  31
HETATM   31  O4  UNL     1       5.335   0.929   0.103  1.00  0.00    -0.391 OA
ATOM     32  H4  UNL     1       5.721   1.128  -0.742  1.00  0.00     0.210 HD
ENDBRANCH   4  31
TORSDOF 12
