REMARK  10 active torsions:
REMARK  status: ('A' for Active; 'I' for Inactive)
REMARK    1  A    between atoms: O1_2  and  C2_3 
REMARK    2  A    between atoms: C6_7  and  C7_8 
REMARK    3  A    between atoms: C7_8  and  O3_10 
REMARK    4  A    between atoms: O3_10  and  C8_11 
REMARK    5  A    between atoms: C9_12  and  O4_13 
REMARK    6  A    between atoms: C10_15  and  O5_16 
REMARK    7  A    between atoms: C11_18  and  S1_19 
REMARK    8  A    between atoms: S1_19  and  O6_20 
REMARK    9  A    between atoms: C12_22  and  O7_23 
REMARK   10  A    between atoms: C13_25  and  O8_26 
ROOT
HETATM    1  C8  UNL     1      -1.408  -0.214   0.310  1.00  0.00     0.194 C 
HETATM    2  C9  UNL     1      -2.138  -0.537  -0.999  1.00  0.00     0.180 C 
HETATM    3  C10 UNL     1      -3.488  -1.052  -0.619  1.00  0.00     0.168 C 
HETATM    4  C11 UNL     1      -4.073  -0.253   0.517  1.00  0.00     0.138 C 
HETATM    5  C12 UNL     1      -3.502   1.139   0.616  1.00  0.00     0.168 C 
HETATM    6  C13 UNL     1      -2.023   1.073   0.817  1.00  0.00     0.180 C 
ENDROOT
BRANCH   1   7
HETATM    7  O3  UNL     1      -0.063   0.053  -0.064  1.00  0.00    -0.307 OA
BRANCH   7   8
HETATM    8  C7  UNL     1       1.019  -0.646   0.408  1.00  0.00     0.293 C 
HETATM    9  O2  UNL     1       0.822  -1.582   1.223  1.00  0.00    -0.259 OA
BRANCH   8  10
HETATM   10  C6  UNL     1       2.387  -0.299  -0.035  1.00  0.00     0.042 A 
HETATM   11  C5  UNL     1       2.565   0.733  -0.929  1.00  0.00     0.018 A 
HETATM   12  C4  UNL     1       3.821   1.075  -1.357  1.00  0.00     0.004 A 
HETATM   13  C3  UNL     1       4.898   0.368  -0.878  1.00  0.00     0.037 A 
HETATM   14  C2  UNL     1       4.735  -0.682   0.028  1.00  0.00     0.069 A 
HETATM   15  C14 UNL     1       3.462  -1.010   0.447  1.00  0.00     0.054 A 
BRANCH  14  16
HETATM   16  O1  UNL     1       5.812  -1.405   0.521  1.00  0.00    -0.356 OA
HETATM   17  C1  UNL     1       7.104  -1.056   0.083  1.00  0.00     0.210 C 
ENDBRANCH  14  16
ENDBRANCH   8  10
ENDBRANCH   7   8
ENDBRANCH   1   7
BRANCH   2  18
HETATM   18  O4  UNL     1      -2.198   0.668  -1.708  1.00  0.00    -0.390 OA
ATOM     19  H4  UNL     1      -2.650   0.468  -2.519  1.00  0.00     0.210 HD
ENDBRANCH   2  18
BRANCH   6  20
HETATM   20  O8  UNL     1      -1.635   1.287   2.133  1.00  0.00    -0.390 OA
ATOM     21  H8  UNL     1      -2.021   2.095   2.451  1.00  0.00     0.210 HD
ENDBRANCH   6  20
BRANCH   3  22
HETATM   22  O5  UNL     1      -3.323  -2.366  -0.161  1.00  0.00    -0.392 OA
ATOM     23  H5  UNL     1      -4.181  -2.693   0.081  1.00  0.00     0.210 HD
ENDBRANCH   3  22
BRANCH   5  24
HETATM   24  O7  UNL     1      -4.050   1.699   1.793  1.00  0.00    -0.392 OA
ATOM     25  H7  UNL     1      -3.690   2.576   1.855  1.00  0.00     0.210 HD
ENDBRANCH   5  24
BRANCH   4  26
HETATM   26  S1  UNL     1      -5.871  -0.219   0.281  1.00  0.00    -0.005 SA
BRANCH  26  27
HETATM   27  O6  UNL     1      -6.309   0.651  -1.119  1.00  0.00    -0.329 OA
ATOM     28  H6  UNL     1      -7.251   0.669  -1.243  1.00  0.00     0.227 HD
ENDBRANCH  26  27
ENDBRANCH   4  26
TORSDOF 10
