REMARK  7 active torsions:
REMARK  status: ('A' for Active; 'I' for Inactive)
REMARK    1  A    between atoms: N1_1  and  C1_4 
REMARK    2  A    between atoms: N3_8  and  N4_10 
REMARK    3  A    between atoms: N4_10  and  C3_12 
REMARK    4  A    between atoms: C3_12  and  C4_13 
REMARK    5  A    between atoms: C9_18  and  N5_19 
REMARK    6  A    between atoms: C11_26  and  S1_27 
REMARK    7  A    between atoms: S1_27  and  N8_28 
ROOT
HETATM    1  C1  UNL     1       2.974  -0.819  -0.677  1.00  0.00     0.141 A 
HETATM    2  N2  UNL     1       1.692  -1.254  -0.410  1.00  0.00    -0.174 N 
ATOM      3  H2  UNL     1       1.362  -2.150  -0.770  1.00  0.00     0.186 HD
HETATM    4  C2  UNL     1       0.903  -0.493   0.317  1.00  0.00     0.700 A 
HETATM    5  N3  UNL     1      -0.307  -0.768   0.579  1.00  0.00    -0.125 N 
ATOM      6  H3  UNL     1      -0.812  -0.090   1.149  1.00  0.00     0.206 HD
HETATM    7  N6  UNL     1       1.365   0.713   0.795  1.00  0.00    -0.176 N 
ATOM      8  H6  UNL     1       0.747   1.295   1.361  1.00  0.00     0.185 HD
HETATM    9  C10 UNL     1       2.623   1.145   0.530  1.00  0.00     0.159 A 
HETATM   10  N7  UNL     1       3.084   2.375   1.042  1.00  0.00    -0.080 NA
HETATM   11  C11 UNL     1       3.462   0.370  -0.223  1.00  0.00     0.164 A 
ENDROOT
BRANCH   5  12
HETATM   12  N4  UNL     1      -1.039  -1.917   0.167  1.00  0.00    -0.250 N 
ATOM     13  H4  UNL     1      -0.684  -2.852  -0.031  1.00  0.00     0.197 HD
BRANCH  12  14
HETATM   14  C3  UNL     1      -2.324  -1.475   0.099  1.00  0.00    -0.011 C 
BRANCH  14  15
HETATM   15  C4  UNL     1      -3.552  -1.074   0.028  1.00  0.00     0.061 A 
HETATM   16  C5  UNL     1      -4.504  -1.786  -0.803  1.00  0.00     0.024 A 
HETATM   17  C6  UNL     1      -5.725  -1.204  -1.064  1.00  0.00     0.002 A 
HETATM   18  C7  UNL     1      -6.081   0.011  -0.576  1.00  0.00     0.003 A 
HETATM   19  C8  UNL     1      -5.194   0.678   0.199  1.00  0.00     0.037 A 
HETATM   20  C9  UNL     1      -3.949   0.184   0.526  1.00  0.00     0.122 A 
BRANCH  20  21
HETATM   21  N5  UNL     1      -3.176   0.988   1.400  1.00  0.00    -0.114 N 
HETATM   22  O1  UNL     1      -3.305   2.261   1.198  1.00  0.00    -0.532 OA
HETATM   23  O2  UNL     1      -2.302   0.605   2.366  1.00  0.00    -0.532 OA
ENDBRANCH  20  21
ENDBRANCH  14  15
ENDBRANCH  12  14
ENDBRANCH   5  12
BRANCH   1  24
HETATM   24  N1  UNL     1       3.767  -1.584  -1.365  1.00  0.00    -0.384 N 
ATOM     25  H12 UNL     1       3.402  -2.474  -1.705  1.00  0.00     0.157 HD
ATOM     26  H11 UNL     1       4.715  -1.262  -1.562  1.00  0.00     0.157 HD
ENDBRANCH   1  24
BRANCH  11  27
HETATM   27  S1  UNL     1       5.016   1.020  -0.714  1.00  0.00     0.263 S 
HETATM   28  O3  UNL     1       4.999   2.547  -0.708  1.00  0.00    -0.200 OA
HETATM   29  O4  UNL     1       5.288   0.669  -2.166  1.00  0.00    -0.200 OA
BRANCH  27  30
HETATM   30  N8  UNL     1       6.257   0.468   0.353  1.00  0.00    -0.324 N 
ATOM     31  H82 UNL     1       6.094  -0.147   1.150  1.00  0.00     0.169 HD
ATOM     32  H81 UNL     1       7.160   0.846   0.068  1.00  0.00     0.169 HD
ENDBRANCH  27  30
ENDBRANCH  11  27
TORSDOF 7
