REMARK  4 active torsions:
REMARK  status: ('A' for Active; 'I' for Inactive)
REMARK    1  A    between atoms: N1_1  and  C1_4 
REMARK    2  A    between atoms: C2_7  and  C3_8 
REMARK    3  A    between atoms: C4_13  and  N5_14 
REMARK    4  A    between atoms: N5_14  and  N6_16 
ROOT
HETATM    1  C1  UNL     1      -0.113   1.852   0.839  1.00  0.00     0.692 A 
HETATM    2  N2  UNL     1      -1.057   0.915   0.756  1.00  0.00    -0.171 N 
ATOM      3  H2  UNL     1      -1.998   1.153   1.068  1.00  0.00     0.186 HD
HETATM    4  C2  UNL     1      -0.842  -0.322   0.286  1.00  0.00     0.201 A 
HETATM    5  N4  UNL     1       0.435  -0.590  -0.120  1.00  0.00    -0.169 N 
ATOM      6  H4  UNL     1       0.643  -1.519  -0.485  1.00  0.00     0.186 HD
HETATM    7  C4  UNL     1       1.429   0.310  -0.062  1.00  0.00     0.712 A 
HETATM    8  N7  UNL     1       1.124   1.527   0.424  1.00  0.00    -0.021 N 
ATOM      9  H7  UNL     1       1.860   2.231   0.480  1.00  0.00     0.203 HD
ENDROOT
BRANCH   7  10
HETATM   10  N5  UNL     1       2.633   0.087  -0.434  1.00  0.00    -0.138 N 
ATOM     11  H5  UNL     1       3.294   0.857  -0.337  1.00  0.00     0.205 HD
BRANCH  10  12
HETATM   12  N6  UNL     1       3.120  -1.082  -0.949  1.00  0.00    -0.331 N 
ATOM     13  H62 UNL     1       2.444  -1.841  -1.039  1.00  0.00     0.177 HD
ATOM     14  H61 UNL     1       4.080  -1.260  -1.245  1.00  0.00     0.177 HD
ENDBRANCH  10  12
ENDBRANCH   7  10
BRANCH   4  15
HETATM   15  C3  UNL     1      -1.883  -1.331   0.203  1.00  0.00     0.299 C 
HETATM   16  N3  UNL     1      -3.190  -1.034   0.626  1.00  0.00    -0.054 NA
HETATM   17  O1  UNL     1      -1.618  -2.459  -0.243  1.00  0.00    -0.268 OA
ENDBRANCH   4  15
BRANCH   1  18
HETATM   18  N1  UNL     1      -0.411   3.016   1.305  1.00  0.00    -0.234 N 
ATOM     19  H12 UNL     1      -1.349   3.263   1.620  1.00  0.00     0.174 HD
ATOM     20  H11 UNL     1       0.312   3.733   1.369  1.00  0.00     0.174 HD
ENDBRANCH   1  18
TORSDOF 4
