REMARK  4 active torsions:
REMARK  status: ('A' for Active; 'I' for Inactive)
REMARK    1  A    between atoms: N1_1  and  C1_4 
REMARK    2  A    between atoms: C2_7  and  S1_8 
REMARK    3  A    between atoms: S1_8  and  N3_9 
REMARK    4  A    between atoms: C3_16  and  N5_17 
ROOT
HETATM    1  C1  UNL     1      -1.415   1.433  -0.008  1.00  0.00     0.692 A 
HETATM    2  N2  UNL     1      -0.110   1.158   0.274  1.00  0.00    -0.164 N 
ATOM      3  H2  UNL     1       0.519   1.927   0.506  1.00  0.00     0.186 HD
HETATM    4  C2  UNL     1       0.370  -0.090   0.255  1.00  0.00     0.252 A 
HETATM    5  N4  UNL     1      -0.486  -1.080  -0.057  1.00  0.00    -0.164 N 
ATOM      6  H4  UNL     1      -0.143  -2.041  -0.079  1.00  0.00     0.186 HD
HETATM    7  C3  UNL     1      -1.795  -0.840  -0.344  1.00  0.00     0.692 A 
HETATM    8  N6  UNL     1      -2.247   0.440  -0.314  1.00  0.00    -0.023 N 
ATOM      9  H6  UNL     1      -3.224   0.641  -0.526  1.00  0.00     0.203 HD
ENDROOT
BRANCH   4  10
HETATM   10  S1  UNL     1       2.059  -0.440   0.621  1.00  0.00     0.289 S 
HETATM   11  O1  UNL     1       2.295  -1.922   0.630  1.00  0.00    -0.198 OA
HETATM   12  O2  UNL     1       2.389   0.043   2.028  1.00  0.00    -0.198 OA
BRANCH  10  13
HETATM   13  N3  UNL     1       3.129   0.340  -0.447  1.00  0.00    -0.322 N 
ATOM     14  H32 UNL     1       2.813   0.940  -1.209  1.00  0.00     0.169 HD
ATOM     15  H31 UNL     1       4.106   0.138  -0.235  1.00  0.00     0.169 HD
ENDBRANCH  10  13
ENDBRANCH   4  10
BRANCH   1  16
HETATM   16  N1  UNL     1      -1.883   2.635   0.009  1.00  0.00    -0.234 N 
ATOM     17  H12 UNL     1      -1.245   3.396   0.243  1.00  0.00     0.174 HD
ATOM     18  H11 UNL     1      -2.859   2.841  -0.202  1.00  0.00     0.174 HD
ENDBRANCH   1  16
BRANCH   7  19
HETATM   19  N5  UNL     1      -2.627  -1.750  -0.641  1.00  0.00    -0.234 N 
ATOM     20  H52 UNL     1      -2.287  -2.712  -0.664  1.00  0.00     0.174 HD
ATOM     21  H51 UNL     1      -3.608  -1.570  -0.856  1.00  0.00     0.174 HD
ENDBRANCH   7  19
TORSDOF 4
