REMARK  2 active torsions:
REMARK  status: ('A' for Active; 'I' for Inactive)
REMARK    1  A    between atoms: O1_2  and  N1_3 
REMARK    2  A    between atoms: C3_8  and  N3_9 
ROOT
HETATM    1  N1  UNL     1       1.861  -0.782   0.626  1.00  0.00    -0.246 N 
ATOM      2  H1  UNL     1       2.165  -1.739   0.449  1.00  0.00     0.196 HD
HETATM    3  C2  UNL     1       0.631  -0.486   0.556  1.00  0.00     0.209 C 
HETATM    4  N2  UNL     1      -0.254  -1.478   0.241  1.00  0.00    -0.170 N 
ATOM      5  H2  UNL     1       0.139  -2.413   0.134  1.00  0.00     0.186 HD
HETATM    6  C3  UNL     1      -1.582  -1.370   0.055  1.00  0.00     0.680 C 
HETATM    7  N4  UNL     1      -2.293  -0.246  -0.179  1.00  0.00    -0.163 N 
ATOM      8  H4  UNL     1      -3.271  -0.405  -0.422  1.00  0.00     0.187 HD
HETATM    9  C4  UNL     1      -1.927   1.054  -0.145  1.00  0.00     0.209 C 
HETATM   10  N5  UNL     1      -2.715   1.998  -0.843  1.00  0.00    -0.062 NA
HETATM   11  N6  UNL     1      -0.835   1.502   0.529  1.00  0.00    -0.294 N 
ATOM     12  H6  UNL     1      -0.883   2.463   0.866  1.00  0.00     0.172 HD
HETATM   13  C5  UNL     1       0.312   0.832   0.810  1.00  0.00     0.294 C 
HETATM   14  O2  UNL     1       1.227   1.499   1.388  1.00  0.00    -0.264 OA
ENDROOT
BRANCH   1  15
HETATM   15  O1  UNL     1       2.778   0.175   0.937  1.00  0.00    -0.284 OA
HETATM   16  C1  UNL     1       4.117   0.146   0.487  1.00  0.00     0.237 C 
ENDBRANCH   1  15
BRANCH   6  17
HETATM   17  N3  UNL     1      -2.257  -2.478   0.107  1.00  0.00    -0.234 N 
ATOM     18  H32 UNL     1      -1.720  -3.327   0.284  1.00  0.00     0.174 HD
ATOM     19  H31 UNL     1      -3.264  -2.396  -0.034  1.00  0.00     0.174 HD
ENDBRANCH   6  17
TORSDOF 2
