REMARK  3 active torsions:
REMARK  status: ('A' for Active; 'I' for Inactive)
REMARK    1  A    between atoms: C6_10  and  N3_11 
REMARK    2  A    between atoms: N3_11  and  N4_13 
REMARK    3  A    between atoms: N5_16  and  N6_17 
ROOT
HETATM    1  C1  UNL     1      -2.677  -0.871   0.480  1.00  0.00     0.051 C 
HETATM    2  C2  UNL     1      -1.643  -0.100   0.268  1.00  0.00     0.116 A 
HETATM    3  C3  UNL     1      -1.746   1.353   0.450  1.00  0.00     0.274 A 
HETATM    4  O1  UNL     1      -2.827   1.891   0.814  1.00  0.00    -0.266 OA
HETATM    5  N1  UNL     1      -0.561   2.101   0.193  1.00  0.00    -0.310 N 
ATOM      6  H1  UNL     1      -0.593   3.114   0.309  1.00  0.00     0.170 HD
HETATM    7  C4  UNL     1       0.657   1.512  -0.215  1.00  0.00     0.164 A 
HETATM    8  C5  UNL     1       1.853   2.292  -0.472  1.00  0.00     0.122 C 
HETATM    9  N2  UNL     1       2.813   2.917  -0.659  1.00  0.00    -0.190 NA
HETATM   10  C6  UNL     1       0.732   0.200  -0.374  1.00  0.00     0.179 A 
HETATM   11  N5  UNL     1      -0.403  -0.660  -0.143  1.00  0.00    -0.238 N 
ENDROOT
BRANCH  10  12
HETATM   12  N3  UNL     1       1.963  -0.390  -0.786  1.00  0.00    -0.288 N 
ATOM     13  H3  UNL     1       2.292  -0.239  -1.739  1.00  0.00     0.188 HD
BRANCH  12  14
HETATM   14  N4  UNL     1       2.731  -1.172   0.086  1.00  0.00    -0.343 N 
ATOM     15  H42 UNL     1       2.387  -1.313   1.036  1.00  0.00     0.176 HD
ATOM     16  H41 UNL     1       3.612  -1.594  -0.209  1.00  0.00     0.176 HD
ENDBRANCH  12  14
ENDBRANCH  10  12
BRANCH  11  17
HETATM   17  N6  UNL     1      -0.317  -2.025  -0.311  1.00  0.00    -0.336 N 
ATOM     18  H62 UNL     1      -1.119  -2.633  -0.148  1.00  0.00     0.177 HD
ATOM     19  H61 UNL     1       0.573  -2.427  -0.606  1.00  0.00     0.177 HD
ENDBRANCH  11  17
TORSDOF 3
