REMARK  18 active torsions:
REMARK  status: ('A' for Active; 'I' for Inactive)
REMARK    1  A    between atoms: O1_2  and  C2_3 
REMARK    2  A    between atoms: C2_3  and  C3_5 
REMARK       I    between atoms: C3_5  and  N1_7 
REMARK    3  A    between atoms: N1_7  and  C4_9 
REMARK    4  A    between atoms: C4_9  and  C5_10 
REMARK    5  A    between atoms: C5_10  and  C6_11 
REMARK    6  A    between atoms: C7_12  and  C8_13 
REMARK    7  A    between atoms: C9_14  and  N2_15 
REMARK    8  A    between atoms: N2_15  and  C10_17 
REMARK    9  A    between atoms: C10_17  and  C11_18 
REMARK   10  A    between atoms: C14_23  and  O4_24 
REMARK   11  A    between atoms: O4_24  and  C15_25 
REMARK   12  A    between atoms: C15_25  and  C16_26 
REMARK   13  A    between atoms: C16_26  and  C17_27 
REMARK   14  A    between atoms: C17_27  and  C18_28 
REMARK   15  A    between atoms: C18_28  and  C19_29 
REMARK   16  A    between atoms: C19_29  and  N4_30 
REMARK   17  A    between atoms: C24_47  and  N9_48 
REMARK   18  A    between atoms: C25_53  and  N11_54 
ROOT
HETATM    1  N2  UNL     1      -3.773   0.594   0.453  1.00  0.00    -0.367 N 
ATOM      2  H2  UNL     1      -4.434   0.185  -0.208  1.00  0.00     0.161 HD
ENDROOT
BRANCH   1   3
HETATM    3  C9  UNL     1      -3.696   2.010   0.559  1.00  0.00     0.140 A 
HETATM    4  C8  UNL     1      -4.510   2.814  -0.257  1.00  0.00     0.106 A 
HETATM    5  C25 UNL     1      -4.464   4.184  -0.165  1.00  0.00     0.137 A 
HETATM    6  N10 UNL     1      -3.624   4.745   0.720  1.00  0.00    -0.176 N 
HETATM    7  C24 UNL     1      -2.854   3.961   1.492  1.00  0.00     0.679 A 
ATOM      8  H10 UNL     1      -3.571   5.760   0.805  1.00  0.00     0.186 HD
HETATM    9  N8  UNL     1      -2.868   2.605   1.434  1.00  0.00    -0.176 N 
ATOM     10  H8  UNL     1      -2.264   2.051   2.041  1.00  0.00     0.186 HD
BRANCH   4  11
HETATM   11  C7  UNL     1      -5.390   2.151  -1.186  1.00  0.00    -0.059 C 
HETATM   12  C6  UNL     1      -6.111   1.602  -1.977  1.00  0.00    -0.099 C 
BRANCH  12  13
HETATM   13  C5  UNL     1      -6.968   0.935  -2.946  1.00  0.00     0.114 C 
BRANCH  13  14
HETATM   14  C4  UNL     1      -7.215  -0.503  -2.619  1.00  0.00     0.135 C 
BRANCH  14  15
HETATM   15  N1  UNL     1      -7.852  -0.697  -1.347  1.00  0.00    -0.352 N 
HETATM   16  C3  UNL     1      -8.144  -2.017  -0.914  1.00  0.00     0.317 C 
HETATM   17  O3  UNL     1      -7.860  -3.011  -1.614  1.00  0.00    -0.262 OA
ATOM     18  H1  UNL     1      -8.092   0.103  -0.762  1.00  0.00     0.162 HD
BRANCH  16  19
HETATM   19  C2  UNL     1      -8.797  -2.266   0.383  1.00  0.00     0.351 C 
HETATM   20  O2  UNL     1      -9.118  -1.319   1.151  1.00  0.00    -0.254 OA
BRANCH  19  21
HETATM   21  O1  UNL     1      -9.088  -3.547   0.817  1.00  0.00    -0.319 OA
HETATM   22  C1  UNL     1      -9.717  -3.796   2.066  1.00  0.00     0.213 C 
ENDBRANCH  19  21
ENDBRANCH  16  19
ENDBRANCH  14  15
ENDBRANCH  13  14
ENDBRANCH  12  13
ENDBRANCH   4  11
BRANCH   5  23
HETATM   23  N11 UNL     1      -5.231   4.885  -0.935  1.00  0.00    -0.384 N 
ATOM     24 2H11 UNL     1      -5.869   4.459  -1.607  1.00  0.00     0.157 HD
ATOM     25 1H11 UNL     1      -5.197   5.902  -0.867  1.00  0.00     0.157 HD
ENDBRANCH   5  23
BRANCH   7  26
HETATM   26  N9  UNL     1      -2.028   4.480   2.361  1.00  0.00    -0.234 N 
ATOM     27  H92 UNL     1      -1.443   3.885   2.947  1.00  0.00     0.174 HD
ATOM     28  H91 UNL     1      -2.017   5.499   2.405  1.00  0.00     0.174 HD
ENDBRANCH   7  26
ENDBRANCH   1   3
BRANCH   1  29
HETATM   29  C10 UNL     1      -2.964  -0.270   1.233  1.00  0.00     0.197 C 
BRANCH  29  30
HETATM   30  C11 UNL     1      -1.508  -0.205   0.922  1.00  0.00     0.101 A 
HETATM   31  N3  UNL     1      -0.857   0.409  -0.055  1.00  0.00    -0.341 N 
HETATM   32  C12 UNL     1       0.489   0.195   0.051  1.00  0.00     0.081 A 
ATOM     33  H3  UNL     1      -1.300   0.965  -0.786  1.00  0.00     0.167 HD
HETATM   34  C13 UNL     1       1.572   0.591  -0.679  1.00  0.00     0.071 A 
HETATM   35  C23 UNL     1       0.634  -0.602   1.172  1.00  0.00     0.134 A 
HETATM   36  C14 UNL     1       2.868   0.182  -0.286  1.00  0.00     0.086 A 
HETATM   37  C22 UNL     1       2.959  -0.609   0.836  1.00  0.00     0.126 A 
HETATM   38  N6  UNL     1       1.871  -0.983   1.534  1.00  0.00    -0.348 N 
ATOM     39  H6  UNL     1       1.988  -1.571   2.359  1.00  0.00     0.167 HD
HETATM   40  N7  UNL     1      -0.586  -0.827   1.675  1.00  0.00    -0.329 N 
ATOM     41  H7  UNL     1      -0.785  -1.386   2.505  1.00  0.00     0.168 HD
BRANCH  36  42
HETATM   42  O4  UNL     1       3.924   0.609  -1.050  1.00  0.00    -0.350 OA
BRANCH  42  43
HETATM   43  C15 UNL     1       5.269   0.341  -0.929  1.00  0.00     0.175 C 
BRANCH  43  44
HETATM   44  C16 UNL     1       5.604  -1.097  -1.158  1.00  0.00     0.027 C 
BRANCH  44  45
HETATM   45  C17 UNL     1       7.096  -1.333  -1.034  1.00  0.00     0.006 C 
BRANCH  45  46
HETATM   46  C18 UNL     1       7.567  -0.960   0.328  1.00  0.00     0.069 C 
BRANCH  46  47
HETATM   47  C19 UNL     1       9.062  -1.250   0.392  1.00  0.00     0.286 C 
HETATM   48  C20 UNL     1       9.782  -0.645   1.553  1.00  0.00     0.097 C 
HETATM   49  C21 UNL     1      10.840  -0.309   0.503  1.00  0.00     0.239 C 
HETATM   50  N5  UNL     1       9.775  -0.359  -0.500  1.00  0.00    -0.041 N 
ATOM     51  H52 UNL     1       9.972  -0.626  -1.464  1.00  0.00     0.280 HD
ATOM     52  H51 UNL     1       9.340   0.495  -0.849  1.00  0.00     0.280 HD
BRANCH  47  53
HETATM   53  N4  UNL     1       9.435  -2.612   0.165  1.00  0.00    -0.044 N 
ATOM     54  H43 UNL     1       8.933  -3.224   0.809  1.00  0.00     0.277 HD
ATOM     55  H42 UNL     1       9.054  -2.935  -0.725  1.00  0.00     0.277 HD
ATOM     56  H41 UNL     1      10.435  -2.806   0.208  1.00  0.00     0.277 HD
ENDBRANCH  47  53
ENDBRANCH  46  47
ENDBRANCH  45  46
ENDBRANCH  44  45
ENDBRANCH  43  44
ENDBRANCH  42  43
ENDBRANCH  36  42
ENDBRANCH  29  30
ENDBRANCH   1  29
TORSDOF 18
