REMARK  13 active torsions:
REMARK  status: ('A' for Active; 'I' for Inactive)
REMARK    1  A    between atoms: N1_1  and  C1_4 
REMARK    2  A    between atoms: C5_15  and  C6_16 
REMARK    3  A    between atoms: C6_16  and  C7_17 
REMARK    4  A    between atoms: C7_17  and  C8_18 
REMARK    5  A    between atoms: C8_18  and  C9_19 
REMARK    6  A    between atoms: C9_19  and  C10_20 
REMARK    7  A    between atoms: C10_20  and  C11_21 
REMARK    8  A    between atoms: C11_21  and  N5_22 
REMARK       I    between atoms: N5_22  and  C12_24 
REMARK    9  A    between atoms: C12_24  and  C13_26 
REMARK   10  A    between atoms: C15_30  and  N7_31 
REMARK   11  A    between atoms: N7_31  and  C16_33 
REMARK   12  A    between atoms: C17_36  and  C18_37 
REMARK   13  A    between atoms: C20_42  and  C21_43 
ROOT
HETATM    1  C10 UNL     1       0.984   0.338  -2.359  1.00  0.00     0.020 C 
ENDROOT
BRANCH   1   2
HETATM    2  C9  UNL     1       2.054   0.778  -3.343  1.00  0.00     0.002 C 
BRANCH   2   3
HETATM    3  C8  UNL     1       3.366   0.184  -2.953  1.00  0.00     0.000 C 
BRANCH   3   4
HETATM    4  C7  UNL     1       3.388  -1.321  -2.941  1.00  0.00     0.007 C 
BRANCH   4   5
HETATM    5  C6  UNL     1       4.734  -1.898  -2.565  1.00  0.00     0.076 C 
BRANCH   5   6
HETATM    6  C5  UNL     1       5.128  -1.463  -1.200  1.00  0.00     0.082 A 
HETATM    7  N4  UNL     1       4.776  -2.183  -0.107  1.00  0.00    -0.355 N 
HETATM    8  C4  UNL     1       5.116  -1.829   1.146  1.00  0.00     0.108 A 
ATOM      9  H4  UNL     1       4.228  -3.033  -0.240  1.00  0.00     0.166 HD
HETATM   10  C3  UNL     1       5.856  -0.693   1.383  1.00  0.00     0.068 A 
HETATM   11  C2  UNL     1       6.213  -0.312   2.657  1.00  0.00     0.130 A 
HETATM   12  C22 UNL     1       6.219   0.048   0.257  1.00  0.00     0.137 A 
HETATM   13  N2  UNL     1       6.948   0.835   2.798  1.00  0.00    -0.176 N 
HETATM   14  N3  UNL     1       5.911  -0.949   3.725  1.00  0.00    -0.384 N 
HETATM   15  C1  UNL     1       7.289   1.539   1.695  1.00  0.00     0.679 A 
ATOM     16  H2  UNL     1       7.235   1.154   3.723  1.00  0.00     0.186 HD
HETATM   17  N12 UNL     1       6.937   1.159   0.466  1.00  0.00    -0.176 N 
ATOM     18  H12 UNL     1       7.221   1.727  -0.332  1.00  0.00     0.186 HD
ATOM     19  H32 UNL     1       6.175  -0.667   4.669  1.00  0.00     0.157 HD
ATOM     20  H31 UNL     1       5.364  -1.803   3.620  1.00  0.00     0.157 HD
HETATM   21  N11 UNL     1       5.849  -0.355  -0.972  1.00  0.00    -0.331 N 
ATOM     22  H11 UNL     1       6.131   0.211  -1.772  1.00  0.00     0.168 HD
BRANCH  15  23
HETATM   23  N1  UNL     1       7.980   2.618   1.845  1.00  0.00    -0.234 N 
ATOM     24  H12 UNL     1       8.249   2.909   2.785  1.00  0.00     0.174 HD
ATOM     25  H11 UNL     1       8.237   3.149   1.013  1.00  0.00     0.174 HD
ENDBRANCH  15  23
ENDBRANCH   5   6
ENDBRANCH   4   5
ENDBRANCH   3   4
ENDBRANCH   2   3
ENDBRANCH   1   2
BRANCH   1  26
HETATM   26  C11 UNL     1      -0.330   0.958  -2.750  1.00  0.00     0.123 C 
BRANCH  26  27
HETATM   27  N5  UNL     1      -1.428   0.597  -1.864  1.00  0.00    -0.356 N 
HETATM   28  C12 UNL     1      -1.425   0.907  -0.507  1.00  0.00     0.269 C 
HETATM   29  O1  UNL     1      -0.429   1.553  -0.035  1.00  0.00    -0.266 OA
ATOM     30  H5  UNL     1      -2.229   0.099  -2.252  1.00  0.00     0.162 HD
BRANCH  28  31
HETATM   31  C13 UNL     1      -2.465   0.570   0.445  1.00  0.00     0.118 A 
HETATM   32  N6  UNL     1      -2.825   1.400   1.484  1.00  0.00    -0.358 N 
HETATM   33  C14 UNL     1      -3.775   0.866   2.222  1.00  0.00     0.119 A 
ATOM     34  H6  UNL     1      -2.408   2.314   1.659  1.00  0.00     0.165 HD
HETATM   35  C15 UNL     1      -4.082  -0.348   1.697  1.00  0.00     0.067 A 
HETATM   36  C20 UNL     1      -3.255  -0.540   0.577  1.00  0.00     0.089 A 
BRANCH  35  37
HETATM   37  N7  UNL     1      -5.023  -1.313   2.120  1.00  0.00    -0.335 N 
ATOM     38  H7  UNL     1      -4.719  -2.219   2.476  1.00  0.00     0.168 HD
BRANCH  37  39
HETATM   39  C16 UNL     1      -6.301  -1.014   2.043  1.00  0.00     0.149 A 
HETATM   40  N8  UNL     1      -6.855   0.113   1.604  1.00  0.00    -0.332 N 
HETATM   41  C17 UNL     1      -8.164   0.214   1.617  1.00  0.00     0.106 A 
ATOM     42  H8  UNL     1      -6.276   0.881   1.265  1.00  0.00     0.168 HD
HETATM   43  C19 UNL     1      -8.876  -0.858   2.085  1.00  0.00     0.088 A 
HETATM   44  S1  UNL     1      -7.645  -1.965   2.488  1.00  0.00    -0.063 SA
BRANCH  41  45
HETATM   45  C18 UNL     1      -8.899   1.433   1.143  1.00  0.00     0.281 C 
HETATM   46  N9  UNL     1      -8.220   2.551   0.605  1.00  0.00    -0.056 NA
HETATM   47  O2  UNL     1     -10.136   1.509   1.204  1.00  0.00    -0.269 OA
ENDBRANCH  41  45
ENDBRANCH  37  39
ENDBRANCH  35  37
BRANCH  36  48
HETATM   48  C21 UNL     1      -3.213  -1.789  -0.200  1.00  0.00     0.269 C 
HETATM   49  N10 UNL     1      -4.372  -2.643  -0.131  1.00  0.00    -0.057 NA
HETATM   50  O3  UNL     1      -2.235  -2.117  -0.894  1.00  0.00    -0.271 OA
ENDBRANCH  36  48
ENDBRANCH  28  31
ENDBRANCH  26  27
ENDBRANCH   1  26
TORSDOF 13
