REMARK  15 active torsions:
REMARK  status: ('A' for Active; 'I' for Inactive)
REMARK    1  A    between atoms: C3_3  and  C4_4 
REMARK    2  A    between atoms: C4_4  and  C5_5 
REMARK    3  A    between atoms: N1_10  and  C10_11 
REMARK    4  A    between atoms: C10_11  and  C11_12 
REMARK    5  A    between atoms: C11_12  and  C12_13 
REMARK    6  A    between atoms: C12_13  and  C13_14 
REMARK    7  A    between atoms: C13_14  and  C14_15 
REMARK    8  A    between atoms: C14_15  and  C15_16 
REMARK    9  A    between atoms: C15_16  and  N2_17 
REMARK   10  A    between atoms: C17_25  and  C18_26 
REMARK   11  A    between atoms: C18_26  and  C19_27 
REMARK   12  A    between atoms: C19_27  and  C20_28 
REMARK   13  A    between atoms: C22_30  and  O2_31 
REMARK   14  A    between atoms: C23_33  and  N4_34 
REMARK       I    between atoms: N4_34  and  C24_36 
REMARK       I    between atoms: C24_36  and  N5_38 
REMARK   15  A    between atoms: N5_38  and  C25_40 
ROOT
HETATM    1  C1  UNL     1       0.790  -0.025  -4.603  1.00  0.00     0.112 C 
HETATM    2  C2  UNL     1       0.703  -0.260  -3.161  1.00  0.00    -0.108 C 
HETATM    3  C3  UNL     1       0.648  -0.457  -1.951  1.00  0.00    -0.066 C 
ENDROOT
BRANCH   3   4
HETATM    4  C4  UNL     1       0.610  -0.708  -0.542  1.00  0.00     0.208 C 
HETATM    5  C7  UNL     1      -0.752  -0.667   0.022  1.00  0.00     0.066 C 
HETATM    6  C8  UNL     1      -0.535  -0.332   1.488  1.00  0.00     0.039 C 
HETATM    7  C23 UNL     1      -1.887  -0.047  -0.638  1.00  0.00     0.152 C 
HETATM    8  C9  UNL     1       0.912   0.045   1.619  1.00  0.00     0.252 C 
HETATM    9  N1  UNL     1       1.412   0.182   0.230  1.00  0.00     0.034 N 
HETATM   10  C16 UNL     1       1.186   1.510  -0.087  1.00  0.00     0.421 C 
HETATM   11  O1  UNL     1       2.233   2.200   0.208  1.00  0.00    -0.239 OA
HETATM   12  N3  UNL     1       0.150   2.307  -0.631  1.00  0.00    -0.304 N 
HETATM   13  C17 UNL     1      -1.278   2.456  -0.599  1.00  0.00     0.044 C 
ATOM     14  H3  UNL     1       0.551   3.009  -1.253  1.00  0.00     0.170 HD
HETATM   15  C22 UNL     1      -2.100   1.318  -1.008  1.00  0.00     0.089 C 
BRANCH   4  16
HETATM   16  C5  UNL     1       1.150  -2.151  -0.351  1.00  0.00     0.050 C 
HETATM   17  C6  UNL     1       0.185  -3.026  -1.155  1.00  0.00     0.009 C 
ENDBRANCH   4  16
BRANCH   9  18
HETATM   18  C10 UNL     1       2.812  -0.131   0.322  1.00  0.00     0.252 C 
BRANCH  18  19
HETATM   19  C11 UNL     1       3.671   0.095  -0.842  1.00  0.00     0.029 C 
BRANCH  19  20
HETATM   20  C12 UNL     1       5.156  -0.261  -0.587  1.00  0.00     0.002 C 
BRANCH  20  21
HETATM   21  C13 UNL     1       5.289  -1.704  -0.240  1.00  0.00     0.002 C 
BRANCH  21  22
HETATM   22  C14 UNL     1       6.655  -2.229  -0.028  1.00  0.00     0.027 C 
BRANCH  22  23
HETATM   23  C15 UNL     1       7.452  -1.625   1.073  1.00  0.00     0.229 C 
BRANCH  23  24
HETATM   24  N2  UNL     1       7.747  -0.238   0.955  1.00  0.00    -0.079 N 
ATOM     25  H23 UNL     1       8.205  -0.059   0.061  1.00  0.00     0.274 HD
ATOM     26  H22 UNL     1       6.882   0.288   0.829  1.00  0.00     0.274 HD
ATOM     27  H21 UNL     1       8.294   0.176   1.710  1.00  0.00     0.274 HD
ENDBRANCH  23  24
ENDBRANCH  22  23
ENDBRANCH  21  22
ENDBRANCH  20  21
ENDBRANCH  19  20
ENDBRANCH  18  19
ENDBRANCH   9  18
BRANCH  13  28
HETATM   28  C18 UNL     1      -1.735   3.236   0.617  1.00  0.00     0.060 C 
BRANCH  28  29
HETATM   29  C19 UNL     1      -3.210   3.440   0.738  1.00  0.00     0.006 C 
BRANCH  29  30
HETATM   30  C20 UNL     1      -3.532   4.282   1.990  1.00  0.00    -0.004 C 
HETATM   31  C21 UNL     1      -2.866   5.638   1.907  1.00  0.00     0.005 C 
ENDBRANCH  29  30
ENDBRANCH  28  29
ENDBRANCH  13  28
BRANCH  15  32
HETATM   32  O2  UNL     1      -2.387   1.407  -2.423  1.00  0.00    -0.361 OA
ATOM     33  H2  UNL     1      -2.921   0.668  -2.689  1.00  0.00     0.217 HD
ENDBRANCH  15  32
BRANCH   7  34
HETATM   34  N4  UNL     1      -3.026  -0.492   0.215  1.00  0.00    -0.332 N 
HETATM   35  C24 UNL     1      -3.956  -1.455  -0.152  1.00  0.00     0.317 C 
HETATM   36  O3  UNL     1      -3.878  -2.018  -1.267  1.00  0.00    -0.247 OA
HETATM   37  N5  UNL     1      -5.001  -1.814   0.720  1.00  0.00    -0.339 N 
ATOM     38  H5  UNL     1      -5.051  -1.346   1.625  1.00  0.00     0.164 HD
ATOM     39  H4  UNL     1      -3.129  -0.058   1.133  1.00  0.00     0.165 HD
BRANCH  37  40
HETATM   40  C25 UNL     1      -6.009  -2.806   0.411  1.00  0.00     0.086 A 
HETATM   41  C26 UNL     1      -7.390  -2.675   0.990  1.00  0.00     0.027 A 
HETATM   42  C27 UNL     1      -6.458  -3.766   1.455  1.00  0.00     0.027 A 
ENDBRANCH  37  40
ENDBRANCH   7  34
ENDBRANCH   3   4
TORSDOF 15
