REMARK  1 active torsions:
REMARK  status: ('A' for Active; 'I' for Inactive)
REMARK    1  A    between atoms: C3_4  and  C4_5 
ROOT
HETATM    1  C4  UNL     1       0.986   0.046   0.418  1.00  0.00    -0.004 A 
HETATM    2  C5  UNL     1       1.312   0.269  -0.893  1.00  0.00     0.031 A 
HETATM    3  C6  UNL     1       2.703   0.400  -0.948  1.00  0.00     0.088 A 
HETATM    4  N2  UNL     1       3.175   0.258   0.297  1.00  0.00    -0.374 N 
ATOM      5  H2  UNL     1       4.161   0.307   0.553  1.00  0.00     0.164 HD
HETATM    6  C7  UNL     1       2.181   0.044   1.153  1.00  0.00     0.100 A 
ENDROOT
BRANCH   1   7
HETATM    7  C3  UNL     1      -0.326  -0.151   0.969  1.00  0.00     0.097 C 
HETATM    8  N1  UNL     1      -1.472  -0.175   0.443  1.00  0.00    -0.398 N 
HETATM    9  C1  UNL     1      -2.656  -0.407   1.303  1.00  0.00     0.148 C 
HETATM   10  C2  UNL     1      -1.716   0.009  -0.952  1.00  0.00     0.148 C 
ENDBRANCH   1   7
TORSDOF 1
