REMARK  1 active torsions:
REMARK  status: ('A' for Active; 'I' for Inactive)
REMARK    1  A    between atoms: C3_3  and  N1_4 
ROOT
HETATM    1  N1  UNL     1      -0.412  -0.056  -0.009  1.00  0.00    -0.317 N 
HETATM    2  C4  UNL     1      -1.160  -1.166  -0.115  1.00  0.00     0.115 A 
HETATM    3  C5  UNL     1      -2.499  -0.811  -0.096  1.00  0.00     0.106 A 
HETATM    4  N2  UNL     1      -2.509   0.521   0.024  1.00  0.00    -0.360 N 
ATOM      5  H2  UNL     1      -3.351   1.096   0.068  1.00  0.00     0.166 HD
HETATM    6  C6  UNL     1      -1.246   0.997   0.078  1.00  0.00     0.188 A 
ENDROOT
BRANCH   1   7
HETATM    7  C3  UNL     1       1.019   0.015   0.011  1.00  0.00     0.039 A 
HETATM    8  C2  UNL     1       1.995   1.078   0.115  1.00  0.00     0.030 A 
HETATM    9  C1  UNL     1       3.003   0.213   0.047  1.00  0.00     0.005 A 
HETATM   10  C7  UNL     1       2.011  -0.851  -0.058  1.00  0.00     0.030 A 
ENDBRANCH   1   7
TORSDOF 1
