REMARK  1 active torsions:
REMARK  status: ('A' for Active; 'I' for Inactive)
REMARK    1  A    between atoms: C1_2  and  C2_4 
ROOT
HETATM    1  C2  UNL     1       0.051   0.271  -0.701  1.00  0.00     0.123 A 
HETATM    2 CL1  UNL     1       0.361  -0.807  -2.125  1.00  0.00    -0.108 Cl
HETATM    3  C3  UNL     1      -1.324   0.521  -0.240  1.00  0.00     0.025 A 
HETATM    4  C4  UNL     1      -2.062  -0.772   0.145  1.00  0.00     0.015 A 
HETATM    5  C5  UNL     1      -0.590  -0.552   0.459  1.00  0.00     0.025 A 
ENDROOT
BRANCH   1   6
HETATM    6  C1  UNL     1       1.260   0.976  -0.210  1.00  0.00     0.255 C 
HETATM    7  N1  UNL     1       2.328   0.023   0.126  1.00  0.00    -0.060 NA
HETATM    8  O1  UNL     1       1.498   2.121  -0.075  1.00  0.00    -0.275 OA
ENDBRANCH   1   6
TORSDOF 1
