REMARK  1 active torsions:
REMARK  status: ('A' for Active; 'I' for Inactive)
REMARK    1  A    between atoms: C2_2  and  N1_4 
ROOT
HETATM    1  N1  UNL     1      -0.213   0.083   0.059  1.00  0.00    -0.028 N 
HETATM    2  C3  UNL     1      -1.014   1.195   0.556  1.00  0.00     0.280 C 
HETATM    3  C4  UNL     1      -0.611  -0.525  -1.171  1.00  0.00     0.273 A 
HETATM    4  C5  UNL     1      -0.868  -1.239   0.131  1.00  0.00     0.273 A 
ENDROOT
BRANCH   1   5
HETATM    5  C2  UNL     1       1.111   0.080   0.513  1.00  0.00     0.196 C 
HETATM    6  C1  UNL     1       2.154   0.097  -0.316  1.00  0.00     0.064 C 
HETATM    7 CL1  UNL     1       1.394   0.053   2.244  1.00  0.00    -0.058 Cl
ENDBRANCH   1   5
TORSDOF 1
