REMARK  3 active torsions:
REMARK  status: ('A' for Active; 'I' for Inactive)
REMARK    1  A    between atoms: C2_2  and  C3_3 
REMARK    2  A    between atoms: C3_3  and  N1_4 
REMARK    3  A    between atoms: C4_6  and  C5_7 
ROOT
HETATM    1  C3  UNL     1      -0.699   0.156  -0.040  1.00  0.00     0.046 C 
HETATM    2  C7  UNL     1      -1.287  -0.287   1.277  1.00  0.00     0.035 C 
HETATM    3  C8  UNL     1      -2.416  -1.229   0.970  1.00  0.00     0.003 C 
HETATM    4  C9  UNL     1      -2.695  -0.976  -0.497  1.00  0.00     0.003 C 
HETATM    5  C10 UNL     1      -1.287  -0.833  -1.049  1.00  0.00     0.035 C 
ENDROOT
BRANCH   1   6
HETATM    6  C2  UNL     1      -1.135   1.525  -0.409  1.00  0.00    -0.006 C 
HETATM    7  C1  UNL     1      -0.335   2.545  -0.161  1.00  0.00     0.009 C 
ENDBRANCH   1   6
BRANCH   1   8
HETATM    8  N1  UNL     1       0.715   0.028   0.045  1.00  0.00    -0.390 N 
HETATM    9  C4  UNL     1       1.453  -0.383  -0.917  1.00  0.00     0.056 C 
ATOM     10  H1  UNL     1       1.168   0.278   0.924  1.00  0.00     0.159 HD
BRANCH   9  11
HETATM   11  C5  UNL     1       2.927  -0.487  -0.744  1.00  0.00     0.039 C 
HETATM   12  C6  UNL     1       3.412   0.336   0.429  1.00  0.00     0.010 C 
ENDBRANCH   9  11
ENDBRANCH   1   8
TORSDOF 3
