REMARK  3 active torsions:
REMARK  status: ('A' for Active; 'I' for Inactive)
REMARK    1  A    between atoms: C2_2  and  C3_3 
REMARK    2  A    between atoms: C2_2  and  C7_8 
REMARK    3  A    between atoms: C3_3  and  N1_4 
ROOT
HETATM    1  C1  UNL     1       2.208   1.455   0.202  1.00  0.00     0.023 C 
HETATM    2  C2  UNL     1       1.222   0.284   0.451  1.00  0.00     0.109 C 
ENDROOT
BRANCH   2   3
HETATM    3  C3  UNL     1      -0.028   0.672  -0.229  1.00  0.00     0.251 C 
BRANCH   3   4
HETATM    4  N1  UNL     1      -1.152  -0.177  -0.184  1.00  0.00    -0.078 N 
HETATM    5  C4  UNL     1      -1.438  -0.981  -1.311  1.00  0.00     0.271 C 
HETATM    6  C5  UNL     1      -2.337   0.677   0.057  1.00  0.00     0.271 C 
HETATM    7  C6  UNL     1      -1.128  -1.064   0.987  1.00  0.00     0.271 C 
ENDBRANCH   3   4
ENDBRANCH   2   3
BRANCH   2   8
HETATM    8  C7  UNL     1       1.966  -0.865  -0.076  1.00  0.00     0.178 C 
HETATM    9  O1  UNL     1       1.568  -1.516  -1.052  1.00  0.00    -0.648 OA
HETATM   10  O2  UNL     1       3.146  -1.233   0.535  1.00  0.00    -0.648 OA
ENDBRANCH   2   8
TORSDOF 3
