REMARK  3 active torsions:
REMARK  status: ('A' for Active; 'I' for Inactive)
REMARK    1  A    between atoms: C2_2  and  C4_4 
REMARK    2  A    between atoms: C5_5  and  C6_6 
REMARK    3  A    between atoms: C6_6  and  C8_8 
ROOT
HETATM    1  C6  UNL     1       0.886  -0.707   0.931  1.00  0.00     0.011 C 
HETATM    2  C7  UNL     1       1.521  -1.801   0.148  1.00  0.00     0.015 C 
ENDROOT
BRANCH   1   3
HETATM    3  C5  UNL     1      -0.554  -0.641   0.581  1.00  0.00    -0.026 C 
HETATM    4  C4  UNL     1      -1.137   0.505   0.195  1.00  0.00    -0.026 C 
BRANCH   4   5
HETATM    5  C2  UNL     1      -2.568   0.587  -0.156  1.00  0.00    -0.001 C 
HETATM    6  C1  UNL     1      -2.721   1.012  -1.618  1.00  0.00     0.013 C 
HETATM    7  C3  UNL     1      -3.265  -0.748  -0.027  1.00  0.00     0.013 C 
ENDBRANCH   4   5
ENDBRANCH   1   3
BRANCH   1   8
HETATM    8  C8  UNL     1       1.578   0.616   0.806  1.00  0.00     0.044 A 
HETATM    9  C9  UNL     1       3.056   0.494   1.176  1.00  0.00     0.239 A 
HETATM   10  N1  UNL     1       3.451   0.773  -0.188  1.00  0.00    -0.074 N 
HETATM   11  C10 UNL     1       2.081   0.989  -0.555  1.00  0.00     0.239 A 
ATOM     12  H12 UNL     1       4.146   1.496  -0.376  1.00  0.00     0.277 HD
ATOM     13  H11 UNL     1       4.012   0.093  -0.702  1.00  0.00     0.277 HD
ENDBRANCH   1   8
TORSDOF 3
