REMARK  3 active torsions:
REMARK  status: ('A' for Active; 'I' for Inactive)
REMARK    1  A    between atoms: C4_4  and  N1_5 
REMARK    2  A    between atoms: N1_5  and  C5_8 
REMARK    3  A    between atoms: C5_8  and  C7_10 
ROOT
HETATM    1  N1  UNL     1       0.609  -1.015  -0.081  1.00  0.00    -0.066 N 
ATOM      2  H11 UNL     1       0.466  -1.149   0.920  1.00  0.00     0.278 HD
ATOM      3  H12 UNL     1       1.025  -1.915  -0.322  1.00  0.00     0.278 HD
ENDROOT
BRANCH   1   4
HETATM    4  C4  UNL     1       1.549   0.046  -0.313  1.00  0.00     0.190 A 
HETATM    5  C2  UNL     1       2.782   0.011   0.553  1.00  0.00     0.014 A 
HETATM    6  C1  UNL     1       3.330   1.354   1.023  1.00  0.00     0.012 C 
HETATM    7  C3  UNL     1       2.909  -0.328  -0.925  1.00  0.00     0.039 A 
ENDBRANCH   1   4
BRANCH   1   8
HETATM    8  C5  UNL     1      -0.653  -0.855  -0.747  1.00  0.00     0.186 C 
HETATM    9  C6  UNL     1      -1.474  -2.086  -0.466  1.00  0.00     0.040 C 
BRANCH   8  10
HETATM   10  C7  UNL     1      -1.357   0.415  -0.383  1.00  0.00     0.016 C 
HETATM   11  C8  UNL     1      -1.683   0.571   1.098  1.00  0.00     0.007 C 
HETATM   12  C9  UNL     1      -2.924   1.342   0.619  1.00  0.00     0.001 C 
HETATM   13  C10 UNL     1      -2.873   0.395  -0.588  1.00  0.00     0.007 C 
ENDBRANCH   8  10
ENDBRANCH   1   8
TORSDOF 3
