REMARK  9 active torsions:
REMARK  status: ('A' for Active; 'I' for Inactive)
REMARK    1  A    between atoms: O1_1  and  C1_3 
REMARK    2  A    between atoms: C1_3  and  C2_4 
REMARK    3  A    between atoms: C2_4  and  N1_5 
REMARK    4  A    between atoms: C6_9  and  C7_10 
REMARK    5  A    between atoms: C10_13  and  C11_14 
REMARK    6  A    between atoms: C11_14  and  C12_15 
REMARK    7  A    between atoms: C12_15  and  N2_16 
REMARK    8  A    between atoms: C15_19  and  C16_20 
REMARK    9  A    between atoms: C16_20  and  N3_21 
ROOT
HETATM    1  C7  UNL     1      -3.580   0.918   0.492  1.00  0.00    -0.008 A 
HETATM    2  C8  UNL     1      -3.113  -0.368   0.327  1.00  0.00     0.014 A 
HETATM    3  C9  UNL     1      -1.806  -0.714   0.596  1.00  0.00     0.008 A 
HETATM    4  C10 UNL     1      -0.932   0.254   1.045  1.00  0.00    -0.057 A 
HETATM    5  C22 UNL     1      -1.384   1.528   1.212  1.00  0.00     0.008 A 
HETATM    6  C23 UNL     1      -2.712   1.872   0.937  1.00  0.00     0.014 A 
ENDROOT
BRANCH   4   7
HETATM    7  C11 UNL     1       0.488  -0.060   1.351  1.00  0.00     0.058 C 
BRANCH   7   8
HETATM    8  C12 UNL     1       1.316   0.141   0.095  1.00  0.00     0.132 C 
BRANCH   8   9
HETATM    9  N2  UNL     1       2.717  -0.153   0.337  1.00  0.00    -0.366 N 
HETATM   10  C13 UNL     1       3.211  -1.392   0.160  1.00  0.00     0.091 A 
HETATM   11  C14 UNL     1       4.558  -1.678   0.392  1.00  0.00     0.026 A 
HETATM   12  C15 UNL     1       5.430  -0.695   0.813  1.00  0.00    -0.036 A 
HETATM   13  C20 UNL     1       4.903   0.569   0.989  1.00  0.00     0.026 A 
HETATM   14  C21 UNL     1       3.564   0.802   0.746  1.00  0.00     0.091 A 
BRANCH  12  15
HETATM   15  C16 UNL     1       6.869  -0.974   1.067  1.00  0.00     0.186 C 
BRANCH  15  16
HETATM   16  N3  UNL     1       7.680  -0.784  -0.104  1.00  0.00    -0.299 N 
HETATM   17  C17 UNL     1       7.959  -1.730  -1.007  1.00  0.00     0.112 A 
HETATM   18  C18 UNL     1       8.771  -1.144  -1.987  1.00  0.00     0.037 A 
HETATM   19  C19 UNL     1       8.945   0.158  -1.615  1.00  0.00     0.108 A 
HETATM   20  N4  UNL     1       8.271   0.331  -0.476  1.00  0.00    -0.310 N 
ATOM     21  H4  UNL     1       8.221   1.211   0.038  1.00  0.00     0.186 HD
ENDBRANCH  15  16
ENDBRANCH  12  15
ENDBRANCH   8   9
ENDBRANCH   7   8
ENDBRANCH   4   7
BRANCH   1  22
HETATM   22  C6  UNL     1      -4.968   1.197   0.187  1.00  0.00     0.058 A 
HETATM   23  C5  UNL     1      -5.518   2.535   0.342  1.00  0.00     0.033 A 
HETATM   24  C4  UNL     1      -6.814   2.720   0.040  1.00  0.00     0.021 A 
HETATM   25  C3  UNL     1      -7.655   1.626  -0.429  1.00  0.00     0.110 A 
HETATM   26  N1  UNL     1      -7.113   0.462  -0.547  1.00  0.00    -0.301 N 
HETATM   27  N5  UNL     1      -5.771   0.263  -0.236  1.00  0.00    -0.298 N 
ATOM     28  H5  UNL     1      -5.391  -0.677  -0.347  1.00  0.00     0.187 HD
BRANCH  26  29
HETATM   29  C2  UNL     1      -7.940  -0.659  -1.018  1.00  0.00     0.174 C 
BRANCH  29  30
HETATM   30  C1  UNL     1      -7.308  -1.184  -2.302  1.00  0.00     0.185 C 
BRANCH  30  31
HETATM   31  O1  UNL     1      -8.061  -2.248  -2.783  1.00  0.00    -0.399 OA
ATOM     32  H1  UNL     1      -7.667  -2.575  -3.583  1.00  0.00     0.209 HD
ENDBRANCH  30  31
ENDBRANCH  29  30
ENDBRANCH  26  29
ENDBRANCH   1  22
TORSDOF 9
