REMARK  4 active torsions:
REMARK  status: ('A' for Active; 'I' for Inactive)
REMARK    1  A    between atoms: C1_2  and  C2_3 
REMARK    2  A    between atoms: C1_2  and  C6_9 
REMARK    3  A    between atoms: C2_3  and  N1_4 
REMARK    4  A    between atoms: N1_4  and  C3_6 
ROOT
HETATM    1  C6  UNL     1       0.269  -0.523  -0.613  1.00  0.00     0.057 C 
HETATM    2  C7  UNL     1      -0.616  -1.241  -1.558  1.00  0.00     0.012 C 
HETATM    3  C8  UNL     1      -1.492  -2.271  -0.837  1.00  0.00     0.001 C 
HETATM    4  C9  UNL     1      -2.936  -1.897  -0.820  1.00  0.00     0.000 C 
HETATM    5  C10 UNL     1      -3.381  -1.336   0.534  1.00  0.00     0.000 C 
HETATM    6  C11 UNL     1      -4.108  -0.062   0.317  1.00  0.00     0.000 C 
HETATM    7  C12 UNL     1      -3.705   1.104   1.123  1.00  0.00     0.000 C 
HETATM    8  C13 UNL     1      -2.268   1.357   1.333  1.00  0.00     0.000 C 
HETATM    9  C14 UNL     1      -1.670   2.369   0.356  1.00  0.00     0.000 C 
HETATM   10  C15 UNL     1      -1.078   1.626  -0.856  1.00  0.00     0.001 C 
HETATM   11  C16 UNL     1       0.182   0.943  -0.558  1.00  0.00     0.012 C 
ENDROOT
BRANCH   1  12
HETATM   12  C1  UNL     1       1.706  -0.886  -0.858  1.00  0.00     0.148 C 
HETATM   13  O1  UNL     1       1.940  -1.676  -1.753  1.00  0.00    -0.296 OA
BRANCH  12  14
HETATM   14  C2  UNL     1       2.817  -0.325  -0.064  1.00  0.00     0.193 C 
BRANCH  14  15
HETATM   15  N1  UNL     1       4.057  -0.852  -0.537  1.00  0.00    -0.411 N 
ATOM     16  H1  UNL     1       4.109  -1.515  -1.310  1.00  0.00     0.154 HD
BRANCH  15  17
HETATM   17  C3  UNL     1       5.221  -0.385   0.150  1.00  0.00     0.077 A 
HETATM   18  C4  UNL     1       5.591   1.064   0.136  1.00  0.00     0.027 A 
HETATM   19  C5  UNL     1       5.185   0.321   1.436  1.00  0.00     0.027 A 
ENDBRANCH  15  17
ENDBRANCH  14  15
ENDBRANCH  12  14
ENDBRANCH   1  12
TORSDOF 4
