REMARK  6 active torsions:
REMARK  status: ('A' for Active; 'I' for Inactive)
REMARK    1  A    between atoms: C2_2  and  C4_4 
REMARK    2  A    between atoms: C9_9  and  C10_10 
REMARK    3  A    between atoms: C10_10  and  S1_11 
REMARK    4  A    between atoms: S1_11  and  C11_12 
REMARK    5  A    between atoms: C11_12  and  C12_13 
REMARK    6  A    between atoms: C12_13  and  N1_15 
ROOT
HETATM    1  C4  UNL     1      -1.417   0.704   0.095  1.00  0.00     0.014 C 
HETATM    2  C5  UNL     1      -2.751   0.092   0.567  1.00  0.00     0.013 C 
HETATM    3  C6  UNL     1      -2.459  -1.111   1.398  1.00  0.00    -0.013 C 
HETATM    4  C7  UNL     1      -2.762  -2.369   0.608  1.00  0.00     0.005 C 
HETATM    5  C8  UNL     1      -1.445  -2.744  -0.094  1.00  0.00     0.011 C 
HETATM    6  C9  UNL     1      -0.490  -1.579   0.277  1.00  0.00    -0.031 C 
HETATM    7  C14 UNL     1      -0.987  -1.312   1.682  1.00  0.00     0.015 C 
HETATM    8  C15 UNL     1      -0.763  -0.457  -0.673  1.00  0.00     0.019 C 
ENDROOT
BRANCH   6   9
HETATM    9  C10 UNL     1       0.912  -2.056   0.348  1.00  0.00     0.083 C 
BRANCH   9  10
HETATM   10  S1  UNL     1       2.173  -0.910   0.796  1.00  0.00    -0.166 SA
BRANCH  10  11
HETATM   11  C11 UNL     1       2.512   0.431  -0.321  1.00  0.00     0.106 C 
BRANCH  11  12
HETATM   12  C12 UNL     1       3.701   1.271   0.131  1.00  0.00     0.188 C 
HETATM   13  C13 UNL     1       4.954   0.432   0.222  1.00  0.00     0.040 C 
BRANCH  12  14
HETATM   14  N1  UNL     1       3.419   1.977   1.349  1.00  0.00    -0.075 N 
ATOM     15  H13 UNL     1       2.574   2.543   1.264  1.00  0.00     0.274 HD
ATOM     16  H12 UNL     1       3.111   1.341   2.085  1.00  0.00     0.274 HD
ATOM     17  H11 UNL     1       4.215   2.539   1.651  1.00  0.00     0.274 HD
ENDBRANCH  12  14
ENDBRANCH  11  12
ENDBRANCH  10  11
ENDBRANCH   9  10
ENDBRANCH   6   9
BRANCH   1  18
HETATM   18  C2  UNL     1      -1.627   1.857  -0.802  1.00  0.00    -0.089 C 
HETATM   19  C1  UNL     1      -1.051   3.038  -0.535  1.00  0.00     0.014 C 
HETATM   20  C3  UNL     1      -2.468   1.792  -2.028  1.00  0.00     0.043 C 
ENDBRANCH   1  18
TORSDOF 6
