REMARK  7 active torsions:
REMARK  status: ('A' for Active; 'I' for Inactive)
REMARK    1  A    between atoms: C2_2  and  C3_3 
REMARK    2  A    between atoms: C3_3  and  N1_4 
REMARK    3  A    between atoms: N1_4  and  C4_6 
REMARK    4  A    between atoms: C4_6  and  O1_10 
REMARK    5  A    between atoms: O1_10  and  C6_11 
REMARK    6  A    between atoms: C6_11  and  C9_14 
REMARK    7  A    between atoms: C9_14  and  C10_15 
ROOT
HETATM    1  O1  UNL     1       0.745  -1.234  -1.546  1.00  0.00    -0.308 OA
ENDROOT
BRANCH   1   2
HETATM    2  C4  UNL     1       1.659  -0.359  -2.008  1.00  0.00     0.215 C 
HETATM    3  N2  UNL     1       1.274   0.778  -2.396  1.00  0.00    -0.361 N 
HETATM    4  C5  UNL     1       2.191   1.792  -2.912  1.00  0.00     0.150 C 
ATOM      5  H2  UNL     1       0.279   0.999  -2.347  1.00  0.00     0.162 HD
BRANCH   2   6
HETATM    6  N1  UNL     1       3.028  -0.697  -2.062  1.00  0.00    -0.353 N 
ATOM      7  H1  UNL     1       3.580  -0.302  -2.823  1.00  0.00     0.163 HD
BRANCH   6   8
HETATM    8  C3  UNL     1       3.707  -1.557  -1.126  1.00  0.00     0.149 C 
BRANCH   8   9
HETATM    9  C2  UNL     1       3.842  -0.990   0.233  1.00  0.00    -0.018 C 
HETATM   10  C1  UNL     1       5.030  -0.793   0.778  1.00  0.00     0.008 C 
ENDBRANCH   8   9
ENDBRANCH   6   8
ENDBRANCH   2   6
ENDBRANCH   1   2
BRANCH   1  11
HETATM   11  C6  UNL     1      -0.482  -0.860  -0.887  1.00  0.00     0.081 C 
HETATM   12  C7  UNL     1      -1.088  -2.258  -0.619  1.00  0.00     0.051 C 
HETATM   13  C8  UNL     1      -1.445  -0.214  -1.810  1.00  0.00     0.051 C 
BRANCH  11  14
HETATM   14  C9  UNL     1      -0.099  -0.168   0.339  1.00  0.00     0.013 C 
BRANCH  14  15
HETATM   15  C10 UNL     1      -1.041   0.375   1.303  1.00  0.00    -0.081 C 
HETATM   16  C11 UNL     1      -1.995  -0.609   1.948  1.00  0.00     0.034 C 
HETATM   17  C12 UNL     1      -2.659   0.191   3.087  1.00  0.00     0.004 C 
HETATM   18  C13 UNL     1      -3.657   1.171   2.538  1.00  0.00     0.001 C 
HETATM   19  C14 UNL     1      -3.323   1.405   1.087  1.00  0.00     0.004 C 
HETATM   20  C15 UNL     1      -1.803   1.609   0.977  1.00  0.00     0.034 C 
ENDBRANCH  14  15
ENDBRANCH  11  14
ENDBRANCH   1  11
TORSDOF 7
