REMARK  5 active torsions:
REMARK  status: ('A' for Active; 'I' for Inactive)
REMARK    1  A    between atoms: C2_2  and  N1_3 
REMARK    2  A    between atoms: C2_2  and  C3_6 
REMARK    3  A    between atoms: C3_6  and  O3_7 
REMARK    4  A    between atoms: C8_13  and  C9_14 
REMARK    5  A    between atoms: C10_15  and  C11_16 
ROOT
HETATM    1  C3  UNL     1       1.381  -0.479  -0.002  1.00  0.00     0.112 C 
HETATM    2  C4  UNL     1       1.895  -1.094   1.296  1.00  0.00     0.045 C 
HETATM    3  C5  UNL     1       2.248  -0.048   2.316  1.00  0.00     0.003 C 
HETATM    4  C6  UNL     1       1.207   1.002   2.516  1.00  0.00     0.001 C 
HETATM    5  C7  UNL     1       0.768   1.623   1.222  1.00  0.00     0.012 C 
HETATM    6  C8  UNL     1       0.294   0.483   0.320  1.00  0.00     0.049 C 
ENDROOT
BRANCH   1   7
HETATM    7  C2  UNL     1       2.452  -0.109  -0.903  1.00  0.00     0.106 C 
HETATM    8  C1  UNL     1       2.732   1.037  -1.475  1.00  0.00     0.048 C 
BRANCH   7   9
HETATM    9  N1  UNL     1       3.394  -1.152  -1.250  1.00  0.00    -0.117 N 
HETATM   10  O1  UNL     1       4.475  -1.168  -0.688  1.00  0.00    -0.532 OA
HETATM   11  O2  UNL     1       3.042  -2.060  -2.179  1.00  0.00    -0.532 OA
ENDBRANCH   7   9
ENDBRANCH   1   7
BRANCH   1  12
HETATM   12  O3  UNL     1       0.707  -1.570  -0.633  1.00  0.00    -0.383 OA
ATOM     13  H3  UNL     1       0.004  -1.813  -0.042  1.00  0.00     0.211 HD
ENDBRANCH   1  12
BRANCH   6  14
HETATM   14  C9  UNL     1      -0.547   0.909  -0.779  1.00  0.00    -0.018 C 
HETATM   15  C10 UNL     1      -1.759   0.595  -1.081  1.00  0.00     0.003 C 
BRANCH  15  16
HETATM   16  C11 UNL     1      -2.761  -0.261  -0.503  1.00  0.00    -0.066 C 
HETATM   17  C12 UNL     1      -2.634  -1.071   0.712  1.00  0.00     0.048 C 
HETATM   18  C13 UNL     1      -3.978  -0.354  -1.118  1.00  0.00    -0.024 C 
HETATM   19  C14 UNL     1      -4.284   0.395  -2.346  1.00  0.00     0.036 C 
ENDBRANCH  15  16
ENDBRANCH   6  14
TORSDOF 5
