REMARK  13 active torsions:
REMARK  status: ('A' for Active; 'I' for Inactive)
REMARK    1  A    between atoms: C3_3  and  N1_4 
REMARK    2  A    between atoms: C4_6  and  O1_7 
REMARK    3  A    between atoms: C4_6  and  C5_9 
REMARK    4  A    between atoms: C6_10  and  C7_11 
REMARK    5  A    between atoms: C8_12  and  C9_13 
REMARK    6  A    between atoms: C11_19  and  N3_20 
REMARK       I    between atoms: N3_20  and  C12_22 
REMARK    7  A    between atoms: C12_22  and  C13_24 
REMARK    8  A    between atoms: C13_24  and  O6_25 
REMARK    9  A    between atoms: C13_24  and  C14_27 
REMARK   10  A    between atoms: N9_39  and  N10_40 
REMARK       I    between atoms: N10_40  and  C18_42 
REMARK   11  A    between atoms: N14_49  and  C19_50 
REMARK   12  A    between atoms: C19_50  and  N15_51 
REMARK   13  A    between atoms: C24_56  and  C25_57 
ROOT
HETATM    1  C14 UNL     1       3.919   4.615  -5.250  1.00  0.00     0.165 C 
HETATM    2  C15 UNL     1       4.730   4.855  -6.473  1.00  0.00     0.062 C 
HETATM    3  N4  UNL     1       5.359   5.058  -7.401  1.00  0.00    -0.197 NA
ENDROOT
BRANCH   1   4
HETATM    4  C13 UNL     1       4.017   3.164  -4.935  1.00  0.00     0.223 C 
BRANCH   4   5
HETATM    5  C12 UNL     1       3.255   2.720  -3.742  1.00  0.00     0.248 C 
HETATM    6  N3  UNL     1       3.039   1.331  -3.489  1.00  0.00    -0.342 N 
ATOM      7  H3  UNL     1       3.428   0.651  -4.142  1.00  0.00     0.163 HD
HETATM    8  O5  UNL     1       2.768   3.507  -2.897  1.00  0.00    -0.271 OA
BRANCH   6   9
HETATM    9  C11 UNL     1       2.299   0.849  -2.356  1.00  0.00     0.220 C 
HETATM   10  C10 UNL     1       2.273  -0.665  -2.315  1.00  0.00     0.253 C 
HETATM   11  N2  UNL     1       2.787  -0.587  -1.021  1.00  0.00    -0.284 N 
HETATM   12  O4  UNL     1       1.902  -1.508  -3.190  1.00  0.00    -0.270 OA
HETATM   13  C8  UNL     1       2.959  -1.226   0.280  1.00  0.00     0.132 C 
HETATM   14  C16 UNL     1       3.308   0.753  -1.183  1.00  0.00     0.225 C 
HETATM   15  C7  UNL     1       2.727  -0.489   1.348  1.00  0.00     0.069 C 
HETATM   16  C17 UNL     1       2.767   0.989   1.120  1.00  0.00     0.129 C 
HETATM   17  N5  UNL     1       3.026   1.505  -0.031  1.00  0.00    -0.354 N 
HETATM   18  N6  UNL     1       2.501   1.805   2.256  1.00  0.00    -0.082 NA
ATOM     19  H5  UNL     1       3.026   2.522  -0.111  1.00  0.00     0.163 HD
BRANCH  13  20
HETATM   20  C9  UNL     1       3.231  -2.649   0.291  1.00  0.00     0.228 C 
HETATM   21  O2  UNL     1       3.336  -3.384   1.281  1.00  0.00    -0.643 OA
HETATM   22  O3  UNL     1       3.397  -3.296  -0.958  1.00  0.00    -0.643 OA
ENDBRANCH  13  20
BRANCH  15  23
HETATM   23  C6  UNL     1       2.669  -0.976   2.708  1.00  0.00     0.100 A 
HETATM   24  C5  UNL     1       1.855  -1.798   3.455  1.00  0.00     0.156 A 
HETATM   25  N9  UNL     1       2.491  -1.941   4.677  1.00  0.00    -0.172 N 
HETATM   26  N8  UNL     1       3.596  -1.250   4.645  1.00  0.00    -0.220 N 
HETATM   27  N7  UNL     1       3.753  -0.659   3.511  1.00  0.00    -0.281 N 
ATOM     28  H8  UNL     1       4.254  -1.185   5.421  1.00  0.00     0.210 HD
ATOM     29  H7  UNL     1       4.538  -0.062   3.250  1.00  0.00     0.188 HD
BRANCH  24  30
HETATM   30  C4  UNL     1       0.740  -2.547   3.023  1.00  0.00     0.175 C 
HETATM   31  N1  UNL     1      -0.234  -2.420   2.088  1.00  0.00    -0.318 N 
ATOM     32  H1  UNL     1      -0.684  -3.291   1.808  1.00  0.00     0.169 HD
BRANCH  31  33
HETATM   33  C3  UNL     1      -0.719  -1.253   1.442  1.00  0.00     0.147 A 
HETATM   34  C2  UNL     1      -1.597  -1.232   0.338  1.00  0.00     0.073 A 
HETATM   35  C1  UNL     1      -2.001  -2.443  -0.390  1.00  0.00     0.074 C 
HETATM   36  N14 UNL     1      -1.965   0.010   0.132  1.00  0.00    -0.261 N 
HETATM   37  N13 UNL     1      -1.366   0.762   1.044  1.00  0.00    -0.237 N 
HETATM   38  N12 UNL     1      -0.643   0.015   1.800  1.00  0.00    -0.269 N 
ATOM     39  H13 UNL     1      -1.463   1.774   1.132  1.00  0.00     0.208 HD
ATOM     40  H12 UNL     1      -0.081   0.359   2.579  1.00  0.00     0.190 HD
BRANCH  36  41
HETATM   41  C19 UNL     1      -2.860   0.477  -0.930  1.00  0.00     0.275 C 
BRANCH  41  42
HETATM   42  N15 UNL     1      -4.219   0.377  -0.591  1.00  0.00    -0.361 N 
HETATM   43  C20 UNL     1      -4.700   0.950   0.597  1.00  0.00     0.061 C 
HETATM   44  C21 UNL     1      -6.021   0.376   1.051  1.00  0.00     0.044 C 
HETATM   45  C22 UNL     1      -6.505  -0.777   0.239  1.00  0.00     0.008 C 
HETATM   46  C23 UNL     1      -6.271  -0.701  -1.217  1.00  0.00     0.037 C 
HETATM   47  C24 UNL     1      -5.159   0.200  -1.632  1.00  0.00     0.186 C 
BRANCH  47  48
HETATM   48  C25 UNL     1      -5.679   1.421  -2.258  1.00  0.00     0.196 C 
HETATM   49  O8  UNL     1      -6.533   1.406  -3.156  1.00  0.00    -0.646 OA
HETATM   50  O9  UNL     1      -5.223   2.703  -1.864  1.00  0.00    -0.646 OA
ENDBRANCH  47  48
ENDBRANCH  41  42
ENDBRANCH  36  41
ENDBRANCH  31  33
BRANCH  30  51
HETATM   51  O1  UNL     1       0.601  -3.692   3.718  1.00  0.00    -0.344 OA
ATOM     52  H1  UNL     1       1.283  -3.781   4.373  1.00  0.00     0.219 HD
ENDBRANCH  30  51
ENDBRANCH  24  30
BRANCH  25  53
HETATM   53  N10 UNL     1       2.023  -2.642   5.777  1.00  0.00    -0.231 N 
HETATM   54  C18 UNL     1       2.832  -2.682   6.985  1.00  0.00     0.348 C 
HETATM   55  N11 UNL     1       2.298  -3.401   8.097  1.00  0.00    -0.038 NA
HETATM   56  O7  UNL     1       3.920  -2.130   7.070  1.00  0.00    -0.249 OA
ATOM     57  H10 UNL     1       1.124  -3.123   5.740  1.00  0.00     0.193 HD
ENDBRANCH  25  53
ENDBRANCH  15  23
ENDBRANCH   6   9
ENDBRANCH   4   5
BRANCH   4  58
HETATM   58  O6  UNL     1       3.816   2.290  -5.982  1.00  0.00    -0.385 OA
ATOM     59  H6  UNL     1       4.304   2.574  -6.746  1.00  0.00     0.210 HD
ENDBRANCH   4  58
ENDBRANCH   1   4
TORSDOF 13
