REMARK  13 active torsions:
REMARK  status: ('A' for Active; 'I' for Inactive)
REMARK    1  A    between atoms: C3_3  and  S1_4 
REMARK    2  A    between atoms: S1_4  and  C4_5 
REMARK    3  A    between atoms: C5_10  and  N3_11 
REMARK    4  A    between atoms: N3_11  and  C6_13 
REMARK    5  A    between atoms: C7_16  and  N5_17 
REMARK    6  A    between atoms: C8_22  and  N7_23 
REMARK    7  A    between atoms: C10_25  and  C11_26 
REMARK    8  A    between atoms: C11_26  and  N8_27 
REMARK       I    between atoms: N8_27  and  C12_29 
REMARK    9  A    between atoms: C12_29  and  C13_31 
REMARK   10  A    between atoms: C13_31  and  C14_32 
REMARK   11  A    between atoms: C13_31  and  N11_43 
REMARK   12  A    between atoms: C14_32  and  N9_33 
REMARK   13  A    between atoms: N12_47  and  C21_49 
ROOT
HETATM    1  C1  UNL     1     -10.555   4.723   0.672  1.00  0.00     0.013 C 
HETATM    2  C2  UNL     1     -10.645   3.854  -0.158  1.00  0.00    -0.107 C 
HETATM    3  C3  UNL     1     -10.768   2.808  -1.178  1.00  0.00     0.175 C 
ENDROOT
BRANCH   3   4
HETATM    4  S1  UNL     1     -11.136   1.224  -0.419  1.00  0.00    -0.080 SA
BRANCH   4   5
HETATM    5  C4  UNL     1      -9.707   0.732   0.562  1.00  0.00     0.175 A 
HETATM    6  N1  UNL     1      -9.577  -0.393   1.287  1.00  0.00    -0.265 N 
HETATM    7  N2  UNL     1      -8.398  -0.419   1.872  1.00  0.00    -0.129 N 
ATOM      8  H1  UNL     1     -10.288  -1.120   1.371  1.00  0.00     0.189 HD
HETATM    9  C5  UNL     1      -7.732   0.713   1.527  1.00  0.00     0.713 A 
ATOM     10  H2  UNL     1      -8.046  -1.160   2.478  1.00  0.00     0.205 HD
HETATM   11  N17 UNL     1      -8.547   1.397   0.731  1.00  0.00    -0.167 N 
ATOM     12  H17 UNL     1      -8.326   2.298   0.308  1.00  0.00     0.186 HD
BRANCH   9  13
HETATM   13  N3  UNL     1      -6.439   1.039   1.960  1.00  0.00    -0.020 N 
ATOM     14  H3  UNL     1      -6.320   1.436   2.892  1.00  0.00     0.203 HD
BRANCH  13  15
HETATM   15  C6  UNL     1      -5.394   0.857   1.226  1.00  0.00     0.714 C 
HETATM   16  N4  UNL     1      -5.579   0.328  -0.010  1.00  0.00    -0.022 N 
HETATM   17  C7  UNL     1      -4.677   0.080  -0.976  1.00  0.00     0.692 C 
ATOM     18  H4  UNL     1      -6.542   0.083  -0.240  1.00  0.00     0.203 HD
HETATM   19  N6  UNL     1      -3.323  -0.052  -0.858  1.00  0.00    -0.169 N 
HETATM   20  C8  UNL     1      -2.588   0.029   0.290  1.00  0.00     0.211 C 
ATOM     21  H6  UNL     1      -2.806  -0.230  -1.719  1.00  0.00     0.186 HD
HETATM   22  C23 UNL     1      -2.951   0.775   1.390  1.00  0.00     0.306 C 
HETATM   23  O7  UNL     1      -1.999   1.075   2.129  1.00  0.00    -0.263 OA
HETATM   24  N16 UNL     1      -4.201   1.202   1.738  1.00  0.00    -0.152 N 
ATOM     25  H16 UNL     1      -4.233   1.882   2.498  1.00  0.00     0.187 HD
BRANCH  17  26
HETATM   26  N5  UNL     1      -5.086  -0.060  -2.182  1.00  0.00    -0.234 N 
ATOM     27  H52 UNL     1      -6.097   0.039  -2.270  1.00  0.00     0.174 HD
ATOM     28  H51 UNL     1      -4.402  -0.248  -2.915  1.00  0.00     0.174 HD
ENDBRANCH  17  26
BRANCH  20  29
HETATM   29  N7  UNL     1      -1.376  -0.713   0.327  1.00  0.00    -0.244 N 
HETATM   30  C9  UNL     1      -0.151  -0.317  -0.055  1.00  0.00     0.131 A 
HETATM   31  C10 UNL     1       0.674  -1.399   0.179  1.00  0.00     0.023 A 
HETATM   32  C20 UNL     1      -0.064  -2.426   0.696  1.00  0.00     0.145 A 
HETATM   33  N12 UNL     1       0.253  -3.589   1.056  1.00  0.00    -0.173 N 
HETATM   34  N15 UNL     1      -1.339  -1.955   0.772  1.00  0.00    -0.277 N 
ATOM     35  H12 UNL     1      -0.533  -4.135   1.410  1.00  0.00     0.186 HD
ATOM     36  H15 UNL     1      -2.141  -2.481   1.119  1.00  0.00     0.189 HD
BRANCH  31  37
HETATM   37  C11 UNL     1       2.123  -1.429  -0.091  1.00  0.00     0.166 C 
BRANCH  37  38
HETATM   38  N8  UNL     1       2.627  -0.172  -0.647  1.00  0.00    -0.355 N 
HETATM   39  C12 UNL     1       3.996  -0.049  -0.962  1.00  0.00     0.248 C 
HETATM   40  O1  UNL     1       4.735  -1.065  -0.747  1.00  0.00    -0.271 OA
ATOM     41  H8  UNL     1       1.992   0.610  -0.806  1.00  0.00     0.162 HD
BRANCH  39  42
HETATM   42  C13 UNL     1       4.552   1.191  -1.517  1.00  0.00     0.265 C 
BRANCH  42  43
HETATM   43  C14 UNL     1       5.694   1.791  -0.775  1.00  0.00     0.174 C 
BRANCH  43  44
HETATM   44  N9  UNL     1       6.874   1.027  -0.621  1.00  0.00    -0.306 N 
HETATM   45  C15 UNL     1       7.098   0.271   0.485  1.00  0.00     0.108 A 
HETATM   46  C16 UNL     1       8.238  -0.460   0.688  1.00  0.00     0.022 A 
HETATM   47  C17 UNL     1       8.474  -1.286   1.900  1.00  0.00     0.056 C 
HETATM   48  C18 UNL     1       9.196  -0.410  -0.300  1.00  0.00     0.256 A 
HETATM   49  O2  UNL     1      10.270  -1.063  -0.170  1.00  0.00    -0.267 OA
HETATM   50  N10 UNL     1       8.946   0.346  -1.381  1.00  0.00    -0.275 N 
HETATM   51  C19 UNL     1       7.831   1.061  -1.579  1.00  0.00     0.329 A 
ATOM     52  H10 UNL     1       9.661   0.378  -2.108  1.00  0.00     0.173 HD
HETATM   53  O3  UNL     1       7.683   1.746  -2.634  1.00  0.00    -0.246 OA
ENDBRANCH  43  44
ENDBRANCH  42  43
BRANCH  42  54
HETATM   54  N11 UNL     1       3.476   2.196  -1.549  1.00  0.00    -0.140 N 
HETATM   55  O4  UNL     1       3.005   2.615  -2.624  1.00  0.00    -0.536 OA
HETATM   56  O5  UNL     1       2.937   2.721  -0.381  1.00  0.00    -0.536 OA
ENDBRANCH  42  54
ENDBRANCH  39  42
ENDBRANCH  37  38
ENDBRANCH  31  37
BRANCH  33  57
HETATM   57  C21 UNL     1       1.455  -4.276   1.068  1.00  0.00     0.705 A 
HETATM   58  N13 UNL     1       1.955  -5.115   0.112  1.00  0.00    -0.178 N 
HETATM   59  C22 UNL     1       3.144  -5.592   0.513  1.00  0.00     0.276 A 
ATOM     60  H13 UNL     1       1.496  -5.343  -0.770  1.00  0.00     0.185 HD
HETATM   61  O6  UNL     1       3.390  -5.064   1.697  1.00  0.00    -0.218 OA
HETATM   62  N14 UNL     1       2.409  -4.294   2.031  1.00  0.00    -0.090 N 
ATOM     63  H14 UNL     1       2.358  -3.769   2.904  1.00  0.00     0.213 HD
ENDBRANCH  33  57
ENDBRANCH  20  29
ENDBRANCH  13  15
ENDBRANCH   9  13
ENDBRANCH   4   5
ENDBRANCH   3   4
TORSDOF 13
