REMARK  15 active torsions:
REMARK  status: ('A' for Active; 'I' for Inactive)
REMARK    1  A    between atoms: O1_2  and  C2_3 
REMARK    2  A    between atoms: C2_3  and  C3_5 
REMARK    3  A    between atoms: C3_5  and  N1_6 
REMARK    4  A    between atoms: C4_7  and  C5_8 
REMARK    5  A    between atoms: C13_27  and  C14_28 
REMARK       I    between atoms: C14_28  and  N6_30 
REMARK    6  A    between atoms: N6_30  and  C15_32 
REMARK    7  A    between atoms: C15_32  and  O8_33 
REMARK    8  A    between atoms: C15_32  and  C16_35 
REMARK    9  A    between atoms: C16_35  and  N7_36 
REMARK   10  A    between atoms: C16_35  and  C18_42 
REMARK   11  A    between atoms: N7_36  and  N8_38 
REMARK   12  A    between atoms: N8_38  and  O9_40 
REMARK   13  A    between atoms: C20_44  and  C21_45 
REMARK   14  A    between atoms: C21_45  and  O10_47 
REMARK   15  A    between atoms: C23_49  and  S2_50 
ROOT
HETATM    1  N1  UNL     1      -3.445   1.555   0.927  1.00  0.00    -0.239 NA
HETATM    2  C4  UNL     1      -4.410   0.831   1.730  1.00  0.00     0.175 C 
HETATM    3  C6  UNL     1      -3.892  -0.190   2.691  1.00  0.00     0.113 C 
HETATM    4  S1  UNL     1      -3.824  -1.819   1.854  1.00  0.00    -0.091 SA
HETATM    5  C7  UNL     1      -3.621  -1.517   0.080  1.00  0.00     0.154 A 
HETATM    6  N2  UNL     1      -4.038  -2.328  -0.889  1.00  0.00    -0.320 N 
ATOM      7  H2  UNL     1      -4.482  -3.240  -0.784  1.00  0.00     0.169 HD
HETATM    8  C8  UNL     1      -3.745  -1.679  -2.055  1.00  0.00     0.146 A 
HETATM    9  C9  UNL     1      -3.138  -0.451  -1.777  1.00  0.00     0.156 A 
HETATM   10  C10 UNL     1      -2.784   0.390  -2.801  1.00  0.00     0.280 A 
HETATM   11  O5  UNL     1      -2.250   1.504  -2.577  1.00  0.00    -0.265 OA
HETATM   12  N3  UNL     1      -3.029  -0.001  -4.072  1.00  0.00    -0.273 N 
ATOM     13  H3  UNL     1      -2.769   0.615  -4.843  1.00  0.00     0.173 HD
HETATM   14  C11 UNL     1      -3.607  -1.182  -4.341  1.00  0.00     0.330 A 
HETATM   15  O6  UNL     1      -3.841  -1.561  -5.533  1.00  0.00    -0.246 OA
HETATM   16  N4  UNL     1      -3.958  -2.004  -3.337  1.00  0.00    -0.287 N 
HETATM   17  C12 UNL     1      -4.591  -3.292  -3.622  1.00  0.00     0.163 C 
HETATM   18  N5  UNL     1      -3.064  -0.370  -0.441  1.00  0.00    -0.269 N 
HETATM   19  C13 UNL     1      -2.477   0.699   0.367  1.00  0.00     0.162 C 
ENDROOT
BRANCH  19  20
HETATM   20  C14 UNL     1      -1.119   1.075   0.063  1.00  0.00     0.282 C 
HETATM   21  O7  UNL     1      -0.530   2.162   0.045  1.00  0.00    -0.265 OA
HETATM   22  N6  UNL     1      -0.242  -0.037  -0.292  1.00  0.00    -0.327 N 
ATOM     23  H6  UNL     1      -0.628  -0.981  -0.308  1.00  0.00     0.165 HD
BRANCH  22  24
HETATM   24  C15 UNL     1       1.147   0.148  -0.620  1.00  0.00     0.246 C 
BRANCH  24  25
HETATM   25  O8  UNL     1       1.452  -0.262  -1.907  1.00  0.00    -0.374 OA
ATOM     26  H8  UNL     1       2.369  -0.140  -2.124  1.00  0.00     0.212 HD
ENDBRANCH  24  25
BRANCH  24  27
HETATM   27  C16 UNL     1       2.065  -0.520   0.403  1.00  0.00     0.173 C 
BRANCH  27  28
HETATM   28  N7  UNL     1       1.977  -1.937   0.386  1.00  0.00    -0.321 N 
ATOM     29  H7  UNL     1       1.688  -2.464   1.210  1.00  0.00     0.177 HD
BRANCH  28  30
HETATM   30  N8  UNL     1       2.300  -2.564  -0.792  1.00  0.00    -0.116 NA
HETATM   31  C17 UNL     1       1.365  -3.599  -1.190  1.00  0.00     0.170 C 
BRANCH  30  32
HETATM   32  O9  UNL     1       3.517  -3.157  -0.669  1.00  0.00    -0.294 OA
ATOM     33  H9  UNL     1       3.740  -3.591  -1.484  1.00  0.00     0.239 HD
ENDBRANCH  30  32
ENDBRANCH  28  30
ENDBRANCH  27  28
BRANCH  27  34
HETATM   34  C18 UNL     1       3.419   0.075   0.325  1.00  0.00     0.151 C 
HETATM   35  C19 UNL     1       4.313  -0.184   1.497  1.00  0.00     0.045 C 
HETATM   36  C20 UNL     1       5.668   0.166   0.915  1.00  0.00     0.055 C 
HETATM   37  C23 UNL     1       5.437   0.229  -0.564  1.00  0.00     0.189 C 
HETATM   38  O11 UNL     1       4.149  -0.243  -0.815  1.00  0.00    -0.368 OA
BRANCH  36  39
HETATM   39  C21 UNL     1       6.724  -0.819   1.308  1.00  0.00     0.121 C 
HETATM   40  C22 UNL     1       6.880  -0.873   2.810  1.00  0.00     0.040 C 
BRANCH  39  41
HETATM   41  O10 UNL     1       6.399  -2.102   0.866  1.00  0.00    -0.395 OA
ATOM     42  H10 UNL     1       7.069  -2.727   1.115  1.00  0.00     0.210 HD
ENDBRANCH  39  41
ENDBRANCH  36  39
BRANCH  37  43
HETATM   43  S2  UNL     1       5.468   1.967  -1.134  1.00  0.00    -0.141 SA
HETATM   44  C24 UNL     1       7.109   2.671  -0.934  1.00  0.00     0.092 C 
ENDBRANCH  37  43
ENDBRANCH  27  34
ENDBRANCH  24  27
ENDBRANCH  22  24
ENDBRANCH  19  20
BRANCH   1  45
HETATM   45  C3  UNL     1      -2.932   2.669   1.627  1.00  0.00     0.209 C 
BRANCH  45  46
HETATM   46  C2  UNL     1      -3.915   3.779   1.880  1.00  0.00     0.272 C 
HETATM   47  O2  UNL     1      -3.619   4.766   2.594  1.00  0.00    -0.264 OA
BRANCH  46  48
HETATM   48  O1  UNL     1      -5.173   3.752   1.335  1.00  0.00    -0.326 OA
HETATM   49  C1  UNL     1      -6.101   4.795   1.569  1.00  0.00     0.213 C 
ENDBRANCH  46  48
ENDBRANCH  45  46
ENDBRANCH   1  45
BRANCH   2  50
HETATM   50  C5  UNL     1      -5.649   0.441   1.059  1.00  0.00     0.192 C 
HETATM   51  O3  UNL     1      -5.940   0.820  -0.079  1.00  0.00    -0.647 OA
HETATM   52  O4  UNL     1      -6.540  -0.387   1.714  1.00  0.00    -0.647 OA
ENDBRANCH   2  50
TORSDOF 15
