REMARK  7 active torsions:
REMARK  status: ('A' for Active; 'I' for Inactive)
REMARK    1  A    between atoms: N1_1  and  N2_4 
REMARK    2  A    between atoms: N2_4  and  N3_5 
REMARK    3  A    between atoms: N3_5  and  C1_7 
REMARK    4  A    between atoms: C1_7  and  C2_8 
REMARK    5  A    between atoms: C2_8  and  N4_9 
REMARK    6  A    between atoms: N7_16  and  N8_17 
REMARK    7  A    between atoms: C4_20  and  N9_21 
ROOT
HETATM    1  N4  UNL     1      -0.098  -0.495   0.398  1.00  0.00    -0.106 N 
HETATM    2  N5  UNL     1      -0.830   0.018   1.381  1.00  0.00    -0.114 N 
ATOM      3  H5  UNL     1      -0.538   0.121   2.353  1.00  0.00     0.206 HD
HETATM    4  C3  UNL     1      -2.035   0.381   0.869  1.00  0.00     0.727 A 
HETATM    5  N6  UNL     1      -3.004   0.915   1.528  1.00  0.00    -0.231 N 
ATOM      6  H61 UNL     1      -3.909   1.188   1.144  1.00  0.00     0.174 HD
ATOM      7  H62 UNL     1      -2.992   1.135   2.524  1.00  0.00     0.174 HD
HETATM    8  N7  UNL     1      -2.051   0.092  -0.442  1.00  0.00     0.085 N 
HETATM    9  C4  UNL     1      -0.854  -0.448  -0.725  1.00  0.00     0.729 A 
ENDROOT
BRANCH   1  10
HETATM   10  C2  UNL     1       1.254  -1.013   0.488  1.00  0.00     0.191 C 
BRANCH  10  11
HETATM   11  C1  UNL     1       2.189   0.144   0.217  1.00  0.00     0.178 C 
BRANCH  11  12
HETATM   12  N3  UNL     1       3.579  -0.248   0.278  1.00  0.00    -0.251 N 
ATOM     13  H3  UNL     1       3.861  -1.198   0.520  1.00  0.00     0.197 HD
BRANCH  12  14
HETATM   14  N2  UNL     1       4.403   0.629   0.021  1.00  0.00    -0.249 NA
BRANCH  14  15
HETATM   15  N1  UNL     1       5.223   1.519  -0.262  1.00  0.00    -0.261 N 
ATOM     16  H12 UNL     1       4.421   1.144  -0.769  1.00  0.00     0.193 HD
ATOM     17  H11 UNL     1       5.906   2.246  -0.475  1.00  0.00     0.193 HD
ENDBRANCH  14  15
ENDBRANCH  12  14
ENDBRANCH  11  12
ENDBRANCH  10  11
ENDBRANCH   1  10
BRANCH   9  18
HETATM   18  N9  UNL     1      -0.491  -0.856  -1.893  1.00  0.00    -0.231 N 
ATOM     19  H92 UNL     1       0.418  -1.266  -2.108  1.00  0.00     0.174 HD
ATOM     20  H91 UNL     1      -1.060  -0.821  -2.739  1.00  0.00     0.174 HD
ENDBRANCH   9  18
BRANCH   8  21
HETATM   21  N8  UNL     1      -3.103   0.310  -1.325  1.00  0.00    -0.309 N 
ATOM     22  H82 UNL     1      -4.012   0.720  -1.110  1.00  0.00     0.178 HD
ATOM     23  H81 UNL     1      -3.115   0.090  -2.321  1.00  0.00     0.178 HD
ENDBRANCH   8  21
TORSDOF 7
