REMARK  10 active torsions:
REMARK  status: ('A' for Active; 'I' for Inactive)
REMARK    1  A    between atoms: N2_3  and  C2_5 
REMARK    2  A    between atoms: C3_8  and  N4_9 
REMARK    3  A    between atoms: N4_9  and  C4_11 
REMARK    4  A    between atoms: C4_11  and  C5_12 
REMARK    5  A    between atoms: C4_11  and  N9_25 
REMARK    6  A    between atoms: C7_17  and  N7_18 
REMARK    7  A    between atoms: C9_30  and  C10_31 
REMARK    8  A    between atoms: C11_41  and  C12_42 
REMARK    9  A    between atoms: C12_42  and  O2_43 
REMARK   10  A    between atoms: C12_42  and  O3_45 
ROOT
HETATM    1  N1  UNL     1      -5.844  -1.708   3.411  1.00  0.00    -0.172 NA
HETATM    2  C1  UNL     1      -4.777  -1.421   3.118  1.00  0.00     0.185 C 
HETATM    3  N2  UNL     1      -3.504  -1.063   2.750  1.00  0.00    -0.258 N 
ATOM      4  H2  UNL     1      -2.830  -0.882   3.494  1.00  0.00     0.181 HD
ENDROOT
BRANCH   3   5
HETATM    5  C2  UNL     1      -3.097  -0.938   1.531  1.00  0.00     0.239 A 
HETATM    6  N3  UNL     1      -1.837  -0.583   1.134  1.00  0.00    -0.305 N 
HETATM    7  C3  UNL     1      -1.778  -0.554  -0.195  1.00  0.00     0.141 A 
ATOM      8  H3  UNL     1      -1.061  -0.373   1.761  1.00  0.00     0.171 HD
HETATM    9  C11 UNL     1      -3.049  -0.904  -0.630  1.00  0.00     0.154 A 
HETATM   10  O4  UNL     1      -3.775  -1.117   0.450  1.00  0.00    -0.274 OA
BRANCH   7  11
HETATM   11  N4  UNL     1      -0.694  -0.246  -1.035  1.00  0.00    -0.346 N 
ATOM     12  H4  UNL     1      -0.875  -0.291  -2.038  1.00  0.00     0.163 HD
BRANCH  11  13
HETATM   13  C4  UNL     1       0.642   0.126  -0.648  1.00  0.00     0.270 C 
BRANCH  13  14
HETATM   14  C5  UNL     1       0.603   1.366   0.150  1.00  0.00     0.097 A 
HETATM   15  C6  UNL     1      -0.125   2.418  -0.419  1.00  0.00     0.147 A 
HETATM   16  N5  UNL     1      -0.787   2.275  -1.674  1.00  0.00    -0.081 NA
HETATM   17  N6  UNL     1      -0.232   3.604   0.190  1.00  0.00    -0.178 N 
HETATM   18  C7  UNL     1       0.361   3.807   1.365  1.00  0.00     0.680 A 
ATOM     19  H6  UNL     1      -0.768   4.354  -0.246  1.00  0.00     0.185 HD
HETATM   20  N8  UNL     1       1.065   2.816   1.931  1.00  0.00    -0.156 N 
HETATM   21  C8  UNL     1       1.195   1.598   1.342  1.00  0.00     0.273 A 
ATOM     22  H8  UNL     1       1.517   2.981   2.831  1.00  0.00     0.187 HD
HETATM   23  O1  UNL     1       1.851   0.689   1.882  1.00  0.00    -0.267 OA
BRANCH  18  24
HETATM   24  N7  UNL     1       0.249   4.969   1.947  1.00  0.00    -0.234 N 
ATOM     25  H72 UNL     1      -0.287   5.723   1.516  1.00  0.00     0.174 HD
ATOM     26  H71 UNL     1       0.703   5.124   2.847  1.00  0.00     0.174 HD
ENDBRANCH  18  24
ENDBRANCH  13  14
BRANCH  13  27
HETATM   27  N9  UNL     1       1.441  -0.934  -0.135  1.00  0.00    -0.189 N 
HETATM   28  N10 UNL     1       1.168  -1.971   0.638  1.00  0.00    -0.222 N 
HETATM   29  N11 UNL     1       2.225  -2.725   0.857  1.00  0.00    -0.265 N 
ATOM     30  H10 UNL     1       0.243  -2.165   1.022  1.00  0.00     0.210 HD
HETATM   31  C9  UNL     1       3.241  -2.175   0.208  1.00  0.00     0.184 A 
ATOM     32  H11 UNL     1       2.256  -3.574   1.421  1.00  0.00     0.190 HD
HETATM   33  N16 UNL     1       2.748  -1.080  -0.394  1.00  0.00    -0.261 N 
ATOM     34  H16 UNL     1       3.296  -0.443  -0.972  1.00  0.00     0.190 HD
BRANCH  31  35
HETATM   35  C10 UNL     1       4.633  -2.620   0.127  1.00  0.00     0.181 A 
HETATM   36  N12 UNL     1       5.179  -3.701   0.705  1.00  0.00    -0.264 N 
HETATM   37  N13 UNL     1       6.462  -3.721   0.368  1.00  0.00    -0.005 NA
ATOM     38  H12 UNL     1       4.697  -4.381   1.294  1.00  0.00     0.186 HD
HETATM   39  N14 UNL     1       6.752  -2.689  -0.406  1.00  0.00    -0.225 N 
HETATM   40  N15 UNL     1       5.626  -2.028  -0.543  1.00  0.00    -0.268 N 
ATOM     41  H14 UNL     1       7.659  -2.456  -0.811  1.00  0.00     0.205 HD
ATOM     42  H15 UNL     1       5.523  -1.173  -1.090  1.00  0.00     0.190 HD
ENDBRANCH  31  35
ENDBRANCH  13  27
ENDBRANCH  11  13
ENDBRANCH   7  11
BRANCH   9  43
HETATM   43  C12 UNL     1      -3.564  -1.035  -1.998  1.00  0.00     0.316 C 
BRANCH  43  44
HETATM   44  O2  UNL     1      -2.715  -1.721  -2.853  1.00  0.00    -0.365 OA
ATOM     45  H2  UNL     1      -3.048  -1.806  -3.739  1.00  0.00     0.213 HD
ENDBRANCH  43  44
BRANCH  43  46
HETATM   46  O3  UNL     1      -3.829   0.211  -2.567  1.00  0.00    -0.365 OA
ATOM     47  H3  UNL     1      -4.162   0.126  -3.453  1.00  0.00     0.213 HD
ENDBRANCH  43  46
ENDBRANCH   9  43
ENDBRANCH   3   5
TORSDOF 10
