REMARK  13 active torsions:
REMARK  status: ('A' for Active; 'I' for Inactive)
REMARK    1  A    between atoms: N1_1  and  C1_4 
REMARK    2  A    between atoms: C2_7  and  N3_8 
REMARK    3  A    between atoms: C4_12  and  C5_13 
REMARK    4  A    between atoms: C5_13  and  O1_14 
REMARK    5  A    between atoms: C5_13  and  O2_16 
REMARK    6  A    between atoms: C8_20  and  C9_21 
REMARK    7  A    between atoms: C9_21  and  O3_22 
REMARK    8  A    between atoms: C9_21  and  O4_24 
REMARK       I    between atoms: N4_30  and  C12_31 
REMARK    9  A    between atoms: C12_31  and  C13_33 
REMARK   10  A    between atoms: C13_33  and  O7_34 
REMARK   11  A    between atoms: N5_36  and  C14_37 
REMARK   12  A    between atoms: C14_37  and  O8_38 
REMARK   13  A    between atoms: C14_37  and  C15_40 
ROOT
HETATM    1  C1  UNL     1       4.905   0.431  -0.048  1.00  0.00     0.144 A 
HETATM    2  N2  UNL     1       4.297   1.440  -0.647  1.00  0.00    -0.323 N 
ATOM      3  H2  UNL     1       4.901   2.191  -0.981  1.00  0.00     0.169 HD
HETATM    4  C2  UNL     1       2.963   1.600  -0.873  1.00  0.00     0.113 A 
HETATM    5  C3  UNL     1       1.981   0.726  -0.521  1.00  0.00     0.039 A 
HETATM    6  C4  UNL     1       0.619   1.003  -0.749  1.00  0.00     0.041 A 
HETATM    7  C6  UNL     1      -0.434   0.218  -0.336  1.00  0.00     0.084 A 
HETATM    8  C7  UNL     1      -0.113  -0.977   0.341  1.00  0.00     0.075 A 
HETATM    9  C8  UNL     1       1.203  -1.311   0.571  1.00  0.00     0.032 A 
HETATM   10  C10 UNL     1       2.226  -0.466   0.144  1.00  0.00     0.035 A 
HETATM   11  S1  UNL     1       3.874  -0.805   0.501  1.00  0.00    -0.053 SA
HETATM   12  C11 UNL     1      -1.312  -1.508   0.676  1.00  0.00     0.282 A 
HETATM   13  O5  UNL     1      -1.351  -2.622   1.291  1.00  0.00    -0.265 OA
HETATM   14  N4  UNL     1      -2.307  -0.707   0.264  1.00  0.00    -0.179 N 
HETATM   15  C12 UNL     1      -3.645  -1.061   0.530  1.00  0.00     0.269 C 
HETATM   16  O6  UNL     1      -4.567  -0.424  -0.109  1.00  0.00    -0.269 OA
HETATM   17  N5  UNL     1      -1.787   0.373  -0.353  1.00  0.00    -0.239 N 
ENDROOT
BRANCH  17  18
HETATM   18  C14 UNL     1      -2.521   1.543  -0.659  1.00  0.00     0.344 C 
BRANCH  18  19
HETATM   19  O8  UNL     1      -3.528   1.415  -1.546  1.00  0.00    -0.366 OA
ATOM     20  H8  UNL     1      -4.021   2.201  -1.751  1.00  0.00     0.212 HD
ENDBRANCH  18  19
BRANCH  18  21
HETATM   21  C15 UNL     1      -3.188   2.123   0.614  1.00  0.00     0.226 C 
HETATM   22  O9  UNL     1      -4.279   2.662   0.490  1.00  0.00    -0.645 OA
HETATM   23  O10 UNL     1      -2.541   2.016   1.819  1.00  0.00    -0.645 OA
ENDBRANCH  18  21
ENDBRANCH  17  18
BRANCH   6  24
HETATM   24  C5  UNL     1       0.406   1.949  -1.862  1.00  0.00     0.291 C 
BRANCH  24  25
HETATM   25  O1  UNL     1      -0.594   1.311  -2.711  1.00  0.00    -0.367 OA
ATOM     26  H1  UNL     1      -0.731   1.920  -3.427  1.00  0.00     0.213 HD
ENDBRANCH  24  25
BRANCH  24  27
HETATM   27  O2  UNL     1       1.351   1.665  -2.956  1.00  0.00    -0.367 OA
ATOM     28  H2  UNL     1       1.214   2.274  -3.672  1.00  0.00     0.213 HD
ENDBRANCH  24  27
ENDBRANCH   6  24
BRANCH  15  29
HETATM   29  C13 UNL     1      -4.212  -2.052   1.436  1.00  0.00     0.269 C 
BRANCH  29  30
HETATM   30  O7  UNL     1      -3.521  -2.530   2.485  1.00  0.00    -0.392 OA
ATOM     31  H7  UNL     1      -3.891  -3.176   3.076  1.00  0.00     0.210 HD
ENDBRANCH  29  30
ENDBRANCH  15  29
BRANCH   9  32
HETATM   32  C9  UNL     1       1.614  -2.526   1.259  1.00  0.00     0.290 C 
BRANCH  32  33
HETATM   33  O3  UNL     1       2.640  -2.223   2.190  1.00  0.00    -0.367 OA
ATOM     34  H3  UNL     1       2.908  -3.016   2.639  1.00  0.00     0.213 HD
ENDBRANCH  32  33
BRANCH  32  35
HETATM   35  O4  UNL     1       2.242  -3.358   0.301  1.00  0.00    -0.367 OA
ATOM     36  H4  UNL     1       2.510  -4.151   0.750  1.00  0.00     0.213 HD
ENDBRANCH  32  35
ENDBRANCH   9  32
BRANCH   4  37
HETATM   37  N3  UNL     1       2.630   2.810  -1.322  1.00  0.00    -0.385 N 
ATOM     38  H32 UNL     1       3.366   3.465  -1.586  1.00  0.00     0.157 HD
ATOM     39  H31 UNL     1       1.631   2.930  -1.491  1.00  0.00     0.157 HD
ENDBRANCH   4  37
BRANCH   1  40
HETATM   40  N1  UNL     1       6.186   0.368   0.119  1.00  0.00    -0.380 N 
ATOM     41  H12 UNL     1       6.804   1.109  -0.210  1.00  0.00     0.158 HD
ATOM     42  H11 UNL     1       6.655  -0.411   0.581  1.00  0.00     0.158 HD
ENDBRANCH   1  40
TORSDOF 13
