REMARK  13 active torsions:
REMARK  status: ('A' for Active; 'I' for Inactive)
REMARK    1  A    between atoms: N1_1  and  C1_4 
REMARK    2  A    between atoms: C2_7  and  N3_8 
REMARK    3  A    between atoms: C3_9  and  C4_10 
REMARK    4  A    between atoms: C8_19  and  N7_20 
REMARK    5  A    between atoms: C9_25  and  N9_26 
REMARK    6  A    between atoms: N9_26  and  O1_28 
REMARK    7  A    between atoms: O1_28  and  C10_29 
REMARK    8  A    between atoms: C10_29  and  C11_30 
REMARK    9  A    between atoms: C10_29  and  C12_33 
REMARK   10  A    between atoms: C11_30  and  O2_31 
REMARK   11  A    between atoms: C12_33  and  O3_34 
REMARK   12  A    between atoms: C12_33  and  O4_36 
REMARK   13  A    between atoms: C14_43  and  N12_44 
ROOT
HETATM    1  N3  UNL     1      -1.490   0.537  -0.310  1.00  0.00     0.045 N 
HETATM    2  C3  UNL     1      -1.980   1.592  -0.897  1.00  0.00     0.180 A 
HETATM    3  N5  UNL     1      -0.952   2.350  -1.410  1.00  0.00    -0.247 N 
ATOM      4  H5  UNL     1      -1.047   3.228  -1.921  1.00  0.00     0.190 HD
HETATM    5  N6  UNL     1       0.174   1.738  -1.123  1.00  0.00     0.093 N 
HETATM    6  C8  UNL     1       1.457   2.081  -1.409  1.00  0.00     0.727 A 
HETATM    7  N8  UNL     1       2.407   1.237  -0.975  1.00  0.00    -0.018 N 
ATOM      8  H8  UNL     1       3.384   1.458  -1.168  1.00  0.00     0.203 HD
HETATM    9  C9  UNL     1       2.122   0.112  -0.296  1.00  0.00     0.731 A 
HETATM   10  N10 UNL     1       0.847  -0.215  -0.022  1.00  0.00    -0.017 N 
ATOM     11  H10 UNL     1       0.621  -1.067   0.491  1.00  0.00     0.203 HD
HETATM   12  C13 UNL     1      -0.120   0.616  -0.446  1.00  0.00     0.756 A 
ENDROOT
BRANCH   1  13
HETATM   13  C2  UNL     1      -2.137  -0.529   0.357  1.00  0.00     0.734 A 
HETATM   14  N2  UNL     1      -2.535  -1.677  -0.264  1.00  0.00    -0.020 N 
HETATM   15  C1  UNL     1      -3.122  -2.688   0.358  1.00  0.00     0.705 A 
ATOM     16  H2  UNL     1      -2.371  -1.761  -1.267  1.00  0.00     0.203 HD
HETATM   17  N13 UNL     1      -3.358  -2.624   1.661  1.00  0.00    -0.022 N 
HETATM   18  C14 UNL     1      -2.989  -1.515   2.338  1.00  0.00     0.705 A 
ATOM     19  H13 UNL     1      -3.811  -3.400   2.144  1.00  0.00     0.203 HD
HETATM   20  N11 UNL     1      -2.393  -0.495   1.698  1.00  0.00    -0.020 N 
ATOM     21  H11 UNL     1      -2.123   0.332   2.231  1.00  0.00     0.203 HD
BRANCH  15  22
HETATM   22  N1  UNL     1      -3.450  -3.722  -0.355  1.00  0.00    -0.234 N 
ATOM     23  H12 UNL     1      -3.268  -3.771  -1.358  1.00  0.00     0.174 HD
ATOM     24  H11 UNL     1      -3.902  -4.501   0.124  1.00  0.00     0.174 HD
ENDBRANCH  15  22
BRANCH  18  25
HETATM   25  N12 UNL     1      -3.237  -1.497   3.603  1.00  0.00    -0.234 N 
ATOM     26 2H12 UNL     1      -2.958  -0.660   4.114  1.00  0.00     0.174 HD
ATOM     27 1H12 UNL     1      -3.689  -2.271   4.089  1.00  0.00     0.174 HD
ENDBRANCH  18  25
ENDBRANCH   1  13
BRANCH   2  28
HETATM   28  C4  UNL     1      -3.387   1.996  -1.043  1.00  0.00     0.053 A 
HETATM   29  C5  UNL     1      -4.559   1.449  -0.645  1.00  0.00     0.050 A 
HETATM   30  C6  UNL     1      -5.703   2.091  -0.948  1.00  0.00     0.054 A 
HETATM   31  N4  UNL     1      -7.011   1.574  -0.559  1.00  0.00    -0.102 NA
HETATM   32  C7  UNL     1      -5.602   3.262  -1.642  1.00  0.00     0.077 A 
HETATM   33  S1  UNL     1      -3.924   3.435  -1.853  1.00  0.00    -0.096 SA
ENDBRANCH   2  28
BRANCH   6  34
HETATM   34  N7  UNL     1       1.726   3.159  -2.059  1.00  0.00    -0.232 N 
ATOM     35  H72 UNL     1       1.004   3.800  -2.389  1.00  0.00     0.174 HD
ATOM     36  H71 UNL     1       2.689   3.417  -2.274  1.00  0.00     0.174 HD
ENDBRANCH   6  34
BRANCH   9  37
HETATM   37  N9  UNL     1       3.062  -0.668   0.100  1.00  0.00    -0.095 N 
ATOM     38  H9  UNL     1       2.832  -1.519   0.614  1.00  0.00     0.213 HD
BRANCH  37  39
HETATM   39  O1  UNL     1       4.376  -0.363  -0.165  1.00  0.00    -0.254 OA
BRANCH  39  40
HETATM   40  C10 UNL     1       5.420  -1.146   0.390  1.00  0.00     0.231 C 
BRANCH  40  41
HETATM   41  C11 UNL     1       6.316  -0.317   1.295  1.00  0.00     0.203 C 
BRANCH  41  42
HETATM   42  O2  UNL     1       7.302  -1.152   1.792  1.00  0.00    -0.398 OA
ATOM     43  H2  UNL     1       7.862  -0.634   2.358  1.00  0.00     0.209 HD
ENDBRANCH  41  42
ENDBRANCH  40  41
BRANCH  40  44
HETATM   44  C12 UNL     1       6.294  -1.738  -0.684  1.00  0.00     0.287 C 
BRANCH  44  45
HETATM   45  O3  UNL     1       6.975  -0.708  -1.342  1.00  0.00    -0.369 OA
ATOM     46  H3  UNL     1       7.526  -1.081  -2.020  1.00  0.00     0.212 HD
ENDBRANCH  44  45
BRANCH  44  47
HETATM   47  O4  UNL     1       5.596  -2.557  -1.544  1.00  0.00    -0.369 OA
ATOM     48  H4  UNL     1       6.147  -2.930  -2.222  1.00  0.00     0.212 HD
ENDBRANCH  44  47
ENDBRANCH  40  44
ENDBRANCH  39  40
ENDBRANCH  37  39
ENDBRANCH   9  37
TORSDOF 13
