REMARK  6 active torsions:
REMARK  status: ('A' for Active; 'I' for Inactive)
REMARK    1  A    between atoms: N1_1  and  C1_5 
REMARK    2  A    between atoms: C1_5  and  N2_6 
REMARK    3  A    between atoms: C1_5  and  C2_10 
REMARK    4  A    between atoms: C2_10  and  C3_11 
REMARK    5  A    between atoms: N3_12  and  N4_14 
REMARK    6  A    between atoms: N4_14  and  C4_16 
ROOT
HETATM    1  C3  UNL     1      -0.400  -0.392   0.654  1.00  0.00     0.084 C 
HETATM    2  N3  UNL     1       0.694   0.071   1.145  1.00  0.00    -0.301 N 
ATOM      3  H3  UNL     1       0.771   1.051   1.419  1.00  0.00     0.186 HD
ENDROOT
BRANCH   2   4
HETATM    4  N4  UNL     1       1.773  -0.800   1.294  1.00  0.00    -0.130 N 
ATOM      5  H4  UNL     1       1.701  -1.625   1.890  1.00  0.00     0.205 HD
BRANCH   4   6
HETATM    6  C4  UNL     1       2.877  -0.533   0.652  1.00  0.00     0.728 A 
HETATM    7  N5  UNL     1       3.985  -1.270   0.697  1.00  0.00    -0.114 N 
HETATM    8  N6  UNL     1       4.885  -0.709  -0.062  1.00  0.00    -0.213 N 
ATOM      9  H5  UNL     1       4.109  -2.128   1.234  1.00  0.00     0.207 HD
HETATM   10  N7  UNL     1       4.365   0.375  -0.591  1.00  0.00    -0.213 N 
ATOM     11  H6  UNL     1       5.832  -1.054  -0.218  1.00  0.00     0.210 HD
HETATM   12  N8  UNL     1       3.121   0.504  -0.162  1.00  0.00    -0.114 N 
ATOM     13  H7  UNL     1       4.842   1.013  -1.228  1.00  0.00     0.210 HD
ATOM     14  H8  UNL     1       2.470   1.251  -0.404  1.00  0.00     0.207 HD
ENDBRANCH   4   6
ENDBRANCH   2   4
BRANCH   1  15
HETATM   15  C2  UNL     1      -1.524   0.574   0.514  1.00  0.00     0.108 C 
BRANCH  15  16
HETATM   16  C1  UNL     1      -2.442   0.037  -0.587  1.00  0.00     0.382 C 
BRANCH  16  17
HETATM   17  N1  UNL     1      -2.937  -1.255  -0.227  1.00  0.00    -0.050 N 
ATOM     18  H13 UNL     1      -3.560  -1.227   0.580  1.00  0.00     0.276 HD
ATOM     19  H12 UNL     1      -3.606  -1.623  -0.904  1.00  0.00     0.276 HD
ATOM     20  H11 UNL     1      -2.138  -1.874  -0.087  1.00  0.00     0.276 HD
ENDBRANCH  16  17
BRANCH  16  21
HETATM   21  N2  UNL     1      -3.575   0.915  -0.786  1.00  0.00    -0.050 N 
ATOM     22  H23 UNL     1      -4.244   0.547  -1.463  1.00  0.00     0.276 HD
ATOM     23  H22 UNL     1      -4.198   0.943   0.021  1.00  0.00     0.276 HD
ATOM     24  H21 UNL     1      -3.222   1.837  -1.043  1.00  0.00     0.276 HD
ENDBRANCH  16  21
ENDBRANCH  15  16
ENDBRANCH   1  15
TORSDOF 6
