REMARK  3 active torsions:
REMARK  status: ('A' for Active; 'I' for Inactive)
REMARK    1  A    between atoms: C1_1  and  C4_9 
REMARK    2  A    between atoms: N1_2  and  O1_4 
REMARK    3  A    between atoms: O1_4  and  C2_5 
ROOT
HETATM    1  C1  UNL     1       1.273  -1.114  -0.279  1.00  0.00     0.165 C 
HETATM    2  N1  UNL     1       0.514  -0.107  -0.142  1.00  0.00    -0.272 N 
ATOM      3  H1  UNL     1       0.952   0.745   0.207  1.00  0.00     0.193 HD
ENDROOT
BRANCH   1   4
HETATM    4  C4  UNL     1       2.681  -1.007   0.057  1.00  0.00     0.154 A 
HETATM    5  N4  UNL     1       3.760  -1.837   0.042  1.00  0.00    -0.269 N 
HETATM    6  N5  UNL     1       4.567  -0.901   0.494  1.00  0.00    -0.239 N 
ATOM      7  H4  UNL     1       3.893  -2.814  -0.220  1.00  0.00     0.190 HD
HETATM    8  N6  UNL     1       3.538  -0.074   0.519  1.00  0.00    -0.269 N 
ATOM      9  H5  UNL     1       5.559  -0.841   0.725  1.00  0.00     0.208 HD
ATOM     10  H6  UNL     1       3.431   0.904   0.787  1.00  0.00     0.190 HD
ENDBRANCH   1   4
BRANCH   2  11
HETATM   11  O1  UNL     1      -0.808  -0.035  -0.406  1.00  0.00    -0.256 OA
BRANCH  11  12
HETATM   12  C2  UNL     1      -1.721   0.794   0.277  1.00  0.00     0.276 C 
HETATM   13  C3  UNL     1      -2.991   0.047   0.628  1.00  0.00     0.183 C 
HETATM   14  N2  UNL     1      -3.791   1.148   0.077  1.00  0.00    -0.142 NA
HETATM   15  N3  UNL     1      -2.617   1.557  -0.592  1.00  0.00    -0.112 NA
ENDBRANCH  11  12
ENDBRANCH   2  11
TORSDOF 3
