REMARK  6 active torsions:
REMARK  status: ('A' for Active; 'I' for Inactive)
REMARK    1  A    between atoms: N1_1  and  C1_4 
REMARK    2  A    between atoms: C2_10  and  C3_11 
REMARK    3  A    between atoms: C3_11  and  N4_12 
REMARK    4  A    between atoms: C3_11  and  C4_16 
REMARK    5  A    between atoms: C4_16  and  N5_17 
REMARK    6  A    between atoms: C4_16  and  O2_21 
ROOT
HETATM    1  C3  UNL     1      -0.279  -0.547   0.261  1.00  0.00     0.294 C 
ENDROOT
BRANCH   1   2
HETATM    2  C2  UNL     1       0.793   0.450   0.072  1.00  0.00     0.114 A 
HETATM    3  C1  UNL     1       2.152   0.215  -0.015  1.00  0.00     0.148 A 
HETATM    4  N2  UNL     1       2.760   1.417  -0.171  1.00  0.00    -0.224 N 
HETATM    5  O1  UNL     1       1.828   2.341  -0.181  1.00  0.00    -0.155 OA
ATOM      6  H2  UNL     1       3.763   1.575  -0.264  1.00  0.00     0.198 HD
HETATM    7  N3  UNL     1       0.654   1.786  -0.038  1.00  0.00    -0.240 N 
ATOM      8  H3  UNL     1      -0.234   2.288  -0.013  1.00  0.00     0.196 HD
BRANCH   3   9
HETATM    9  N1  UNL     1       2.735  -0.910   0.040  1.00  0.00    -0.382 N 
ATOM     10  H12 UNL     1       3.738  -1.083  -0.024  1.00  0.00     0.157 HD
ATOM     11  H11 UNL     1       2.278  -1.814   0.157  1.00  0.00     0.157 HD
ENDBRANCH   3   9
ENDBRANCH   1   2
BRANCH   1  12
HETATM   12  N4  UNL     1      -0.243  -1.624  -0.678  1.00  0.00    -0.065 N 
ATOM     13  H43 UNL     1      -0.251  -1.267  -1.633  1.00  0.00     0.275 HD
ATOM     14  H42 UNL     1       0.672  -2.076  -0.670  1.00  0.00     0.275 HD
ATOM     15  H41 UNL     1      -0.984  -2.313  -0.547  1.00  0.00     0.275 HD
ENDBRANCH   1  12
BRANCH   1  16
HETATM   16  C4  UNL     1      -1.607   0.191   0.028  1.00  0.00     0.353 C 
BRANCH  16  17
HETATM   17  N5  UNL     1      -2.702  -0.724   0.186  1.00  0.00    -0.051 N 
ATOM     18  H53 UNL     1      -2.607  -1.544  -0.413  1.00  0.00     0.277 HD
ATOM     19  H52 UNL     1      -2.679  -1.199   1.089  1.00  0.00     0.277 HD
ATOM     20  H51 UNL     1      -3.583  -0.234   0.031  1.00  0.00     0.277 HD
ENDBRANCH  16  17
BRANCH  16  21
HETATM   21  O2  UNL     1      -1.684   1.236   0.917  1.00  0.00    -0.368 OA
ATOM     22  H2  UNL     1      -2.505   1.692   0.773  1.00  0.00     0.212 HD
ENDBRANCH  16  21
ENDBRANCH   1  16
TORSDOF 6
