REMARK  4 active torsions:
REMARK  status: ('A' for Active; 'I' for Inactive)
REMARK    1  A    between atoms: C2_3  and  N2_4 
REMARK    2  A    between atoms: C2_3  and  C3_8 
REMARK    3  A    between atoms: C3_8  and  N3_9 
REMARK    4  A    between atoms: C3_8  and  C4_13 
ROOT
HETATM    1  N1  UNL     1      -4.200   0.088   0.267  1.00  0.00    -0.195 NA
HETATM    2  C1  UNL     1      -3.052   0.270   0.115  1.00  0.00     0.095 C 
HETATM    3  C2  UNL     1      -1.618   0.477  -0.091  1.00  0.00     0.327 C 
ENDROOT
BRANCH   3   4
HETATM    4  N2  UNL     1      -1.221   1.618   0.693  1.00  0.00    -0.060 N 
ATOM      5  H23 UNL     1      -1.774   2.450   0.489  1.00  0.00     0.276 HD
ATOM      6  H22 UNL     1      -1.470   1.528   1.678  1.00  0.00     0.276 HD
ATOM      7  H21 UNL     1      -0.222   1.762   0.549  1.00  0.00     0.276 HD
ENDBRANCH   3   4
BRANCH   3   8
HETATM    8  C3  UNL     1      -0.870  -0.734   0.389  1.00  0.00     0.303 C 
BRANCH   8   9
HETATM    9  N3  UNL     1      -1.313  -1.871  -0.360  1.00  0.00    -0.065 N 
ATOM     10  H33 UNL     1      -2.325  -1.995  -0.320  1.00  0.00     0.275 HD
ATOM     11  H32 UNL     1      -1.228  -1.733  -1.367  1.00  0.00     0.275 HD
ATOM     12  H31 UNL     1      -0.805  -2.693  -0.034  1.00  0.00     0.275 HD
ENDBRANCH   8   9
BRANCH   8  13
HETATM   13  C4  UNL     1       0.586  -0.508   0.336  1.00  0.00     0.176 A 
HETATM   14  N4  UNL     1       1.610  -1.353   0.459  1.00  0.00    -0.278 N 
HETATM   15  N5  UNL     1       2.762  -0.702   0.342  1.00  0.00    -0.263 N 
ATOM     16  H4  UNL     1       1.521  -2.356   0.620  1.00  0.00     0.189 HD
HETATM   17  C5  UNL     1       2.440   0.584   0.139  1.00  0.00     0.238 A 
ATOM     18  H5  UNL     1       3.700  -1.099   0.396  1.00  0.00     0.190 HD
HETATM   19  N6  UNL     1       3.240   1.591  -0.031  1.00  0.00    -0.364 N 
HETATM   20  O1  UNL     1       1.151   0.681   0.139  1.00  0.00    -0.262 OA
ATOM     21  H62 UNL     1       4.257   1.514  -0.031  1.00  0.00     0.159 HD
ATOM     22  H61 UNL     1       2.995   2.569  -0.185  1.00  0.00     0.159 HD
ENDBRANCH   8  13
ENDBRANCH   3   8
TORSDOF 4
