REMARK  11 active torsions:
REMARK  status: ('A' for Active; 'I' for Inactive)
REMARK    1  A    between atoms: C2_2  and  C3_3 
REMARK       I    between atoms: C3_3  and  N1_5 
REMARK    2  A    between atoms: N1_5  and  C4_7 
REMARK    3  A    between atoms: C4_7  and  C5_8 
REMARK    4  A    between atoms: C5_8  and  C6_9 
REMARK    5  A    between atoms: C6_9  and  C7_10 
REMARK    6  A    between atoms: C7_10  and  N2_11 
REMARK    7  A    between atoms: C9_16  and  C10_17 
REMARK       I    between atoms: N4_20  and  C13_21 
REMARK    8  A    between atoms: C13_21  and  O3_23 
REMARK    9  A    between atoms: O3_23  and  C14_24 
REMARK   10  A    between atoms: C21_31  and  N5_32 
REMARK   11  A    between atoms: N5_32  and  C22_34 
ROOT
HETATM    1  N2  UNL     1       1.956  -1.207   1.402  1.00  0.00    -0.226 N 
ATOM      2  H2  UNL     1       1.431  -2.080   1.360  1.00  0.00     0.177 HD
HETATM    3  C8  UNL     1       1.356  -0.124   1.116  1.00  0.00     0.679 A 
HETATM    4  N3  UNL     1       0.035  -0.152   0.763  1.00  0.00    -0.195 N 
ATOM      5  H3  UNL     1      -0.460  -1.043   0.732  1.00  0.00     0.184 HD
HETATM    6  C9  UNL     1      -0.616   0.978   0.458  1.00  0.00     0.034 A 
HETATM    7  C20 UNL     1       0.032   2.195   0.493  1.00  0.00     0.074 A 
HETATM    8  C21 UNL     1       1.360   2.240   0.846  1.00  0.00     0.120 A 
HETATM    9  N7  UNL     1       1.960   1.053   1.144  1.00  0.00    -0.177 N 
ATOM     10  H7  UNL     1       2.945   1.073   1.407  1.00  0.00     0.185 HD
ENDROOT
BRANCH   6  11
HETATM   11  C10 UNL     1      -2.062   0.885   0.076  1.00  0.00     0.039 C 
HETATM   12  C11 UNL     1      -2.097   0.176  -1.266  1.00  0.00     0.030 C 
HETATM   13  C12 UNL     1      -3.569   0.041  -1.632  1.00  0.00     0.129 C 
HETATM   14  N4  UNL     1      -4.168  -0.782  -0.594  1.00  0.00    -0.328 N 
HETATM   15  C13 UNL     1      -5.524  -1.220  -0.789  1.00  0.00     0.363 C 
HETATM   16  C18 UNL     1      -3.403  -1.121   0.565  1.00  0.00     0.129 C 
HETATM   17  O2  UNL     1      -6.167  -0.903  -1.821  1.00  0.00    -0.238 OA
HETATM   18  C19 UNL     1      -2.821   0.155   1.137  1.00  0.00     0.030 C 
BRANCH  15  19
HETATM   19  O3  UNL     1      -6.141  -1.997   0.154  1.00  0.00    -0.294 OA
BRANCH  19  20
HETATM   20  C14 UNL     1      -7.450  -2.487   0.084  1.00  0.00     0.061 C 
HETATM   21  C15 UNL     1      -7.689  -3.294   1.358  1.00  0.00     0.046 C 
HETATM   22  C16 UNL     1      -7.571  -3.385  -1.106  1.00  0.00     0.046 C 
HETATM   23  C17 UNL     1      -8.483  -1.382   0.067  1.00  0.00     0.046 C 
ENDBRANCH  19  20
ENDBRANCH  15  19
ENDBRANCH   6  11
BRANCH   8  24
HETATM   24  N5  UNL     1       2.011   3.339   0.895  1.00  0.00    -0.348 N 
ATOM     25  H5  UNL     1       2.995   3.323   1.162  1.00  0.00     0.163 HD
BRANCH  24  26
HETATM   26  C22 UNL     1       1.394   4.585   0.586  1.00  0.00     0.285 C 
HETATM   27  C23 UNL     1       1.414   4.753  -0.937  1.00  0.00     0.054 C 
HETATM   28  C24 UNL     1       0.490   5.879  -1.341  1.00  0.00     0.005 C 
HETATM   29  C25 UNL     1       0.519   6.888  -0.197  1.00  0.00     0.028 C 
HETATM   30  C26 UNL     1       1.900   6.899   0.403  1.00  0.00     0.235 C 
HETATM   31  N6  UNL     1       2.099   5.709   1.203  1.00  0.00    -0.054 N 
ATOM     32  H62 UNL     1       1.827   5.848   2.176  1.00  0.00     0.279 HD
ATOM     33  H61 UNL     1       3.087   5.508   1.356  1.00  0.00     0.279 HD
ENDBRANCH  24  26
ENDBRANCH   8  24
BRANCH   1  34
HETATM   34  C7  UNL     1       3.320  -1.256   1.776  1.00  0.00     0.138 C 
BRANCH  34  35
HETATM   35  C6  UNL     1       4.266  -1.282   0.590  1.00  0.00     0.022 C 
BRANCH  35  36
HETATM   36  C5  UNL     1       3.971  -2.515  -0.263  1.00  0.00     0.021 C 
BRANCH  36  37
HETATM   37  C4  UNL     1       4.908  -2.551  -1.436  1.00  0.00     0.122 C 
BRANCH  37  38
HETATM   38  N1  UNL     1       6.269  -2.611  -0.976  1.00  0.00    -0.361 N 
HETATM   39  C3  UNL     1       6.823  -3.648  -0.188  1.00  0.00     0.217 C 
HETATM   40  O1  UNL     1       6.116  -4.616   0.161  1.00  0.00    -0.274 OA
ATOM     41  H1  UNL     1       6.886  -1.843  -1.239  1.00  0.00     0.162 HD
BRANCH  39  42
HETATM   42  C2  UNL     1       8.239  -3.601   0.230  1.00  0.00     0.098 C 
HETATM   43  C1  UNL     1       8.561  -4.829   1.051  1.00  0.00     0.014 C 
ENDBRANCH  39  42
ENDBRANCH  37  38
ENDBRANCH  36  37
ENDBRANCH  35  36
ENDBRANCH  34  35
ENDBRANCH   1  34
TORSDOF 11
