REMARK  11 active torsions:
REMARK  status: ('A' for Active; 'I' for Inactive)
REMARK    1  A    between atoms: C2_2  and  C4_4 
REMARK    2  A    between atoms: C6_6  and  O1_7 
REMARK    3  A    between atoms: C14_17  and  C15_18 
REMARK    4  A    between atoms: C15_18  and  N1_20 
REMARK    5  A    between atoms: N1_20  and  C17_22 
REMARK    6  A    between atoms: C17_22  and  C18_23 
REMARK    7  A    between atoms: C18_23  and  C19_24 
REMARK    8  A    between atoms: C19_24  and  C20_25 
REMARK    9  A    between atoms: C20_25  and  N2_26 
REMARK   10  A    between atoms: C23_29  and  O3_30 
REMARK   11  A    between atoms: C27_35  and  O4_36 
ROOT
HETATM    1  C4  UNL     1      -4.746   1.129   0.588  1.00  0.00     0.025 C 
HETATM    2  C5  UNL     1      -6.236   1.203   0.860  1.00  0.00     0.041 C 
HETATM    3  C6  UNL     1      -7.054   0.061   0.451  1.00  0.00     0.119 C 
HETATM    4  C7  UNL     1      -6.404  -1.267   0.333  1.00  0.00     0.044 C 
HETATM    5  C8  UNL     1      -4.930  -1.233   0.151  1.00  0.00     0.067 C 
HETATM    6  C9  UNL     1      -4.292  -2.551   0.449  1.00  0.00     0.132 C 
HETATM    7  O2  UNL     1      -4.764  -3.442   1.083  1.00  0.00    -0.298 OA
HETATM    8  C10 UNL     1      -2.924  -2.696  -0.141  1.00  0.00     0.084 C 
HETATM    9  C11 UNL     1      -2.329  -1.285  -0.352  1.00  0.00     0.005 C 
HETATM   10  C12 UNL     1      -0.850  -1.464  -0.469  1.00  0.00     0.002 C 
HETATM   11  C13 UNL     1      -0.251  -0.672  -1.608  1.00  0.00     0.018 C 
HETATM   12  C14 UNL     1       1.228  -0.665  -1.258  1.00  0.00     0.060 C 
HETATM   13  C23 UNL     1       1.354  -0.933   0.190  1.00  0.00     0.136 C 
HETATM   14  C24 UNL     1      -0.063  -1.185   0.746  1.00  0.00    -0.011 C 
HETATM   15  C25 UNL     1       0.077  -2.414   1.660  1.00  0.00     0.018 C 
HETATM   16  C26 UNL     1      -0.457  -0.053   1.582  1.00  0.00     0.044 C 
HETATM   17  C27 UNL     1      -1.780   0.610   1.136  1.00  0.00     0.124 C 
HETATM   18  C28 UNL     1      -2.751  -0.464   0.857  1.00  0.00     0.029 C 
HETATM   19  C29 UNL     1      -4.199  -0.176   0.928  1.00  0.00    -0.020 C 
HETATM   20  C30 UNL     1      -4.593  -0.392   2.424  1.00  0.00     0.017 C 
ENDROOT
BRANCH  12  21
HETATM   21  C15 UNL     1       1.841   0.575  -1.805  1.00  0.00    -0.015 C 
HETATM   22  C16 UNL     1       1.237   1.858  -1.240  1.00  0.00     0.063 C 
BRANCH  21  23
HETATM   23  N1  UNL     1       3.240   0.629  -1.904  1.00  0.00    -0.396 N 
ATOM     24  H1  UNL     1       3.668   0.677  -2.829  1.00  0.00     0.159 HD
BRANCH  23  25
HETATM   25  C17 UNL     1       4.068   0.619  -0.774  1.00  0.00     0.119 C 
BRANCH  25  26
HETATM   26  C18 UNL     1       5.521   0.731  -1.314  1.00  0.00     0.021 C 
BRANCH  26  27
HETATM   27  C19 UNL     1       6.482   0.741  -0.143  1.00  0.00     0.032 C 
BRANCH  27  28
HETATM   28  C20 UNL     1       7.865   0.844  -0.701  1.00  0.00     0.271 C 
BRANCH  28  29
HETATM   29  N2  UNL     1       8.886   0.866   0.328  1.00  0.00     0.080 N 
HETATM   30  C21 UNL     1       9.031  -0.363   1.045  1.00  0.00     0.309 C 
HETATM   31  C22 UNL     1      10.185   1.199  -0.255  1.00  0.00     0.309 C 
ENDBRANCH  28  29
ENDBRANCH  27  28
ENDBRANCH  26  27
ENDBRANCH  25  26
ENDBRANCH  23  25
ENDBRANCH  21  23
ENDBRANCH  12  21
BRANCH  13  32
HETATM   32  O3  UNL     1       2.103  -2.117   0.338  1.00  0.00    -0.394 OA
ATOM     33  H3  UNL     1       2.184  -2.289   1.269  1.00  0.00     0.210 HD
ENDBRANCH  13  32
BRANCH  17  34
HETATM   34  O4  UNL     1      -2.097   1.450   2.196  1.00  0.00    -0.395 OA
ATOM     35  H4  UNL     1      -2.910   1.858   1.922  1.00  0.00     0.210 HD
ENDBRANCH  17  34
BRANCH   1  36
HETATM   36  C2  UNL     1      -4.499   1.749  -0.719  1.00  0.00    -0.088 C 
HETATM   37  C1  UNL     1      -3.859   2.920  -0.772  1.00  0.00     0.014 C 
HETATM   38  C3  UNL     1      -4.889   1.273  -2.054  1.00  0.00     0.043 C 
ENDBRANCH   1  36
BRANCH   3  39
HETATM   39  O1  UNL     1      -8.154  -0.108   1.336  1.00  0.00    -0.396 OA
ATOM     40  H1  UNL     1      -8.685  -0.850   1.070  1.00  0.00     0.210 HD
ENDBRANCH   3  39
TORSDOF 11
