REMARK  7 active torsions:
REMARK  status: ('A' for Active; 'I' for Inactive)
REMARK    1  A    between atoms: O1_2  and  C2_3 
REMARK    2  A    between atoms: C2_3  and  C3_5 
REMARK    3  A    between atoms: C3_5  and  N1_6 
REMARK       I    between atoms: N1_6  and  C4_8 
REMARK    4  A    between atoms: C4_8  and  C5_10 
REMARK    5  A    between atoms: C5_10  and  O5_12 
REMARK    6  A    between atoms: O5_12  and  C6_13 
REMARK    7  A    between atoms: C11_23  and  N6_24 
ROOT
HETATM    1  C6  UNL     1      -2.320  -0.359  -0.354  1.00  0.00     0.148 A 
HETATM    2  C7  UNL     1      -3.007  -0.504   0.832  1.00  0.00     0.154 A 
HETATM    3  N2  UNL     1      -2.466  -1.337   1.829  1.00  0.00    -0.080 NA
HETATM    4  N3  UNL     1      -4.188   0.153   1.017  1.00  0.00    -0.330 N 
ATOM      5  H3  UNL     1      -4.693   0.041   1.896  1.00  0.00     0.168 HD
HETATM    6  C8  UNL     1      -4.697   0.946   0.059  1.00  0.00     0.141 A 
HETATM    7  N4  UNL     1      -5.929   1.631   0.254  1.00  0.00    -0.081 NA
HETATM    8  C9  UNL     1      -4.042   1.119  -1.141  1.00  0.00     0.114 A 
HETATM    9  C10 UNL     1      -4.588   1.965  -2.159  1.00  0.00     0.105 C 
HETATM   10  N5  UNL     1      -5.024   2.658  -2.981  1.00  0.00    -0.191 NA
HETATM   11  C11 UNL     1      -2.830   0.451  -1.345  1.00  0.00     0.088 A 
ENDROOT
BRANCH  11  12
HETATM   12  N6  UNL     1      -2.213   0.605  -2.455  1.00  0.00    -0.395 N 
ATOM     13  H62 UNL     1      -1.329   0.118  -2.604  1.00  0.00     0.156 HD
ATOM     14  H61 UNL     1      -2.591   1.205  -3.189  1.00  0.00     0.156 HD
ENDBRANCH  11  12
BRANCH   1  15
HETATM   15  O5  UNL     1      -1.100  -1.033  -0.556  1.00  0.00    -0.265 OA
BRANCH  15  16
HETATM   16  C5  UNL     1       0.105  -0.445  -0.202  1.00  0.00     0.356 C 
HETATM   17  O4  UNL     1       0.038   0.722   0.307  1.00  0.00    -0.253 OA
BRANCH  16  18
HETATM   18  C4  UNL     1       1.377  -1.118  -0.399  1.00  0.00     0.317 C 
HETATM   19  N1  UNL     1       2.583  -0.477  -0.023  1.00  0.00    -0.343 N 
ATOM     20  H1  UNL     1       2.564   0.457   0.386  1.00  0.00     0.163 HD
HETATM   21  O3  UNL     1       1.368  -2.264  -0.905  1.00  0.00    -0.262 OA
BRANCH  19  22
HETATM   22  C3  UNL     1       3.860  -1.170  -0.228  1.00  0.00     0.234 C 
BRANCH  22  23
HETATM   23  C2  UNL     1       4.960  -0.288   0.246  1.00  0.00     0.276 C 
HETATM   24  O2  UNL     1       4.716   0.863   0.735  1.00  0.00    -0.263 OA
BRANCH  23  25
HETATM   25  O1  UNL     1       6.269  -0.740   0.149  1.00  0.00    -0.325 OA
HETATM   26  C1  UNL     1       7.305   0.112   0.606  1.00  0.00     0.213 C 
ENDBRANCH  23  25
ENDBRANCH  22  23
ENDBRANCH  19  22
ENDBRANCH  16  18
ENDBRANCH  15  16
ENDBRANCH   1  15
TORSDOF 7
