REMARK  7 active torsions:
REMARK  status: ('A' for Active; 'I' for Inactive)
REMARK    1  A    between atoms: O1_2  and  C2_3 
REMARK    2  A    between atoms: C2_3  and  C3_5 
REMARK    3  A    between atoms: C5_7  and  N1_8 
REMARK    4  A    between atoms: C8_12  and  C9_13 
REMARK    5  A    between atoms: C9_13  and  N2_14 
REMARK    6  A    between atoms: C9_13  and  N3_18 
REMARK    7  A    between atoms: C10_24  and  N7_25 
ROOT
HETATM    1  N1  UNL     1      -0.729  -0.058  -1.440  1.00  0.00    -0.352 N 
ATOM      2  H1  UNL     1      -0.293   0.630  -2.054  1.00  0.00     0.166 HD
HETATM    3  C6  UNL     1      -0.023  -0.779  -0.636  1.00  0.00     0.107 A 
HETATM    4  C7  UNL     1       1.358  -0.642  -0.580  1.00  0.00     0.077 A 
HETATM    5  C8  UNL     1       2.130  -1.401   0.271  1.00  0.00     0.066 A 
HETATM    6  N8  UNL     1       1.505  -2.293   1.060  1.00  0.00    -0.352 N 
ATOM      7  H8  UNL     1       2.056  -2.866   1.699  1.00  0.00     0.166 HD
HETATM    8  C11 UNL     1       0.156  -2.448   1.025  1.00  0.00     0.182 A 
HETATM    9  N9  UNL     1      -0.575  -1.692   0.183  1.00  0.00    -0.339 N 
ATOM     10  H9  UNL     1      -1.587  -1.817   0.166  1.00  0.00     0.168 HD
ENDROOT
BRANCH   5  11
HETATM   11  C9  UNL     1       3.601  -1.280   0.355  1.00  0.00     0.370 C 
BRANCH  11  12
HETATM   12  N2  UNL     1       3.971  -1.259   1.770  1.00  0.00    -0.051 N 
ATOM     13  H23 UNL     1       3.484  -0.532   2.295  1.00  0.00     0.277 HD
ATOM     14  H22 UNL     1       3.611  -2.063   2.284  1.00  0.00     0.277 HD
ATOM     15  H21 UNL     1       4.986  -1.176   1.828  1.00  0.00     0.277 HD
ENDBRANCH  11  12
BRANCH  11  16
HETATM   16  N3  UNL     1       4.104  -0.150  -0.366  1.00  0.00    -0.068 N 
HETATM   17  N4  UNL     1       4.619  -0.154  -1.585  1.00  0.00     0.013 NA
HETATM   18  N5  UNL     1       4.977   1.095  -1.916  1.00  0.00    -0.211 N 
HETATM   19  N6  UNL     1       4.693   1.896  -0.914  1.00  0.00    -0.118 N 
ATOM     20  H5  UNL     1       5.400   1.377  -2.800  1.00  0.00     0.206 HD
HETATM   21  C10 UNL     1       4.153   1.129   0.044  1.00  0.00     0.709 A 
ATOM     22  H6  UNL     1       4.852   2.903  -0.873  1.00  0.00     0.207 HD
BRANCH  21  23
HETATM   23  N7  UNL     1       3.737   1.532   1.194  1.00  0.00    -0.232 N 
ATOM     24  H72 UNL     1       3.326   0.948   1.923  1.00  0.00     0.174 HD
ATOM     25  H71 UNL     1       3.774   2.503   1.505  1.00  0.00     0.174 HD
ENDBRANCH  21  23
ENDBRANCH  11  16
ENDBRANCH   5  11
BRANCH   1  26
HETATM   26  C5  UNL     1      -2.142  -0.257  -1.440  1.00  0.00     0.102 C 
HETATM   27  C3  UNL     1      -2.901   0.443  -0.630  1.00  0.00     0.029 C 
HETATM   28  C4  UNL     1      -2.298   1.442   0.289  1.00  0.00     0.056 C 
BRANCH  27  29
HETATM   29  C2  UNL     1      -4.342   0.273  -0.597  1.00  0.00     0.289 C 
HETATM   30  O2  UNL     1      -4.873  -0.567  -1.365  1.00  0.00    -0.260 OA
BRANCH  29  31
HETATM   31  O1  UNL     1      -5.171   0.995   0.246  1.00  0.00    -0.323 OA
HETATM   32  C1  UNL     1      -6.571   0.833   0.281  1.00  0.00     0.213 C 
ENDBRANCH  29  31
ENDBRANCH  27  29
ENDBRANCH   1  26
TORSDOF 7
