REMARK  7 active torsions:
REMARK  status: ('A' for Active; 'I' for Inactive)
REMARK    1  A    between atoms: C2_2  and  C3_3 
REMARK    2  A    between atoms: C3_3  and  N1_4 
REMARK    3  A    between atoms: N1_4  and  C4_6 
REMARK    4  A    between atoms: C7_11  and  N3_12 
REMARK    5  A    between atoms: N3_12  and  C8_14 
REMARK    6  A    between atoms: C8_14  and  C10_16 
REMARK    7  A    between atoms: C10_16  and  N4_17 
ROOT
HETATM    1  C4  UNL     1      -1.309  -1.389  -0.563  1.00  0.00     0.679 A 
HETATM    2  N2  UNL     1      -0.819  -2.624  -0.419  1.00  0.00    -0.202 N 
ATOM      3  H2  UNL     1      -1.408  -3.431  -0.627  1.00  0.00     0.183 HD
HETATM    4  C5  UNL     1       0.446  -2.809  -0.001  1.00  0.00     0.110 A 
HETATM    5  C6  UNL     1       1.285  -1.729   0.296  1.00  0.00     0.066 A 
HETATM    6  C7  UNL     1       0.758  -0.476   0.140  1.00  0.00     0.118 A 
HETATM    7  N5  UNL     1      -0.514  -0.363  -0.281  1.00  0.00    -0.177 N 
ATOM      8  H5  UNL     1      -0.895   0.577  -0.392  1.00  0.00     0.185 HD
ENDROOT
BRANCH   6   9
HETATM    9  N3  UNL     1       1.421   0.553   0.377  1.00  0.00    -0.370 N 
ATOM     10  H3  UNL     1       0.893   1.410   0.214  1.00  0.00     0.161 HD
BRANCH   9  11
HETATM   11  C8  UNL     1       2.733   0.796   0.818  1.00  0.00     0.104 C 
HETATM   12  C9  UNL     1       3.191   0.087   2.048  1.00  0.00     0.034 C 
BRANCH  11  13
HETATM   13  C10 UNL     1       3.708   0.517  -0.325  1.00  0.00     0.254 C 
BRANCH  13  14
HETATM   14  N4  UNL     1       3.339   1.431  -1.419  1.00  0.00    -0.077 N 
ATOM     15  H43 UNL     1       2.360   1.356  -1.695  1.00  0.00     0.274 HD
ATOM     16  H42 UNL     1       3.316   2.411  -1.137  1.00  0.00     0.274 HD
ATOM     17  H41 UNL     1       3.990   1.245  -2.182  1.00  0.00     0.274 HD
ENDBRANCH  13  14
ENDBRANCH  11  13
ENDBRANCH   9  11
ENDBRANCH   6   9
BRANCH   1  18
HETATM   18  N1  UNL     1      -2.523  -1.239  -0.965  1.00  0.00    -0.226 N 
ATOM     19  H1  UNL     1      -3.060  -2.085  -1.158  1.00  0.00     0.177 HD
BRANCH  18  20
HETATM   20  C3  UNL     1      -3.182   0.017  -1.164  1.00  0.00     0.137 C 
BRANCH  20  21
HETATM   21  C2  UNL     1      -3.748   0.582   0.126  1.00  0.00     0.016 C 
HETATM   22  C1  UNL     1      -4.425   1.904  -0.169  1.00  0.00     0.006 C 
ENDBRANCH  20  21
ENDBRANCH  18  20
ENDBRANCH   1  18
TORSDOF 7
