REMARK  5 active torsions:
REMARK  status: ('A' for Active; 'I' for Inactive)
REMARK    1  A    between atoms: N2_7  and  C6_8 
REMARK    2  A    between atoms: C6_8  and  C7_9 
REMARK    3  A    between atoms: C7_9  and  C8_10 
REMARK    4  A    between atoms: C8_10  and  N3_11 
REMARK    5  A    between atoms: N3_11  and  C9_13 
ROOT
HETATM    1  C8  UNL     1       1.493   0.266   0.858  1.00  0.00     0.139 C 
ENDROOT
BRANCH   1   2
HETATM    2  C7  UNL     1       0.140  -0.452   0.821  1.00  0.00     0.040 C 
BRANCH   2   3
HETATM    3  C6  UNL     1      -0.749   0.350  -0.092  1.00  0.00     0.131 C 
BRANCH   3   4
HETATM    4  N2  UNL     1      -2.068  -0.215  -0.221  1.00  0.00    -0.345 N 
HETATM    5  C1  UNL     1      -3.014   0.182   0.647  1.00  0.00     0.118 A 
HETATM    6  N1  UNL     1      -2.764   1.125   1.672  1.00  0.00    -0.083 NA
HETATM    7  C2  UNL     1      -4.316  -0.323   0.582  1.00  0.00     0.045 A 
HETATM    8  C3  UNL     1      -4.661  -1.247  -0.382  1.00  0.00     0.005 A 
HETATM    9  C4  UNL     1      -3.670  -1.654  -1.280  1.00  0.00     0.017 A 
HETATM   10  C5  UNL     1      -2.407  -1.113  -1.155  1.00  0.00     0.092 A 
ENDBRANCH   3   4
ENDBRANCH   2   3
ENDBRANCH   1   2
BRANCH   1  11
HETATM   11  N3  UNL     1       2.065   0.336  -0.467  1.00  0.00    -0.225 N 
ATOM     12  H3  UNL     1       1.475   0.309  -1.298  1.00  0.00     0.177 HD
BRANCH  11  13
HETATM   13  C9  UNL     1       3.369   0.436  -0.564  1.00  0.00     0.693 A 
HETATM   14  N4  UNL     1       4.080   0.513  -1.702  1.00  0.00    -0.185 N 
HETATM   15  C10 UNL     1       5.379   0.603  -1.367  1.00  0.00     0.215 A 
ATOM     16  H4  UNL     1       3.702   0.505  -2.649  1.00  0.00     0.185 HD
HETATM   17  N5  UNL     1       5.488   0.582  -0.029  1.00  0.00    -0.281 N 
HETATM   18  N6  UNL     1       4.259   0.481   0.440  1.00  0.00    -0.131 N 
ATOM     19  H5  UNL     1       6.349   0.634   0.516  1.00  0.00     0.188 HD
ATOM     20  H6  UNL     1       4.018   0.442   1.430  1.00  0.00     0.205 HD
ENDBRANCH  11  13
ENDBRANCH   1  11
TORSDOF 5
