REMARK  3 active torsions:
REMARK  status: ('A' for Active; 'I' for Inactive)
REMARK    1  A    between atoms: C3_3  and  O1_4 
REMARK       I    between atoms: N1_8  and  C6_9 
REMARK    2  A    between atoms: C6_9  and  C7_11 
REMARK    3  A    between atoms: C10_19  and  C11_20 
ROOT
HETATM    1  C1  UNL     1      -3.635  -2.182   1.332  1.00  0.00     0.015 C 
HETATM    2  C2  UNL     1      -2.826  -1.964   0.478  1.00  0.00    -0.079 C 
HETATM    3  C3  UNL     1      -1.822  -1.714  -0.553  1.00  0.00     0.127 C 
HETATM    4  C4  UNL     1      -0.581  -2.504  -0.214  1.00  0.00     0.071 C 
HETATM    5  C5  UNL     1       0.165  -1.778   0.900  1.00  0.00     0.130 C 
HETATM    6  N1  UNL     1       0.438  -0.412   0.501  1.00  0.00    -0.341 N 
HETATM    7  C6  UNL     1       1.722   0.004   0.170  1.00  0.00     0.273 C 
HETATM    8  O2  UNL     1       1.949   1.234  -0.145  1.00  0.00    -0.266 OA
HETATM    9  C10 UNL     1      -0.764   0.362   0.446  1.00  0.00     0.098 C 
HETATM   10  C14 UNL     1      -1.620  -0.244  -0.677  1.00  0.00     0.052 C 
HETATM   11  C15 UNL     1      -3.031   0.370  -0.658  1.00  0.00     0.016 C 
ENDROOT
BRANCH   3  12
HETATM   12  O1  UNL     1      -2.272  -2.183  -1.790  1.00  0.00    -0.377 OA
ATOM     13  H1  UNL     1      -1.619  -2.020  -2.461  1.00  0.00     0.211 HD
ENDBRANCH   3  12
BRANCH   9  14
HETATM   14  C11 UNL     1      -0.828   1.799   0.358  1.00  0.00     0.001 C 
HETATM   15  C12 UNL     1      -0.198   2.587   1.489  1.00  0.00     0.011 C 
HETATM   16  C13 UNL     1      -0.643   2.457  -0.988  1.00  0.00     0.011 C 
ENDBRANCH   9  14
BRANCH   7  17
HETATM   17  C7  UNL     1       2.962  -0.809   0.116  1.00  0.00     0.131 A 
HETATM   18  N2  UNL     1       2.890  -2.117   0.399  1.00  0.00    -0.306 N 
HETATM   19  S1  UNL     1       4.442  -2.695   0.241  1.00  0.00     0.067 SA
ATOM     20  H2  UNL     1       2.058  -2.647   0.657  1.00  0.00     0.176 HD
HETATM   21  N3  UNL     1       5.192  -1.272  -0.188  1.00  0.00    -0.314 N 
HETATM   22  C8  UNL     1       4.220  -0.368  -0.200  1.00  0.00     0.046 A 
ATOM     23  H3  UNL     1       6.180  -1.127  -0.396  1.00  0.00     0.175 HD
HETATM   24  C9  UNL     1       4.532   1.079  -0.555  1.00  0.00     0.071 C 
ENDBRANCH   7  17
TORSDOF 3
