REMARK  7 active torsions:
REMARK  status: ('A' for Active; 'I' for Inactive)
REMARK    1  A    between atoms: C2_2  and  N1_3 
REMARK    2  A    between atoms: N1_3  and  C3_5 
REMARK    3  A    between atoms: C3_5  and  C4_6 
REMARK    4  A    between atoms: C4_6  and  N2_7 
REMARK    5  A    between atoms: N2_7  and  C5_8 
REMARK    6  A    between atoms: N2_7  and  C8_11 
REMARK    7  A    between atoms: C5_8  and  C6_9 
ROOT
HETATM    1  N2  UNL     1      -0.560  -0.110  -0.135  1.00  0.00    -0.366 N 
ENDROOT
BRANCH   1   2
HETATM    2  C4  UNL     1       0.805   0.135   0.211  1.00  0.00     0.143 C 
BRANCH   2   3
HETATM    3  C3  UNL     1       1.570   0.908  -0.831  1.00  0.00     0.139 C 
BRANCH   3   4
HETATM    4  N1  UNL     1       2.914   1.074  -0.332  1.00  0.00    -0.398 N 
ATOM      5  H1  UNL     1       3.230   2.008  -0.070  1.00  0.00     0.158 HD
BRANCH   4   6
HETATM    6  C2  UNL     1       3.810  -0.016  -0.193  1.00  0.00     0.072 C 
HETATM    7  C1  UNL     1       4.639  -0.031   0.835  1.00  0.00     0.029 C 
ENDBRANCH   4   6
ENDBRANCH   3   4
ENDBRANCH   2   3
ENDBRANCH   1   2
BRANCH   1   8
HETATM    8  C5  UNL     1      -1.510   0.973  -0.204  1.00  0.00     0.124 C 
BRANCH   8   9
HETATM    9  C6  UNL     1      -1.786   1.550   1.187  1.00  0.00     0.015 C 
HETATM   10  C7  UNL     1      -2.784   2.664   1.006  1.00  0.00     0.006 C 
ENDBRANCH   8   9
ENDBRANCH   1   8
BRANCH   1  11
HETATM   11  C8  UNL     1      -1.011  -1.429  -0.412  1.00  0.00     0.102 A 
HETATM   12  C9  UNL     1      -1.518  -2.361   0.485  1.00  0.00     0.050 A 
HETATM   13  C10 UNL     1      -1.824  -3.485  -0.246  1.00  0.00     0.021 A 
HETATM   14  C11 UNL     1      -1.491  -3.193  -1.559  1.00  0.00     0.090 A 
HETATM   15  N3  UNL     1      -1.002  -1.957  -1.658  1.00  0.00    -0.352 N 
ATOM     16  H3  UNL     1      -0.682  -1.497  -2.510  1.00  0.00     0.166 HD
ENDBRANCH   1  11
TORSDOF 7
