REMARK  7 active torsions:
REMARK  status: ('A' for Active; 'I' for Inactive)
REMARK    1  A    between atoms: C1_4  and  C2_5 
REMARK    2  A    between atoms: C2_5  and  C3_6 
REMARK    3  A    between atoms: C3_6  and  N2_7 
REMARK    4  A    between atoms: N2_7  and  C4_9 
REMARK    5  A    between atoms: C4_9  and  C5_10 
REMARK    6  A    between atoms: C5_10  and  O1_11 
REMARK    7  A    between atoms: O1_11  and  C6_12 
ROOT
HETATM    1  C4  UNL     1       1.017  -0.213  -1.516  1.00  0.00     0.140 C 
ENDROOT
BRANCH   1   2
HETATM    2  N2  UNL     1       2.283   0.001  -0.913  1.00  0.00    -0.419 N 
ATOM      3  H2  UNL     1       2.870   0.796  -1.168  1.00  0.00     0.153 HD
BRANCH   2   4
HETATM    4  C3  UNL     1       2.693  -0.945   0.062  1.00  0.00     0.119 C 
BRANCH   4   5
HETATM    5  C2  UNL     1       4.071  -0.557   0.574  1.00  0.00     0.063 C 
BRANCH   5   6
HETATM    6  C1  UNL     1       4.071   0.790   1.196  1.00  0.00     0.054 C 
HETATM    7  N1  UNL     1       4.607   1.784   0.600  1.00  0.00    -0.411 N 
ATOM      8  H12 UNL     1       5.036   1.633  -0.313  1.00  0.00     0.155 HD
ATOM      9  H11 UNL     1       4.607   2.710   1.028  1.00  0.00     0.155 HD
ENDBRANCH   5   6
ENDBRANCH   4   5
ENDBRANCH   2   4
ENDBRANCH   1   2
BRANCH   1  10
HETATM   10  C5  UNL     1      -0.149  -0.030  -0.587  1.00  0.00     0.195 C 
BRANCH  10  11
HETATM   11  O1  UNL     1      -1.356  -0.265  -1.282  1.00  0.00    -0.350 OA
BRANCH  11  12
HETATM   12  C6  UNL     1      -2.556  -0.148  -0.608  1.00  0.00     0.068 A 
HETATM   13  C7  UNL     1      -2.569   0.194   0.726  1.00  0.00     0.037 A 
HETATM   14  C8  UNL     1      -3.739   0.325   1.448  1.00  0.00     0.003 A 
HETATM   15  C9  UNL     1      -4.953   0.110   0.834  1.00  0.00     0.000 A 
HETATM   16  C10 UNL     1      -4.962  -0.233  -0.498  1.00  0.00     0.003 A 
HETATM   17  C11 UNL     1      -3.779  -0.363  -1.221  1.00  0.00     0.037 A 
ENDBRANCH  11  12
ENDBRANCH  10  11
ENDBRANCH   1  10
TORSDOF 7
