REMARK  7 active torsions:
REMARK  status: ('A' for Active; 'I' for Inactive)
REMARK    1  A    between atoms: C2_2  and  C3_3 
REMARK    2  A    between atoms: C3_3  and  C4_4 
REMARK    3  A    between atoms: C6_6  and  N1_7 
REMARK    4  A    between atoms: N1_7  and  C7_10 
REMARK    5  A    between atoms: C7_10  and  C8_11 
REMARK    6  A    between atoms: C8_11  and  C9_12 
REMARK    7  A    between atoms: C9_12  and  N2_13 
ROOT
HETATM    1  N1  UNL     1       0.201  -0.482  -1.257  1.00  0.00    -0.071 N 
ATOM      2  H11 UNL     1      -0.347  -0.249  -2.085  1.00  0.00     0.277 HD
ATOM      3  H12 UNL     1       0.490  -1.429  -1.504  1.00  0.00     0.277 HD
ENDROOT
BRANCH   1   4
HETATM    4  C6  UNL     1      -0.634  -0.497  -0.085  1.00  0.00     0.186 C 
HETATM    5  C5  UNL     1      -1.819  -1.420  -0.304  1.00  0.00     0.038 C 
HETATM    6  C4  UNL     1      -2.613  -0.226  -0.731  1.00  0.00    -0.007 C 
HETATM    7  C11 UNL     1      -1.611   0.659  -0.026  1.00  0.00     0.038 C 
BRANCH   6   8
HETATM    8  C3  UNL     1      -4.023  -0.156  -0.211  1.00  0.00     0.031 C 
BRANCH   8   9
HETATM    9  C2  UNL     1      -4.069  -0.131   1.271  1.00  0.00    -0.037 C 
HETATM   10  C1  UNL     1      -4.618   0.898   1.876  1.00  0.00     0.007 C 
ENDBRANCH   8   9
ENDBRANCH   6   8
ENDBRANCH   1   4
BRANCH   1  11
HETATM   11  C7  UNL     1       1.339   0.380  -1.147  1.00  0.00     0.234 C 
BRANCH  11  12
HETATM   12  C8  UNL     1       2.375  -0.073  -0.171  1.00  0.00     0.055 C 
BRANCH  12  13
HETATM   13  C9  UNL     1       3.499   0.968  -0.198  1.00  0.00     0.233 C 
BRANCH  13  14
HETATM   14  N2  UNL     1       4.547   0.607   0.728  1.00  0.00    -0.079 N 
HETATM   15  C10 UNL     1       5.204  -0.570   0.214  1.00  0.00     0.266 C 
ATOM     16  H22 UNL     1       5.195   1.373   0.911  1.00  0.00     0.276 HD
ATOM     17  H21 UNL     1       4.207   0.486   1.682  1.00  0.00     0.276 HD
ENDBRANCH  13  14
ENDBRANCH  12  13
ENDBRANCH  11  12
ENDBRANCH   1  11
TORSDOF 7
