REMARK  2 active torsions:
REMARK  status: ('A' for Active; 'I' for Inactive)
REMARK    1  A    between atoms: C3_3  and  N1_4 
REMARK       I    between atoms: N1_4  and  C4_6 
REMARK       I    between atoms: C4_6  and  N2_8 
REMARK    2  A    between atoms: N2_8  and  C5_10 
ROOT
HETATM    1  C1  UNL     1       3.942  -1.260  -2.750  1.00  0.00     0.014 C 
HETATM    2  C2  UNL     1       3.808  -1.619  -1.603  1.00  0.00    -0.098 C 
HETATM    3  C3  UNL     1       3.647  -2.074  -0.206  1.00  0.00     0.217 C 
ENDROOT
BRANCH   3   4
HETATM    4  N1  UNL     1       2.707  -1.193   0.464  1.00  0.00    -0.333 N 
HETATM    5  C4  UNL     1       1.370  -1.029   0.021  1.00  0.00     0.317 C 
HETATM    6  O1  UNL     1       1.000  -1.681  -0.996  1.00  0.00    -0.247 OA
HETATM    7  N2  UNL     1       0.485  -0.169   0.691  1.00  0.00    -0.330 N 
ATOM      8  H2  UNL     1       0.836   0.333   1.507  1.00  0.00     0.165 HD
ATOM      9  H1  UNL     1       3.020  -0.673   1.284  1.00  0.00     0.165 HD
BRANCH   7  10
HETATM   10  C5  UNL     1      -0.884   0.053   0.306  1.00  0.00     0.178 C 
HETATM   11  C6  UNL     1      -1.073   1.493  -0.119  1.00  0.00     0.036 C 
HETATM   12  C7  UNL     1      -2.559   1.707  -0.328  1.00  0.00     0.022 C 
HETATM   13  C8  UNL     1      -3.188   1.800   1.052  1.00  0.00     0.122 C 
HETATM   14  N3  UNL     1      -2.920   0.527   1.734  1.00  0.00    -0.359 N 
HETATM   15  C9  UNL     1      -1.865  -0.328   1.322  1.00  0.00     0.240 C 
ATOM     16  H3  UNL     1      -3.506   0.251   2.522  1.00  0.00     0.162 HD
HETATM   17  O2  UNL     1      -1.779  -1.459   1.862  1.00  0.00    -0.271 OA
ENDBRANCH   7  10
ENDBRANCH   3   4
TORSDOF 2
