REMARK  7 active torsions:
REMARK  status: ('A' for Active; 'I' for Inactive)
REMARK    1  A    between atoms: C1_4  and  C2_5 
REMARK    2  A    between atoms: C2_5  and  N2_6 
REMARK    3  A    between atoms: C2_5  and  C3_10 
REMARK    4  A    between atoms: C2_5  and  C4_15 
REMARK    5  A    between atoms: C3_10  and  N3_11 
REMARK    6  A    between atoms: C4_15  and  N4_16 
REMARK    7  A    between atoms: C6_20  and  N6_21 
ROOT
HETATM    1  C2  UNL     1      -1.286  -0.115   0.084  1.00  0.00     0.194 C 
ENDROOT
BRANCH   1   2
HETATM    2  C1  UNL     1      -1.000  -0.820   1.360  1.00  0.00     0.095 C 
HETATM    3  N1  UNL     1      -1.659  -0.678   2.422  1.00  0.00    -0.409 N 
ATOM      4  H12 UNL     1      -2.444  -0.028   2.387  1.00  0.00     0.155 HD
ATOM      5  H11 UNL     1      -1.463  -1.162   3.298  1.00  0.00     0.155 HD
ENDBRANCH   1   2
BRANCH   1   6
HETATM    6  N2  UNL     1      -1.235  -1.109  -1.002  1.00  0.00    -0.062 N 
ATOM      7  H23 UNL     1      -0.356  -1.626  -1.024  1.00  0.00     0.275 HD
ATOM      8  H22 UNL     1      -1.855  -1.903  -0.841  1.00  0.00     0.275 HD
ATOM      9  H21 UNL     1      -1.431  -0.625  -1.878  1.00  0.00     0.275 HD
ENDBRANCH   1   6
BRANCH   1  10
HETATM   10  C3  UNL     1      -2.694   0.409   0.156  1.00  0.00     0.275 C 
BRANCH  10  11
HETATM   11  N3  UNL     1      -3.092   1.119  -1.037  1.00  0.00    -0.076 N 
ATOM     12  H33 UNL     1      -2.435   1.869  -1.251  1.00  0.00     0.274 HD
ATOM     13  H32 UNL     1      -2.960   0.540  -1.867  1.00  0.00     0.274 HD
ATOM     14  H31 UNL     1      -4.047   1.474  -0.988  1.00  0.00     0.274 HD
ENDBRANCH  10  11
ENDBRANCH   1  10
BRANCH   1  15
HETATM   15  C4  UNL     1      -0.276   0.947  -0.180  1.00  0.00     0.180 C 
BRANCH  15  16
HETATM   16  N4  UNL     1       1.087   0.475  -0.289  1.00  0.00    -0.292 N 
HETATM   17  C5  UNL     1       1.581   0.062  -1.495  1.00  0.00     0.205 A 
HETATM   18  N5  UNL     1       2.836  -0.391  -1.644  1.00  0.00    -0.188 N 
HETATM   19  C6  UNL     1       3.675  -0.459  -0.599  1.00  0.00     0.680 A 
ATOM     20  H5  UNL     1       3.157  -0.688  -2.566  1.00  0.00     0.185 HD
HETATM   21  N7  UNL     1       3.209  -0.057   0.594  1.00  0.00    -0.141 N 
HETATM   22  C7  UNL     1       1.949   0.396   0.739  1.00  0.00     0.341 A 
ATOM     23  H7  UNL     1       3.822  -0.095   1.408  1.00  0.00     0.189 HD
HETATM   24  O1  UNL     1       1.573   0.759   1.882  1.00  0.00    -0.246 OA
BRANCH  19  25
HETATM   25  N6  UNL     1       4.897  -0.897  -0.727  1.00  0.00    -0.234 N 
ATOM     26  H62 UNL     1       5.251  -1.202  -1.633  1.00  0.00     0.174 HD
ATOM     27  H61 UNL     1       5.535  -0.949   0.067  1.00  0.00     0.174 HD
ENDBRANCH  19  25
ENDBRANCH  15  16
ENDBRANCH   1  15
TORSDOF 7
