REMARK  9 active torsions:
REMARK  status: ('A' for Active; 'I' for Inactive)
REMARK    1  A    between atoms: N1_1  and  C1_4 
REMARK    2  A    between atoms: C2_5  and  C3_6 
REMARK    3  A    between atoms: C3_6  and  O1_7 
REMARK    4  A    between atoms: C3_6  and  N2_9 
REMARK    5  A    between atoms: N2_9  and  C4_11 
REMARK    6  A    between atoms: C4_11  and  C5_12 
REMARK    7  A    between atoms: C5_12  and  C6_13 
REMARK    8  A    between atoms: C6_13  and  N3_14 
REMARK    9  A    between atoms: N6_22  and  N7_23 
ROOT
HETATM    1  C1  UNL     1      -2.413   0.318  -0.098  1.00  0.00     0.172 A 
HETATM    2  C2  UNL     1      -1.933  -0.803   0.497  1.00  0.00     0.147 A 
HETATM    3  N4  UNL     1      -3.025  -1.453   1.014  1.00  0.00    -0.277 N 
ATOM      4  H4  UNL     1      -2.995  -2.335   1.525  1.00  0.00     0.189 HD
HETATM    5  N5  UNL     1      -4.097  -0.779   0.756  1.00  0.00    -0.219 N 
ATOM      6  H5  UNL     1      -5.043  -1.044   1.031  1.00  0.00     0.210 HD
HETATM    7  N6  UNL     1      -3.777   0.297   0.086  1.00  0.00    -0.170 N 
ENDROOT
BRANCH   2   8
HETATM    8  C3  UNL     1      -0.567  -1.261   0.592  1.00  0.00     0.168 C 
BRANCH   8   9
HETATM    9  O1  UNL     1      -0.379  -2.385   1.226  1.00  0.00    -0.344 OA
ATOM     10  H1  UNL     1       0.520  -2.686   1.289  1.00  0.00     0.219 HD
ENDBRANCH   8   9
BRANCH   8  11
HETATM   11  N2  UNL     1       0.593  -0.671   0.102  1.00  0.00    -0.369 N 
ATOM     12  H2  UNL     1       0.543   0.212  -0.407  1.00  0.00     0.161 HD
BRANCH  11  13
HETATM   13  C4  UNL     1       1.892  -1.324   0.320  1.00  0.00     0.123 C 
BRANCH  13  14
HETATM   14  C5  UNL     1       3.002  -0.516  -0.291  1.00  0.00     0.047 C 
BRANCH  14  15
HETATM   15  C6  UNL     1       3.089   0.863   0.292  1.00  0.00     0.231 C 
BRANCH  15  16
HETATM   16  N3  UNL     1       4.198   1.547  -0.379  1.00  0.00    -0.079 N 
ATOM     17  H33 UNL     1       5.077   1.033  -0.323  1.00  0.00     0.274 HD
ATOM     18  H32 UNL     1       4.111   1.547  -1.395  1.00  0.00     0.274 HD
ATOM     19  H31 UNL     1       4.257   2.485   0.018  1.00  0.00     0.274 HD
ENDBRANCH  15  16
ENDBRANCH  14  15
ENDBRANCH  13  14
ENDBRANCH  11  13
ENDBRANCH   8  11
ENDBRANCH   2   8
BRANCH   1  20
HETATM   20  N1  UNL     1      -1.857   1.267  -0.723  1.00  0.00    -0.381 N 
ATOM     21  H12 UNL     1      -0.846   1.283  -0.859  1.00  0.00     0.157 HD
ATOM     22  H11 UNL     1      -2.218   2.110  -1.170  1.00  0.00     0.157 HD
ENDBRANCH   1  20
BRANCH   7  23
HETATM   23  N7  UNL     1      -4.633   1.281  -0.382  1.00  0.00    -0.321 N 
ATOM     24  H72 UNL     1      -4.383   2.121  -0.905  1.00  0.00     0.179 HD
ATOM     25  H71 UNL     1      -5.644   1.265  -0.246  1.00  0.00     0.179 HD
ENDBRANCH   7  23
TORSDOF 9
