REMARK  5 active torsions:
REMARK  status: ('A' for Active; 'I' for Inactive)
REMARK    1  A    between atoms: C2_2  and  N1_3 
REMARK    2  A    between atoms: C2_2  and  C3_7 
REMARK    3  A    between atoms: C2_2  and  N5_20 
REMARK    4  A    between atoms: C3_7  and  N2_8 
REMARK       I    between atoms: N2_8  and  C4_11 
REMARK       I    between atoms: C4_11  and  N3_12 
REMARK       I    between atoms: C4_11  and  N4_16 
REMARK       I    between atoms: N5_20  and  C5_22 
REMARK       I    between atoms: C5_22  and  N7_26 
REMARK    5  A    between atoms: N7_26  and  N8_28 
ROOT
HETATM    1  C1  UNL     1      -0.630  -3.136  -0.407  1.00  0.00     0.073 C 
HETATM    2  C2  UNL     1      -0.010  -1.749  -0.397  1.00  0.00     0.230 C 
ENDROOT
BRANCH   2   3
HETATM    3  N1  UNL     1       0.592  -1.530  -1.718  1.00  0.00    -0.051 N 
ATOM      4  H13 UNL     1       1.253  -2.261  -1.981  1.00  0.00     0.277 HD
ATOM      5  H12 UNL     1      -0.067  -1.667  -2.484  1.00  0.00     0.277 HD
ATOM      6  H11 UNL     1       1.008  -0.599  -1.711  1.00  0.00     0.277 HD
ENDBRANCH   2   3
BRANCH   2   7
HETATM    7  C3  UNL     1      -1.101  -0.744  -0.178  1.00  0.00     0.298 C 
BRANCH   7   8
HETATM    8  N2  UNL     1      -0.589   0.615  -0.156  1.00  0.00    -0.018 N 
HETATM    9  C4  UNL     1      -1.635   1.584   0.057  1.00  0.00     0.575 C 
HETATM   10  N3  UNL     1      -2.604   1.486  -1.007  1.00  0.00    -0.026 N 
HETATM   11  N4  UNL     1      -1.064   2.902   0.021  1.00  0.00    -0.026 N 
ATOM     12  H33 UNL     1      -2.176   1.577  -1.928  1.00  0.00     0.278 HD
ATOM     13  H32 UNL     1      -2.970   0.539  -1.109  1.00  0.00     0.278 HD
ATOM     14  H31 UNL     1      -3.344   2.172  -0.856  1.00  0.00     0.278 HD
ATOM     15  H43 UNL     1      -0.294   3.010   0.681  1.00  0.00     0.278 HD
ATOM     16  H42 UNL     1      -0.542   3.076  -0.838  1.00  0.00     0.278 HD
ATOM     17  H41 UNL     1      -1.804   3.588   0.172  1.00  0.00     0.278 HD
ATOM     18  H22 UNL     1       0.157   0.718   0.532  1.00  0.00     0.281 HD
ATOM     19  H21 UNL     1      -0.058   0.824  -1.001  1.00  0.00     0.281 HD
ENDBRANCH   7   8
ENDBRANCH   2   7
BRANCH   2  20
HETATM   20  N5  UNL     1       1.033  -1.677   0.597  1.00  0.00    -0.189 N 
HETATM   21  C5  UNL     1       1.786  -0.497   0.822  1.00  0.00     0.693 C 
HETATM   22  N6  UNL     1       1.652   0.070   1.979  1.00  0.00    -0.233 N 
HETATM   23  N7  UNL     1       2.638   0.029  -0.168  1.00  0.00    -0.072 N 
ATOM     24  H62 UNL     1       1.035  -0.311   2.696  1.00  0.00     0.174 HD
ATOM     25  H61 UNL     1       2.194   0.919   2.141  1.00  0.00     0.174 HD
ATOM     26  H7  UNL     1       2.964  -0.576  -0.922  1.00  0.00     0.212 HD
ATOM     27  H5  UNL     1       1.236  -2.504   1.158  1.00  0.00     0.180 HD
BRANCH  23  28
HETATM   28  N8  UNL     1       3.043   1.360  -0.136  1.00  0.00    -0.024 N 
HETATM   29  O1  UNL     1       2.542   2.177  -0.924  1.00  0.00    -0.516 OA
HETATM   30  O2  UNL     1       3.993   1.737   0.773  1.00  0.00    -0.516 OA
ENDBRANCH  23  28
ENDBRANCH   2  20
TORSDOF 5
