REMARK  14 active torsions:
REMARK  status: ('A' for Active; 'I' for Inactive)
REMARK    1  A    between atoms: C2_2  and  O1_3 
REMARK       I    between atoms: N1_7  and  C4_8 
REMARK       I    between atoms: C4_8  and  N3_12 
REMARK    2  A    between atoms: N3_12  and  N4_14 
REMARK    3  A    between atoms: C5_17  and  N5_18 
REMARK    4  A    between atoms: C6_22  and  C7_23 
REMARK    5  A    between atoms: C7_23  and  S1_24 
REMARK    6  A    between atoms: C8_28  and  N6_29 
REMARK    7  A    between atoms: N7_31  and  C9_33 
REMARK    8  A    between atoms: N8_35  and  N9_36 
REMARK       I    between atoms: N9_36  and  C11_38 
REMARK    9  A    between atoms: C11_38  and  C12_40 
REMARK   10  A    between atoms: C12_40  and  N10_41 
REMARK   11  A    between atoms: C12_40  and  C13_45 
REMARK   12  A    between atoms: C13_45  and  O7_46 
REMARK   13  A    between atoms: C13_45  and  C14_48 
REMARK   14  A    between atoms: C14_48  and  O8_49 
ROOT
HETATM    1  C1  UNL     1      -1.529   0.915  -1.568  1.00  0.00     0.063 C 
HETATM    2  C2  UNL     1      -2.723   0.737  -0.653  1.00  0.00     0.179 C 
HETATM    3  C3  UNL     1      -3.736  -0.143  -1.286  1.00  0.00     0.280 C 
HETATM    4  O2  UNL     1      -3.711  -0.520  -2.474  1.00  0.00    -0.269 OA
HETATM    5  N1  UNL     1      -4.797  -0.567  -0.452  1.00  0.00    -0.113 N 
HETATM    6  C4  UNL     1      -6.015  -0.983  -1.020  1.00  0.00     0.697 C 
HETATM    7  N2  UNL     1      -6.073  -1.981  -1.837  1.00  0.00    -0.233 N 
ATOM      8  H21 UNL     1      -6.956  -2.283  -2.249  1.00  0.00     0.174 HD
ATOM      9  H22 UNL     1      -5.190  -2.447  -2.046  1.00  0.00     0.174 HD
HETATM   10  N3  UNL     1      -7.263  -0.324  -0.725  1.00  0.00    -0.139 N 
ATOM     11  H3  UNL     1      -8.088  -0.865  -0.465  1.00  0.00     0.205 HD
HETATM   12  C5  UNL     1      -4.638  -0.577   0.966  1.00  0.00     0.341 C 
HETATM   13  C6  UNL     1      -3.234  -0.420   1.400  1.00  0.00     0.014 C 
HETATM   14  C8  UNL     1      -2.351   0.185   0.656  1.00  0.00     0.076 C 
ENDROOT
BRANCH  14  15
HETATM   15  N6  UNL     1      -0.991   0.349   1.048  1.00  0.00    -0.299 N 
HETATM   16  N7  UNL     1      -0.042  -0.333   0.568  1.00  0.00    -0.284 N 
ATOM     17  H7  UNL     1      -0.243  -1.042  -0.138  1.00  0.00     0.188 HD
ATOM     18  H6  UNL     1      -0.772   1.053   1.753  1.00  0.00     0.186 HD
BRANCH  16  19
HETATM   19  C9  UNL     1       1.312  -0.131   0.995  1.00  0.00     0.141 A 
HETATM   20  C10 UNL     1       2.399   0.227   0.189  1.00  0.00     0.171 A 
HETATM   21  N8  UNL     1       3.507   0.324   0.938  1.00  0.00    -0.210 N 
HETATM   22  C15 UNL     1       3.110   0.031   2.192  1.00  0.00     0.347 A 
HETATM   23  O9  UNL     1       3.917   0.026   3.181  1.00  0.00    -0.245 OA
HETATM   24  N11 UNL     1       1.811  -0.238   2.220  1.00  0.00    -0.291 N 
ATOM     25  H11 UNL     1       1.279  -0.488   3.053  1.00  0.00     0.172 HD
BRANCH  21  26
HETATM   26  N9  UNL     1       4.821   0.656   0.554  1.00  0.00    -0.258 N 
HETATM   27  C11 UNL     1       5.224   0.962  -0.762  1.00  0.00     0.270 C 
HETATM   28  O6  UNL     1       4.438   0.973  -1.754  1.00  0.00    -0.269 OA
ATOM     29  H9  UNL     1       5.534   0.677   1.283  1.00  0.00     0.190 HD
BRANCH  27  30
HETATM   30  C12 UNL     1       6.646   1.296  -1.041  1.00  0.00     0.306 C 
BRANCH  30  31
HETATM   31  N10 UNL     1       6.787   1.663  -2.438  1.00  0.00    -0.064 N 
ATOM     32 3H10 UNL     1       6.429   0.943  -3.065  1.00  0.00     0.275 HD
ATOM     33 2H10 UNL     1       6.153   2.416  -2.706  1.00  0.00     0.275 HD
ATOM     34 1H10 UNL     1       7.762   1.892  -2.629  1.00  0.00     0.275 HD
ENDBRANCH  30  31
BRANCH  30  35
HETATM   35  C13 UNL     1       7.579   0.122  -0.829  1.00  0.00     0.181 C 
BRANCH  35  36
HETATM   36  O7  UNL     1       7.585  -0.370   0.456  1.00  0.00    -0.391 OA
ATOM     37  H7  UNL     1       8.170  -1.106   0.589  1.00  0.00     0.210 HD
ENDBRANCH  35  36
BRANCH  35  38
HETATM   38  C14 UNL     1       7.333  -0.966  -1.857  1.00  0.00     0.198 C 
BRANCH  38  39
HETATM   39  O8  UNL     1       6.113  -1.595  -1.664  1.00  0.00    -0.398 OA
ATOM     40  H8  UNL     1       5.959  -2.276  -2.308  1.00  0.00     0.209 HD
ENDBRANCH  38  39
ENDBRANCH  35  38
ENDBRANCH  30  35
ENDBRANCH  27  30
ENDBRANCH  21  26
ENDBRANCH  16  19
ENDBRANCH  14  15
BRANCH   2  41
HETATM   41  O1  UNL     1      -3.351   1.991  -0.500  1.00  0.00    -0.374 OA
ATOM     42  H1  UNL     1      -4.100   1.879   0.074  1.00  0.00     0.211 HD
ENDBRANCH   2  41
BRANCH  13  43
HETATM   43  C7  UNL     1      -2.845  -0.973   2.716  1.00  0.00     0.205 C 
BRANCH  43  44
HETATM   44  S1  UNL     1      -3.687  -0.286   4.090  1.00  0.00     0.105 S 
HETATM   45  O3  UNL     1      -5.136  -0.598   4.097  1.00  0.00    -0.595 OA
HETATM   46  O4  UNL     1      -3.084  -0.933   5.331  1.00  0.00    -0.595 OA
HETATM   47  O5  UNL     1      -3.472   1.353   4.260  1.00  0.00    -0.595 OA
ENDBRANCH  43  44
ENDBRANCH  13  43
BRANCH  12  48
HETATM   48  N5  UNL     1      -5.121  -1.899   1.415  1.00  0.00    -0.053 N 
ATOM     49  H53 UNL     1      -6.070  -2.112   1.109  1.00  0.00     0.277 HD
ATOM     50  H52 UNL     1      -4.663  -2.681   0.947  1.00  0.00     0.277 HD
ATOM     51  H51 UNL     1      -5.007  -1.906   2.429  1.00  0.00     0.277 HD
ENDBRANCH  12  48
BRANCH  10  52
HETATM   52  N4  UNL     1      -7.322   1.076  -0.802  1.00  0.00    -0.331 N 
ATOM     53  H42 UNL     1      -6.489   1.603  -1.063  1.00  0.00     0.177 HD
ATOM     54  H41 UNL     1      -8.205   1.542  -0.593  1.00  0.00     0.177 HD
ENDBRANCH  10  52
TORSDOF 14
