REMARK  14 active torsions:
REMARK  status: ('A' for Active; 'I' for Inactive)
REMARK    1  A    between atoms: C3_4  and  O2_5 
REMARK    2  A    between atoms: C3_4  and  C4_7 
REMARK    3  A    between atoms: C4_7  and  O3_8 
REMARK    4  A    between atoms: C4_7  and  C5_10 
REMARK    5  A    between atoms: C5_10  and  O4_11 
REMARK    6  A    between atoms: C5_10  and  C6_13 
REMARK    7  A    between atoms: C6_13  and  O5_14 
REMARK    8  A    between atoms: C7_16  and  O6_17 
REMARK    9  A    between atoms: O6_17  and  C8_18 
REMARK   10  A    between atoms: C9_22  and  N2_23 
REMARK   11  A    between atoms: C9_22  and  C10_27 
REMARK   12  A    between atoms: C11_30  and  C12_31 
REMARK   13  A    between atoms: C16_38  and  O12_39 
REMARK   14  A    between atoms: C16_38  and  C17_41 
ROOT
HETATM    1  C8  UNL     1      -0.629   0.420  -0.121  1.00  0.00     0.338 C 
HETATM    2  N1  UNL     1      -0.429   1.707  -0.768  1.00  0.00     0.000 N 
ATOM      3  H11 UNL     1       0.018   1.639  -1.682  1.00  0.00     0.284 HD
ATOM      4  H12 UNL     1       0.288   2.281  -0.323  1.00  0.00     0.284 HD
HETATM    5  C9  UNL     1      -1.730   2.334  -0.806  1.00  0.00     0.414 C 
HETATM    6  C11 UNL     1      -2.694   1.206  -1.051  1.00  0.00     0.231 C 
HETATM    7  O11 UNL     1      -3.826   1.309  -0.285  1.00  0.00    -0.350 OA
HETATM    8  C13 UNL     1      -4.149   0.092   0.257  1.00  0.00     0.097 C 
HETATM    9  C14 UNL     1      -5.135  -0.715  -0.562  1.00  0.00     0.049 C 
HETATM   10  C15 UNL     1      -4.797   0.262   1.624  1.00  0.00     0.049 C 
HETATM   11  C16 UNL     1      -2.853  -0.699   0.376  1.00  0.00     0.187 C 
HETATM   12  C18 UNL     1      -1.960  -0.024  -0.599  1.00  0.00     0.141 C 
ENDROOT
BRANCH   1  13
HETATM   13  O6  UNL     1       0.352  -0.483  -0.601  1.00  0.00    -0.328 OA
BRANCH  13  14
HETATM   14  C7  UNL     1       1.173  -0.953   0.399  1.00  0.00     0.290 C 
HETATM   15  C3  UNL     1       2.649  -0.699   0.151  1.00  0.00     0.237 C 
HETATM   16  O1  UNL     1       3.092  -1.329  -0.984  1.00  0.00    -0.337 OA
HETATM   17  C2  UNL     1       2.817  -2.668  -1.061  1.00  0.00     0.185 C 
HETATM   18  C1  UNL     1       4.144  -3.412  -0.912  1.00  0.00     0.047 C 
HETATM   19  C19 UNL     1       1.797  -3.176  -0.145  1.00  0.00     0.120 C 
HETATM   20  N3  UNL     1       1.039  -2.409   0.529  1.00  0.00    -0.349 N 
HETATM   21  N4  UNL     1       1.655  -4.607  -0.006  1.00  0.00    -0.085 NA
ATOM     22  H3  UNL     1       0.340  -2.804   1.158  1.00  0.00     0.163 HD
BRANCH  15  23
HETATM   23  O2  UNL     1       3.310  -1.236   1.282  1.00  0.00    -0.360 OA
ATOM     24  H2  UNL     1       3.003  -0.800   2.068  1.00  0.00     0.213 HD
ENDBRANCH  15  23
BRANCH  15  25
HETATM   25  C4  UNL     1       2.985   0.755   0.111  1.00  0.00     0.215 C 
BRANCH  25  26
HETATM   26  O3  UNL     1       2.543   1.421   1.257  1.00  0.00    -0.387 OA
ATOM     27  H3  UNL     1       2.757   2.346   1.232  1.00  0.00     0.210 HD
ENDBRANCH  25  26
BRANCH  25  28
HETATM   28  C5  UNL     1       4.488   0.943   0.060  1.00  0.00     0.176 C 
BRANCH  28  29
HETATM   29  O4  UNL     1       5.082   0.403   1.206  1.00  0.00    -0.391 OA
ATOM     30  H4  UNL     1       6.024   0.521   1.174  1.00  0.00     0.210 HD
ENDBRANCH  28  29
BRANCH  28  31
HETATM   31  C6  UNL     1       4.838   2.416   0.037  1.00  0.00     0.198 C 
BRANCH  31  32
HETATM   32  O5  UNL     1       4.328   2.993   1.196  1.00  0.00    -0.398 OA
ATOM     33  H5  UNL     1       4.548   3.917   1.182  1.00  0.00     0.209 HD
ENDBRANCH  31  32
ENDBRANCH  28  31
ENDBRANCH  25  28
ENDBRANCH  15  25
ENDBRANCH  13  14
ENDBRANCH   1  13
BRANCH   5  34
HETATM   34  N2  UNL     1      -1.713   3.220  -1.959  1.00  0.00    -0.031 N 
ATOM     35  H23 UNL     1      -0.940   3.886  -1.950  1.00  0.00     0.278 HD
ATOM     36  H22 UNL     1      -1.461   2.751  -2.829  1.00  0.00     0.278 HD
ATOM     37  H21 UNL     1      -2.632   3.663  -1.986  1.00  0.00     0.278 HD
ENDBRANCH   5  34
BRANCH   5  38
HETATM   38  C10 UNL     1      -1.985   3.083   0.441  1.00  0.00     0.244 C 
HETATM   39  O7  UNL     1      -1.123   3.114   1.342  1.00  0.00    -0.645 OA
HETATM   40  O8  UNL     1      -3.175   3.753   0.620  1.00  0.00    -0.645 OA
ENDBRANCH   5  38
BRANCH   6  41
HETATM   41  C12 UNL     1      -3.075   1.163  -2.485  1.00  0.00     0.215 C 
HETATM   42  O9  UNL     1      -4.284   1.234  -2.799  1.00  0.00    -0.646 OA
HETATM   43  O10 UNL     1      -2.148   1.047  -3.507  1.00  0.00    -0.646 OA
ENDBRANCH   6  41
BRANCH  11  44
HETATM   44  O12 UNL     1      -3.065  -2.009  -0.134  1.00  0.00    -0.376 OA
ATOM     45  H12 UNL     1      -2.257  -2.502  -0.060  1.00  0.00     0.211 HD
ENDBRANCH  11  44
BRANCH  11  46
HETATM   46  C17 UNL     1      -2.392  -0.808   1.753  1.00  0.00     0.212 C 
HETATM   47  O13 UNL     1      -2.189   0.137   2.561  1.00  0.00    -0.646 OA
HETATM   48  O14 UNL     1      -2.126  -2.084   2.298  1.00  0.00    -0.646 OA
ENDBRANCH  11  46
TORSDOF 14
