REMARK  16 active torsions:
REMARK  status: ('A' for Active; 'I' for Inactive)
REMARK    1  A    between atoms: N1_1  and  C1_4 
REMARK    2  A    between atoms: C2_7  and  N3_8 
REMARK    3  A    between atoms: C3_11  and  C4_12 
REMARK       I    between atoms: C4_12  and  N4_14 
REMARK    4  A    between atoms: N4_14  and  S1_16 
REMARK    5  A    between atoms: S1_16  and  C5_19 
REMARK    6  A    between atoms: C6_21  and  C7_22 
REMARK    7  A    between atoms: C7_22  and  O7_23 
REMARK    8  A    between atoms: C8_25  and  O8_26 
REMARK    9  A    between atoms: C8_25  and  C10_36 
REMARK   10  A    between atoms: O8_26  and  C9_27 
REMARK   11  A    between atoms: C9_27  and  N5_28 
REMARK   12  A    between atoms: C9_27  and  N6_32 
REMARK   13  A    between atoms: C10_36  and  O9_37 
REMARK   14  A    between atoms: C10_36  and  O10_39 
REMARK   15  A    between atoms: C11_41  and  N7_42 
REMARK       I    between atoms: N7_42  and  C12_44 
REMARK   16  A    between atoms: C13_47  and  O12_48 
ROOT
HETATM    1  C5  UNL     1       0.031   0.170   0.492  1.00  0.00     0.295 C 
HETATM    2  O6  UNL     1      -0.107  -0.213  -0.802  1.00  0.00    -0.355 OA
HETATM    3  C6  UNL     1      -1.208  -0.959  -1.139  1.00  0.00     0.189 C 
HETATM    4  C8  UNL     1      -2.506  -0.435  -0.603  1.00  0.00     0.165 C 
HETATM    5  C11 UNL     1      -2.458   0.152   0.776  1.00  0.00     0.160 C 
HETATM    6  C13 UNL     1      -1.177   0.908   1.030  1.00  0.00     0.189 C 
ENDROOT
BRANCH   1   7
HETATM    7  S1  UNL     1       1.394   1.293   0.615  1.00  0.00     0.263 S 
HETATM    8  O4  UNL     1       1.228   2.452  -0.358  1.00  0.00    -0.203 OA
HETATM    9  O5  UNL     1       1.512   1.893   1.985  1.00  0.00    -0.203 OA
BRANCH   7  10
HETATM   10  N4  UNL     1       2.908   0.555   0.219  1.00  0.00    -0.248 N 
HETATM   11  C4  UNL     1       4.060   1.366   0.303  1.00  0.00     0.270 C 
HETATM   12  O3  UNL     1       3.962   2.596   0.669  1.00  0.00    -0.266 OA
ATOM     13  H4  UNL     1       2.965  -0.424  -0.063  1.00  0.00     0.182 HD
BRANCH  11  14
HETATM   14  C3  UNL     1       5.421   0.945   0.020  1.00  0.00     0.099 A 
HETATM   15  C2  UNL     1       5.786   0.113  -0.981  1.00  0.00     0.205 A 
HETATM   16  N2  UNL     1       7.094  -0.305  -1.020  1.00  0.00    -0.170 N 
HETATM   17  C1  UNL     1       7.968   0.109  -0.096  1.00  0.00     0.677 A 
ATOM     18  H2  UNL     1       7.401  -0.936  -1.760  1.00  0.00     0.186 HD
HETATM   19  N9  UNL     1       7.607   0.940   0.896  1.00  0.00    -0.201 N 
HETATM   20  C14 UNL     1       6.366   1.366   0.977  1.00  0.00     0.127 A 
ATOM     21  H9  UNL     1       8.296   1.240   1.586  1.00  0.00     0.183 HD
BRANCH  15  22
HETATM   22  N3  UNL     1       4.914  -0.303  -2.006  1.00  0.00    -0.096 N 
HETATM   23  O1  UNL     1       5.069  -1.438  -2.571  1.00  0.00    -0.530 OA
HETATM   24  O2  UNL     1       3.870   0.429  -2.472  1.00  0.00    -0.530 OA
ENDBRANCH  15  22
BRANCH  17  25
HETATM   25  N1  UNL     1       9.217  -0.272  -0.109  1.00  0.00    -0.234 N 
ATOM     26  H12 UNL     1       9.491  -0.903  -0.862  1.00  0.00     0.174 HD
ATOM     27  H11 UNL     1       9.884   0.044   0.596  1.00  0.00     0.174 HD
ENDBRANCH  17  25
ENDBRANCH  11  14
ENDBRANCH   7  10
ENDBRANCH   1   7
BRANCH   6  28
HETATM   28  O12 UNL     1      -1.021   1.038   2.408  1.00  0.00    -0.390 OA
ATOM     29  H12 UNL     1      -1.779   1.501   2.745  1.00  0.00     0.210 HD
ENDBRANCH   6  28
BRANCH   3  30
HETATM   30  C7  UNL     1      -0.917  -2.417  -1.056  1.00  0.00     0.199 C 
BRANCH  30  31
HETATM   31  O7  UNL     1      -0.516  -2.920   0.147  1.00  0.00    -0.398 OA
ATOM     32  H7  UNL     1      -0.330  -3.850   0.200  1.00  0.00     0.209 HD
ENDBRANCH  30  31
ENDBRANCH   3  30
BRANCH   5  33
HETATM   33  N7  UNL     1      -2.786  -0.746   1.851  1.00  0.00    -0.335 N 
HETATM   34  C12 UNL     1      -3.883  -0.622   2.729  1.00  0.00     0.329 C 
HETATM   35  N8  UNL     1      -4.124  -1.558   3.758  1.00  0.00    -0.040 NA
HETATM   36  O11 UNL     1      -4.667   0.342   2.596  1.00  0.00    -0.251 OA
ATOM     37  H7  UNL     1      -2.169  -1.546   1.991  1.00  0.00     0.164 HD
ENDBRANCH   5  33
BRANCH   4  38
HETATM   38  O8  UNL     1      -2.793   0.597  -1.465  1.00  0.00    -0.318 OA
BRANCH  38  39
HETATM   39  C9  UNL     1      -3.840   1.378  -1.405  1.00  0.00     0.520 C 
BRANCH  39  40
HETATM   40  N5  UNL     1      -4.512   1.349  -2.730  1.00  0.00    -0.027 N 
ATOM     41  H53 UNL     1      -3.883   1.590  -3.496  1.00  0.00     0.279 HD
ATOM     42  H52 UNL     1      -4.742   0.403  -3.035  1.00  0.00     0.279 HD
ATOM     43  H51 UNL     1      -5.329   1.958  -2.683  1.00  0.00     0.279 HD
ENDBRANCH  39  40
BRANCH  39  44
HETATM   44  N6  UNL     1      -3.385   2.772  -1.315  1.00  0.00    -0.027 N 
ATOM     45  H63 UNL     1      -2.741   2.923  -0.538  1.00  0.00     0.279 HD
ATOM     46  H62 UNL     1      -2.752   3.025  -2.074  1.00  0.00     0.279 HD
ATOM     47  H61 UNL     1      -4.202   3.381  -1.268  1.00  0.00     0.279 HD
ENDBRANCH  39  44
ENDBRANCH  38  39
ENDBRANCH   4  38
BRANCH   4  48
HETATM   48  C10 UNL     1      -3.534  -1.525  -0.731  1.00  0.00     0.293 C 
BRANCH  48  49
HETATM   49  O9  UNL     1      -3.353  -2.601   0.096  1.00  0.00    -0.368 OA
ATOM     50  H9  UNL     1      -4.002  -3.290   0.015  1.00  0.00     0.212 HD
ENDBRANCH  48  49
BRANCH  48  51
HETATM   51  O10 UNL     1      -4.844  -1.130  -0.577  1.00  0.00    -0.368 OA
ATOM     52  H10 UNL     1      -5.493  -1.819  -0.658  1.00  0.00     0.212 HD
ENDBRANCH  48  51
ENDBRANCH   4  48
TORSDOF 16
