REMARK  15 active torsions:
REMARK  status: ('A' for Active; 'I' for Inactive)
REMARK    1  A    between atoms: C3_8  and  C4_9 
REMARK    2  A    between atoms: C3_8  and  C5_12 
REMARK    3  A    between atoms: C4_9  and  O1_10 
REMARK    4  A    between atoms: C5_12  and  N3_13 
REMARK    5  A    between atoms: C12_29  and  C13_30 
REMARK    6  A    between atoms: C13_30  and  O6_31 
REMARK    7  A    between atoms: C13_30  and  C14_33 
REMARK    8  A    between atoms: C14_33  and  O7_34 
REMARK    9  A    between atoms: C14_33  and  C15_36 
REMARK   10  A    between atoms: C15_36  and  O8_37 
REMARK   11  A    between atoms: C15_36  and  C16_39 
REMARK   12  A    between atoms: C16_39  and  O9_40 
REMARK   13  A    between atoms: C16_39  and  C17_42 
REMARK   14  A    between atoms: C17_42  and  O10_43 
REMARK   15  A    between atoms: C19_47  and  N7_48 
ROOT
HETATM    1  N3  UNL     1      -2.384  -1.541   0.460  1.00  0.00    -0.262 N 
HETATM    2  C6  UNL     1      -2.870  -2.586   1.119  1.00  0.00     0.334 A 
HETATM    3  O2  UNL     1      -3.856  -3.296   0.753  1.00  0.00    -0.246 OA
HETATM    4  N4  UNL     1      -2.328  -3.017   2.305  1.00  0.00    -0.274 N 
ATOM      5  H4  UNL     1      -2.737  -3.825   2.775  1.00  0.00     0.173 HD
HETATM    6  C7  UNL     1      -1.278  -2.403   2.857  1.00  0.00     0.269 A 
HETATM    7  O3  UNL     1      -0.751  -2.763   3.939  1.00  0.00    -0.267 OA
HETATM    8  C8  UNL     1      -0.729  -1.310   2.212  1.00  0.00     0.145 A 
HETATM    9  C9  UNL     1       0.373  -0.689   2.762  1.00  0.00     0.272 A 
HETATM   10  O4  UNL     1       0.888  -1.062   3.847  1.00  0.00    -0.267 OA
HETATM   11  N5  UNL     1       0.900   0.343   2.106  1.00  0.00    -0.256 N 
HETATM   12  C10 UNL     1       0.361   0.758   0.940  1.00  0.00     0.234 A 
HETATM   13  N6  UNL     1      -0.705   0.148   0.422  1.00  0.00    -0.306 N 
ATOM     14  H6  UNL     1      -1.082   0.492  -0.461  1.00  0.00     0.171 HD
HETATM   15  C11 UNL     1      -1.303  -0.897   1.010  1.00  0.00     0.140 A 
HETATM   16  O5  UNL     1       0.991   1.842   0.342  1.00  0.00    -0.287 OA
HETATM   17  C12 UNL     1       2.411   1.904   0.423  1.00  0.00     0.303 C 
HETATM   18  O11 UNL     1       2.923   1.228   1.487  1.00  0.00    -0.338 OA
HETATM   19  C18 UNL     1       2.057   1.093   2.560  1.00  0.00     0.309 C 
ENDROOT
BRANCH   1  20
HETATM   20  C5  UNL     1      -2.885  -1.081  -0.779  1.00  0.00     0.092 C 
BRANCH  20  21
HETATM   21  C3  UNL     1      -4.024  -0.174  -0.872  1.00  0.00     0.065 C 
HETATM   22  C2  UNL     1      -4.268   0.201  -2.359  1.00  0.00     0.140 C 
HETATM   23  N2  UNL     1      -5.637   0.720  -2.338  1.00  0.00    -0.377 N 
HETATM   24  C1  UNL     1      -6.305   0.204  -1.197  1.00  0.00     0.103 C 
ATOM     25  H2  UNL     1      -6.044   1.349  -3.030  1.00  0.00     0.160 HD
HETATM   26  N1  UNL     1      -7.414   0.530  -0.674  1.00  0.00    -0.387 N 
HETATM   27  C19 UNL     1      -5.391  -0.892  -0.678  1.00  0.00     0.266 C 
ATOM     28  H12 UNL     1      -8.028   1.266  -1.023  1.00  0.00     0.157 HD
ATOM     29  H11 UNL     1      -7.894   0.159   0.146  1.00  0.00     0.157 HD
BRANCH  27  30
HETATM   30  N7  UNL     1      -5.520  -1.924  -1.695  1.00  0.00    -0.067 N 
ATOM     31  H73 UNL     1      -6.477  -2.220  -1.885  1.00  0.00     0.275 HD
ATOM     32  H72 UNL     1      -5.319  -1.615  -2.646  1.00  0.00     0.275 HD
ATOM     33  H71 UNL     1      -4.906  -2.660  -1.346  1.00  0.00     0.275 HD
ENDBRANCH  27  30
BRANCH  21  34
HETATM   34  C4  UNL     1      -4.097   1.071  -0.109  1.00  0.00     0.183 C 
BRANCH  34  35
HETATM   35  O1  UNL     1      -3.203   2.090  -0.490  1.00  0.00    -0.400 OA
ATOM     36  H1  UNL     1      -3.250   2.899   0.006  1.00  0.00     0.209 HD
ENDBRANCH  34  35
ENDBRANCH  21  34
ENDBRANCH  20  21
ENDBRANCH   1  20
BRANCH  17  37
HETATM   37  C13 UNL     1       3.005   1.461  -0.925  1.00  0.00     0.209 C 
BRANCH  37  38
HETATM   38  O6  UNL     1       2.678   0.175  -1.250  1.00  0.00    -0.388 OA
ATOM     39  H6  UNL     1       3.045  -0.099  -2.083  1.00  0.00     0.210 HD
ENDBRANCH  37  38
BRANCH  37  40
HETATM   40  C14 UNL     1       4.380   1.919  -1.172  1.00  0.00     0.210 C 
BRANCH  40  41
HETATM   41  O7  UNL     1       4.433   3.294  -0.754  1.00  0.00    -0.386 OA
ATOM     42  H7  UNL     1       5.322   3.590  -0.914  1.00  0.00     0.210 HD
ENDBRANCH  40  41
BRANCH  40  43
HETATM   43  C15 UNL     1       5.535   1.192  -0.613  1.00  0.00     0.105 C 
BRANCH  43  44
HETATM   44  O8  UNL     1       5.647   1.129   0.756  1.00  0.00    -0.360 OA
ATOM     45  H8  UNL     1       6.391   0.661   1.116  1.00  0.00     0.217 HD
ENDBRANCH  43  44
BRANCH  43  46
HETATM   46  C16 UNL     1       5.956  -0.086  -1.226  1.00  0.00     0.098 C 
BRANCH  46  47
HETATM   47  O9  UNL     1       5.834  -0.158  -2.610  1.00  0.00    -0.360 OA
ATOM     48  H9  UNL     1       6.104  -0.979  -3.004  1.00  0.00     0.217 HD
ENDBRANCH  46  47
BRANCH  46  49
HETATM   49  C17 UNL     1       5.515  -1.349  -0.544  1.00  0.00     0.231 C 
BRANCH  49  50
HETATM   50  O10 UNL     1       5.629  -1.225   0.845  1.00  0.00    -0.394 OA
ATOM     51  H10 UNL     1       5.350  -2.024   1.276  1.00  0.00     0.209 HD
ENDBRANCH  49  50
ENDBRANCH  46  49
ENDBRANCH  43  46
ENDBRANCH  40  43
ENDBRANCH  37  40
ENDBRANCH  17  37
TORSDOF 15
