REMARK  16 active torsions:
REMARK  status: ('A' for Active; 'I' for Inactive)
REMARK    1  A    between atoms: N1_1  and  C1_4 
REMARK    2  A    between atoms: C3_9  and  C4_10 
REMARK       I    between atoms: C4_10  and  N3_12 
REMARK    3  A    between atoms: N3_12  and  C5_14 
REMARK    4  A    between atoms: C6_16  and  C7_17 
REMARK    5  A    between atoms: C7_17  and  O4_18 
REMARK    6  A    between atoms: C8_20  and  N4_21 
REMARK    7  A    between atoms: C9_22  and  O5_23 
REMARK    8  A    between atoms: C13_33  and  N7_34 
REMARK    9  A    between atoms: N8_37  and  C14_38 
REMARK   10  A    between atoms: C14_38  and  O7_39 
REMARK   11  A    between atoms: C15_41  and  O8_42 
REMARK   12  A    between atoms: N10_46  and  C16_47 
REMARK   13  A    between atoms: C16_47  and  C17_48 
REMARK   14  A    between atoms: C17_48  and  O9_49 
REMARK   15  A    between atoms: C17_48  and  C18_51 
REMARK   16  A    between atoms: C18_51  and  O10_52 
ROOT
HETATM    1  C5  UNL     1      -0.187  -1.954   0.498  1.00  0.00     0.255 C 
HETATM    2  O3  UNL     1      -0.375  -2.102  -0.850  1.00  0.00    -0.354 OA
HETATM    3  C6  UNL     1      -1.569  -1.561  -1.226  1.00  0.00     0.173 C 
HETATM    4  C8  UNL     1      -2.365  -1.218   0.018  1.00  0.00     0.158 C 
HETATM    5  C15 UNL     1      -1.264  -1.087   1.049  1.00  0.00     0.192 C 
ENDROOT
BRANCH   1   6
HETATM    6  N3  UNL     1       1.156  -1.430   0.733  1.00  0.00    -0.327 N 
HETATM    7  C4  UNL     1       2.140  -2.159   1.418  1.00  0.00     0.277 C 
HETATM    8  O2  UNL     1       1.880  -3.300   1.853  1.00  0.00    -0.266 OA
ATOM      9  H3  UNL     1       1.387  -0.499   0.386  1.00  0.00     0.165 HD
BRANCH   7  10
HETATM   10  C3  UNL     1       3.467  -1.611   1.637  1.00  0.00     0.185 A 
HETATM   11  C2  UNL     1       4.446  -2.330   2.317  1.00  0.00     0.293 A 
HETATM   12  N2  UNL     1       5.679  -1.843   2.530  1.00  0.00    -0.153 N 
HETATM   13  O1  UNL     1       4.131  -3.464   2.730  1.00  0.00    -0.265 OA
HETATM   14  C1  UNL     1       5.978  -0.602   2.062  1.00  0.00     0.695 A 
ATOM     15  H2  UNL     1       6.376  -2.392   3.032  1.00  0.00     0.187 HD
HETATM   16  N10 UNL     1       5.044   0.104   1.403  1.00  0.00    -0.121 N 
HETATM   17  N9  UNL     1       3.813  -0.392   1.195  1.00  0.00    -0.274 N 
ATOM     18  H9  UNL     1       3.127   0.170   0.691  1.00  0.00     0.188 HD
BRANCH  14  19
HETATM   19  N1  UNL     1       7.150  -0.084   2.249  1.00  0.00    -0.233 N 
ATOM     20  H12 UNL     1       7.859  -0.620   2.749  1.00  0.00     0.174 HD
ATOM     21  H11 UNL     1       7.374   0.847   1.898  1.00  0.00     0.174 HD
ENDBRANCH  14  19
BRANCH  16  22
HETATM   22  C16 UNL     1       5.383   1.425   0.900  1.00  0.00     0.201 C 
BRANCH  22  23
HETATM   23  C17 UNL     1       5.886   1.322  -0.510  1.00  0.00     0.162 C 
BRANCH  23  24
HETATM   24  O9  UNL     1       7.015   0.540  -0.655  1.00  0.00    -0.392 OA
ATOM     25  H9  UNL     1       7.333   0.475  -1.548  1.00  0.00     0.210 HD
ENDBRANCH  23  24
BRANCH  23  26
HETATM   26  C18 UNL     1       6.216   2.713  -1.022  1.00  0.00     0.197 C 
BRANCH  26  27
HETATM   27  O10 UNL     1       5.083   3.519  -0.881  1.00  0.00    -0.398 OA
ATOM     28  H10 UNL     1       5.289   4.389  -1.201  1.00  0.00     0.209 HD
ENDBRANCH  26  27
ENDBRANCH  23  26
ENDBRANCH  22  23
ENDBRANCH  16  22
ENDBRANCH   7  10
ENDBRANCH   1   6
BRANCH   5  29
HETATM   29  O8  UNL     1      -1.705  -1.669   2.259  1.00  0.00    -0.389 OA
ATOM     30  H8  UNL     1      -2.392  -1.116   2.611  1.00  0.00     0.210 HD
ENDBRANCH   5  29
BRANCH   3  31
HETATM   31  C7  UNL     1      -2.331  -2.650  -1.995  1.00  0.00     0.198 C 
BRANCH  31  32
HETATM   32  O4  UNL     1      -1.605  -3.050  -3.116  1.00  0.00    -0.398 OA
ATOM     33  H4  UNL     1      -2.076  -3.724  -3.592  1.00  0.00     0.209 HD
ENDBRANCH  31  32
ENDBRANCH   3  31
BRANCH   4  34
HETATM   34  N4  UNL     1      -3.042   0.009  -0.180  1.00  0.00    -0.295 N 
HETATM   35  C9  UNL     1      -2.440   1.163  -0.483  1.00  0.00     0.226 A 
HETATM   36  N5  UNL     1      -3.348   2.144  -0.607  1.00  0.00    -0.305 N 
HETATM   37  C10 UNL     1      -4.581   1.616  -0.377  1.00  0.00     0.161 A 
ATOM     38  H5  UNL     1      -3.148   3.118  -0.835  1.00  0.00     0.171 HD
HETATM   39  C11 UNL     1      -4.347   0.277  -0.114  1.00  0.00     0.152 A 
HETATM   40  N8  UNL     1      -5.821   2.160  -0.376  1.00  0.00    -0.144 N 
HETATM   41  C12 UNL     1      -5.478  -0.484   0.156  1.00  0.00     0.290 A 
HETATM   42  O6  UNL     1      -5.309  -1.690   0.397  1.00  0.00    -0.265 OA
HETATM   43  N6  UNL     1      -6.702   0.098   0.147  1.00  0.00    -0.154 N 
HETATM   44  C13 UNL     1      -6.894   1.401  -0.113  1.00  0.00     0.684 A 
ATOM     45  H6  UNL     1      -7.517  -0.482   0.347  1.00  0.00     0.187 HD
BRANCH  35  46
HETATM   46  O5  UNL     1      -1.069   1.430  -0.670  1.00  0.00    -0.332 OA
ATOM     47  H5  UNL     1      -0.641   2.250  -0.885  1.00  0.00     0.221 HD
ENDBRANCH  35  46
BRANCH  44  48
HETATM   48  N7  UNL     1      -8.103   1.913  -0.108  1.00  0.00    -0.234 N 
ATOM     49  H72 UNL     1      -8.920   1.335   0.092  1.00  0.00     0.174 HD
ATOM     50  H71 UNL     1      -8.249   2.903  -0.306  1.00  0.00     0.174 HD
ENDBRANCH  44  48
BRANCH  40  51
HETATM   51  C14 UNL     1      -5.998   3.567  -0.660  1.00  0.00     0.316 C 
BRANCH  51  52
HETATM   52  O7  UNL     1      -6.181   3.830  -1.998  1.00  0.00    -0.381 OA
ATOM     53  H7  UNL     1      -6.297   4.754  -2.185  1.00  0.00     0.211 HD
ENDBRANCH  51  52
ENDBRANCH  40  51
ENDBRANCH   4  34
TORSDOF 16
