REMARK  12 active torsions:
REMARK  status: ('A' for Active; 'I' for Inactive)
REMARK    1  A    between atoms: S1_2  and  C2_3 
REMARK    2  A    between atoms: C3_6  and  N2_7 
REMARK    3  A    between atoms: N2_7  and  C4_9 
REMARK    4  A    between atoms: C4_9  and  C9_25 
REMARK    5  A    between atoms: N3_10  and  N4_12 
REMARK    6  A    between atoms: C5_14  and  C6_15 
REMARK    7  A    between atoms: C8_22  and  O2_23 
REMARK    8  A    between atoms: C12_28  and  O3_29 
REMARK    9  A    between atoms: O3_29  and  C13_30 
REMARK   10  A    between atoms: C13_30  and  C14_31 
REMARK   11  A    between atoms: C15_40  and  O4_41 
REMARK   12  A    between atoms: C17_46  and  N12_47 
ROOT
HETATM    1  C4  UNL     1      -0.470   0.417   1.299  1.00  0.00     0.145 C 
HETATM    2  N3  UNL     1      -1.252   1.344   1.636  1.00  0.00    -0.285 N 
ATOM      3  H3  UNL     1      -1.994   1.046   2.269  1.00  0.00     0.188 HD
ENDROOT
BRANCH   1   4
HETATM    4  N2  UNL     1      -0.662  -0.887   1.790  1.00  0.00    -0.174 N 
ATOM      5  H2  UNL     1      -0.057  -1.201   2.549  1.00  0.00     0.186 HD
BRANCH   4   6
HETATM    6  C3  UNL     1      -1.544  -1.711   1.351  1.00  0.00     0.700 A 
HETATM    7  N1  UNL     1      -1.615  -2.929   1.915  1.00  0.00    -0.169 N 
HETATM    8  C2  UNL     1      -2.529  -3.855   1.498  1.00  0.00     0.176 A 
ATOM      9  H1  UNL     1      -0.973  -3.167   2.671  1.00  0.00     0.186 HD
HETATM   10  N13 UNL     1      -3.383  -3.559   0.502  1.00  0.00    -0.166 N 
HETATM   11  C17 UNL     1      -3.315  -2.341  -0.067  1.00  0.00     0.694 A 
HETATM   12  C18 UNL     1      -4.348  -4.560   0.073  1.00  0.00     0.177 C 
HETATM   13  N11 UNL     1      -2.406  -1.432   0.355  1.00  0.00    -0.022 N 
ATOM     14  H11 UNL     1      -2.373  -0.515  -0.091  1.00  0.00     0.203 HD
BRANCH   8  15
HETATM   15  S1  UNL     1      -2.628  -5.469   2.243  1.00  0.00    -0.097 SA
HETATM   16  C1  UNL     1      -1.538  -6.651   1.388  1.00  0.00     0.099 C 
ENDBRANCH   8  15
BRANCH  11  17
HETATM   17  N12 UNL     1      -4.136  -2.061  -1.022  1.00  0.00    -0.234 N 
ATOM     18 2H12 UNL     1      -4.084  -1.138  -1.453  1.00  0.00     0.174 HD
ATOM     19 1H12 UNL     1      -4.821  -2.746  -1.340  1.00  0.00     0.174 HD
ENDBRANCH  11  17
ENDBRANCH   4   6
ENDBRANCH   1   4
BRANCH   1  20
HETATM   20  C9  UNL     1       0.638   0.653   0.391  1.00  0.00     0.013 A 
HETATM   21  C10 UNL     1       1.806  -0.089   0.627  1.00  0.00     0.018 A 
HETATM   22  C11 UNL     1       2.898   0.074  -0.204  1.00  0.00     0.040 A 
HETATM   23  C12 UNL     1       2.898   0.941  -1.267  1.00  0.00     0.102 A 
HETATM   24  C15 UNL     1       1.719   1.653  -1.459  1.00  0.00     0.100 A 
HETATM   25  C16 UNL     1       0.621   1.511  -0.651  1.00  0.00     0.054 A 
BRANCH  23  26
HETATM   26  O3  UNL     1       3.989   1.083  -2.076  1.00  0.00    -0.341 OA
BRANCH  26  27
HETATM   27  C13 UNL     1       5.212   0.458  -2.049  1.00  0.00     0.255 C 
BRANCH  27  28
HETATM   28  C14 UNL     1       5.069  -0.994  -2.258  1.00  0.00     0.137 A 
HETATM   29  N7  UNL     1       4.000  -1.587  -2.798  1.00  0.00    -0.270 N 
HETATM   30  N8  UNL     1       4.228  -2.882  -2.824  1.00  0.00    -0.227 N 
ATOM     31  H7  UNL     1       3.157  -1.119  -3.131  1.00  0.00     0.190 HD
HETATM   32  N9  UNL     1       5.423  -3.109  -2.309  1.00  0.00    -0.227 N 
ATOM     33  H8  UNL     1       3.589  -3.592  -3.182  1.00  0.00     0.210 HD
HETATM   34  N10 UNL     1       5.971  -1.968  -1.949  1.00  0.00    -0.270 N 
ATOM     35  H9  UNL     1       5.855  -4.027  -2.206  1.00  0.00     0.210 HD
ATOM     36  H10 UNL     1       6.889  -1.838  -1.523  1.00  0.00     0.190 HD
ENDBRANCH  27  28
ENDBRANCH  26  27
ENDBRANCH  23  26
BRANCH  24  37
HETATM   37  O4  UNL     1       1.727   2.538  -2.550  1.00  0.00    -0.358 OA
ATOM     38  H4  UNL     1       0.922   3.024  -2.681  1.00  0.00     0.217 HD
ENDBRANCH  24  37
ENDBRANCH   1  20
BRANCH   2  39
HETATM   39  N4  UNL     1      -1.299   2.664   1.320  1.00  0.00    -0.308 N 
HETATM   40  C5  UNL     1      -0.794   3.654   1.930  1.00  0.00     0.141 C 
ATOM     41  H4  UNL     1      -1.815   2.892   0.470  1.00  0.00     0.186 HD
BRANCH  40  42
HETATM   42  C6  UNL     1      -0.987   4.995   1.381  1.00  0.00     0.104 A 
HETATM   43  N5  UNL     1      -0.513   6.145   1.913  1.00  0.00    -0.304 N 
HETATM   44  C7  UNL     1      -0.872   7.196   1.156  1.00  0.00     0.326 A 
ATOM     45  H5  UNL     1       0.039   6.206   2.768  1.00  0.00     0.171 HD
HETATM   46  O1  UNL     1      -0.577   8.393   1.397  1.00  0.00    -0.247 OA
HETATM   47  N6  UNL     1      -1.588   6.698   0.123  1.00  0.00    -0.287 N 
HETATM   48  C8  UNL     1      -1.663   5.374   0.250  1.00  0.00     0.173 A 
ATOM     49  H6  UNL     1      -2.003   7.246  -0.630  1.00  0.00     0.172 HD
BRANCH  48  50
HETATM   50  O2  UNL     1      -2.316   4.513  -0.617  1.00  0.00    -0.344 OA
ATOM     51  H2  UNL     1      -2.784   4.776  -1.401  1.00  0.00     0.219 HD
ENDBRANCH  48  50
ENDBRANCH  40  42
ENDBRANCH   2  39
TORSDOF 12
