REMARK  12 active torsions:
REMARK  status: ('A' for Active; 'I' for Inactive)
REMARK    1  A    between atoms: S1_2  and  S2_3 
REMARK    2  A    between atoms: S2_3  and  C2_4 
REMARK    3  A    between atoms: C3_7  and  C4_8 
REMARK    4  A    between atoms: C4_8  and  O1_9 
REMARK    5  A    between atoms: C4_8  and  N2_11 
REMARK       I    between atoms: N2_11  and  C5_13 
REMARK    6  A    between atoms: C5_13  and  C6_15 
REMARK    7  A    between atoms: C6_15  and  C7_16 
REMARK       I    between atoms: C7_16  and  N3_18 
REMARK    8  A    between atoms: N3_18  and  C8_20 
REMARK    9  A    between atoms: C11_25  and  N5_26 
REMARK   10  A    between atoms: C14_37  and  C15_38 
REMARK   11  A    between atoms: C15_38  and  O6_39 
REMARK   12  A    between atoms: C15_38  and  O7_41 
ROOT
HETATM    1  C6  UNL     1      -0.796  -1.026   0.224  1.00  0.00     0.206 C 
ENDROOT
BRANCH   1   2
HETATM    2  C5  UNL     1       0.547  -1.614   0.478  1.00  0.00     0.228 C 
HETATM    3  N2  UNL     1       1.415  -1.822  -0.608  1.00  0.00    -0.329 N 
ATOM      4  H2  UNL     1       1.112  -1.576  -1.550  1.00  0.00     0.165 HD
HETATM    5  O2  UNL     1       0.868  -1.909   1.671  1.00  0.00    -0.273 OA
BRANCH   3   6
HETATM    6  C4  UNL     1       2.730  -2.380  -0.405  1.00  0.00     0.272 C 
BRANCH   6   7
HETATM    7  C3  UNL     1       3.775  -1.343  -0.834  1.00  0.00     0.077 A 
HETATM    8  N1  UNL     1       4.385  -0.612   0.067  1.00  0.00    -0.343 N 
HETATM    9  C2  UNL     1       5.268   0.290  -0.285  1.00  0.00     0.123 A 
ATOM     10  H1  UNL     1       4.170  -0.747   1.055  1.00  0.00     0.167 HD
HETATM   11  S3  UNL     1       5.284   0.147  -1.974  1.00  0.00    -0.062 SA
HETATM   12  C14 UNL     1       4.097  -1.126  -2.140  1.00  0.00     0.066 A 
BRANCH   9  13
HETATM   13  S2  UNL     1       6.221   1.404   0.787  1.00  0.00    -0.033 SA
BRANCH  13  14
HETATM   14  S1  UNL     1       5.637   0.980   2.812  1.00  0.00    -0.095 SA
HETATM   15  C1  UNL     1       4.226   2.021   3.270  1.00  0.00     0.103 C 
ENDBRANCH  13  14
ENDBRANCH   9  13
BRANCH  12  16
HETATM   16  C15 UNL     1       3.655  -1.725  -3.428  1.00  0.00     0.297 C 
BRANCH  16  17
HETATM   17  O6  UNL     1       3.619  -3.072  -3.512  1.00  0.00    -0.367 OA
ATOM     18  H6  UNL     1       3.337  -3.455  -4.335  1.00  0.00     0.213 HD
ENDBRANCH  16  17
BRANCH  16  19
HETATM   19  O7  UNL     1       4.567  -1.277  -4.414  1.00  0.00    -0.367 OA
ATOM     20  H7  UNL     1       4.285  -1.660  -5.237  1.00  0.00     0.213 HD
ENDBRANCH  16  19
ENDBRANCH  12  16
ENDBRANCH   6   7
BRANCH   6  21
HETATM   21  O1  UNL     1       2.883  -3.588  -0.997  1.00  0.00    -0.371 OA
ATOM     22  H1  UNL     1       2.236  -4.230  -0.731  1.00  0.00     0.212 HD
ENDBRANCH   6  21
ENDBRANCH   3   6
ENDBRANCH   1   2
BRANCH   1  23
HETATM   23  C7  UNL     1      -1.514  -0.920   1.505  1.00  0.00     0.244 C 
HETATM   24  O3  UNL     1      -1.686  -1.964   2.174  1.00  0.00    -0.272 OA
HETATM   25  N3  UNL     1      -1.963   0.354   1.907  1.00  0.00    -0.159 N 
ATOM     26  H3  UNL     1      -1.402   0.860   2.592  1.00  0.00     0.187 HD
BRANCH  25  27
HETATM   27  C8  UNL     1      -3.015   0.916   1.477  1.00  0.00     0.687 A 
HETATM   28  N4  UNL     1      -3.844   0.363   0.576  1.00  0.00    -0.185 N 
HETATM   29  C9  UNL     1      -4.954   0.961   0.105  1.00  0.00     0.136 A 
ATOM     30  H4  UNL     1      -3.618  -0.568   0.227  1.00  0.00     0.184 HD
HETATM   31  C10 UNL     1      -5.281   2.237   0.573  1.00  0.00     0.109 A 
HETATM   32  C13 UNL     1      -5.985   0.563  -0.853  1.00  0.00     0.276 A 
HETATM   33  C11 UNL     1      -4.427   2.797   1.497  1.00  0.00     0.133 A 
HETATM   34  C12 UNL     1      -6.513   2.660  -0.078  1.00  0.00     0.264 A 
HETATM   35  N6  UNL     1      -3.336   2.158   1.931  1.00  0.00    -0.176 N 
ATOM     36  H6  UNL     1      -2.732   2.611   2.617  1.00  0.00     0.186 HD
HETATM   37  O4  UNL     1      -7.084   3.749   0.111  1.00  0.00    -0.267 OA
HETATM   38  N7  UNL     1      -6.931   1.625  -0.948  1.00  0.00    -0.288 N 
ATOM     39  H7  UNL     1      -7.762   1.637  -1.539  1.00  0.00     0.172 HD
HETATM   40  O5  UNL     1      -5.975  -0.536  -1.451  1.00  0.00    -0.266 OA
BRANCH  33  41
HETATM   41  N5  UNL     1      -4.737   3.986   1.927  1.00  0.00    -0.384 N 
ATOM     42  H52 UNL     1      -5.569   4.474   1.596  1.00  0.00     0.157 HD
ATOM     43  H51 UNL     1      -4.105   4.401   2.611  1.00  0.00     0.157 HD
ENDBRANCH  33  41
ENDBRANCH  25  27
ENDBRANCH   1  23
TORSDOF 12
