REMARK  3 active torsions:
REMARK  status: ('A' for Active; 'I' for Inactive)
REMARK    1  A    between atoms: C4_4  and  N1_5 
REMARK    2  A    between atoms: N1_5  and  C5_7 
REMARK    3  A    between atoms: C7_16  and  C8_17 
ROOT
HETATM    1  C1  UNL     1      -0.885  -1.848  -1.496  1.00  0.00     0.049 C 
HETATM    2  C2  UNL     1      -0.364  -0.515  -0.966  1.00  0.00    -0.045 A 
HETATM    3  C3  UNL     1       0.884  -0.092  -1.258  1.00  0.00     0.045 A 
HETATM    4  C4  UNL     1       1.272   1.117  -0.746  1.00  0.00     0.076 A 
HETATM    5  S3  UNL     1      -0.100   1.625   0.119  1.00  0.00    -0.076 SA
HETATM    6  C7  UNL     1      -1.133   0.302  -0.184  1.00  0.00    -0.002 A 
ENDROOT
BRANCH   4   7
HETATM    7  N1  UNL     1       2.517   1.802  -0.890  1.00  0.00    -0.330 N 
ATOM      8  H1  UNL     1       2.561   2.670  -1.424  1.00  0.00     0.168 HD
BRANCH   7   9
HETATM    9  C5  UNL     1       3.606   1.316  -0.336  1.00  0.00     0.167 A 
HETATM   10  N2  UNL     1       3.728   0.203   0.391  1.00  0.00    -0.278 N 
HETATM   11  N3  UNL     1       4.882  -0.105   0.848  1.00  0.00    -0.282 N 
ATOM     12  H2  UNL     1       2.919  -0.389   0.578  1.00  0.00     0.189 HD
HETATM   13  C6  UNL     1       5.917   0.691   0.586  1.00  0.00     0.160 A 
ATOM     14  H3  UNL     1       5.008  -0.949   1.406  1.00  0.00     0.188 HD
HETATM   15  S1  UNL     1       7.491   0.497   1.069  1.00  0.00    -0.051 SA
HETATM   16  S2  UNL     1       5.197   1.924  -0.352  1.00  0.00    -0.022 SA
ENDBRANCH   7   9
ENDBRANCH   4   7
BRANCH   6  17
HETATM   17  C8  UNL     1      -2.526   0.120   0.311  1.00  0.00    -0.017 C 
HETATM   18  C9  UNL     1      -2.857   1.361   1.134  1.00  0.00     0.020 C 
HETATM   19  C10 UNL     1      -2.673  -1.046   1.258  1.00  0.00     0.020 C 
HETATM   20  C11 UNL     1      -3.447   0.078  -0.857  1.00  0.00     0.020 C 
ENDBRANCH   6  17
TORSDOF 3
