REMARK  2 active torsions:
REMARK  status: ('A' for Active; 'I' for Inactive)
REMARK    1  A    between atoms: C4_7  and  N2_8 
REMARK    2  A    between atoms: N2_8  and  C5_10 
ROOT
HETATM    1  C1  UNL     1       5.230   0.298   0.425  1.00  0.00     0.056 C 
HETATM    2  C2  UNL     1       3.808  -0.007   0.061  1.00  0.00     0.025 A 
HETATM    3  C3  UNL     1       2.794   0.829   0.468  1.00  0.00     0.254 A 
HETATM    4  O1  UNL     1       3.124   1.856   1.156  1.00  0.00    -0.268 OA
HETATM    5  N1  UNL     1       1.499   0.614   0.176  1.00  0.00    -0.308 N 
ATOM      6  H1  UNL     1       0.781   1.263   0.499  1.00  0.00     0.170 HD
HETATM    7  C4  UNL     1       1.161  -0.478  -0.554  1.00  0.00     0.123 A 
HETATM    8  C11 UNL     1       2.130  -1.376  -1.005  1.00  0.00     0.074 A 
HETATM    9  S1  UNL     1       2.258  -2.837  -1.913  1.00  0.00    -0.047 SA
HETATM   10  S2  UNL     1       4.189  -2.474  -1.451  1.00  0.00    -0.050 SA
HETATM   11  C12 UNL     1       3.452  -1.116  -0.683  1.00  0.00     0.044 A 
ENDROOT
BRANCH   7  12
HETATM   12  N2  UNL     1      -0.219  -0.624  -0.850  1.00  0.00    -0.370 N 
ATOM     13  H2  UNL     1      -0.483  -1.406  -1.450  1.00  0.00     0.161 HD
BRANCH  12  14
HETATM   14  C5  UNL     1      -1.286   0.230  -0.382  1.00  0.00     0.083 C 
HETATM   15  C6  UNL     1      -2.488  -0.044  -1.270  1.00  0.00     0.025 C 
HETATM   16  C7  UNL     1      -3.767  -0.144  -0.492  1.00  0.00     0.002 C 
HETATM   17  C8  UNL     1      -3.759   0.976   0.518  1.00  0.00     0.000 C 
HETATM   18  C9  UNL     1      -2.791   0.527   1.611  1.00  0.00     0.002 C 
HETATM   19  C10 UNL     1      -1.579  -0.134   1.044  1.00  0.00     0.025 C 
ENDBRANCH  12  14
ENDBRANCH   7  12
TORSDOF 2
