REMARK  2 active torsions:
REMARK  status: ('A' for Active; 'I' for Inactive)
REMARK    1  A    between atoms: N1_1  and  C1_4 
REMARK    2  A    between atoms: C3_11  and  C4_12 
ROOT
HETATM    1  C1  UNL     1       5.694  -0.051   0.777  1.00  0.00     0.141 A 
HETATM    2  N2  UNL     1       5.443  -0.517   1.998  1.00  0.00    -0.242 N 
ATOM      3  H2  UNL     1       6.157  -0.724   2.697  1.00  0.00     0.196 HD
HETATM    4  O1  UNL     1       4.169  -0.672   2.179  1.00  0.00    -0.216 OA
HETATM    5  C2  UNL     1       3.490  -0.313   1.075  1.00  0.00     0.192 A 
HETATM    6  N3  UNL     1       2.237  -0.257   0.687  1.00  0.00    -0.331 N 
ATOM      7  H3  UNL     1       1.493  -0.542   1.324  1.00  0.00     0.168 HD
HETATM    8  C3  UNL     1       1.941   0.166  -0.520  1.00  0.00     0.058 A 
HETATM    9  S1  UNL     1       3.480   0.513  -1.171  1.00  0.00    -0.068 SA
HETATM   10  C14 UNL     1       4.444   0.083   0.179  1.00  0.00     0.105 A 
ENDROOT
BRANCH   8  11
HETATM   11  C4  UNL     1       0.593   0.314  -1.176  1.00  0.00     0.043 C 
HETATM   12  C5  UNL     1      -0.154   1.370  -0.437  1.00  0.00     0.011 C 
HETATM   13  C6  UNL     1      -1.465   1.718  -1.104  1.00  0.00     0.001 C 
HETATM   14  C7  UNL     1      -2.559   1.983  -0.073  1.00  0.00     0.000 C 
HETATM   15  C8  UNL     1      -3.552   0.813  -0.057  1.00  0.00     0.000 C 
HETATM   16  C9  UNL     1      -3.233  -0.051   1.101  1.00  0.00     0.000 C 
HETATM   17  C10 UNL     1      -3.073  -1.500   0.817  1.00  0.00     0.000 C 
HETATM   18  C11 UNL     1      -2.189  -1.839  -0.337  1.00  0.00     0.000 C 
HETATM   19  C12 UNL     1      -0.725  -1.510  -0.062  1.00  0.00     0.001 C 
HETATM   20  C13 UNL     1      -0.119  -0.981  -1.320  1.00  0.00     0.011 C 
ENDBRANCH   8  11
BRANCH   1  21
HETATM   21  N1  UNL     1       6.795   0.233   0.212  1.00  0.00    -0.383 N 
ATOM     22  H12 UNL     1       7.711   0.135   0.650  1.00  0.00     0.157 HD
ATOM     23  H11 UNL     1       6.987   0.590  -0.724  1.00  0.00     0.157 HD
ENDBRANCH   1  21
TORSDOF 2
