REMARK  4 active torsions:
REMARK  status: ('A' for Active; 'I' for Inactive)
REMARK    1  A    between atoms: C2_2  and  C5_5 
REMARK    2  A    between atoms: C5_5  and  N2_8 
REMARK    3  A    between atoms: C7_9  and  O1_10 
REMARK    4  A    between atoms: C10_14  and  O2_15 
ROOT
HETATM    1  C5  UNL     1       2.020   0.381  -1.015  1.00  0.00     0.208 C 
HETATM    2  C6  UNL     1       2.393  -0.575  -2.086  1.00  0.00     0.086 C 
HETATM    3  N1  UNL     1       2.688  -1.328  -2.914  1.00  0.00    -0.195 NA
ENDROOT
BRANCH   1   4
HETATM    4  C2  UNL     1       2.979   0.159   0.109  1.00  0.00    -0.017 C 
HETATM    5  C1  UNL     1       2.724   1.070   1.287  1.00  0.00     0.018 C 
HETATM    6  C3  UNL     1       4.373   0.527  -0.416  1.00  0.00     0.018 C 
HETATM    7  C4  UNL     1       3.055  -1.253   0.589  1.00  0.00     0.018 C 
ENDBRANCH   1   4
BRANCH   1   8
HETATM    8  N2  UNL     1       0.644   0.267  -0.651  1.00  0.00    -0.289 N 
HETATM    9  C7  UNL     1      -0.055  -0.892  -0.631  1.00  0.00     0.152 A 
HETATM   10  C8  UNL     1      -1.347  -0.656  -0.238  1.00  0.00     0.008 A 
HETATM   11  C9  UNL     1      -1.408   0.727  -0.015  1.00  0.00     0.008 A 
HETATM   12  C14 UNL     1      -2.611  -1.385   0.002  1.00  0.00     0.024 C 
HETATM   13  C10 UNL     1      -0.180   1.262  -0.275  1.00  0.00     0.152 A 
HETATM   14  C11 UNL     1      -2.760   1.187   0.429  1.00  0.00     0.024 C 
HETATM   15  C12 UNL     1      -3.802   0.711  -0.565  1.00  0.00     0.010 C 
HETATM   16  C16 UNL     1      -3.036   0.400   1.717  1.00  0.00     0.010 C 
HETATM   17  C13 UNL     1      -3.643  -0.735  -0.928  1.00  0.00     0.010 C 
HETATM   18  C15 UNL     1      -3.092  -1.063   1.412  1.00  0.00     0.010 C 
BRANCH   9  19
HETATM   19  O1  UNL     1       0.400  -2.184  -0.949  1.00  0.00    -0.345 OA
ATOM     20  H1  UNL     1      -0.091  -2.997  -0.935  1.00  0.00     0.219 HD
ENDBRANCH   9  19
BRANCH  13  21
HETATM   21  O2  UNL     1       0.099   2.623  -0.149  1.00  0.00    -0.345 OA
ATOM     22  H2  UNL     1      -0.483   3.326   0.116  1.00  0.00     0.219 HD
ENDBRANCH  13  21
ENDBRANCH   1   8
TORSDOF 4
