REMARK  1 active torsions:
REMARK  status: ('A' for Active; 'I' for Inactive)
REMARK    1  A    between atoms: C5_6  and  C6_7 
ROOT
HETATM    1  C6  UNL     1       0.539   0.329   0.099  1.00  0.00     0.032 C 
HETATM    2  C7  UNL     1      -0.096   1.713  -0.087  1.00  0.00     0.072 C 
HETATM    3  C8  UNL     1      -1.537   1.695  -0.261  1.00  0.00    -0.015 C 
HETATM    4  N1  UNL     1      -2.030   2.799  -0.705  1.00  0.00    -0.405 N 
ATOM      5  H11 UNL     1      -3.043   2.786  -0.827  1.00  0.00     0.155 HD
ATOM      6  H12 UNL     1      -1.341   3.532  -0.872  1.00  0.00     0.155 HD
HETATM    7  C9  UNL     1      -2.528   0.640  -0.021  1.00  0.00     0.032 C 
HETATM    8  C10 UNL     1      -2.354   0.068   1.364  1.00  0.00     0.015 C 
HETATM    9  C11 UNL     1      -1.193  -0.899   1.438  1.00  0.00    -0.012 C 
HETATM   10  C12 UNL     1      -1.379  -1.923   0.373  1.00  0.00     0.015 C 
HETATM   11  C13 UNL     1      -1.228  -1.267  -0.971  1.00  0.00     0.033 C 
HETATM   12  C14 UNL     1      -2.431  -0.352  -1.130  1.00  0.00     0.021 C 
HETATM   13  C15 UNL     1       0.018  -0.474  -1.042  1.00  0.00    -0.002 C 
HETATM   14  N2  UNL     1       0.682  -0.474  -2.135  1.00  0.00    -0.404 N 
ATOM     15  H21 UNL     1       0.325  -1.024  -2.916  1.00  0.00     0.155 HD
ATOM     16  H22 UNL     1       1.542   0.073  -2.184  1.00  0.00     0.155 HD
HETATM   17  C16 UNL     1       0.097  -0.162   1.442  1.00  0.00     0.025 C 
ENDROOT
BRANCH   1  18
HETATM   18  C5  UNL     1       2.050   0.489   0.012  1.00  0.00    -0.030 A 
HETATM   19  C2  UNL     1       2.846  -0.616   0.014  1.00  0.00    -0.014 A 
HETATM   20  C1  UNL     1       2.598  -2.070   0.072  1.00  0.00     0.057 C 
HETATM   21  S1  UNL     1       4.422   0.034  -0.087  1.00  0.00    -0.106 SA
HETATM   22  C3  UNL     1       4.040   1.697  -0.130  1.00  0.00     0.051 A 
HETATM   23  C4  UNL     1       2.673   1.688  -0.063  1.00  0.00     0.016 A 
ENDBRANCH   1  18
TORSDOF 1
