REMARK  4 active torsions:
REMARK  status: ('A' for Active; 'I' for Inactive)
REMARK    1  A    between atoms: N1_1  and  C1_5 
REMARK    2  A    between atoms: C1_5  and  C2_6 
REMARK    3  A    between atoms: C2_6  and  C3_7 
REMARK    4  A    between atoms: C3_7  and  N2_8 
ROOT
HETATM    1  C3  UNL     1      -0.731  -0.460   0.639  1.00  0.00     0.123 C 
ENDROOT
BRANCH   1   2
HETATM    2  C2  UNL     1      -1.945  -0.216  -0.269  1.00  0.00     0.047 C 
BRANCH   2   3
HETATM    3  C1  UNL     1      -3.227  -0.390   0.536  1.00  0.00     0.231 C 
BRANCH   3   4
HETATM    4  N1  UNL     1      -4.343  -0.169  -0.327  1.00  0.00    -0.079 N 
ATOM      5  H13 UNL     1      -4.298   0.734  -0.799  1.00  0.00     0.274 HD
ATOM      6  H12 UNL     1      -4.319  -0.763  -1.156  1.00  0.00     0.274 HD
ATOM      7  H11 UNL     1      -5.201  -0.285   0.212  1.00  0.00     0.274 HD
ENDBRANCH   3   4
ENDBRANCH   2   3
ENDBRANCH   1   2
BRANCH   1   8
HETATM    8  N2  UNL     1       0.422  -0.278  -0.165  1.00  0.00    -0.393 N 
HETATM    9  C4  UNL     1       0.743   0.999  -0.626  1.00  0.00     0.058 C 
HETATM   10  C5  UNL     1       2.152   1.457  -0.501  1.00  0.00     0.044 C 
HETATM   11  C6  UNL     1       3.155   0.411  -0.183  1.00  0.00     0.007 C 
HETATM   12  C7  UNL     1       2.581  -0.663   0.720  1.00  0.00     0.020 C 
HETATM   13  C8  UNL     1       1.436  -1.254  -0.113  1.00  0.00     0.122 C 
ENDBRANCH   1   8
TORSDOF 4
