REMARK  4 active torsions:
REMARK  status: ('A' for Active; 'I' for Inactive)
REMARK    1  A    between atoms: C3_3  and  O1_4 
REMARK    2  A    between atoms: O1_4  and  C4_5 
REMARK    3  A    between atoms: C4_5  and  C5_6 
REMARK    4  A    between atoms: C5_6  and  C6_7 
ROOT
HETATM    1  C1  UNL     1       4.370  -1.040  -0.797  1.00  0.00     0.014 C 
HETATM    2  C2  UNL     1       3.760  -0.039  -0.483  1.00  0.00    -0.091 C 
HETATM    3  C3  UNL     1       3.032   1.173  -0.127  1.00  0.00     0.260 C 
ENDROOT
BRANCH   3   4
HETATM    4  O1  UNL     1       1.737   1.186  -0.581  1.00  0.00    -0.379 OA
BRANCH   4   5
HETATM    5  C4  UNL     1       0.960   0.159  -0.102  1.00  0.00     0.169 C 
BRANCH   5   6
HETATM    6  C5  UNL     1      -0.438   0.303  -0.687  1.00  0.00     0.035 C 
BRANCH   6   7
HETATM    7  C6  UNL     1      -1.368  -0.779  -0.220  1.00  0.00     0.051 A 
HETATM    8  C7  UNL     1      -1.601  -0.875   1.254  1.00  0.00     0.280 A 
HETATM    9  N1  UNL     1      -2.994  -0.495   1.129  1.00  0.00     0.097 N 
HETATM   10  C8  UNL     1      -3.264   0.758   0.460  1.00  0.00     0.309 A 
HETATM   11  C9  UNL     1      -2.823  -0.395  -0.320  1.00  0.00     0.257 A 
ENDBRANCH   6   7
ENDBRANCH   5   6
ENDBRANCH   4   5
ENDBRANCH   3   4
TORSDOF 4
