REMARK  14 active torsions:
REMARK  status: ('A' for Active; 'I' for Inactive)
REMARK    1  A    between atoms: C2_2  and  C3_3 
REMARK    2  A    between atoms: C3_3  and  C4_4 
REMARK    3  A    between atoms: C4_4  and  C5_5 
REMARK    4  A    between atoms: C9_11  and  C10_12 
REMARK    5  A    between atoms: C11_13  and  O1_14 
REMARK    6  A    between atoms: C13_17  and  O2_18 
REMARK    7  A    between atoms: C14_20  and  C15_21 
REMARK    8  A    between atoms: C15_21  and  N2_23 
REMARK    9  A    between atoms: N2_23  and  O3_24 
REMARK   10  A    between atoms: O3_24  and  C17_25 
REMARK   11  A    between atoms: C18_27  and  C19_28 
REMARK   12  A    between atoms: C19_28  and  O5_29 
REMARK   13  A    between atoms: C20_31  and  O6_32 
REMARK   14  A    between atoms: C22_34  and  O7_35 
ROOT
HETATM    1  C10 UNL     1       1.671  -1.571   0.624  1.00  0.00     0.057 C 
HETATM    2  C11 UNL     1       2.423  -2.516   1.548  1.00  0.00     0.128 C 
HETATM    3  C12 UNL     1       1.430  -3.146   2.467  1.00  0.00     0.064 C 
HETATM    4  C13 UNL     1       0.147  -3.120   1.698  1.00  0.00     0.132 C 
HETATM    5  C14 UNL     1       0.234  -1.896   0.844  1.00  0.00     0.086 C 
ENDROOT
BRANCH   5   6
HETATM    6  C15 UNL     1      -0.531  -2.076  -0.434  1.00  0.00     0.098 C 
HETATM    7  C16 UNL     1      -0.054  -3.160  -1.383  1.00  0.00     0.083 C 
BRANCH   6   8
HETATM    8  N2  UNL     1      -1.467  -1.421  -0.714  1.00  0.00    -0.288 NA
BRANCH   8   9
HETATM    9  O3  UNL     1      -2.447  -0.733  -1.006  1.00  0.00    -0.174 OA
BRANCH   9  10
HETATM   10  C17 UNL     1      -2.942   0.391  -0.294  1.00  0.00     0.335 C 
HETATM   11  O4  UNL     1      -2.961   1.512  -1.096  1.00  0.00    -0.345 OA
HETATM   12  C18 UNL     1      -4.252   1.660  -1.576  1.00  0.00     0.180 C 
HETATM   13  C20 UNL     1      -5.112   1.294  -0.398  1.00  0.00     0.185 C 
HETATM   14  C22 UNL     1      -4.321   0.169   0.232  1.00  0.00     0.208 C 
BRANCH  12  15
HETATM   15  C19 UNL     1      -4.560   0.733  -2.730  1.00  0.00     0.198 C 
BRANCH  15  16
HETATM   16  O5  UNL     1      -3.685   0.979  -3.805  1.00  0.00    -0.398 OA
ATOM     17  H5  UNL     1      -3.879   0.397  -4.530  1.00  0.00     0.209 HD
ENDBRANCH  15  16
ENDBRANCH  12  15
BRANCH  13  18
HETATM   18  O6  UNL     1      -5.150   2.326   0.539  1.00  0.00    -0.385 OA
HETATM   19  C21 UNL     1      -6.449   2.652   0.893  1.00  0.00     0.202 C 
ENDBRANCH  13  18
BRANCH  14  20
HETATM   20  O7  UNL     1      -4.842  -1.087  -0.113  1.00  0.00    -0.388 OA
ATOM     21  H7  UNL     1      -5.720  -1.228   0.222  1.00  0.00     0.210 HD
ENDBRANCH  14  20
ENDBRANCH   9  10
ENDBRANCH   8   9
ENDBRANCH   6   8
ENDBRANCH   5   6
BRANCH   1  22
HETATM   22  C9  UNL     1       2.059  -0.152   0.878  1.00  0.00     0.136 C 
HETATM   23  C8  UNL     1       1.808   0.348   2.260  1.00  0.00     0.084 C 
HETATM   24  C6  UNL     1       2.155   1.793   2.317  1.00  0.00    -0.017 C 
HETATM   25  N1  UNL     1       2.223   2.440   1.223  1.00  0.00    -0.371 N 
HETATM   26  C7  UNL     1       2.419   2.473   3.643  1.00  0.00     0.063 C 
HETATM   27  C5  UNL     1       2.002   1.939  -0.087  1.00  0.00     0.220 C 
ATOM     28  H1  UNL     1       2.463   3.429   1.295  1.00  0.00     0.161 HD
HETATM   29  O8  UNL     1       1.468   0.655  -0.093  1.00  0.00    -0.361 OA
BRANCH  27  30
HETATM   30  C4  UNL     1       3.327   1.998  -0.819  1.00  0.00     0.054 C 
BRANCH  30  31
HETATM   31  C3  UNL     1       3.214   1.486  -2.234  1.00  0.00     0.004 C 
BRANCH  31  32
HETATM   32  C2  UNL     1       4.588   1.589  -2.865  1.00  0.00    -0.004 C 
HETATM   33  C1  UNL     1       5.553   0.727  -2.040  1.00  0.00     0.005 C 
ENDBRANCH  31  32
ENDBRANCH  30  31
ENDBRANCH  27  30
ENDBRANCH   1  22
BRANCH   4  34
HETATM   34  O2  UNL     1       0.032  -4.306   0.990  1.00  0.00    -0.395 OA
ATOM     35  H2  UNL     1      -0.783  -4.289   0.502  1.00  0.00     0.210 HD
ENDBRANCH   4  34
BRANCH   2  36
HETATM   36  O1  UNL     1       3.064  -3.526   0.832  1.00  0.00    -0.395 OA
ATOM     37  H1  UNL     1       3.534  -4.116   1.409  1.00  0.00     0.210 HD
ENDBRANCH   2  36
TORSDOF 14
