REMARK  13 active torsions:
REMARK  status: ('A' for Active; 'I' for Inactive)
REMARK    1  A    between atoms: O1_1  and  C1_3 
REMARK    2  A    between atoms: C1_3  and  C2_4 
REMARK    3  A    between atoms: C2_4  and  C3_5 
REMARK    4  A    between atoms: C3_5  and  C4_6 
REMARK    5  A    between atoms: C4_6  and  S1_7 
REMARK    6  A    between atoms: S1_7  and  C5_8 
REMARK    7  A    between atoms: C5_8  and  C6_9 
REMARK    8  A    between atoms: C12_16  and  N1_17 
REMARK    9  A    between atoms: C16_24  and  C17_25 
REMARK   10  A    between atoms: C17_25  and  O3_26 
REMARK   11  A    between atoms: C18_28  and  O4_29 
REMARK   12  A    between atoms: C19_31  and  O5_32 
REMARK   13  A    between atoms: C20_34  and  O6_35 
ROOT
HETATM    1  C6  UNL     1       2.618  -2.823   0.187  1.00  0.00     0.085 C 
HETATM    2  S2  UNL     1       1.417  -3.364  -1.015  1.00  0.00    -0.160 SA
HETATM    3  C7  UNL     1       0.233  -2.107  -1.524  1.00  0.00     0.081 C 
HETATM    4  C8  UNL     1      -0.833  -1.944  -0.443  1.00  0.00     0.019 C 
HETATM    5  C9  UNL     1      -0.309  -2.600   0.825  1.00  0.00     0.014 C 
HETATM    6  C10 UNL     1       0.664  -1.649   1.385  1.00  0.00     0.018 C 
HETATM    7  C11 UNL     1       0.165  -0.271   0.929  1.00  0.00     0.033 C 
HETATM    8  C12 UNL     1      -0.972  -0.513  -0.035  1.00  0.00     0.098 C 
HETATM    9  C20 UNL     1       2.106  -1.826   1.140  1.00  0.00     0.137 C 
ENDROOT
BRANCH   8  10
HETATM   10  N1  UNL     1      -2.253  -0.193   0.540  1.00  0.00    -0.317 N 
HETATM   11  C13 UNL     1      -2.549  -0.280   1.856  1.00  0.00     0.185 A 
HETATM   12  N2  UNL     1      -3.828   0.093   2.027  1.00  0.00    -0.350 N 
HETATM   13  C14 UNL     1      -4.341   0.417   0.810  1.00  0.00     0.093 A 
ATOM     14  H2  UNL     1      -4.328   0.127   2.916  1.00  0.00     0.166 HD
HETATM   15  C15 UNL     1      -3.350   0.236  -0.116  1.00  0.00     0.172 A 
HETATM   16  C19 UNL     1      -5.715   0.884   0.501  1.00  0.00     0.203 C 
HETATM   17  O2  UNL     1      -3.629   0.506  -1.469  1.00  0.00    -0.324 OA
HETATM   18  C16 UNL     1      -4.777   1.289  -1.755  1.00  0.00     0.185 C 
HETATM   19  C18 UNL     1      -5.979   0.854  -0.971  1.00  0.00     0.184 C 
BRANCH  18  20
HETATM   20  C17 UNL     1      -4.424   2.723  -1.473  1.00  0.00     0.199 C 
BRANCH  20  21
HETATM   21  O3  UNL     1      -5.442   3.614  -1.704  1.00  0.00    -0.398 OA
ATOM     22  H3  UNL     1      -5.219   4.520  -1.526  1.00  0.00     0.209 HD
ENDBRANCH  20  21
ENDBRANCH  18  20
BRANCH  19  23
HETATM   23  O4  UNL     1      -7.027   1.726  -1.264  1.00  0.00    -0.390 OA
ATOM     24  H4  UNL     1      -7.788   1.450  -0.767  1.00  0.00     0.210 HD
ENDBRANCH  19  23
BRANCH  16  25
HETATM   25  O5  UNL     1      -6.649   0.061   1.168  1.00  0.00    -0.387 OA
ATOM     26  H5  UNL     1      -7.529   0.360   0.970  1.00  0.00     0.210 HD
ENDBRANCH  16  25
ENDBRANCH   8  10
BRANCH   9  27
HETATM   27  O6  UNL     1       2.721  -2.047   2.423  1.00  0.00    -0.394 OA
ATOM     28  H6  UNL     1       2.390  -1.403   3.038  1.00  0.00     0.210 HD
ENDBRANCH   9  27
BRANCH   1  29
HETATM   29  C5  UNL     1       3.941  -2.481  -0.483  1.00  0.00     0.091 C 
BRANCH  29  30
HETATM   30  S1  UNL     1       5.246  -1.917   0.553  1.00  0.00    -0.168 SA
BRANCH  30  31
HETATM   31  C4  UNL     1       5.196  -0.251   1.169  1.00  0.00     0.074 C 
BRANCH  31  32
HETATM   32  C3  UNL     1       5.347   0.685  -0.026  1.00  0.00     0.012 C 
BRANCH  32  33
HETATM   33  C2  UNL     1       5.326   2.141   0.370  1.00  0.00     0.027 C 
BRANCH  33  34
HETATM   34  C1  UNL     1       5.498   2.919  -0.943  1.00  0.00     0.164 C 
BRANCH  34  35
HETATM   35  O1  UNL     1       6.743   2.490  -1.453  1.00  0.00    -0.401 OA
ATOM     36  H1  UNL     1       6.849   2.971  -2.265  1.00  0.00     0.209 HD
ENDBRANCH  34  35
ENDBRANCH  33  34
ENDBRANCH  32  33
ENDBRANCH  31  32
ENDBRANCH  30  31
ENDBRANCH  29  30
ENDBRANCH   1  29
TORSDOF 13
