REMARK  6 active torsions:
REMARK  status: ('A' for Active; 'I' for Inactive)
REMARK    1  A    between atoms: C2_2  and  C3_3 
REMARK    2  A    between atoms: C9_9  and  C10_10 
REMARK    3  A    between atoms: C11_14  and  C12_15 
REMARK    4  A    between atoms: C14_17  and  O2_18 
REMARK    5  A    between atoms: C15_20  and  C16_21 
REMARK    6  A    between atoms: C16_21  and  O3_22 
ROOT
HETATM    1  C10 UNL     1       0.179   0.411   0.687  1.00  0.00     0.161 A 
HETATM    2  N1  UNL     1      -0.166   1.690   0.480  1.00  0.00    -0.241 N 
ATOM      3  H1  UNL     1       0.488   2.455   0.311  1.00  0.00     0.196 HD
HETATM    4  O1  UNL     1      -1.439   1.806   0.527  1.00  0.00    -0.220 OA
HETATM    5  C11 UNL     1      -2.004   0.634   0.763  1.00  0.00     0.177 A 
HETATM    6  N2  UNL     1      -0.997  -0.245   0.865  1.00  0.00    -0.319 N 
ATOM      7  H2  UNL     1      -1.098  -1.244   1.047  1.00  0.00     0.169 HD
ENDROOT
BRANCH   1   8
HETATM    8  C9  UNL     1       1.516  -0.088   0.705  1.00  0.00     0.115 C 
HETATM    9  C8  UNL     1       1.634  -1.409   0.939  1.00  0.00     0.048 C 
HETATM   10  C7  UNL     1       2.851  -2.323   1.040  1.00  0.00     0.053 C 
HETATM   11  C6  UNL     1       3.969  -1.452   0.968  1.00  0.00    -0.156 C 
HETATM   12  C5  UNL     1       5.214  -0.882   0.848  1.00  0.00     0.087 C 
HETATM   13  C4  UNL     1       4.961   0.650   0.715  1.00  0.00     0.044 C 
HETATM   14  C3  UNL     1       3.777   1.104  -0.000  1.00  0.00     0.129 C 
HETATM   15  O5  UNL     1       2.475   0.916   0.471  1.00  0.00    -0.342 OA
BRANCH  14  16
HETATM   16  C2  UNL     1       3.905   1.152  -1.510  1.00  0.00     0.028 C 
HETATM   17  C1  UNL     1       2.599   1.647  -2.108  1.00  0.00     0.007 C 
ENDBRANCH  14  16
ENDBRANCH   1   8
BRANCH   5  18
HETATM   18  C12 UNL     1      -3.458   0.442   0.875  1.00  0.00     0.201 C 
HETATM   19  C13 UNL     1      -3.800  -1.012   0.777  1.00  0.00     0.074 C 
HETATM   20  C14 UNL     1      -4.919  -1.050  -0.223  1.00  0.00     0.152 C 
HETATM   21  C15 UNL     1      -5.332   0.381  -0.335  1.00  0.00     0.174 C 
HETATM   22  O4  UNL     1      -4.172   1.098  -0.124  1.00  0.00    -0.368 OA
BRANCH  20  23
HETATM   23  O2  UNL     1      -4.412  -1.567  -1.414  1.00  0.00    -0.393 OA
ATOM     24  H2  UNL     1      -5.120  -1.591  -2.047  1.00  0.00     0.210 HD
ENDBRANCH  20  23
BRANCH  21  25
HETATM   25  C16 UNL     1      -5.903   0.718  -1.698  1.00  0.00     0.198 C 
BRANCH  25  26
HETATM   26  O3  UNL     1      -7.066   0.022  -1.954  1.00  0.00    -0.398 OA
ATOM     27  H3  UNL     1      -7.424   0.233  -2.808  1.00  0.00     0.209 HD
ENDBRANCH  25  26
ENDBRANCH  21  25
ENDBRANCH   5  18
TORSDOF 6
