REMARK  6 active torsions:
REMARK  status: ('A' for Active; 'I' for Inactive)
REMARK    1  A    between atoms: N1_2  and  N2_4 
REMARK    2  A    between atoms: C6_10  and  C7_11 
REMARK    3  A    between atoms: C7_11  and  C8_12 
REMARK    4  A    between atoms: C8_12  and  O1_13 
REMARK    5  A    between atoms: C12_18  and  N3_19 
REMARK    6  A    between atoms: C14_23  and  N4_24 
ROOT
HETATM    1  N2  UNL     1       2.608  -0.174  -0.272  1.00  0.00    -0.309 N 
ATOM      2  H2  UNL     1       2.728   0.629  -0.890  1.00  0.00     0.186 HD
HETATM    3  C2  UNL     1       1.528  -0.298   0.419  1.00  0.00     0.037 C 
HETATM    4  C3  UNL     1       1.466  -1.463   1.253  1.00  0.00     0.071 C 
HETATM    5  C4  UNL     1       0.084  -2.169   1.393  1.00  0.00     0.086 C 
HETATM    6  C5  UNL     1      -0.871  -1.301   0.948  1.00  0.00    -0.173 C 
HETATM    7  C6  UNL     1      -1.726  -0.260   0.451  1.00  0.00     0.090 C 
HETATM    8  C9  UNL     1      -0.781   0.898   0.195  1.00  0.00     0.002 A 
HETATM    9  C10 UNL     1       0.627   0.855   0.146  1.00  0.00     0.000 A 
HETATM   10  C11 UNL     1       1.309   2.010  -0.169  1.00  0.00     0.050 A 
HETATM   11  C12 UNL     1       0.646   3.195  -0.436  1.00  0.00     0.106 A 
HETATM   12  C13 UNL     1      -0.715   3.170  -0.370  1.00  0.00     0.072 A 
HETATM   13  C14 UNL     1      -1.473   2.020  -0.051  1.00  0.00     0.113 A 
ENDROOT
BRANCH   1  14
HETATM   14  N1  UNL     1       3.607  -1.130  -0.177  1.00  0.00    -0.341 N 
HETATM   15  C1  UNL     1       4.129  -1.870  -1.311  1.00  0.00     0.167 C 
ATOM     16  H1  UNL     1       3.998  -1.325   0.744  1.00  0.00     0.179 HD
ENDBRANCH   1  14
BRANCH   7  17
HETATM   17  C7  UNL     1      -2.406  -0.709  -0.854  1.00  0.00     0.047 C 
BRANCH  17  18
HETATM   18  C8  UNL     1      -3.207  -1.945  -0.460  1.00  0.00     0.165 C 
BRANCH  18  19
HETATM   19  O1  UNL     1      -4.121  -1.606   0.505  1.00  0.00    -0.401 OA
ATOM     20  H1  UNL     1      -4.620  -2.376   0.751  1.00  0.00     0.209 HD
ENDBRANCH  18  19
ENDBRANCH  17  18
ENDBRANCH   7  17
BRANCH  13  21
HETATM   21  N4  UNL     1      -2.847   2.211  -0.046  1.00  0.00    -0.115 N 
HETATM   22  O4  UNL     1      -3.652   1.748   0.731  1.00  0.00    -0.532 OA
HETATM   23  O5  UNL     1      -3.376   3.087  -0.990  1.00  0.00    -0.532 OA
ENDBRANCH  13  21
BRANCH  11  24
HETATM   24  N3  UNL     1       1.379   4.366  -0.759  1.00  0.00    -0.116 N 
HETATM   25  O2  UNL     1       0.800   5.440  -1.001  1.00  0.00    -0.532 OA
HETATM   26  O3  UNL     1       2.750   4.362  -0.817  1.00  0.00    -0.532 OA
ENDBRANCH  11  24
TORSDOF 6
