REMARK  5 active torsions:
REMARK  status: ('A' for Active; 'I' for Inactive)
REMARK    1  A    between atoms: C2_2  and  N1_5 
REMARK       I    between atoms: N1_5  and  C5_7 
REMARK       I    between atoms: C5_7  and  N2_9 
REMARK       I    between atoms: N2_9  and  C6_11 
REMARK    2  A    between atoms: C6_11  and  C7_13 
REMARK    3  A    between atoms: C7_13  and  S1_14 
REMARK    4  A    between atoms: S1_14  and  C8_15 
REMARK    5  A    between atoms: C9_20  and  C10_21 
ROOT
HETATM    1  C7  UNL     1      -0.114  -1.718  -2.735  1.00  0.00     0.186 C 
ENDROOT
BRANCH   1   2
HETATM    2  C6  UNL     1      -1.337  -1.418  -1.959  1.00  0.00     0.235 C 
HETATM    3  N2  UNL     1      -1.745  -0.126  -1.578  1.00  0.00    -0.279 N 
HETATM    4  C5  UNL     1      -2.871   0.250  -0.834  1.00  0.00     0.323 C 
ATOM      5  H2  UNL     1      -1.141   0.637  -1.884  1.00  0.00     0.173 HD
HETATM    6  N1  UNL     1      -3.872  -0.573  -0.294  1.00  0.00    -0.335 N 
HETATM    7  O1  UNL     1      -3.034   1.512  -0.602  1.00  0.00    -0.247 OA
ATOM      8  H1  UNL     1      -3.803  -1.580  -0.440  1.00  0.00     0.165 HD
HETATM    9  O2  UNL     1      -2.044  -2.404  -1.636  1.00  0.00    -0.272 OA
BRANCH   6  10
HETATM   10  C2  UNL     1      -5.000  -0.061   0.461  1.00  0.00     0.023 C 
HETATM   11  C1  UNL     1      -5.759   0.887  -0.466  1.00  0.00     0.037 C 
HETATM   12  C3  UNL     1      -4.610   0.741   1.670  1.00  0.00     0.037 C 
HETATM   13  C4  UNL     1      -5.899  -1.179   0.916  1.00  0.00     0.037 C 
ENDBRANCH   6  10
ENDBRANCH   1   2
BRANCH   1  14
HETATM   14  S1  UNL     1       0.952  -0.283  -2.873  1.00  0.00    -0.075 SA
BRANCH  14  15
HETATM   15  C8  UNL     1       1.767   0.065  -1.325  1.00  0.00     0.203 A 
HETATM   16  N3  UNL     1       1.355   0.856  -0.345  1.00  0.00    -0.272 N 
HETATM   17  N4  UNL     1       2.223   0.874   0.661  1.00  0.00    -0.281 N 
ATOM     18  H3  UNL     1       0.482   1.384  -0.361  1.00  0.00     0.189 HD
HETATM   19  C9  UNL     1       3.216   0.056   0.283  1.00  0.00     0.145 A 
ATOM     20  H4  UNL     1       2.150   1.398   1.533  1.00  0.00     0.189 HD
HETATM   21  O3  UNL     1       2.923  -0.419  -0.910  1.00  0.00    -0.272 OA
BRANCH  19  22
HETATM   22  C10 UNL     1       4.476  -0.303   1.034  1.00  0.00     0.062 C 
HETATM   23  C11 UNL     1       4.792   0.671   2.107  1.00  0.00     0.013 C 
HETATM   24  C12 UNL     1       6.275   1.012   1.864  1.00  0.00     0.001 C 
HETATM   25  C13 UNL     1       6.255   1.095   0.351  1.00  0.00     0.001 C 
HETATM   26  C14 UNL     1       5.584  -0.201  -0.024  1.00  0.00     0.013 C 
ENDBRANCH  19  22
ENDBRANCH  14  15
ENDBRANCH   1  14
TORSDOF 5
