REMARK  12 active torsions:
REMARK  status: ('A' for Active; 'I' for Inactive)
REMARK    1  A    between atoms: C2_2  and  C3_3 
REMARK    2  A    between atoms: C3_3  and  C4_4 
REMARK    3  A    between atoms: C4_4  and  C5_5 
REMARK    4  A    between atoms: C6_6  and  C7_7 
REMARK    5  A    between atoms: C10_12  and  O3_13 
REMARK    6  A    between atoms: C17_20  and  O4_21 
REMARK    7  A    between atoms: O4_21  and  C18_22 
REMARK    8  A    between atoms: C19_24  and  C20_25 
REMARK    9  A    between atoms: C20_25  and  O6_26 
REMARK   10  A    between atoms: C21_28  and  O7_29 
REMARK   11  A    between atoms: C22_31  and  O8_32 
REMARK   12  A    between atoms: C23_34  and  O9_35 
ROOT
HETATM    1  C7  UNL     1       1.935  -0.050   1.285  1.00  0.00     0.140 C 
HETATM    2  C8  UNL     1       1.586   0.124   2.743  1.00  0.00     0.271 C 
HETATM    3  O1  UNL     1       2.465   0.357   3.608  1.00  0.00    -0.264 OA
HETATM    4  O2  UNL     1       0.262   0.013   3.064  1.00  0.00    -0.317 OA
HETATM    5  C9  UNL     1      -0.768  -0.375   2.174  1.00  0.00     0.224 C 
HETATM    6  C10 UNL     1      -0.329  -1.365   1.166  1.00  0.00     0.133 C 
HETATM    7  C12 UNL     1       1.105  -1.142   0.732  1.00  0.00    -0.022 C 
HETATM    8  C13 UNL     1       1.560  -1.996  -0.173  1.00  0.00    -0.077 C 
HETATM    9  C14 UNL     1       2.944  -1.925  -0.702  1.00  0.00     0.044 C 
HETATM   10  C15 UNL     1       0.665  -3.074  -0.702  1.00  0.00     0.037 C 
HETATM   11  C16 UNL     1      -0.767  -2.711  -0.775  1.00  0.00     0.040 C 
HETATM   12  C17 UNL     1      -1.106  -1.352  -0.135  1.00  0.00     0.166 C 
ENDROOT
BRANCH  12  13
HETATM   13  O4  UNL     1      -2.438  -1.353   0.080  1.00  0.00    -0.350 OA
BRANCH  13  14
HETATM   14  C18 UNL     1      -3.213  -0.389  -0.468  1.00  0.00     0.292 C 
HETATM   15  O5  UNL     1      -4.061  -0.840  -1.466  1.00  0.00    -0.348 OA
HETATM   16  C19 UNL     1      -4.844   0.060  -2.066  1.00  0.00     0.179 C 
HETATM   17  C21 UNL     1      -5.110   1.365  -1.456  1.00  0.00     0.180 C 
HETATM   18  C22 UNL     1      -4.287   1.736  -0.263  1.00  0.00     0.183 C 
HETATM   19  C23 UNL     1      -4.081   0.401   0.483  1.00  0.00     0.204 C 
BRANCH  16  20
HETATM   20  C20 UNL     1      -4.296   0.300  -3.483  1.00  0.00     0.198 C 
BRANCH  20  21
HETATM   21  O6  UNL     1      -3.009   0.772  -3.471  1.00  0.00    -0.398 OA
ATOM     22  H6  UNL     1      -2.671   0.920  -4.346  1.00  0.00     0.209 HD
ENDBRANCH  20  21
ENDBRANCH  16  20
BRANCH  17  23
HETATM   23  O7  UNL     1      -6.458   1.479  -1.029  1.00  0.00    -0.390 OA
ATOM     24  H7  UNL     1      -6.631   2.325  -0.633  1.00  0.00     0.210 HD
ENDBRANCH  17  23
BRANCH  18  25
HETATM   25  O8  UNL     1      -3.069   2.284  -0.630  1.00  0.00    -0.390 OA
ATOM     26  H8  UNL     1      -2.546   2.520   0.128  1.00  0.00     0.210 HD
ENDBRANCH  18  25
BRANCH  19  27
HETATM   27  O9  UNL     1      -5.390  -0.118   0.538  1.00  0.00    -0.388 OA
ATOM     28  H9  UNL     1      -5.936   0.379   1.136  1.00  0.00     0.210 HD
ENDBRANCH  19  27
ENDBRANCH  13  14
ENDBRANCH  12  13
BRANCH   6  29
HETATM   29  O3  UNL     1      -0.519  -2.640   1.689  1.00  0.00    -0.376 OA
HETATM   30  C11 UNL     1       0.169  -2.918   2.838  1.00  0.00     0.203 C 
ENDBRANCH   6  29
BRANCH   1  31
HETATM   31  C6  UNL     1       1.653   1.267   0.661  1.00  0.00    -0.012 C 
HETATM   32  C5  UNL     1       2.518   2.026   0.027  1.00  0.00    -0.029 C 
BRANCH  32  33
HETATM   33  C4  UNL     1       3.941   1.759  -0.207  1.00  0.00     0.027 C 
BRANCH  33  34
HETATM   34  C3  UNL     1       4.840   2.821   0.403  1.00  0.00     0.003 C 
BRANCH  34  35
HETATM   35  C2  UNL     1       6.290   2.450   0.104  1.00  0.00    -0.004 C 
HETATM   36  C1  UNL     1       6.669   1.120   0.672  1.00  0.00     0.005 C 
ENDBRANCH  34  35
ENDBRANCH  33  34
ENDBRANCH  32  33
ENDBRANCH   1  31
TORSDOF 12
