REMARK  19 active torsions:
REMARK  status: ('A' for Active; 'I' for Inactive)
REMARK    1  A    between atoms: O1_2  and  C2_3 
REMARK    2  A    between atoms: C2_3  and  C3_5 
REMARK    3  A    between atoms: C3_5  and  C4_6 
REMARK    4  A    between atoms: C4_6  and  C5_7 
REMARK    5  A    between atoms: C6_8  and  C7_9 
REMARK    6  A    between atoms: C8_14  and  N2_15 
REMARK    7  A    between atoms: C9_16  and  C10_17 
REMARK    8  A    between atoms: C11_18  and  C12_19 
REMARK    9  A    between atoms: C15_22  and  O6_23 
REMARK   10  A    between atoms: O6_23  and  S1_24 
REMARK   11  A    between atoms: S1_24  and  N3_25 
REMARK   12  A    between atoms: C18_36  and  C19_37 
REMARK   13  A    between atoms: C19_37  and  N6_38 
REMARK   14  A    between atoms: C19_37  and  C20_42 
REMARK   15  A    between atoms: C20_42  and  O9_43 
REMARK   16  A    between atoms: N7_45  and  N8_47 
REMARK   17  A    between atoms: S2_51  and  N9_53 
REMARK   18  A    between atoms: N9_53  and  N10_55 
REMARK   19  A    between atoms: N10_55  and  N11_57 
ROOT
HETATM    1  N2  UNL     1       0.385  -2.003   0.913  1.00  0.00    -0.285 N 
HETATM    2  C9  UNL     1       1.487  -1.196   1.409  1.00  0.00     0.125 A 
HETATM    3  N4  UNL     1       2.432  -2.036   1.769  1.00  0.00    -0.284 N 
ATOM      4  H4  UNL     1       3.333  -1.756   2.158  1.00  0.00     0.188 HD
HETATM    5  N5  UNL     1       2.079  -3.246   1.570  1.00  0.00    -0.285 N 
ATOM      6  H5  UNL     1       2.636  -4.077   1.769  1.00  0.00     0.188 HD
HETATM    7  C18 UNL     1       0.864  -3.227   1.061  1.00  0.00     0.141 A 
ENDROOT
BRANCH   1   8
HETATM    8  C8  UNL     1      -0.716  -1.364   0.396  1.00  0.00     0.299 C 
HETATM    9  O5  UNL     1      -1.557  -0.906   1.581  1.00  0.00    -0.246 OA
HETATM   10  N1  UNL     1      -2.496  -0.450   0.653  1.00  0.00    -0.226 N 
HETATM   11  C6  UNL     1      -3.292   0.619   0.212  1.00  0.00     0.150 C 
HETATM   12  C21 UNL     1      -2.087  -1.719  -0.004  1.00  0.00     0.269 C 
HETATM   13  C5  UNL     1      -3.800   0.616  -0.958  1.00  0.00     0.035 C 
HETATM   14  C22 UNL     1      -4.024  -0.692  -1.670  1.00  0.00     0.171 C 
HETATM   15  S2  UNL     1      -2.495  -1.553  -1.702  1.00  0.00     0.072 S 
HETATM   16  O10 UNL     1      -1.523  -0.778  -2.517  1.00  0.00    -0.246 OA
BRANCH  11  17
HETATM   17  C7  UNL     1      -3.133   1.814   1.038  1.00  0.00     0.230 C 
HETATM   18  O3  UNL     1      -3.450   2.906   0.627  1.00  0.00    -0.643 OA
HETATM   19  O4  UNL     1      -2.624   1.736   2.315  1.00  0.00    -0.643 OA
ENDBRANCH  11  17
BRANCH  13  20
HETATM   20  C4  UNL     1      -4.290   1.833  -1.740  1.00  0.00    -0.111 C 
BRANCH  20  21
HETATM   21  C3  UNL     1      -4.645   2.706  -2.308  1.00  0.00     0.138 C 
BRANCH  21  22
HETATM   22  C2  UNL     1      -4.686   4.192  -2.215  1.00  0.00     0.290 C 
HETATM   23  O2  UNL     1      -5.242   4.871  -3.163  1.00  0.00    -0.260 OA
BRANCH  22  24
HETATM   24  O1  UNL     1      -4.187   4.955  -1.228  1.00  0.00    -0.323 OA
HETATM   25  C1  UNL     1      -4.188   6.347  -1.075  1.00  0.00     0.213 C 
ENDBRANCH  22  24
ENDBRANCH  21  22
ENDBRANCH  20  21
ENDBRANCH  13  20
BRANCH  15  26
HETATM   26  N9  UNL     1      -2.636  -2.960  -2.430  1.00  0.00    -0.243 N 
ATOM     27  H9  UNL     1      -2.174  -3.813  -2.115  1.00  0.00     0.198 HD
BRANCH  26  28
HETATM   28  N10 UNL     1      -3.461  -2.891  -3.543  1.00  0.00    -0.242 N 
ATOM     29  H10 UNL     1      -3.105  -2.520  -4.424  1.00  0.00     0.208 HD
BRANCH  28  30
HETATM   30  N11 UNL     1      -4.783  -3.333  -3.449  1.00  0.00    -0.330 N 
ATOM     31 2H11 UNL     1      -5.124  -3.701  -2.561  1.00  0.00     0.178 HD
ATOM     32 1H11 UNL     1      -5.390  -3.282  -4.267  1.00  0.00     0.178 HD
ENDBRANCH  28  30
ENDBRANCH  26  28
ENDBRANCH  15  26
ENDBRANCH   1   8
BRANCH   2  33
HETATM   33  C10 UNL     1       1.332   0.205   1.610  1.00  0.00     0.051 C 
HETATM   34  C11 UNL     1       2.088   1.216   1.570  1.00  0.00     0.015 C 
BRANCH  34  35
HETATM   35  C12 UNL     1       3.495   1.285   1.253  1.00  0.00    -0.036 A 
HETATM   36  C13 UNL     1       4.230   2.395   1.780  1.00  0.00     0.014 A 
HETATM   37  C14 UNL     1       5.504   2.655   1.403  1.00  0.00     0.039 A 
HETATM   38  C15 UNL     1       6.172   1.820   0.455  1.00  0.00     0.091 A 
HETATM   39  C16 UNL     1       5.506   0.773  -0.047  1.00  0.00     0.039 A 
HETATM   40  C17 UNL     1       4.176   0.539   0.373  1.00  0.00     0.014 A 
BRANCH  38  41
HETATM   41  O6  UNL     1       7.487   2.239   0.165  1.00  0.00    -0.217 OA
BRANCH  41  42
HETATM   42  S1  UNL     1       7.553   3.749  -0.670  1.00  0.00     0.360 S 
HETATM   43  O7  UNL     1       6.634   4.743  -0.018  1.00  0.00    -0.176 OA
HETATM   44  O8  UNL     1       7.128   3.557  -2.068  1.00  0.00    -0.176 OA
BRANCH  42  45
HETATM   45  N3  UNL     1       9.189   4.360  -0.623  1.00  0.00    -0.305 N 
ATOM     46  H32 UNL     1       9.971   3.887  -0.170  1.00  0.00     0.171 HD
ATOM     47  H31 UNL     1       9.228   5.252  -1.116  1.00  0.00     0.171 HD
ENDBRANCH  42  45
ENDBRANCH  41  42
ENDBRANCH  38  41
ENDBRANCH  34  35
ENDBRANCH   2  33
BRANCH   7  48
HETATM   48  C19 UNL     1       0.154  -4.534   0.731  1.00  0.00     0.327 C 
BRANCH  48  49
HETATM   49  N6  UNL     1       1.151  -5.351   0.041  1.00  0.00    -0.061 N 
ATOM     50  H63 UNL     1       1.568  -4.893  -0.770  1.00  0.00     0.275 HD
ATOM     51  H62 UNL     1       2.017  -5.474   0.566  1.00  0.00     0.275 HD
ATOM     52  H61 UNL     1       0.676  -6.226  -0.180  1.00  0.00     0.275 HD
ENDBRANCH  48  49
BRANCH  48  53
HETATM   53  C20 UNL     1      -0.085  -5.122   2.074  1.00  0.00     0.168 C 
HETATM   54  N7  UNL     1       0.608  -5.703   3.049  1.00  0.00    -0.288 N 
ATOM     55  H7  UNL     1       1.621  -5.803   2.980  1.00  0.00     0.188 HD
BRANCH  53  56
HETATM   56  O9  UNL     1      -1.445  -5.006   2.322  1.00  0.00    -0.346 OA
ATOM     57  H9  UNL     1      -1.598  -5.382   3.181  1.00  0.00     0.219 HD
ENDBRANCH  53  56
BRANCH  54  58
HETATM   58  N8  UNL     1      -0.117  -6.198   4.230  1.00  0.00    -0.343 N 
ATOM     59  H82 UNL     1      -1.130  -6.090   4.284  1.00  0.00     0.176 HD
ATOM     60  H81 UNL     1       0.415  -6.644   4.978  1.00  0.00     0.176 HD
ENDBRANCH  54  58
ENDBRANCH  48  53
ENDBRANCH   7  48
TORSDOF 19
