REMARK  14 active torsions:
REMARK  status: ('A' for Active; 'I' for Inactive)
REMARK    1  A    between atoms: C3_6  and  C4_7 
REMARK    2  A    between atoms: C4_7  and  N3_8 
REMARK    3  A    between atoms: C4_7  and  O1_12 
REMARK    4  A    between atoms: O1_12  and  C5_13 
REMARK    5  A    between atoms: C6_14  and  O2_15 
REMARK    6  A    between atoms: C7_17  and  O3_18 
REMARK    7  A    between atoms: O3_18  and  S1_19 
REMARK    8  A    between atoms: C8_23  and  O7_24 
REMARK    9  A    between atoms: O7_24  and  S2_25 
REMARK   10  A    between atoms: C9_29  and  O11_30 
REMARK   11  A    between atoms: O11_30  and  S3_31 
REMARK   12  A    between atoms: C10_35  and  O15_36 
REMARK   13  A    between atoms: O15_36  and  S4_37 
REMARK   14  A    between atoms: C12_42  and  N4_43 
ROOT
HETATM    1  N1  UNL     1       7.296  -0.634   2.025  1.00  0.00    -0.190 NA
HETATM    2  C1  UNL     1       6.363  -0.623   1.353  1.00  0.00     0.120 C 
HETATM    3  C2  UNL     1       5.195  -0.609   0.543  1.00  0.00     0.147 A 
HETATM    4  N2  UNL     1       4.377   0.414   0.318  1.00  0.00    -0.345 N 
ATOM      5  H2  UNL     1       4.501   1.344   0.718  1.00  0.00     0.166 HD
HETATM    6  C3  UNL     1       3.364   0.073  -0.503  1.00  0.00     0.069 A 
HETATM    7  C11 UNL     1       3.580  -1.257  -0.800  1.00  0.00     0.068 A 
HETATM    8  C12 UNL     1       4.706  -1.686  -0.161  1.00  0.00     0.142 A 
ENDROOT
BRANCH   8   9
HETATM    9  N4  UNL     1       5.252  -2.980  -0.217  1.00  0.00    -0.113 N 
HETATM   10  O19 UNL     1       5.867  -3.487   0.733  1.00  0.00    -0.532 OA
HETATM   11  O20 UNL     1       5.115  -3.735  -1.351  1.00  0.00    -0.532 OA
ENDBRANCH   8   9
BRANCH   6  12
HETATM   12  C4  UNL     1       2.275   0.982  -0.957  1.00  0.00     0.370 C 
BRANCH  12  13
HETATM   13  N3  UNL     1       2.848   2.250  -1.363  1.00  0.00    -0.047 N 
ATOM     14  H33 UNL     1       3.420   2.668  -0.630  1.00  0.00     0.277 HD
ATOM     15  H32 UNL     1       3.576   2.137  -2.068  1.00  0.00     0.277 HD
ATOM     16  H31 UNL     1       2.102   2.873  -1.674  1.00  0.00     0.277 HD
ENDBRANCH  12  13
BRANCH  12  17
HETATM   17  O1  UNL     1       1.256   1.115  -0.043  1.00  0.00    -0.344 OA
BRANCH  17  18
HETATM   18  C5  UNL     1       0.023   0.684  -0.465  1.00  0.00     0.189 C 
HETATM   19  C6  UNL     1      -0.971   1.856  -0.498  1.00  0.00     0.182 C 
HETATM   20  C7  UNL     1      -2.317   1.407  -0.967  1.00  0.00     0.209 C 
HETATM   21  C8  UNL     1      -2.865   0.277  -0.082  1.00  0.00     0.211 C 
HETATM   22  C9  UNL     1      -1.830  -0.850  -0.222  1.00  0.00     0.211 C 
HETATM   23  C10 UNL     1      -0.584  -0.375   0.433  1.00  0.00     0.210 C 
BRANCH  19  24
HETATM   24  O2  UNL     1      -0.987   2.513   0.718  1.00  0.00    -0.390 OA
ATOM     25  H2  UNL     1      -1.601   3.237   0.698  1.00  0.00     0.210 HD
ENDBRANCH  19  24
BRANCH  20  26
HETATM   26  O3  UNL     1      -3.168   2.511  -0.932  1.00  0.00    -0.246 OA
BRANCH  26  27
HETATM   27  S1  UNL     1      -3.729   2.928  -2.444  1.00  0.00     0.252 S 
HETATM   28  O4  UNL     1      -5.111   3.544  -2.274  1.00  0.00    -0.572 OA
HETATM   29  O5  UNL     1      -3.913   1.709  -3.302  1.00  0.00    -0.572 OA
HETATM   30  O6  UNL     1      -2.739   4.058  -3.204  1.00  0.00    -0.572 OA
ENDBRANCH  26  27
ENDBRANCH  20  26
BRANCH  21  31
HETATM   31  O7  UNL     1      -2.899   0.787   1.190  1.00  0.00    -0.246 OA
BRANCH  31  32
HETATM   32  S2  UNL     1      -4.401   0.807   1.893  1.00  0.00     0.252 S 
HETATM   33  O8  UNL     1      -5.521   0.833   0.917  1.00  0.00    -0.572 OA
HETATM   34  O9  UNL     1      -4.542  -0.486   2.685  1.00  0.00    -0.572 OA
HETATM   35  O10 UNL     1      -4.515   2.065   3.026  1.00  0.00    -0.572 OA
ENDBRANCH  31  32
ENDBRANCH  21  31
BRANCH  22  36
HETATM   36  O11 UNL     1      -2.299  -2.062   0.128  1.00  0.00    -0.246 OA
BRANCH  36  37
HETATM   37  S3  UNL     1      -2.482  -3.223  -0.991  1.00  0.00     0.252 S 
HETATM   38  O12 UNL     1      -2.193  -2.634  -2.363  1.00  0.00    -0.572 OA
HETATM   39  O13 UNL     1      -3.822  -3.862  -1.069  1.00  0.00    -0.572 OA
HETATM   40  O14 UNL     1      -1.339  -4.434  -0.757  1.00  0.00    -0.572 OA
ENDBRANCH  36  37
ENDBRANCH  22  36
BRANCH  23  41
HETATM   41  O15 UNL     1       0.301  -1.367   0.789  1.00  0.00    -0.246 OA
BRANCH  41  42
HETATM   42  S4  UNL     1       0.632  -1.388   2.436  1.00  0.00     0.252 S 
HETATM   43  O16 UNL     1      -0.365  -2.273   3.143  1.00  0.00    -0.572 OA
HETATM   44  O17 UNL     1       0.531  -0.036   3.049  1.00  0.00    -0.572 OA
HETATM   45  O18 UNL     1       2.152  -2.082   2.729  1.00  0.00    -0.572 OA
ENDBRANCH  41  42
ENDBRANCH  23  41
ENDBRANCH  17  18
ENDBRANCH  12  17
ENDBRANCH   6  12
TORSDOF 14
