REMARK  11 active torsions:
REMARK  status: ('A' for Active; 'I' for Inactive)
REMARK    1  A    between atoms: C2_2  and  C3_3 
REMARK    2  A    between atoms: C3_3  and  C4_4 
REMARK    3  A    between atoms: C4_4  and  N1_5 
REMARK    4  A    between atoms: C5_6  and  C6_7 
REMARK    5  A    between atoms: C6_7  and  C7_8 
REMARK    6  A    between atoms: C7_8  and  N2_9 
REMARK    7  A    between atoms: C9_12  and  C10_13 
REMARK    8  A    between atoms: C10_13  and  C11_14 
REMARK    9  A    between atoms: C19_23  and  N4_24 
REMARK   10  A    between atoms: N4_24  and  C20_26 
REMARK   11  A    between atoms: C20_26  and  C21_27 
ROOT
HETATM    1  N1  UNL     1      -0.713  -1.172   0.868  1.00  0.00    -0.336 N 
HETATM    2  C5  UNL     1       0.301  -0.914   1.713  1.00  0.00     0.015 A 
HETATM    3  C14 UNL     1       0.381   0.451   1.864  1.00  0.00     0.040 A 
HETATM    4  C15 UNL     1      -0.617   1.046   1.087  1.00  0.00     0.012 A 
HETATM    5  C16 UNL     1      -0.992   2.342   0.862  1.00  0.00     0.041 A 
HETATM    6  C17 UNL     1      -2.064   2.572   0.002  1.00  0.00     0.089 A 
HETATM    7  C18 UNL     1      -2.477   3.947  -0.249  1.00  0.00     0.103 C 
HETATM    8  N3  UNL     1      -2.778   5.028  -0.424  1.00  0.00    -0.191 NA
HETATM    9  C19 UNL     1      -2.723   1.532  -0.602  1.00  0.00     0.128 A 
HETATM   10  N5  UNL     1      -2.290   0.248  -0.330  1.00  0.00    -0.327 N 
ATOM     11  H5  UNL     1      -2.770  -0.536  -0.772  1.00  0.00     0.169 HD
HETATM   12  C22 UNL     1      -1.273  -0.002   0.485  1.00  0.00     0.119 A 
ENDROOT
BRANCH   9  13
HETATM   13  N4  UNL     1      -3.675   1.606  -1.375  1.00  0.00    -0.345 N 
ATOM     14  H4  UNL     1      -3.919   0.650  -1.632  1.00  0.00     0.167 HD
BRANCH  13  15
HETATM   15  C20 UNL     1      -4.548   2.427  -2.038  1.00  0.00     0.174 C 
BRANCH  15  16
HETATM   16  C21 UNL     1      -5.733   2.882  -1.236  1.00  0.00     0.214 C 
HETATM   17  O2  UNL     1      -5.831   2.495  -0.072  1.00  0.00    -0.643 OA
HETATM   18  O3  UNL     1      -6.665   3.707  -1.811  1.00  0.00    -0.643 OA
ENDBRANCH  15  16
ENDBRANCH  13  15
ENDBRANCH   9  13
BRANCH   2  19
HETATM   19  C6  UNL     1       1.205  -1.874   2.393  1.00  0.00     0.077 C 
BRANCH  19  20
HETATM   20  C7  UNL     1       2.443  -2.186   1.570  1.00  0.00     0.135 C 
BRANCH  20  21
HETATM   21  N2  UNL     1       3.239  -1.024   1.289  1.00  0.00    -0.345 N 
HETATM   22  C8  UNL     1       4.251  -0.553   2.069  1.00  0.00     0.235 A 
HETATM   23  O1  UNL     1       4.774   0.522   1.526  1.00  0.00    -0.309 OA
HETATM   24  C9  UNL     1       4.162   0.815   0.398  1.00  0.00     0.070 A 
HETATM   25  C13 UNL     1       3.199  -0.158   0.252  1.00  0.00     0.124 A 
BRANCH  24  26
HETATM   26  C10 UNL     1       4.493   1.951  -0.464  1.00  0.00     0.066 C 
BRANCH  26  27
HETATM   27  C11 UNL     1       5.537   1.605  -1.509  1.00  0.00     0.002 C 
HETATM   28  C12 UNL     1       5.859   2.790  -2.381  1.00  0.00     0.005 C 
ENDBRANCH  26  27
ENDBRANCH  24  26
ENDBRANCH  20  21
ENDBRANCH  19  20
ENDBRANCH   2  19
BRANCH   1  29
HETATM   29  C4  UNL     1      -1.144  -2.478   0.434  1.00  0.00     0.130 C 
BRANCH  29  30
HETATM   30  C3  UNL     1      -2.199  -3.061   1.347  1.00  0.00     0.020 C 
BRANCH  30  31
HETATM   31  C2  UNL     1      -2.635  -4.437   0.867  1.00  0.00    -0.003 C 
HETATM   32  C1  UNL     1      -3.219  -4.346  -0.546  1.00  0.00     0.005 C 
ENDBRANCH  30  31
ENDBRANCH  29  30
ENDBRANCH   1  29
TORSDOF 11
