REMARK  11 active torsions:
REMARK  status: ('A' for Active; 'I' for Inactive)
REMARK    1  A    between atoms: C2_2  and  C3_3 
REMARK    2  A    between atoms: C3_3  and  C4_4 
REMARK    3  A    between atoms: C4_4  and  N1_5 
REMARK    4  A    between atoms: N1_5  and  C5_6 
REMARK    5  A    between atoms: C6_9  and  N3_10 
REMARK    6  A    between atoms: N3_10  and  C8_12 
REMARK    7  A    between atoms: C8_12  and  C9_13 
REMARK    8  A    between atoms: C9_13  and  N4_14 
REMARK    9  A    between atoms: N5_19  and  C14_21 
REMARK   10  A    between atoms: C14_21  and  C17_24 
REMARK   11  A    between atoms: C17_24  and  C18_25 
ROOT
HETATM    1  C5  UNL     1      -0.673   1.911   0.358  1.00  0.00     0.261 A 
HETATM    2  N2  UNL     1      -1.713   1.079   0.670  1.00  0.00    -0.302 N 
ATOM      3  H2  UNL     1      -2.578   1.481   1.031  1.00  0.00     0.171 HD
HETATM    4  C6  UNL     1      -1.629  -0.237   0.517  1.00  0.00     0.109 A 
HETATM    5  C12 UNL     1      -0.462  -0.771   0.032  1.00  0.00     0.096 A 
HETATM    6  C13 UNL     1       0.612   0.049  -0.293  1.00  0.00     0.108 A 
HETATM    7  N5  UNL     1       1.730  -0.352  -0.749  1.00  0.00    -0.367 N 
ATOM      8  H5  UNL     1       2.398   0.398  -0.928  1.00  0.00     0.162 HD
HETATM    9  N7  UNL     1       0.470   1.365  -0.119  1.00  0.00    -0.302 N 
ATOM     10  H7  UNL     1       1.249   1.980  -0.353  1.00  0.00     0.171 HD
ENDROOT
BRANCH   7  11
HETATM   11  C14 UNL     1       2.218  -1.638  -1.053  1.00  0.00     0.029 C 
HETATM   12  C15 UNL     1       2.249  -2.494   0.194  1.00  0.00     0.038 C 
HETATM   13  C16 UNL     1       1.358  -2.312  -2.120  1.00  0.00     0.038 C 
BRANCH  11  14
HETATM   14  C17 UNL     1       3.614  -1.524  -1.646  1.00  0.00     0.087 C 
BRANCH  14  15
HETATM   15  C18 UNL     1       4.584  -0.877  -0.739  1.00  0.00     0.011 A 
HETATM   16  C19 UNL     1       4.761   0.513  -0.753  1.00  0.00     0.025 A 
HETATM   17  C20 UNL     1       5.650   1.154   0.060  1.00  0.00     0.004 A 
HETATM   18  C21 UNL     1       6.424   0.435   0.946  1.00  0.00     0.024 A 
HETATM   19  C22 UNL     1       6.247  -0.934   0.957  1.00  0.00     0.005 A 
HETATM   20  C23 UNL     1       7.073  -1.726   1.905  1.00  0.00     0.068 C 
HETATM   21  N6  UNL     1       5.361  -1.531   0.141  1.00  0.00    -0.363 N 
ATOM     22  H6  UNL     1       5.273  -2.546   0.193  1.00  0.00     0.165 HD
ENDBRANCH  14  15
ENDBRANCH  11  14
ENDBRANCH   7  11
BRANCH   4  23
HETATM   23  N3  UNL     1      -2.749  -1.097   0.844  1.00  0.00    -0.370 N 
HETATM   24  C7  UNL     1      -3.964  -0.376   1.260  1.00  0.00     0.151 C 
BRANCH  23  25
HETATM   25  C8  UNL     1      -2.670  -2.519   0.760  1.00  0.00     0.154 C 
BRANCH  25  26
HETATM   26  C9  UNL     1      -3.421  -3.184  -0.322  1.00  0.00     0.291 C 
BRANCH  26  27
HETATM   27  N4  UNL     1      -4.798  -3.129  -0.430  1.00  0.00     0.081 N 
HETATM   28  C10 UNL     1      -5.592  -3.828   0.530  1.00  0.00     0.309 C 
HETATM   29  C11 UNL     1      -5.203  -3.589  -1.752  1.00  0.00     0.309 C 
ENDBRANCH  26  27
ENDBRANCH  25  26
ENDBRANCH  23  25
ENDBRANCH   4  23
BRANCH   1  30
HETATM   30  N1  UNL     1      -0.791   3.099   0.512  1.00  0.00    -0.388 NA
BRANCH  30  31
HETATM   31  C4  UNL     1      -0.846   4.418   0.654  1.00  0.00     0.159 C 
BRANCH  31  32
HETATM   32  C3  UNL     1      -0.909   5.237  -0.657  1.00  0.00     0.059 C 
BRANCH  32  33
HETATM   33  C2  UNL     1      -0.963   6.686  -0.199  1.00  0.00     0.002 C 
HETATM   34  C1  UNL     1      -2.189   6.926   0.665  1.00  0.00     0.005 C 
ENDBRANCH  32  33
ENDBRANCH  31  32
ENDBRANCH  30  31
ENDBRANCH   1  30
TORSDOF 11
