REMARK  11 active torsions:
REMARK  status: ('A' for Active; 'I' for Inactive)
REMARK    1  A    between atoms: O1_2  and  C2_3 
REMARK    2  A    between atoms: C7_8  and  O2_9 
REMARK    3  A    between atoms: O2_9  and  C8_10 
REMARK    4  A    between atoms: C8_10  and  C9_11 
REMARK    5  A    between atoms: C9_11  and  C10_12 
REMARK    6  A    between atoms: C10_12  and  N1_13 
REMARK       I    between atoms: N1_13  and  C11_15 
REMARK       I    between atoms: C11_15  and  N3_24 
REMARK    7  A    between atoms: N2_16  and  C12_18 
REMARK    8  A    between atoms: C12_18  and  C13_19 
REMARK    9  A    between atoms: C13_19  and  C14_20 
REMARK   10  A    between atoms: C14_20  and  C15_21 
REMARK   11  A    between atoms: C15_21  and  O3_22 
ROOT
HETATM    1  C10 UNL     1      -0.982  -2.391   0.777  1.00  0.00     0.140 C 
ENDROOT
BRANCH   1   2
HETATM    2  C9  UNL     1       0.002  -2.614  -0.359  1.00  0.00     0.047 C 
BRANCH   2   3
HETATM    3  C8  UNL     1       0.991  -1.494  -0.514  1.00  0.00     0.177 C 
BRANCH   3   4
HETATM    4  O2  UNL     1       1.774  -1.282   0.620  1.00  0.00    -0.348 OA
BRANCH   4   5
HETATM    5  C7  UNL     1       2.734  -0.275   0.608  1.00  0.00     0.102 A 
HETATM    6  C2  UNL     1       3.491  -0.090   1.746  1.00  0.00     0.102 A 
HETATM    7  C3  UNL     1       4.439   0.911   1.725  1.00  0.00     0.055 A 
HETATM    8  C4  UNL     1       4.634   1.711   0.600  1.00  0.00     0.019 A 
HETATM    9  C5  UNL     1       3.875   1.523  -0.537  1.00  0.00    -0.041 A 
HETATM   10  C22 UNL     1       5.542   2.806   0.321  1.00  0.00     0.160 C 
HETATM   11  C6  UNL     1       2.930   0.525  -0.515  1.00  0.00     0.047 A 
HETATM   12  C20 UNL     1       4.268   2.493  -1.596  1.00  0.00     0.047 C 
HETATM   13  C21 UNL     1       5.606   3.016  -1.150  1.00  0.00     0.088 C 
HETATM   14  O4  UNL     1       6.171   3.468   1.201  1.00  0.00    -0.292 OA
BRANCH   6  15
HETATM   15  O1  UNL     1       3.308  -0.885   2.885  1.00  0.00    -0.353 OA
HETATM   16  C1  UNL     1       4.119  -0.638   4.015  1.00  0.00     0.210 C 
ENDBRANCH   6  15
ENDBRANCH   4   5
ENDBRANCH   3   4
ENDBRANCH   2   3
ENDBRANCH   1   2
BRANCH   1  17
HETATM   17  N1  UNL     1      -1.773  -1.203   0.628  1.00  0.00    -0.226 N 
HETATM   18  C11 UNL     1      -2.754  -1.053  -0.386  1.00  0.00     0.671 C 
HETATM   19  N2  UNL     1      -2.983   0.080  -0.937  1.00  0.00    -0.226 N 
HETATM   20  N3  UNL     1      -3.538  -2.143  -0.848  1.00  0.00    -0.218 N 
ATOM     21  H2  UNL     1      -3.695   0.159  -1.663  1.00  0.00     0.177 HD
HETATM   22  C16 UNL     1      -3.644  -2.492  -2.250  1.00  0.00     0.141 C 
HETATM   23  C19 UNL     1      -4.356  -3.098  -0.133  1.00  0.00     0.141 C 
HETATM   24  C17 UNL     1      -4.115  -3.919  -2.308  1.00  0.00     0.022 C 
HETATM   25  C18 UNL     1      -4.029  -4.381  -0.867  1.00  0.00     0.022 C 
ATOM     26  H1  UNL     1      -1.623  -0.433   1.280  1.00  0.00     0.177 HD
BRANCH  19  27
HETATM   27  C12 UNL     1      -2.228   1.255  -0.529  1.00  0.00     0.138 C 
BRANCH  27  28
HETATM   28  C13 UNL     1      -3.038   2.031   0.471  1.00  0.00     0.022 C 
BRANCH  28  29
HETATM   29  C14 UNL     1      -2.273   3.243   0.921  1.00  0.00     0.028 C 
BRANCH  29  30
HETATM   30  C15 UNL     1      -1.990   4.125  -0.268  1.00  0.00     0.164 C 
BRANCH  30  31
HETATM   31  O3  UNL     1      -1.289   5.242   0.241  1.00  0.00    -0.401 OA
ATOM     32  H3  UNL     1      -1.111   5.798  -0.508  1.00  0.00     0.209 HD
ENDBRANCH  30  31
ENDBRANCH  29  30
ENDBRANCH  28  29
ENDBRANCH  27  28
ENDBRANCH  19  27
ENDBRANCH   1  17
TORSDOF 11
