REMARK  11 active torsions:
REMARK  status: ('A' for Active; 'I' for Inactive)
REMARK    1  A    between atoms: C3_3  and  C4_4 
REMARK    2  A    between atoms: C7_7  and  C8_8 
REMARK    3  A    between atoms: C10_11  and  C11_12 
REMARK    4  A    between atoms: C11_12  and  C12_13 
REMARK    5  A    between atoms: C11_12  and  C16_17 
REMARK    6  A    between atoms: C12_13  and  C13_14 
REMARK    7  A    between atoms: C13_14  and  C14_15 
REMARK    8  A    between atoms: C16_17  and  O2_18 
REMARK    9  A    between atoms: C16_17  and  C17_20 
REMARK   10  A    between atoms: C17_20  and  N1_21 
REMARK   11  A    between atoms: N2_24  and  C20_25 
ROOT
HETATM    1  C1  UNL     1      -7.244  -1.346  -2.516  1.00  0.00     0.012 C 
HETATM    2  C2  UNL     1      -7.115  -1.382  -1.308  1.00  0.00    -0.117 C 
HETATM    3  C3  UNL     1      -6.976  -1.446   0.146  1.00  0.00     0.102 C 
ENDROOT
BRANCH   3   4
HETATM    4  C4  UNL     1      -5.587  -0.903   0.503  1.00  0.00    -0.028 A 
HETATM    5  C5  UNL     1      -5.313  -0.912   1.970  1.00  0.00     0.016 C 
HETATM    6  C6  UNL     1      -5.194   0.364  -0.247  1.00  0.00     0.018 A 
HETATM    7  C7  UNL     1      -4.533  -0.953  -0.511  1.00  0.00     0.028 A 
BRANCH   7   8
HETATM    8  C8  UNL     1      -3.079  -1.048  -0.160  1.00  0.00     0.217 C 
HETATM    9  C9  UNL     1      -2.256  -1.096  -1.457  1.00  0.00     0.204 C 
HETATM   10  O1  UNL     1      -1.030  -0.693  -0.980  1.00  0.00    -0.357 OA
HETATM   11  C10 UNL     1      -1.298   0.425  -0.250  1.00  0.00     0.328 C 
HETATM   12  N3  UNL     1      -2.552   0.157   0.425  1.00  0.00    -0.042 N 
ATOM     13  H32 UNL     1      -3.204   0.941   0.393  1.00  0.00     0.280 HD
ATOM     14  H31 UNL     1      -2.463   0.108   1.440  1.00  0.00     0.280 HD
BRANCH  11  15
HETATM   15  C11 UNL     1      -0.244   0.943   0.646  1.00  0.00     0.072 C 
BRANCH  15  16
HETATM   16  C12 UNL     1      -0.725   2.178   1.377  1.00  0.00     0.011 C 
BRANCH  16  17
HETATM   17  C13 UNL     1      -1.117   3.313   0.492  1.00  0.00     0.000 C 
BRANCH  17  18
HETATM   18  C14 UNL     1      -1.583   4.480   1.364  1.00  0.00    -0.005 C 
HETATM   19  C15 UNL     1      -2.767   4.041   2.190  1.00  0.00     0.005 C 
ENDBRANCH  17  18
ENDBRANCH  16  17
ENDBRANCH  15  16
BRANCH  15  20
HETATM   20  C16 UNL     1       1.130   1.103   0.079  1.00  0.00     0.144 C 
BRANCH  20  21
HETATM   21  O2  UNL     1       1.110   1.972  -1.011  1.00  0.00    -0.393 OA
ATOM     22  H2  UNL     1       1.983   2.074  -1.371  1.00  0.00     0.210 HD
ENDBRANCH  20  21
BRANCH  20  23
HETATM   23  C17 UNL     1       1.816  -0.187  -0.177  1.00  0.00     0.154 C 
BRANCH  23  24
HETATM   24  N1  UNL     1       3.190  -0.106  -0.521  1.00  0.00    -0.387 N 
HETATM   25  C18 UNL     1       4.102   0.319   0.454  1.00  0.00     0.088 C 
HETATM   26  C19 UNL     1       5.502   0.280  -0.160  1.00  0.00     0.317 C 
HETATM   27  N2  UNL     1       5.827  -1.120  -0.300  1.00  0.00     0.098 N 
HETATM   28  C22 UNL     1       4.830  -1.869  -1.005  1.00  0.00     0.237 C 
HETATM   29  C23 UNL     1       4.390  -3.014  -0.119  1.00  0.00     0.044 C 
HETATM   30  C24 UNL     1       3.653  -1.065  -1.460  1.00  0.00     0.157 C 
BRANCH  27  31
HETATM   31  C20 UNL     1       7.156  -1.319  -0.843  1.00  0.00     0.269 C 
HETATM   32  C21 UNL     1       7.464  -2.786  -0.966  1.00  0.00     0.037 C 
ENDBRANCH  27  31
ENDBRANCH  23  24
ENDBRANCH  20  23
ENDBRANCH  15  20
ENDBRANCH  11  15
ENDBRANCH   7   8
ENDBRANCH   3   4
TORSDOF 11
