REMARK  8 active torsions:
REMARK  status: ('A' for Active; 'I' for Inactive)
REMARK    1  A    between atoms: C3_6  and  C4_7 
REMARK    2  A    between atoms: C5_10  and  O2_11 
REMARK    3  A    between atoms: N4_13  and  C6_14 
REMARK    4  A    between atoms: C6_14  and  C7_15 
REMARK       I    between atoms: C7_15  and  N5_17 
REMARK    5  A    between atoms: N5_17  and  N6_19 
REMARK    6  A    between atoms: C8_20  and  N7_21 
REMARK    7  A    between atoms: N7_21  and  N8_23 
REMARK    8  A    between atoms: C9_29  and  N10_30 
ROOT
HETATM    1  N1  UNL     1       0.825   2.260   3.640  1.00  0.00    -0.188 NA
HETATM    2  C1  UNL     1       1.426   1.778   2.753  1.00  0.00     0.137 C 
HETATM    3  C2  UNL     1       2.179   1.197   1.678  1.00  0.00     0.193 A 
HETATM    4  N2  UNL     1       3.486   0.813   1.730  1.00  0.00    -0.326 N 
ATOM      5  H2  UNL     1       4.096   0.891   2.544  1.00  0.00     0.168 HD
HETATM    6  C3  UNL     1       3.840   0.315   0.532  1.00  0.00     0.151 A 
HETATM    7  C5  UNL     1       2.711   0.406  -0.254  1.00  0.00     0.177 A 
HETATM    8  N4  UNL     1       1.695   0.946   0.448  1.00  0.00    -0.294 N 
ENDROOT
BRANCH   8   9
HETATM    9  C6  UNL     1       0.360   1.204  -0.020  1.00  0.00     0.238 C 
BRANCH   9  10
HETATM   10  C7  UNL     1      -0.498  -0.042   0.255  1.00  0.00     0.255 C 
HETATM   11  O3  UNL     1       0.055  -0.985   0.794  1.00  0.00    -0.270 OA
HETATM   12  N5  UNL     1      -1.819   0.095  -0.165  1.00  0.00    -0.245 N 
ATOM     13  H5  UNL     1      -2.042   0.989  -0.603  1.00  0.00     0.191 HD
BRANCH  12  14
HETATM   14  N6  UNL     1      -2.903  -0.819  -0.077  1.00  0.00    -0.058 N 
HETATM   15  C8  UNL     1      -4.044  -0.560  -0.725  1.00  0.00     0.726 A 
HETATM   16  N9  UNL     1      -5.052  -1.458  -0.532  1.00  0.00    -0.154 N 
HETATM   17  S1  UNL     1      -4.426  -2.586   0.489  1.00  0.00     0.041 SA
ATOM     18  H9  UNL     1      -5.990  -1.435  -0.933  1.00  0.00     0.193 HD
HETATM   19  C9  UNL     1      -2.847  -1.904   0.680  1.00  0.00     0.198 A 
BRANCH  15  20
HETATM   20  N7  UNL     1      -4.344   0.394  -1.538  1.00  0.00    -0.136 N 
ATOM     21  H7  UNL     1      -5.308   0.310  -1.862  1.00  0.00     0.205 HD
BRANCH  20  22
HETATM   22  N8  UNL     1      -3.755   1.448  -2.069  1.00  0.00    -0.331 N 
ATOM     23  H82 UNL     1      -2.795   1.510  -1.731  1.00  0.00     0.177 HD
ATOM     24  H81 UNL     1      -3.992   2.203  -2.712  1.00  0.00     0.177 HD
ENDBRANCH  20  22
ENDBRANCH  15  20
BRANCH  19  25
HETATM   25  N10 UNL     1      -1.908  -2.424   1.440  1.00  0.00    -0.377 N 
ATOM     26 2H10 UNL     1      -0.977  -2.022   1.553  1.00  0.00     0.158 HD
ATOM     27 1H10 UNL     1      -1.865  -3.260   2.023  1.00  0.00     0.158 HD
ENDBRANCH  19  25
ENDBRANCH  12  14
ENDBRANCH   9  10
ENDBRANCH   8   9
BRANCH   6  28
HETATM   28  C4  UNL     1       5.160  -0.220   0.134  1.00  0.00     0.285 C 
HETATM   29  N3  UNL     1       5.318  -0.698  -1.187  1.00  0.00    -0.056 NA
HETATM   30  O1  UNL     1       6.085  -0.230   0.977  1.00  0.00    -0.269 OA
ENDBRANCH   6  28
BRANCH   7  31
HETATM   31  O2  UNL     1       2.628  -0.004  -1.594  1.00  0.00    -0.344 OA
ATOM     32  H2  UNL     1       1.850   0.059  -2.136  1.00  0.00     0.219 HD
ENDBRANCH   7  31
TORSDOF 8
