REMARK  14 active torsions:
REMARK  status: ('A' for Active; 'I' for Inactive)
REMARK    1  A    between atoms: C2_2  and  C3_4 
REMARK    2  A    between atoms: C4_5  and  O2_6 
REMARK    3  A    between atoms: C5_8  and  O3_9 
REMARK    4  A    between atoms: C6_11  and  C7_12 
REMARK    5  A    between atoms: C7_12  and  O4_13 
REMARK    6  A    between atoms: O4_13  and  C8_14 
REMARK       I    between atoms: C8_14  and  N1_16 
REMARK    7  A    between atoms: N1_16  and  C9_18 
REMARK    8  A    between atoms: C9_18  and  C10_19 
REMARK       I    between atoms: C10_19  and  N2_21 
REMARK    9  A    between atoms: N2_21  and  C11_23 
REMARK   10  A    between atoms: C11_23  and  C12_24 
REMARK   11  A    between atoms: C11_23  and  C19_33 
REMARK   12  A    between atoms: C12_24  and  C13_25 
REMARK   13  A    between atoms: C18_30  and  O7_31 
REMARK       I    between atoms: C19_33  and  N3_35 
REMARK       I    between atoms: N3_35  and  C20_37 
REMARK   14  A    between atoms: N6_42  and  N7_43 
ROOT
HETATM    1  C9  UNL     1      -0.783  -0.848   2.198  1.00  0.00     0.227 C 
ENDROOT
BRANCH   1   2
HETATM    2  N1  UNL     1       0.535  -1.118   1.672  1.00  0.00    -0.328 N 
HETATM    3  C8  UNL     1       1.296  -0.063   1.121  1.00  0.00     0.361 C 
HETATM    4  O5  UNL     1       0.881   1.123   1.072  1.00  0.00    -0.238 OA
ATOM      5  H1  UNL     1       0.914  -2.065   1.698  1.00  0.00     0.165 HD
BRANCH   3   6
HETATM    6  O4  UNL     1       2.575  -0.256   0.585  1.00  0.00    -0.298 OA
BRANCH   6   7
HETATM    7  C7  UNL     1       3.320   0.809   0.038  1.00  0.00     0.243 C 
BRANCH   7   8
HETATM    8  C6  UNL     1       4.628   0.382  -0.476  1.00  0.00     0.097 A 
HETATM    9  C5  UNL     1       5.434   1.386  -1.038  1.00  0.00     0.127 A 
HETATM   10  C4  UNL     1       6.687   1.080  -1.555  1.00  0.00     0.120 A 
HETATM   11  C3  UNL     1       7.143  -0.236  -1.513  1.00  0.00     0.115 A 
HETATM   12  C21 UNL     1       6.305  -1.184  -0.948  1.00  0.00     0.283 A 
HETATM   13  N6  UNL     1       5.099  -0.852  -0.457  1.00  0.00    -0.225 N 
HETATM   14  O9  UNL     1       6.706  -2.392  -0.901  1.00  0.00    -0.265 OA
BRANCH   9  15
HETATM   15  O3  UNL     1       4.960   2.682  -1.066  1.00  0.00    -0.356 OA
ATOM     16  H3  UNL     1       4.103   2.891  -0.713  1.00  0.00     0.218 HD
ENDBRANCH   9  15
BRANCH  10  17
HETATM   17  O2  UNL     1       7.479   2.063  -2.106  1.00  0.00    -0.357 OA
ATOM     18  H2  UNL     1       7.168   2.960  -2.135  1.00  0.00     0.218 HD
ENDBRANCH  10  17
BRANCH  11  19
HETATM   19  C2  UNL     1       8.443  -0.567  -2.043  1.00  0.00     0.164 C 
HETATM   20  C1  UNL     1       9.365   0.391  -2.644  1.00  0.00     0.097 C 
HETATM   21  O1  UNL     1       8.793  -1.794  -1.971  1.00  0.00    -0.292 OA
ENDBRANCH  11  19
BRANCH  13  22
HETATM   22  N7  UNL     1       4.304  -1.859   0.101  1.00  0.00    -0.335 N 
ATOM     23  H72 UNL     1       3.389  -1.607   0.474  1.00  0.00     0.177 HD
ATOM     24  H71 UNL     1       4.668  -2.812   0.116  1.00  0.00     0.177 HD
ENDBRANCH  13  22
ENDBRANCH   7   8
ENDBRANCH   6   7
ENDBRANCH   3   6
ENDBRANCH   1   2
BRANCH   1  25
HETATM   25  C10 UNL     1      -1.738  -0.336   1.208  1.00  0.00     0.236 C 
HETATM   26  O6  UNL     1      -1.389  -0.182   0.017  1.00  0.00    -0.272 OA
HETATM   27  N2  UNL     1      -3.064  -0.007   1.563  1.00  0.00    -0.346 N 
ATOM     28  H2  UNL     1      -3.351  -0.130   2.534  1.00  0.00     0.163 HD
BRANCH  27  29
HETATM   29  C11 UNL     1      -4.030   0.494   0.621  1.00  0.00     0.181 C 
BRANCH  29  30
HETATM   30  C12 UNL     1      -5.280  -0.284   0.465  1.00  0.00     0.076 C 
BRANCH  30  31
HETATM   31  C13 UNL     1      -5.177  -1.671   0.038  1.00  0.00    -0.023 A 
HETATM   32  C14 UNL     1      -5.187  -2.064  -1.292  1.00  0.00     0.010 A 
HETATM   33  C15 UNL     1      -5.022  -3.365  -1.704  1.00  0.00     0.001 A 
HETATM   34  C16 UNL     1      -4.835  -4.350  -0.772  1.00  0.00     0.003 A 
HETATM   35  C17 UNL     1      -4.821  -4.000   0.543  1.00  0.00     0.037 A 
HETATM   36  C18 UNL     1      -4.992  -2.666   0.961  1.00  0.00     0.072 A 
BRANCH  36  37
HETATM   37  O7  UNL     1      -4.962  -2.499   2.327  1.00  0.00    -0.360 OA
ATOM     38  H7  UNL     1      -4.834  -3.189   2.967  1.00  0.00     0.217 HD
ENDBRANCH  36  37
ENDBRANCH  30  31
ENDBRANCH  29  30
BRANCH  29  39
HETATM   39  C19 UNL     1      -4.413   1.868   1.039  1.00  0.00     0.247 C 
HETATM   40  O8  UNL     1      -3.928   2.379   2.083  1.00  0.00    -0.271 OA
HETATM   41  N3  UNL     1      -5.326   2.593   0.251  1.00  0.00    -0.300 N 
HETATM   42  C20 UNL     1      -5.751   3.911   0.578  1.00  0.00     0.188 C 
ATOM     43  H3  UNL     1      -5.699   2.155  -0.591  1.00  0.00     0.171 HD
HETATM   44  N4  UNL     1      -6.580   4.592  -0.124  1.00  0.00    -0.373 N 
HETATM   45  N5  UNL     1      -5.224   4.499   1.755  1.00  0.00    -0.064 NA
ATOM     46  H42 UNL     1      -6.959   4.169  -0.971  1.00  0.00     0.158 HD
ATOM     47  H41 UNL     1      -6.885   5.537   0.110  1.00  0.00     0.158 HD
ENDBRANCH  29  39
ENDBRANCH  27  29
ENDBRANCH   1  25
TORSDOF 14
