REMARK  18 active torsions:
REMARK  status: ('A' for Active; 'I' for Inactive)
REMARK    1  A    between atoms: O1_2  and  C2_3 
REMARK    2  A    between atoms: C2_3  and  C3_4 
REMARK    3  A    between atoms: C2_3  and  C10_16 
REMARK    4  A    between atoms: C5_6  and  O2_7 
REMARK    5  A    between atoms: C6_9  and  O3_10 
REMARK    6  A    between atoms: C10_16  and  O4_17 
REMARK    7  A    between atoms: C10_16  and  C11_19 
REMARK    8  A    between atoms: C11_19  and  O5_20 
REMARK    9  A    between atoms: C11_19  and  N2_22 
REMARK   10  A    between atoms: C16_28  and  C17_29 
REMARK   11  A    between atoms: C17_29  and  O6_30 
REMARK   12  A    between atoms: C17_29  and  C20_34 
REMARK   13  A    between atoms: O6_30  and  C18_31 
REMARK   14  A    between atoms: C20_34  and  O8_35 
REMARK   15  A    between atoms: C20_34  and  O9_37 
REMARK   16  A    between atoms: C21_40  and  O11_41 
REMARK   17  A    between atoms: C21_40  and  C22_43 
REMARK   18  A    between atoms: C22_43  and  O12_45 
ROOT
HETATM    1  C3  UNL     1       4.788   0.662   0.004  1.00  0.00    -0.003 A 
HETATM    2  C4  UNL     1       4.774   1.391  -1.170  1.00  0.00     0.050 A 
HETATM    3  C5  UNL     1       5.914   1.834  -1.812  1.00  0.00     0.099 A 
HETATM    4  C6  UNL     1       7.149   1.554  -1.286  1.00  0.00     0.100 A 
HETATM    5  C7  UNL     1       7.198   0.824  -0.110  1.00  0.00     0.062 A 
HETATM    6  C8  UNL     1       6.032   0.381   0.529  1.00  0.00     0.056 A 
HETATM    7  C9  UNL     1       6.205  -0.419   1.713  1.00  0.00     0.100 C 
HETATM    8  N1  UNL     1       6.362  -1.080   2.653  1.00  0.00    -0.191 NA
ENDROOT
BRANCH   1   9
HETATM    9  C2  UNL     1       3.544   0.253   0.714  1.00  0.00     0.188 C 
BRANCH   9  10
HETATM   10  O1  UNL     1       3.230   1.159   1.684  1.00  0.00    -0.383 OA
HETATM   11  C1  UNL     1       3.028   0.761   2.958  1.00  0.00     0.202 C 
ENDBRANCH   9  10
BRANCH   9  12
HETATM   12  C10 UNL     1       2.431   0.267  -0.358  1.00  0.00     0.200 C 
BRANCH  12  13
HETATM   13  O4  UNL     1       2.796  -0.661  -1.300  1.00  0.00    -0.388 OA
ATOM     14  H4  UNL     1       2.112  -0.652  -1.959  1.00  0.00     0.210 HD
ENDBRANCH  12  13
BRANCH  12  15
HETATM   15  C11 UNL     1       1.109  -0.217   0.257  1.00  0.00     0.249 C 
BRANCH  15  16
HETATM   16  O5  UNL     1       0.630   0.863   0.980  1.00  0.00    -0.374 OA
ATOM     17  H5  UNL     1      -0.187   0.564   1.360  1.00  0.00     0.212 HD
ENDBRANCH  15  16
BRANCH  15  18
HETATM   18  N2  UNL     1       0.191  -0.351  -0.871  1.00  0.00    -0.368 N 
HETATM   19  C12 UNL     1      -0.994  -0.806  -0.702  1.00  0.00    -0.008 C 
HETATM   20  C13 UNL     1      -2.123  -1.053  -1.655  1.00  0.00     0.063 C 
HETATM   21  C15 UNL     1      -1.849  -1.313   0.371  1.00  0.00     0.072 C 
HETATM   22  C14 UNL     1      -2.503  -2.203  -0.730  1.00  0.00     0.068 C 
HETATM   23  C21 UNL     1      -3.922  -2.201  -0.304  1.00  0.00     0.193 C 
HETATM   24  O10 UNL     1      -4.149  -0.889   0.086  1.00  0.00    -0.344 OA
HETATM   25  C16 UNL     1      -3.011  -0.626   0.902  1.00  0.00     0.169 C 
ATOM     26  H2  UNL     1       0.498  -0.079  -1.805  1.00  0.00     0.161 HD
BRANCH  23  27
HETATM   27  O11 UNL     1      -4.160  -3.034   0.787  1.00  0.00    -0.363 OA
ATOM     28  H11 UNL     1      -5.070  -3.033   1.060  1.00  0.00     0.213 HD
ENDBRANCH  23  27
BRANCH  23  29
HETATM   29  C22 UNL     1      -4.861  -2.630  -1.409  1.00  0.00     0.176 C 
HETATM   30  C23 UNL     1      -4.540  -4.058  -1.781  1.00  0.00     0.045 C 
BRANCH  29  31
HETATM   31  O12 UNL     1      -4.658  -1.779  -2.499  1.00  0.00    -0.390 OA
ATOM     32  H12 UNL     1      -5.248  -2.049  -3.193  1.00  0.00     0.210 HD
ENDBRANCH  29  31
ENDBRANCH  23  29
BRANCH  25  33
HETATM   33  C17 UNL     1      -2.995   0.782   1.348  1.00  0.00     0.216 C 
BRANCH  33  34
HETATM   34  O6  UNL     1      -3.058   1.688   0.304  1.00  0.00    -0.309 OA
BRANCH  34  35
HETATM   35  C18 UNL     1      -2.389   2.855   0.136  1.00  0.00     0.255 C 
HETATM   36  C19 UNL     1      -2.612   3.672  -1.093  1.00  0.00     0.126 C 
HETATM   37  O7  UNL     1      -1.584   3.267   0.990  1.00  0.00    -0.266 OA
ENDBRANCH  34  35
ENDBRANCH  33  34
BRANCH  33  38
HETATM   38  C20 UNL     1      -4.336   0.952   2.168  1.00  0.00     0.285 C 
BRANCH  38  39
HETATM   39  O8  UNL     1      -5.392   0.681   1.322  1.00  0.00    -0.369 OA
ATOM     40  H8  UNL     1      -6.198   0.783   1.815  1.00  0.00     0.212 HD
ENDBRANCH  38  39
BRANCH  38  41
HETATM   41  O9  UNL     1      -4.359   0.074   3.222  1.00  0.00    -0.369 OA
ATOM     42  H9  UNL     1      -5.165   0.176   3.715  1.00  0.00     0.212 HD
ENDBRANCH  38  41
ENDBRANCH  33  38
ENDBRANCH  25  33
ENDBRANCH  15  18
ENDBRANCH  12  15
ENDBRANCH   9  12
ENDBRANCH   1   9
BRANCH   4  43
HETATM   43  O3  UNL     1       8.332   1.980  -1.896  1.00  0.00    -0.358 OA
ATOM     44  H3  UNL     1       9.188   1.786  -1.532  1.00  0.00     0.217 HD
ENDBRANCH   4  43
BRANCH   3  45
HETATM   45  O2  UNL     1       5.763   2.559  -2.984  1.00  0.00    -0.358 OA
ATOM     46  H2  UNL     1       6.547   2.864  -3.426  1.00  0.00     0.217 HD
ENDBRANCH   3  45
TORSDOF 18
