REMARK  18 active torsions:
REMARK  status: ('A' for Active; 'I' for Inactive)
REMARK    1  A    between atoms: C2_2  and  C3_3 
REMARK    2  A    between atoms: C3_3  and  C4_4 
REMARK    3  A    between atoms: C3_3  and  C7_9 
REMARK    4  A    between atoms: C3_3  and  N1_12 
REMARK    5  A    between atoms: C4_4  and  C5_5 
REMARK    6  A    between atoms: C5_5  and  C6_6 
REMARK    7  A    between atoms: N2_15  and  C10_16 
REMARK    8  A    between atoms: C10_16  and  N3_17 
REMARK    9  A    between atoms: C12_19  and  C13_20 
REMARK   10  A    between atoms: C13_20  and  O5_21 
REMARK   11  A    between atoms: O5_21  and  C14_22 
REMARK       I    between atoms: C14_22  and  N4_24 
REMARK   12  A    between atoms: N4_24  and  C15_26 
REMARK   13  A    between atoms: N7_30  and  C16_31 
REMARK   14  A    between atoms: N8_37  and  O9_38 
REMARK   15  A    between atoms: C21_41  and  O10_42 
REMARK   16  A    between atoms: C22_44  and  O11_45 
REMARK   17  A    between atoms: C22_44  and  C23_47 
REMARK   18  A    between atoms: C23_47  and  O12_48 
ROOT
HETATM    1  C14 UNL     1       1.153  -0.555   1.067  1.00  0.00     0.379 C 
HETATM    2  O6  UNL     1       1.152  -1.445   0.197  1.00  0.00    -0.238 OA
HETATM    3  N4  UNL     1       2.150  -0.536   2.065  1.00  0.00    -0.133 N 
ATOM      4  H4  UNL     1       1.879  -0.677   3.038  1.00  0.00     0.190 HD
ENDROOT
BRANCH   1   5
HETATM    5  O5  UNL     1       0.187   0.419   1.068  1.00  0.00    -0.297 OA
BRANCH   5   6
HETATM    6  C13 UNL     1      -0.827   0.466   0.123  1.00  0.00     0.240 C 
BRANCH   6   7
HETATM    7  C12 UNL     1      -1.710  -0.722   0.090  1.00  0.00     0.069 A 
HETATM    8  C11 UNL     1      -2.742  -1.071   0.939  1.00  0.00     0.146 A 
HETATM    9  N3  UNL     1      -3.276  -2.232   0.525  1.00  0.00    -0.252 N 
HETATM   10  N11 UNL     1      -2.583  -2.577  -0.550  1.00  0.00    -0.236 N 
HETATM   11  N10 UNL     1      -1.645  -1.694  -0.830  1.00  0.00    -0.286 N 
ATOM     12  H11 UNL     1      -2.754  -3.422  -1.094  1.00  0.00     0.209 HD
ATOM     13  H10 UNL     1      -0.987  -1.742  -1.608  1.00  0.00     0.188 HD
BRANCH   9  14
HETATM   14  C10 UNL     1      -4.368  -2.885   1.175  1.00  0.00     0.180 C 
BRANCH  14  15
HETATM   15  N2  UNL     1      -5.669  -2.549   0.729  1.00  0.00    -0.250 NA
HETATM   16  C9  UNL     1      -5.974  -2.804  -0.637  1.00  0.00     0.128 C 
HETATM   17  C8  UNL     1      -6.897  -1.663  -1.072  1.00  0.00     0.290 C 
HETATM   18  N1  UNL     1      -6.872  -0.718  -0.016  1.00  0.00     0.123 N 
HETATM   19  C24 UNL     1      -6.158  -1.252   1.089  1.00  0.00     0.372 C 
BRANCH  18  20
HETATM   20  C3  UNL     1      -8.177  -0.207   0.393  1.00  0.00     0.247 C 
BRANCH  20  21
HETATM   21  C2  UNL     1      -7.903   0.868   1.421  1.00  0.00     0.049 C 
HETATM   22  C1  UNL     1      -7.051   1.982   0.863  1.00  0.00     0.008 C 
ENDBRANCH  20  21
BRANCH  20  23
HETATM   23  C4  UNL     1      -8.896   0.385  -0.775  1.00  0.00     0.064 C 
BRANCH  23  24
HETATM   24  C5  UNL     1     -10.208   1.013  -0.424  1.00  0.00     0.116 C 
BRANCH  24  25
HETATM   25  C6  UNL     1     -10.802   1.595  -1.682  1.00  0.00     0.172 C 
HETATM   26  O1  UNL     1     -10.205   1.500  -2.752  1.00  0.00    -0.648 OA
HETATM   27  O2  UNL     1     -12.019   2.231  -1.602  1.00  0.00    -0.648 OA
ENDBRANCH  24  25
ENDBRANCH  23  24
ENDBRANCH  20  23
BRANCH  20  28
HETATM   28  C7  UNL     1      -8.994  -1.259   1.020  1.00  0.00     0.213 C 
HETATM   29  O3  UNL     1      -8.677  -2.502   0.922  1.00  0.00    -0.646 OA
HETATM   30  O4  UNL     1     -10.149  -1.051   1.762  1.00  0.00    -0.646 OA
ENDBRANCH  20  28
ENDBRANCH  18  20
ENDBRANCH  14  15
ENDBRANCH   9  14
ENDBRANCH   6   7
ENDBRANCH   5   6
ENDBRANCH   1   5
BRANCH   3  31
HETATM   31  C15 UNL     1       3.393  -0.346   1.784  1.00  0.00     0.715 A 
HETATM   32  N5  UNL     1       4.383  -0.318   2.696  1.00  0.00    -0.113 N 
HETATM   33  N6  UNL     1       5.514  -0.102   2.047  1.00  0.00     0.014 NA
ATOM     34  H5  UNL     1       4.279  -0.441   3.703  1.00  0.00     0.203 HD
HETATM   35  N7  UNL     1       5.287   0.010   0.751  1.00  0.00    -0.171 N 
HETATM   36  N9  UNL     1       3.987  -0.138   0.582  1.00  0.00    -0.113 N 
ATOM     37  H9  UNL     1       3.503  -0.102  -0.315  1.00  0.00     0.207 HD
BRANCH  35  38
HETATM   38  C16 UNL     1       6.266   0.250  -0.299  1.00  0.00     0.287 C 
HETATM   39  C17 UNL     1       6.951   1.558  -0.032  1.00  0.00     0.225 C 
HETATM   40  O7  UNL     1       7.982   1.801  -0.905  1.00  0.00    -0.374 OA
HETATM   41  C18 UNL     1       8.656   0.691  -1.350  1.00  0.00     0.206 C 
HETATM   42  C19 UNL     1       8.443  -0.489  -0.406  1.00  0.00     0.255 C 
HETATM   43  C22 UNL     1      10.141   0.879  -1.484  1.00  0.00     0.135 C 
HETATM   44  O8  UNL     1       7.121  -0.840  -0.316  1.00  0.00    -0.337 OA
HETATM   45  N8  UNL     1       8.972  -0.204   0.896  1.00  0.00    -0.165 NA
HETATM   46  C20 UNL     1      10.373   0.132   0.878  1.00  0.00     0.158 C 
HETATM   47  C21 UNL     1      10.708   1.191  -0.129  1.00  0.00     0.172 C 
BRANCH  45  48
HETATM   48  O9  UNL     1       8.825  -1.317   1.654  1.00  0.00    -0.310 OA
ATOM     49  H9  UNL     1       9.175  -1.128   2.517  1.00  0.00     0.237 HD
ENDBRANCH  45  48
BRANCH  47  50
HETATM   50  O10 UNL     1      10.150   2.382   0.302  1.00  0.00    -0.391 OA
ATOM     51  H10 UNL     1      10.362   3.053  -0.336  1.00  0.00     0.210 HD
ENDBRANCH  47  50
BRANCH  43  52
HETATM   52  O11 UNL     1      10.655  -0.337  -1.987  1.00  0.00    -0.382 OA
ATOM     53  H11 UNL     1      11.594  -0.218  -2.072  1.00  0.00     0.210 HD
ENDBRANCH  43  52
BRANCH  43  54
HETATM   54  C23 UNL     1      10.518   1.949  -2.470  1.00  0.00     0.207 C 
BRANCH  54  55
HETATM   55  O12 UNL     1      11.910   1.969  -2.550  1.00  0.00    -0.398 OA
ATOM     56  H12 UNL     1      12.148   2.645  -3.173  1.00  0.00     0.209 HD
ENDBRANCH  54  55
ENDBRANCH  43  54
ENDBRANCH  35  38
ENDBRANCH   3  31
TORSDOF 18
