REMARK  1 active torsions:
REMARK  status: ('A' for Active; 'I' for Inactive)
REMARK       I    between atoms: C2_2  and  N1_4 
REMARK    1  A    between atoms: N5_13  and  N6_15 
ROOT
HETATM    1  C1  UNL     1       2.364  -1.785   0.695  1.00  0.00     0.119 C 
HETATM    2  C2  UNL     1       1.721  -0.539   0.290  1.00  0.00     0.244 C 
HETATM    3  O1  UNL     1       2.442   0.451   0.002  1.00  0.00    -0.272 OA
HETATM    4  N1  UNL     1       0.313  -0.355   0.192  1.00  0.00    -0.060 N 
HETATM    5  C3  UNL     1      -0.606  -1.415   0.496  1.00  0.00     0.361 C 
HETATM    6  O2  UNL     1      -0.183  -2.521   0.853  1.00  0.00    -0.244 OA
HETATM    7  N2  UNL     1      -2.021  -1.186   0.384  1.00  0.00    -0.234 N 
ATOM      8  H2  UNL     1      -2.682  -1.795   0.866  1.00  0.00     0.189 HD
HETATM    9  N3  UNL     1      -2.479  -0.119  -0.394  1.00  0.00    -0.004 NA
HETATM   10  N4  UNL     1      -1.679   1.010  -0.288  1.00  0.00    -0.114 N 
ATOM     11  H4  UNL     1      -2.104   1.937  -0.268  1.00  0.00     0.203 HD
HETATM   12  C4  UNL     1      -0.271   0.873  -0.207  1.00  0.00     0.722 C 
HETATM   13  N5  UNL     1       0.506   1.864  -0.494  1.00  0.00    -0.137 N 
ATOM     14  H5  UNL     1       1.515   1.729  -0.424  1.00  0.00     0.205 HD
ENDROOT
BRANCH  13  15
HETATM   15  N6  UNL     1       0.030   3.102  -0.893  1.00  0.00    -0.331 N 
ATOM     16  H62 UNL     1      -0.981   3.219  -0.958  1.00  0.00     0.177 HD
ATOM     17  H61 UNL     1       0.644   3.885  -1.120  1.00  0.00     0.177 HD
ENDBRANCH  13  15
TORSDOF 1
