REMARK  10 active torsions:
REMARK  status: ('A' for Active; 'I' for Inactive)
REMARK    1  A    between atoms: C2_5  and  C3_6 
REMARK    2  A    between atoms: C3_6  and  O1_7 
REMARK    3  A    between atoms: C3_6  and  N3_9 
REMARK    4  A    between atoms: N3_9  and  N4_11 
REMARK    5  A    between atoms: N4_11  and  C4_13 
REMARK    6  A    between atoms: C5_16  and  O2_17 
REMARK    7  A    between atoms: O2_17  and  C6_18 
REMARK    8  A    between atoms: C6_18  and  O3_19 
REMARK    9  A    between atoms: C6_18  and  C7_21 
REMARK   10  A    between atoms: C7_21  and  O4_22 
ROOT
HETATM    1  C4  UNL     1      -0.054  -1.044  -0.164  1.00  0.00     0.702 A 
HETATM    2  N5  UNL     1      -0.881   0.031  -0.397  1.00  0.00    -0.168 N 
ATOM      3  H5  UNL     1      -0.457   0.957  -0.453  1.00  0.00     0.186 HD
HETATM    4  C5  UNL     1      -2.203  -0.062  -0.554  1.00  0.00     0.179 A 
HETATM    5  C8  UNL     1      -2.752  -1.348  -0.468  1.00  0.00     0.128 A 
HETATM    6  C9  UNL     1      -4.110  -1.519  -0.620  1.00  0.00     0.264 A 
HETATM    7  O5  UNL     1      -4.913  -0.587  -0.833  1.00  0.00    -0.267 OA
HETATM    8  N6  UNL     1      -4.569  -2.775  -0.527  1.00  0.00    -0.319 N 
ATOM      9  H6  UNL     1      -5.569  -2.948  -0.633  1.00  0.00     0.169 HD
HETATM   10  C10 UNL     1      -3.736  -3.826  -0.295  1.00  0.00     0.184 A 
HETATM   11  N7  UNL     1      -2.400  -3.651  -0.147  1.00  0.00    -0.337 N 
ATOM     12  H7  UNL     1      -1.785  -4.446   0.027  1.00  0.00     0.168 HD
HETATM   13  C11 UNL     1      -1.910  -2.415  -0.234  1.00  0.00     0.144 A 
HETATM   14  N8  UNL     1      -0.564  -2.258  -0.082  1.00  0.00    -0.170 N 
HETATM   15  C12 UNL     1       0.269  -3.408   0.159  1.00  0.00     0.177 C 
ENDROOT
BRANCH   1  16
HETATM   16  N4  UNL     1       1.170  -0.789  -0.039  1.00  0.00    -0.133 N 
ATOM     17  H4  UNL     1       1.358   0.209  -0.135  1.00  0.00     0.205 HD
BRANCH  16  18
HETATM   18  N3  UNL     1       2.297  -1.487   0.188  1.00  0.00    -0.286 N 
ATOM     19  H3  UNL     1       2.580  -2.209  -0.475  1.00  0.00     0.184 HD
BRANCH  18  20
HETATM   20  C3  UNL     1       3.131  -1.230   1.375  1.00  0.00     0.303 C 
BRANCH  20  21
HETATM   21  C2  UNL     1       3.609   0.158   1.349  1.00  0.00     0.151 A 
HETATM   22  N2  UNL     1       4.845   0.544   0.991  1.00  0.00    -0.279 N 
HETATM   23  N1  UNL     1       4.910   1.851   1.089  1.00  0.00    -0.246 N 
ATOM     24  H2  UNL     1       5.602  -0.072   0.694  1.00  0.00     0.188 HD
HETATM   25  C1  UNL     1       6.116   2.629   0.776  1.00  0.00     0.183 C 
HETATM   26  C13 UNL     1       3.738   2.321   1.503  1.00  0.00     0.342 A 
HETATM   27  N9  UNL     1       2.925   1.263   1.666  1.00  0.00    -0.292 N 
HETATM   28  O6  UNL     1       3.443   3.519   1.706  1.00  0.00    -0.245 OA
ATOM     29  H9  UNL     1       1.954   1.297   1.978  1.00  0.00     0.172 HD
ENDBRANCH  20  21
BRANCH  20  30
HETATM   30  O1  UNL     1       2.422  -1.469   2.551  1.00  0.00    -0.368 OA
ATOM     31  H1  UNL     1       2.113  -2.367   2.568  1.00  0.00     0.212 HD
ENDBRANCH  20  30
ENDBRANCH  18  20
ENDBRANCH  16  18
ENDBRANCH   1  16
BRANCH   4  32
HETATM   32  O2  UNL     1      -3.045   0.988  -0.786  1.00  0.00    -0.301 OA
BRANCH  32  33
HETATM   33  C6  UNL     1      -2.783   2.335  -0.915  1.00  0.00     0.288 C 
BRANCH  33  34
HETATM   34  O3  UNL     1      -3.477   3.072   0.077  1.00  0.00    -0.369 OA
ATOM     35  H3  UNL     1      -3.296   4.000  -0.012  1.00  0.00     0.212 HD
ENDBRANCH  33  34
BRANCH  33  36
HETATM   36  C7  UNL     1      -3.252   2.919  -2.238  1.00  0.00     0.225 C 
BRANCH  36  37
HETATM   37  O4  UNL     1      -2.965   4.281  -2.318  1.00  0.00    -0.396 OA
ATOM     38  H4  UNL     1      -3.258   4.646  -3.145  1.00  0.00     0.209 HD
ENDBRANCH  36  37
ENDBRANCH  33  36
ENDBRANCH  32  33
ENDBRANCH   4  32
TORSDOF 10
