REMARK  8 active torsions:
REMARK  status: ('A' for Active; 'I' for Inactive)
REMARK    1  A    between atoms: N1_2  and  C2_3 
REMARK    2  A    between atoms: N1_2  and  C12_36 
REMARK    3  A    between atoms: C2_3  and  N2_4 
REMARK    4  A    between atoms: N2_4  and  C3_6 
REMARK       I    between atoms: N7_19  and  C8_21 
REMARK       I    between atoms: C8_21  and  N8_22 
REMARK       I    between atoms: C8_21  and  N9_26 
REMARK    5  A    between atoms: C12_36  and  C13_37 
REMARK       I    between atoms: C13_37  and  N12_39 
REMARK    6  A    between atoms: N12_39  and  C14_41 
REMARK    7  A    between atoms: C14_41  and  C15_42 
REMARK    8  A    between atoms: C15_42  and  O2_43 
ROOT
HETATM    1  C3  UNL     1       0.197   1.687   1.558  1.00  0.00     0.137 A 
HETATM    2  N3  UNL     1       0.414   2.793   2.288  1.00  0.00    -0.337 N 
ATOM      3  H3  UNL     1       1.378   3.004   2.548  1.00  0.00     0.168 HD
HETATM    4  C4  UNL     1      -0.536   3.640   2.701  1.00  0.00     0.183 A 
HETATM    5  N4  UNL     1      -1.805   3.364   2.361  1.00  0.00    -0.337 N 
ATOM      6  H4  UNL     1      -2.558   3.985   2.658  1.00  0.00     0.168 HD
HETATM    7  C5  UNL     1      -2.086   2.273   1.631  1.00  0.00     0.139 A 
HETATM    8  N5  UNL     1      -3.363   2.036   1.314  1.00  0.00    -0.323 N 
ATOM      9  H5  UNL     1      -4.094   2.676   1.625  1.00  0.00     0.169 HD
HETATM   10  C6  UNL     1      -3.680   0.963   0.592  1.00  0.00     0.168 A 
HETATM   11  N6  UNL     1      -4.875   0.543   0.171  1.00  0.00    -0.173 N 
ATOM     12  H6  UNL     1      -5.774   0.994   0.341  1.00  0.00     0.186 HD
HETATM   13  C7  UNL     1      -4.660  -0.598  -0.525  1.00  0.00     0.686 A 
HETATM   14  N7  UNL     1      -5.517  -1.352  -1.111  1.00  0.00    -0.173 N 
ATOM     15  H7  UNL     1      -5.164  -2.180  -1.590  1.00  0.00     0.181 HD
HETATM   16  C8  UNL     1      -6.925  -1.123  -1.145  1.00  0.00     0.494 C 
HETATM   17  N8  UNL     1      -7.333   0.163  -1.623  1.00  0.00    -0.032 N 
ATOM     18  H81 UNL     1      -8.339   0.327  -1.647  1.00  0.00     0.278 HD
ATOM     19  H82 UNL     1      -6.930   0.336  -2.544  1.00  0.00     0.278 HD
ATOM     20  H83 UNL     1      -6.874   0.897  -1.083  1.00  0.00     0.278 HD
HETATM   21  N9  UNL     1      -7.573  -1.355   0.130  1.00  0.00    -0.032 N 
ATOM     22  H91 UNL     1      -8.579  -1.191   0.106  1.00  0.00     0.278 HD
ATOM     23  H92 UNL     1      -7.133  -0.802   0.866  1.00  0.00     0.278 HD
ATOM     24  H93 UNL     1      -7.366  -2.292   0.477  1.00  0.00     0.278 HD
HETATM   25  N10 UNL     1      -3.343  -0.869  -0.526  1.00  0.00    -0.169 N 
HETATM   26  C9  UNL     1      -2.698  -2.008  -1.164  1.00  0.00     0.177 C 
HETATM   27  C10 UNL     1      -2.684   0.095   0.171  1.00  0.00     0.169 A 
HETATM   28  N11 UNL     1      -1.391   0.306   0.473  1.00  0.00    -0.333 N 
ATOM     29  H11 UNL     1      -0.660  -0.334   0.162  1.00  0.00     0.168 HD
HETATM   30  C11 UNL     1      -1.103   1.406   1.209  1.00  0.00     0.123 A 
ENDROOT
BRANCH   1  31
HETATM   31  N2  UNL     1       1.195   0.991   1.248  1.00  0.00    -0.341 N 
ATOM     32  H2  UNL     1       2.078   1.362   1.600  1.00  0.00     0.167 HD
BRANCH  31  33
HETATM   33  C2  UNL     1       1.336  -0.200   0.511  1.00  0.00     0.152 C 
BRANCH  33  34
HETATM   34  N1  UNL     1       2.688  -0.695   0.419  1.00  0.00    -0.275 NA
HETATM   35  C1  UNL     1       3.262  -1.004   1.704  1.00  0.00     0.118 C 
BRANCH  34  36
HETATM   36  C12 UNL     1       3.540   0.161  -0.374  1.00  0.00     0.198 C 
BRANCH  36  37
HETATM   37  C13 UNL     1       4.759  -0.569  -0.775  1.00  0.00     0.231 C 
HETATM   38  O1  UNL     1       4.914  -1.750  -0.420  1.00  0.00    -0.272 OA
HETATM   39  N12 UNL     1       5.736   0.070  -1.554  1.00  0.00    -0.358 N 
ATOM     40  H12 UNL     1       5.599   1.039  -1.843  1.00  0.00     0.162 HD
BRANCH  39  41
HETATM   41  C14 UNL     1       6.921  -0.626  -1.946  1.00  0.00     0.148 C 
BRANCH  41  42
HETATM   42  C15 UNL     1       7.780  -1.116  -0.827  1.00  0.00     0.183 C 
BRANCH  42  43
HETATM   43  O2  UNL     1       8.231  -0.065  -0.013  1.00  0.00    -0.399 OA
ATOM     44  H2  UNL     1       8.777  -0.377   0.699  1.00  0.00     0.209 HD
ENDBRANCH  42  43
ENDBRANCH  41  42
ENDBRANCH  39  41
ENDBRANCH  36  37
ENDBRANCH  34  36
ENDBRANCH  33  34
ENDBRANCH  31  33
ENDBRANCH   1  31
TORSDOF 8
