REMARK  1 active torsions:
REMARK  status: ('A' for Active; 'I' for Inactive)
REMARK       I    between atoms: C1_2  and  N3_7 
REMARK    1  A    between atoms: N2_3  and  O1_5 
ROOT
HETATM    1  N1  UNL     1       1.436  -1.891  -0.692  1.00  0.00    -0.062 NA
HETATM    2  C1  UNL     1       1.266  -0.569  -0.203  1.00  0.00     0.210 C 
HETATM    3  N2  UNL     1       2.304   0.150   0.045  1.00  0.00    -0.241 N 
ATOM      4  H2  UNL     1       3.242  -0.221  -0.107  1.00  0.00     0.197 HD
HETATM    5  N3  UNL     1      -0.048  -0.074   0.001  1.00  0.00    -0.354 N 
HETATM    6  C2  UNL     1      -0.698   1.222   0.104  1.00  0.00     0.127 C 
HETATM    7  C3  UNL     1      -1.871   0.562  -0.617  1.00  0.00     0.040 C 
HETATM    8  C4  UNL     1      -1.372  -0.640   0.204  1.00  0.00     0.127 C 
ENDROOT
BRANCH   3   9
HETATM    9  O1  UNL     1       2.125   1.430   0.520  1.00  0.00    -0.287 OA
ATOM     10  H1  UNL     1       2.891   1.961   0.703  1.00  0.00     0.244 HD
ENDBRANCH   3   9
TORSDOF 1
