REMARK  3 active torsions:
REMARK  status: ('A' for Active; 'I' for Inactive)
REMARK    1  A    between atoms: C3_3  and  N1_4 
REMARK    2  A    between atoms: C5_9  and  C6_10 
REMARK    3  A    between atoms: C6_10  and  N2_11 
ROOT
HETATM    1  C1  UNL     1      -0.944  -1.688   0.610  1.00  0.00     0.018 C 
HETATM    2  C2  UNL     1      -0.682  -0.220   0.531  1.00  0.00    -0.004 A 
HETATM    3  C3  UNL     1      -1.821   0.570  -0.159  1.00  0.00     0.197 A 
HETATM    4  C4  UNL     1      -0.458   0.398  -0.833  1.00  0.00     0.034 A 
HETATM    5  C5  UNL     1       0.656   0.339   0.253  1.00  0.00     0.028 A 
ENDROOT
BRANCH   5   6
HETATM    6  C6  UNL     1       1.831  -0.510  -0.103  1.00  0.00     0.235 C 
BRANCH   6   7
HETATM    7  N2  UNL     1       2.973   0.373  -0.306  1.00  0.00    -0.079 N 
ATOM      8  H23 UNL     1       2.791   1.105  -0.993  1.00  0.00     0.274 HD
ATOM      9  H22 UNL     1       3.151   0.980   0.494  1.00  0.00     0.274 HD
ATOM     10  H21 UNL     1       3.776  -0.207  -0.549  1.00  0.00     0.274 HD
ENDBRANCH   6   7
ENDBRANCH   5   6
BRANCH   3  11
HETATM   11  N1  UNL     1      -2.089   1.819   0.510  1.00  0.00    -0.074 N 
ATOM     12  H13 UNL     1      -2.285   1.675   1.501  1.00  0.00     0.274 HD
ATOM     13  H12 UNL     1      -1.244   2.384   0.594  1.00  0.00     0.274 HD
ATOM     14  H11 UNL     1      -2.839   2.339   0.055  1.00  0.00     0.274 HD
ENDBRANCH   3  11
TORSDOF 3
