REMARK  12 active torsions:
REMARK  status: ('A' for Active; 'I' for Inactive)
REMARK    1  A    between atoms: C2_2  and  C4_4 
REMARK    2  A    between atoms: C4_4  and  C5_5 
REMARK    3  A    between atoms: C4_4  and  N3_32 
REMARK    4  A    between atoms: C5_5  and  C7_7 
REMARK       I    between atoms: C7_7  and  N1_9 
REMARK    5  A    between atoms: N1_9  and  C8_11 
REMARK    6  A    between atoms: C8_11  and  C9_12 
REMARK    7  A    between atoms: C8_11  and  C18_25 
REMARK       I    between atoms: C9_12  and  N2_14 
REMARK       I    between atoms: N2_14  and  C10_16 
REMARK    8  A    between atoms: C10_16  and  C11_18 
REMARK    9  A    between atoms: C11_18  and  C12_19 
REMARK   10  A    between atoms: C18_25  and  O5_27 
REMARK   11  A    between atoms: O5_27  and  C19_28 
REMARK   12  A    between atoms: N3_32  and  O6_34 
ROOT
HETATM    1  C8  UNL     1      -0.400   0.083   0.406  1.00  0.00     0.277 C 
ENDROOT
BRANCH   1   2
HETATM    2  N1  UNL     1      -1.648  -0.014  -0.354  1.00  0.00    -0.339 N 
HETATM    3  C7  UNL     1      -2.584  -1.063  -0.145  1.00  0.00     0.224 C 
HETATM    4  O1  UNL     1      -2.295  -1.917   0.732  1.00  0.00    -0.273 OA
ATOM      5  H1  UNL     1      -1.853   0.696  -1.058  1.00  0.00     0.163 HD
BRANCH   3   6
HETATM    6  C5  UNL     1      -3.808  -1.083  -0.952  1.00  0.00     0.099 C 
HETATM    7  C6  UNL     1      -4.448   0.264  -0.919  1.00  0.00     0.022 C 
BRANCH   6   8
HETATM    8  C4  UNL     1      -4.726  -2.227  -0.582  1.00  0.00     0.124 C 
BRANCH   8   9
HETATM    9  C2  UNL     1      -5.908  -2.329  -1.502  1.00  0.00     0.003 C 
HETATM   10  C1  UNL     1      -6.756  -3.506  -1.035  1.00  0.00     0.011 C 
HETATM   11  C3  UNL     1      -5.487  -2.652  -2.922  1.00  0.00     0.011 C 
ENDBRANCH   8   9
BRANCH   8  12
HETATM   12  N3  UNL     1      -5.072  -2.285   0.787  1.00  0.00    -0.295 N 
HETATM   13  C23 UNL     1      -5.901  -1.280   1.326  1.00  0.00     0.178 C 
BRANCH  12  14
HETATM   14  O6  UNL     1      -5.128  -3.478   1.360  1.00  0.00    -0.292 OA
ATOM     15  H6  UNL     1      -5.361  -3.517   2.280  1.00  0.00     0.244 HD
ENDBRANCH  12  14
ENDBRANCH   8  12
ENDBRANCH   6   8
ENDBRANCH   3   6
ENDBRANCH   1   2
BRANCH   1  16
HETATM   16  C9  UNL     1       0.771   0.084  -0.472  1.00  0.00     0.257 C 
HETATM   17  O2  UNL     1       0.580   0.027  -1.727  1.00  0.00    -0.270 OA
HETATM   18  N2  UNL     1       2.102   0.147   0.021  1.00  0.00    -0.295 N 
HETATM   19  C10 UNL     1       3.207   0.157  -0.870  1.00  0.00     0.224 C 
ATOM     20  H2  UNL     1       2.265   0.185   1.027  1.00  0.00     0.171 HD
HETATM   21  O3  UNL     1       2.951   0.110  -2.098  1.00  0.00    -0.273 OA
BRANCH  19  22
HETATM   22  C11 UNL     1       4.555   0.221  -0.313  1.00  0.00     0.108 C 
BRANCH  22  23
HETATM   23  C12 UNL     1       5.670   0.253  -1.290  1.00  0.00    -0.006 C 
HETATM   24  C13 UNL     1       5.730  -0.944  -2.192  1.00  0.00     0.005 C 
HETATM   25  C14 UNL     1       7.114  -0.911  -2.854  1.00  0.00     0.000 C 
HETATM   26  C15 UNL     1       7.293   0.377  -3.630  1.00  0.00     0.000 C 
HETATM   27  C16 UNL     1       7.177   1.552  -2.674  1.00  0.00     0.000 C 
HETATM   28  C17 UNL     1       5.743   1.493  -2.126  1.00  0.00     0.005 C 
ENDBRANCH  22  23
ENDBRANCH  19  22
ENDBRANCH   1  16
BRANCH   1  29
HETATM   29  C18 UNL     1      -0.446   1.279   1.304  1.00  0.00     0.292 C 
HETATM   30  O4  UNL     1      -1.459   2.026   1.311  1.00  0.00    -0.262 OA
BRANCH  29  31
HETATM   31  O5  UNL     1       0.592   1.613   2.147  1.00  0.00    -0.309 OA
BRANCH  31  32
HETATM   32  C19 UNL     1       0.609   2.722   3.012  1.00  0.00     0.060 C 
HETATM   33  C20 UNL     1       0.476   4.031   2.301  1.00  0.00     0.045 C 
HETATM   34  C21 UNL     1       1.929   2.705   3.752  1.00  0.00     0.045 C 
HETATM   35  C22 UNL     1      -0.536   2.650   4.025  1.00  0.00     0.045 C 
ENDBRANCH  31  32
ENDBRANCH  29  31
ENDBRANCH   1  29
TORSDOF 12
