REMARK  13 active torsions:
REMARK  status: ('A' for Active; 'I' for Inactive)
REMARK    1  A    between atoms: C2_2  and  C4_4 
REMARK    2  A    between atoms: C7_7  and  O1_8 
REMARK    3  A    between atoms: C9_11  and  C10_12 
REMARK    4  A    between atoms: C10_12  and  C11_13 
REMARK    5  A    between atoms: C11_13  and  C12_14 
REMARK    6  A    between atoms: C15_17  and  O2_18 
REMARK    7  A    between atoms: C17_20  and  O3_21 
REMARK    8  A    between atoms: C18_23  and  C19_24 
REMARK    9  A    between atoms: C19_24  and  O4_25 
REMARK   10  A    between atoms: O4_25  and  C20_26 
REMARK       I    between atoms: C20_26  and  N1_28 
REMARK   11  A    between atoms: N1_28  and  C21_30 
REMARK   12  A    between atoms: C21_30  and  C22_31 
REMARK   13  A    between atoms: C22_31  and  N2_32 
ROOT
HETATM    1  C12 UNL     1      -0.817   0.629   0.348  1.00  0.00    -0.053 C 
HETATM    2  C13 UNL     1      -0.444   1.915   0.582  1.00  0.00    -0.046 C 
HETATM    3  C14 UNL     1      -0.722   2.921  -0.452  1.00  0.00     0.046 C 
HETATM    4  C15 UNL     1       0.226   2.271   1.830  1.00  0.00     0.179 C 
HETATM    5  C17 UNL     1       1.349   1.315   2.186  1.00  0.00     0.157 C 
HETATM    6  C18 UNL     1       1.033  -0.102   1.825  1.00  0.00     0.046 C 
HETATM    7  C25 UNL     1      -0.411  -0.315   1.422  1.00  0.00     0.048 C 
ENDROOT
BRANCH   1   8
HETATM    8  C11 UNL     1      -1.465   0.318  -0.905  1.00  0.00     0.004 C 
BRANCH   8   9
HETATM    9  C10 UNL     1      -2.888   0.034  -1.064  1.00  0.00    -0.021 C 
BRANCH   9  10
HETATM   10  C9  UNL     1      -3.609  -1.086  -0.454  1.00  0.00     0.018 C 
HETATM   11  C4  UNL     1      -5.080  -1.091  -0.908  1.00  0.00     0.021 C 
HETATM   12  C5  UNL     1      -5.867  -0.089  -0.115  1.00  0.00     0.012 C 
HETATM   13  C6  UNL     1      -6.111  -0.687   1.253  1.00  0.00     0.032 C 
HETATM   14  C7  UNL     1      -4.998  -1.614   1.571  1.00  0.00     0.118 C 
HETATM   15  C8  UNL     1      -3.650  -1.096   1.041  1.00  0.00     0.041 C 
BRANCH  11  16
HETATM   16  C2  UNL     1      -5.175  -0.870  -2.380  1.00  0.00    -0.088 C 
HETATM   17  C1  UNL     1      -5.817   0.163  -2.888  1.00  0.00     0.014 C 
HETATM   18  C3  UNL     1      -4.538  -1.841  -3.303  1.00  0.00     0.043 C 
ENDBRANCH  11  16
BRANCH  14  19
HETATM   19  O1  UNL     1      -4.901  -1.720   2.970  1.00  0.00    -0.396 OA
ATOM     20  H1  UNL     1      -4.188  -2.314   3.174  1.00  0.00     0.210 HD
ENDBRANCH  14  19
ENDBRANCH   9  10
ENDBRANCH   8   9
ENDBRANCH   1   8
BRANCH   4  21
HETATM   21  O2  UNL     1      -0.649   2.404   2.907  1.00  0.00    -0.384 OA
HETATM   22  C16 UNL     1      -0.597   3.701   3.408  1.00  0.00     0.202 C 
ENDBRANCH   4  21
BRANCH   6  23
HETATM   23  C19 UNL     1       1.985  -0.708   0.821  1.00  0.00     0.188 C 
BRANCH  23  24
HETATM   24  O4  UNL     1       3.311  -0.714   1.313  1.00  0.00    -0.303 OA
BRANCH  24  25
HETATM   25  C20 UNL     1       4.379  -1.241   0.535  1.00  0.00     0.364 C 
HETATM   26  O5  UNL     1       3.999  -1.671  -0.578  1.00  0.00    -0.238 OA
HETATM   27  N1  UNL     1       5.692  -1.240   1.039  1.00  0.00    -0.311 N 
ATOM     28  H1  UNL     1       5.788  -0.868   1.984  1.00  0.00     0.170 HD
BRANCH  27  29
HETATM   29  C21 UNL     1       6.887  -1.668   0.452  1.00  0.00     0.110 C 
BRANCH  29  30
HETATM   30  C22 UNL     1       7.572  -0.968  -0.636  1.00  0.00     0.102 C 
BRANCH  30  31
HETATM   31  N2  UNL     1       7.014  -0.612  -1.856  1.00  0.00    -0.397 N 
HETATM   32  C23 UNL     1       6.135   0.522  -1.893  1.00  0.00     0.148 C 
HETATM   33  C24 UNL     1       7.933  -0.626  -2.956  1.00  0.00     0.148 C 
ENDBRANCH  30  31
ENDBRANCH  29  30
ENDBRANCH  27  29
ENDBRANCH  24  25
ENDBRANCH  23  24
ENDBRANCH   6  23
BRANCH   5  34
HETATM   34  O3  UNL     1       1.613   1.476   3.546  1.00  0.00    -0.392 OA
ATOM     35  H3  UNL     1       2.316   0.877   3.769  1.00  0.00     0.210 HD
ENDBRANCH   5  34
TORSDOF 13
