REMARK  3 active torsions:
REMARK  status: ('A' for Active; 'I' for Inactive)
REMARK    1  A    between atoms: C9_9  and  N1_10 
REMARK       I    between atoms: N1_10  and  C10_12 
REMARK    2  A    between atoms: C10_12  and  O2_14 
REMARK    3  A    between atoms: O2_14  and  C11_15 
ROOT
HETATM    1  C1  UNL     1       6.141  -0.001  -0.506  1.00  0.00     0.045 C 
HETATM    2  C2  UNL     1       4.694   0.139  -0.224  1.00  0.00    -0.056 C 
HETATM    3  C3  UNL     1       3.842   0.813  -0.987  1.00  0.00    -0.076 C 
HETATM    4  C4  UNL     1       4.416   1.469  -2.217  1.00  0.00     0.044 C 
HETATM    5  C5  UNL     1       2.410   0.920  -0.649  1.00  0.00     0.103 C 
HETATM    6  C6  UNL     1       1.866  -0.150   0.231  1.00  0.00     0.292 C 
HETATM    7  C7  UNL     1       1.285   0.428   1.531  1.00  0.00     0.074 C 
HETATM    8  C8  UNL     1       0.349  -0.707   1.925  1.00  0.00     0.059 C 
HETATM    9  C9  UNL     1      -0.297  -0.989   0.563  1.00  0.00     0.291 C 
HETATM   10  N2  UNL     1       0.762  -0.873  -0.389  1.00  0.00    -0.019 N 
ATOM     11  H21 UNL     1       1.049  -1.776  -0.767  1.00  0.00     0.282 HD
ATOM     12  H22 UNL     1       0.457  -0.446  -1.264  1.00  0.00     0.282 HD
HETATM   13  N3  UNL     1       2.872  -1.110   0.541  1.00  0.00    -0.036 N 
ATOM     14  H31 UNL     1       3.030  -1.737  -0.248  1.00  0.00     0.280 HD
ATOM     15  H32 UNL     1       2.530  -1.784   1.226  1.00  0.00     0.280 HD
HETATM   16  C15 UNL     1       4.123  -0.513   0.984  1.00  0.00     0.269 C 
ENDROOT
BRANCH   9  17
HETATM   17  N1  UNL     1      -1.339  -0.003   0.401  1.00  0.00    -0.308 N 
HETATM   18  C10 UNL     1      -2.688  -0.398   0.262  1.00  0.00     0.362 C 
HETATM   19  O1  UNL     1      -3.036  -1.628   0.273  1.00  0.00    -0.238 OA
ATOM     20  H1  UNL     1      -1.099   0.988   0.387  1.00  0.00     0.166 HD
BRANCH  18  21
HETATM   21  O2  UNL     1      -3.709   0.510   0.106  1.00  0.00    -0.294 OA
BRANCH  21  22
HETATM   22  C11 UNL     1      -5.050   0.113  -0.033  1.00  0.00     0.061 C 
HETATM   23  C12 UNL     1      -5.238  -0.778  -1.266  1.00  0.00     0.046 C 
HETATM   24  C13 UNL     1      -5.641  -0.508   1.185  1.00  0.00     0.046 C 
HETATM   25  C14 UNL     1      -5.847   1.384  -0.331  1.00  0.00     0.046 C 
ENDBRANCH  21  22
ENDBRANCH  18  21
ENDBRANCH   9  17
TORSDOF 3
