REMARK  3 active torsions:
REMARK  status: ('A' for Active; 'I' for Inactive)
REMARK    1  A    between atoms: C7_7  and  O1_8 
REMARK    2  A    between atoms: C11_13  and  O2_14 
REMARK    3  A    between atoms: C12_17  and  O4_18 
ROOT
HETATM    1  C1  UNL     1       3.069  -1.190  -0.950  1.00  0.00     0.015 C 
HETATM    2  C2  UNL     1       2.641  -0.101  -0.040  1.00  0.00    -0.043 C 
HETATM    3  C3  UNL     1       3.881   0.566   0.517  1.00  0.00     0.015 C 
HETATM    4  C4  UNL     1       1.795  -0.607   1.113  1.00  0.00     0.015 C 
HETATM    5  C5  UNL     1       0.509  -0.843   0.349  1.00  0.00     0.002 C 
HETATM    6  C6  UNL     1      -0.632  -1.292   1.164  1.00  0.00     0.037 C 
HETATM    7  C7  UNL     1      -1.642  -1.953   0.245  1.00  0.00     0.118 C 
HETATM    8  C8  UNL     1      -2.964  -1.300   0.472  1.00  0.00     0.036 C 
HETATM    9  C9  UNL     1      -3.086  -0.153  -0.514  1.00  0.00     0.047 C 
HETATM   10  C10 UNL     1      -2.181   0.964  -0.089  1.00  0.00     0.012 A 
HETATM   11  C11 UNL     1      -2.801   2.101   0.391  1.00  0.00     0.192 A 
HETATM   12  O3  UNL     1      -1.875   2.965   0.715  1.00  0.00    -0.264 OA
HETATM   13  C12 UNL     1      -0.672   2.493   0.487  1.00  0.00     0.193 A 
HETATM   14  C13 UNL     1      -0.833   1.224  -0.024  1.00  0.00     0.021 A 
HETATM   15  C14 UNL     1       0.343   0.452  -0.373  1.00  0.00     0.001 A 
HETATM   16  C15 UNL     1       0.817   0.515  -1.798  1.00  0.00     0.021 A 
HETATM   17  C16 UNL     1       1.681   0.891  -0.673  1.00  0.00     0.008 A 
ENDROOT
BRANCH   7  18
HETATM   18  O1  UNL     1      -1.687  -3.341   0.430  1.00  0.00    -0.396 OA
ATOM     19  H1  UNL     1      -2.319  -3.755  -0.145  1.00  0.00     0.210 HD
ENDBRANCH   7  18
BRANCH  13  20
HETATM   20  O4  UNL     1       0.544   3.170   0.726  1.00  0.00    -0.340 OA
ATOM     21  H4  UNL     1       1.415   2.828   0.561  1.00  0.00     0.220 HD
ENDBRANCH  13  20
BRANCH  11  22
HETATM   22  O2  UNL     1      -4.179   2.294   0.511  1.00  0.00    -0.340 OA
ATOM     23  H2  UNL     1      -4.605   3.076   0.841  1.00  0.00     0.220 HD
ENDBRANCH  11  22
TORSDOF 3
