REMARK  3 active torsions:
REMARK  status: ('A' for Active; 'I' for Inactive)
REMARK    1  A    between atoms: C2_2  and  O1_3 
REMARK    2  A    between atoms: C4_6  and  C5_7 
REMARK    3  A    between atoms: C5_7  and  N1_8 
ROOT
HETATM    1  C1  UNL     1       2.718  -1.561  -1.059  1.00  0.00     0.051 C 
HETATM    2  C2  UNL     1       1.497  -0.610  -0.981  1.00  0.00     0.083 C 
HETATM    3  C3  UNL     1       2.062   0.686  -0.677  1.00  0.00     0.028 C 
HETATM    4  C4  UNL     1       1.246   1.819  -0.265  1.00  0.00     0.003 C 
HETATM    5  C6  UNL     1      -0.103   2.273   0.110  1.00  0.00     0.049 C 
HETATM    6  C7  UNL     1      -0.847   1.430   1.059  1.00  0.00     0.020 C 
HETATM    7  C8  UNL     1      -1.423   0.159   0.772  1.00  0.00     0.025 C 
HETATM    8  C9  UNL     1      -2.037  -0.400   2.082  1.00  0.00     0.022 C 
HETATM    9  C10 UNL     1      -2.560   0.044  -0.254  1.00  0.00     0.106 C 
HETATM   10  C11 UNL     1      -3.473   1.112  -0.438  1.00  0.00     0.050 C 
HETATM   11  C12 UNL     1      -1.496  -0.292  -1.276  1.00  0.00     0.084 C 
HETATM   12  C13 UNL     1      -0.841  -0.862  -0.073  1.00  0.00     0.119 C 
HETATM   13  O2  UNL     1      -1.807  -1.895   0.161  1.00  0.00    -0.227 OA
HETATM   14  O3  UNL     1      -2.984  -1.261   0.044  1.00  0.00    -0.228 OA
HETATM   15  C14 UNL     1       0.544  -1.236  -0.038  1.00  0.00     0.022 C 
HETATM   16  C15 UNL     1       0.521  -2.740  -0.410  1.00  0.00     0.021 C 
HETATM   17  C16 UNL     1       1.171  -1.215   1.339  1.00  0.00     0.021 C 
ENDROOT
BRANCH   4  18
HETATM   18  C5  UNL     1       2.088   2.854  -0.215  1.00  0.00    -0.042 C 
BRANCH  18  19
HETATM   19  N1  UNL     1       2.885   3.830   0.025  1.00  0.00    -0.365 N 
ATOM     20  H12 UNL     1       2.739   3.632   1.015  1.00  0.00     0.165 HD
ATOM     21  H11 UNL     1       3.528   4.621   0.063  1.00  0.00     0.165 HD
ENDBRANCH  18  19
ENDBRANCH   4  18
BRANCH   2  22
HETATM   22  O1  UNL     1       1.037  -0.616  -2.320  1.00  0.00    -0.385 OA
ATOM     23  H1  UNL     1       0.288  -0.033  -2.272  1.00  0.00     0.211 HD
ENDBRANCH   2  22
TORSDOF 3
