REMARK  6 active torsions:
REMARK  status: ('A' for Active; 'I' for Inactive)
REMARK    1  A    between atoms: C2_2  and  O1_4 
REMARK    2  A    between atoms: C2_2  and  C4_6 
REMARK    3  A    between atoms: C5_8  and  C6_10 
REMARK    4  A    between atoms: C6_10  and  O3_11 
REMARK    5  A    between atoms: C6_10  and  C7_13 
REMARK    6  A    between atoms: C7_13  and  O4_14 
ROOT
HETATM    1  C4  UNL     1      -0.435   0.125  -0.326  1.00  0.00     0.205 A 
HETATM    2  O2  UNL     1      -0.148   1.547  -0.035  1.00  0.00    -0.351 OA
HETATM    3  C5  UNL     1       0.661   0.441   0.535  1.00  0.00     0.175 A 
HETATM    4 BR1  UNL     1       0.450   0.356   2.431  1.00  0.00    -0.049 Br
ENDROOT
BRANCH   3   5
HETATM    5  C6  UNL     1       2.041   0.527  -0.063  1.00  0.00     0.190 C 
BRANCH   5   6
HETATM    6  O3  UNL     1       2.620   1.753   0.251  1.00  0.00    -0.389 OA
ATOM      7  H3  UNL     1       3.490   1.807  -0.126  1.00  0.00     0.210 HD
ENDBRANCH   5   6
BRANCH   5   8
HETATM    8  C7  UNL     1       2.952  -0.561   0.391  1.00  0.00     0.199 C 
BRANCH   8   9
HETATM    9  O4  UNL     1       4.169  -0.407  -0.274  1.00  0.00    -0.398 OA
ATOM     10  H4  UNL     1       4.750  -1.101   0.015  1.00  0.00     0.209 HD
ENDBRANCH   8   9
ENDBRANCH   5   8
ENDBRANCH   3   5
BRANCH   1  11
HETATM   11  C2  UNL     1      -1.834  -0.176   0.128  1.00  0.00     0.080 C 
HETATM   12  C1  UNL     1      -2.282  -1.557  -0.216  1.00  0.00     0.048 C 
HETATM   13  C3  UNL     1      -2.749   0.822  -0.595  1.00  0.00     0.048 C 
BRANCH  11  14
HETATM   14  O1  UNL     1      -2.016   0.041   1.490  1.00  0.00    -0.388 OA
ATOM     15  H1  UNL     1      -1.731   0.920   1.709  1.00  0.00     0.210 HD
ENDBRANCH  11  14
ENDBRANCH   1  11
TORSDOF 6
