REMARK  1 active torsions:
REMARK  status: ('A' for Active; 'I' for Inactive)
REMARK    1  A    between atoms: N1_1  and  C1_5 
ROOT
HETATM    1  C1  UNL     1       0.212  -0.310  -0.549  1.00  0.00     0.199 A 
HETATM    2  C2  UNL     1      -1.049  -0.390   0.249  1.00  0.00     0.052 A 
HETATM    3  C3  UNL     1      -0.306   0.913   0.105  1.00  0.00     0.090 A 
HETATM    4 BR1  UNL     1      -1.183   2.265  -0.968  1.00  0.00    -0.089 Br
ENDROOT
BRANCH   1   5
HETATM    5  N1  UNL     1       1.447  -0.865   0.007  1.00  0.00    -0.074 N 
ATOM      6  H13 UNL     1       1.612  -0.444   0.922  1.00  0.00     0.274 HD
ATOM      7  H12 UNL     1       1.282  -1.839   0.261  1.00  0.00     0.274 HD
ATOM      8  H11 UNL     1       2.308  -0.810  -0.538  1.00  0.00     0.274 HD
ENDBRANCH   1   5
TORSDOF 1
