REMARK  11 active torsions:
REMARK  status: ('A' for Active; 'I' for Inactive)
REMARK    1  A    between atoms: N1_1  and  C1_4 
REMARK    2  A    between atoms: C2_7  and  C3_8 
REMARK    3  A    between atoms: C4_9  and  C5_10 
REMARK    4  A    between atoms: C6_13  and  O2_14 
REMARK    5  A    between atoms: C7_17  and  C8_18 
REMARK    6  A    between atoms: C8_18  and  S1_19 
REMARK    7  A    between atoms: S1_19  and  C9_20 
REMARK    8  A    between atoms: C11_22  and  C12_23 
REMARK    9  A    between atoms: C12_23  and  S2_24 
REMARK   10  A    between atoms: S2_24  and  N4_25 
REMARK   11  A    between atoms: C13_30  and  N5_31 
ROOT
HETATM    1  C8  UNL     1      -1.158   0.065   1.293  1.00  0.00     0.128 C 
ENDROOT
BRANCH   1   2
HETATM    2  C7  UNL     1      -2.084   0.396   0.139  1.00  0.00     0.233 C 
HETATM    3  O3  UNL     1      -2.542   1.689   0.142  1.00  0.00    -0.332 OA
HETATM    4  C6  UNL     1      -3.645   1.904   0.924  1.00  0.00     0.301 C 
HETATM    5  C4  UNL     1      -4.801   0.979   0.552  1.00  0.00     0.090 C 
HETATM    6  C3  UNL     1      -4.511  -0.217   0.153  1.00  0.00     0.074 C 
HETATM    7  N7  UNL     1      -3.117  -0.590   0.077  1.00  0.00    -0.360 N 
ATOM      8  H7  UNL     1      -2.866  -1.574  -0.023  1.00  0.00     0.162 HD
BRANCH   4   9
HETATM    9  O2  UNL     1      -3.425   1.808   2.286  1.00  0.00    -0.367 OA
ATOM     10  H2  UNL     1      -2.706   2.384   2.518  1.00  0.00     0.213 HD
ENDBRANCH   4   9
BRANCH   5  11
HETATM   11  C5  UNL     1      -6.139   1.462   0.660  1.00  0.00     0.268 C 
HETATM   12  N3  UNL     1      -6.311   2.815   1.144  1.00  0.00    -0.057 NA
HETATM   13  O1  UNL     1      -7.190   0.879   0.393  1.00  0.00    -0.271 OA
ENDBRANCH   5  11
BRANCH   6  14
HETATM   14  C2  UNL     1      -5.454  -1.262  -0.238  1.00  0.00     0.068 A 
HETATM   15  N2  UNL     1      -5.471  -1.769  -1.454  1.00  0.00    -0.335 N 
HETATM   16  C1  UNL     1      -6.304  -2.772  -1.716  1.00  0.00     0.142 A 
ATOM     17  H2  UNL     1      -4.857  -1.399  -2.180  1.00  0.00     0.168 HD
HETATM   18  S3  UNL     1      -7.095  -3.026  -0.233  1.00  0.00    -0.064 SA
HETATM   19  C19 UNL     1      -6.312  -1.818   0.676  1.00  0.00     0.085 A 
BRANCH  16  20
HETATM   20  N1  UNL     1      -6.479  -3.416  -2.847  1.00  0.00    -0.380 N 
ATOM     21  H12 UNL     1      -6.004  -3.264  -3.737  1.00  0.00     0.158 HD
ATOM     22  H11 UNL     1      -7.118  -4.185  -3.048  1.00  0.00     0.158 HD
ENDBRANCH  16  20
ENDBRANCH   6  14
ENDBRANCH   1   2
BRANCH   1  23
HETATM   23  S1  UNL     1       0.277   1.168   1.190  1.00  0.00    -0.156 SA
BRANCH  23  24
HETATM   24  C9  UNL     1       1.194   0.737  -0.327  1.00  0.00     0.072 C 
HETATM   25  C10 UNL     1       2.406   1.586  -0.471  1.00  0.00    -0.006 C 
HETATM   26  C11 UNL     1       3.469   0.850  -0.769  1.00  0.00    -0.044 C 
HETATM   27  C13 UNL     1       3.067  -0.590  -0.859  1.00  0.00     0.125 C 
HETATM   28  C18 UNL     1       1.745  -0.657  -0.132  1.00  0.00     0.049 C 
BRANCH  26  29
HETATM   29  C12 UNL     1       4.872   1.286  -0.999  1.00  0.00     0.199 C 
BRANCH  29  30
HETATM   30  S2  UNL     1       4.987   3.050  -0.814  1.00  0.00     0.228 S 
HETATM   31  O4  UNL     1       4.560   3.480   0.549  1.00  0.00    -0.206 OA
HETATM   32  O5  UNL     1       4.081   3.675  -1.853  1.00  0.00    -0.206 OA
BRANCH  30  33
HETATM   33  N4  UNL     1       6.603   3.601  -1.070  1.00  0.00    -0.328 N 
ATOM     34  H42 UNL     1       7.381   2.981  -1.297  1.00  0.00     0.168 HD
ATOM     35  H41 UNL     1       6.669   4.613  -0.964  1.00  0.00     0.168 HD
ENDBRANCH  30  33
ENDBRANCH  29  30
ENDBRANCH  26  29
BRANCH  27  36
HETATM   36  N5  UNL     1       4.017  -1.449  -0.222  1.00  0.00    -0.301 N 
HETATM   37  C14 UNL     1       4.309  -1.289   1.072  1.00  0.00     0.102 A 
HETATM   38  C15 UNL     1       5.220  -2.115   1.680  1.00  0.00     0.092 A 
HETATM   39  C16 UNL     1       5.828  -3.102   0.960  1.00  0.00     0.250 A 
HETATM   40  O6  UNL     1       6.660  -3.854   1.519  1.00  0.00    -0.268 OA
HETATM   41  N6  UNL     1       5.514  -3.237  -0.334  1.00  0.00    -0.275 N 
HETATM   42  C17 UNL     1       4.618  -2.419  -0.920  1.00  0.00     0.329 A 
ATOM     43  H6  UNL     1       5.960  -3.970  -0.885  1.00  0.00     0.173 HD
HETATM   44  O7  UNL     1       4.383  -2.619  -2.144  1.00  0.00    -0.246 OA
ENDBRANCH  27  36
ENDBRANCH  23  24
ENDBRANCH   1  23
TORSDOF 11
