REMARK  12 active torsions:
REMARK  status: ('A' for Active; 'I' for Inactive)
REMARK    1  A    between atoms: C2_2  and  S1_3 
REMARK    2  A    between atoms: S1_3  and  C3_6 
REMARK    3  A    between atoms: C5_10  and  C6_11 
REMARK    4  A    between atoms: C6_11  and  N2_12 
REMARK    5  A    between atoms: C6_11  and  C14_30 
REMARK    6  A    between atoms: N2_12  and  C7_14 
REMARK    7  A    between atoms: C8_17  and  O4_18 
REMARK    8  A    between atoms: C9_20  and  C10_21 
REMARK    9  A    between atoms: C11_24  and  C12_25 
REMARK   10  A    between atoms: C14_30  and  N5_31 
REMARK   11  A    between atoms: C14_30  and  C15_35 
REMARK   12  A    between atoms: C17_38  and  N6_39 
ROOT
HETATM    1  C6  UNL     1      -0.631   0.753  -0.557  1.00  0.00     0.072 C 
ENDROOT
BRANCH   1   2
HETATM    2  C5  UNL     1       0.690   0.082  -0.506  1.00  0.00     0.064 A 
HETATM    3  N1  UNL     1       1.637   0.312   0.504  1.00  0.00    -0.348 N 
HETATM    4  C4  UNL     1       2.865  -0.360   0.405  1.00  0.00     0.085 A 
ATOM      5  H1  UNL     1       1.440   0.944   1.280  1.00  0.00     0.166 HD
HETATM    6  C3  UNL     1       3.913  -0.337   1.194  1.00  0.00     0.146 C 
HETATM    7  S3  UNL     1       2.739  -1.322  -1.091  1.00  0.00    -0.081 SA
HETATM    8  C18 UNL     1       1.076  -0.756  -1.451  1.00  0.00     0.083 A 
BRANCH   6   9
HETATM    9  S1  UNL     1       5.329  -1.285   0.828  1.00  0.00     0.168 S 
HETATM   10  O1  UNL     1       5.987  -0.820  -0.437  1.00  0.00    -0.223 OA
HETATM   11  O2  UNL     1       4.930  -2.735   0.716  1.00  0.00    -0.223 OA
BRANCH   9  12
HETATM   12  C2  UNL     1       6.494  -1.141   2.133  1.00  0.00     0.140 C 
HETATM   13  C1  UNL     1       5.945  -1.621   3.466  1.00  0.00     0.021 C 
ENDBRANCH   9  12
ENDBRANCH   6   9
ENDBRANCH   1   2
BRANCH   1  14
HETATM   14  N2  UNL     1      -1.679  -0.030  -1.013  1.00  0.00    -0.347 N 
ATOM     15  H2  UNL     1      -2.033   0.184  -1.945  1.00  0.00     0.163 HD
BRANCH  14  16
HETATM   16  C7  UNL     1      -2.295  -1.065  -0.346  1.00  0.00     0.263 C 
HETATM   17  O3  UNL     1      -2.269  -0.914   1.080  1.00  0.00    -0.250 OA
HETATM   18  N3  UNL     1      -2.953  -2.364   0.808  1.00  0.00    -0.116 NA
HETATM   19  C8  UNL     1      -1.816  -2.346   0.104  1.00  0.00     0.290 C 
HETATM   20  C9  UNL     1      -4.212  -2.131   1.309  1.00  0.00     0.135 C 
HETATM   21  C11 UNL     1      -4.741  -1.155   0.492  1.00  0.00     0.110 C 
HETATM   22  C13 UNL     1      -3.775  -1.034  -0.661  1.00  0.00     0.227 C 
HETATM   23  O8  UNL     1      -4.159  -0.912  -1.820  1.00  0.00    -0.286 OA
BRANCH  19  24
HETATM   24  O4  UNL     1      -0.790  -3.132  -0.068  1.00  0.00    -0.373 OA
ATOM     25  H4  UNL     1      -0.474  -3.977   0.229  1.00  0.00     0.212 HD
ENDBRANCH  19  24
BRANCH  20  26
HETATM   26  C10 UNL     1      -4.881  -2.759   2.409  1.00  0.00     0.224 C 
HETATM   27  O5  UNL     1      -6.027  -2.506   2.779  1.00  0.00    -0.643 OA
HETATM   28  O6  UNL     1      -4.225  -3.754   3.160  1.00  0.00    -0.643 OA
ENDBRANCH  20  26
BRANCH  21  29
HETATM   29  C12 UNL     1      -5.956  -0.478   0.470  1.00  0.00     0.270 C 
HETATM   30  N4  UNL     1      -6.175   0.509  -0.565  1.00  0.00    -0.057 NA
HETATM   31  O7  UNL     1      -6.906  -0.616   1.247  1.00  0.00    -0.271 OA
ENDBRANCH  21  29
ENDBRANCH  14  16
ENDBRANCH   1  14
BRANCH   1  32
HETATM   32  C14 UNL     1      -0.609   2.199  -0.955  1.00  0.00     0.285 C 
BRANCH  32  33
HETATM   33  N5  UNL     1       0.235   2.912   0.027  1.00  0.00    -0.064 N 
ATOM     34  H53 UNL     1      -0.066   2.768   0.991  1.00  0.00     0.275 HD
ATOM     35  H52 UNL     1       1.168   2.509   0.119  1.00  0.00     0.275 HD
ATOM     36  H51 UNL     1       0.250   3.895  -0.244  1.00  0.00     0.275 HD
ENDBRANCH  32  33
BRANCH  32  37
HETATM   37  C15 UNL     1      -0.126   2.492  -2.343  1.00  0.00     0.054 A 
HETATM   38  C16 UNL     1      -0.341   1.601  -3.365  1.00  0.00     0.080 A 
HETATM   39  S2  UNL     1       0.400   2.367  -4.696  1.00  0.00    -0.064 SA
HETATM   40  C17 UNL     1       0.946   3.780  -3.887  1.00  0.00     0.142 A 
HETATM   41  N7  UNL     1       0.531   3.585  -2.647  1.00  0.00    -0.338 N 
ATOM     42  H7  UNL     1       0.722   4.283  -1.928  1.00  0.00     0.168 HD
BRANCH  40  43
HETATM   43  N6  UNL     1       1.611   4.801  -4.377  1.00  0.00    -0.380 N 
ATOM     44  H62 UNL     1       1.931   4.951  -5.334  1.00  0.00     0.158 HD
ATOM     45  H61 UNL     1       1.935   5.640  -3.896  1.00  0.00     0.158 HD
ENDBRANCH  40  43
ENDBRANCH  32  37
ENDBRANCH   1  32
TORSDOF 12
