REMARK  15 active torsions:
REMARK  status: ('A' for Active; 'I' for Inactive)
REMARK    1  A    between atoms: N1_2  and  C2_3 
REMARK    2  A    between atoms: N1_2  and  C7_14 
REMARK    3  A    between atoms: C2_3  and  C3_4 
REMARK    4  A    between atoms: C3_4  and  N2_5 
REMARK    5  A    between atoms: C7_14  and  C8_15 
REMARK    6  A    between atoms: N5_28  and  N6_30 
REMARK    7  A    between atoms: N6_30  and  N7_31 
REMARK    8  A    between atoms: N6_30  and  N8_34 
REMARK    9  A    between atoms: C21_39  and  O3_40 
REMARK   10  A    between atoms: N9_42  and  C22_43 
REMARK   11  A    between atoms: C22_43  and  C23_44 
REMARK   12  A    between atoms: C23_44  and  O4_45 
REMARK   13  A    between atoms: C23_44  and  C24_47 
REMARK   14  A    between atoms: C24_47  and  O5_48 
REMARK   15  A    between atoms: C25_50  and  O6_51 
ROOT
HETATM    1  C8  UNL     1       2.388   0.844   0.342  1.00  0.00    -0.020 A 
HETATM    2  C9  UNL     1       1.825   0.908   1.599  1.00  0.00     0.015 A 
HETATM    3  C10 UNL     1       0.444   0.993   1.786  1.00  0.00     0.038 A 
HETATM    4  C11 UNL     1      -0.408   1.015   0.702  1.00  0.00     0.077 A 
HETATM    5  C12 UNL     1       0.162   0.951  -0.558  1.00  0.00    -0.024 A 
HETATM    6  C13 UNL     1       1.510   0.869  -0.740  1.00  0.00     0.022 A 
HETATM    7  C14 UNL     1      -0.752   0.972  -1.720  1.00  0.00     0.045 C 
HETATM    8  C15 UNL     1      -1.861   1.933  -1.449  1.00  0.00     0.057 C 
HETATM    9  C16 UNL     1      -2.597   1.631  -0.174  1.00  0.00     0.167 A 
HETATM   10  O1  UNL     1      -1.780   1.097   0.855  1.00  0.00    -0.326 OA
HETATM   11  C17 UNL     1      -3.179   2.925   0.252  1.00  0.00     0.218 A 
HETATM   12  O2  UNL     1      -2.577   3.952   0.677  1.00  0.00    -0.287 OA
HETATM   13  C18 UNL     1      -4.628   2.862   0.111  1.00  0.00     0.116 A 
HETATM   14  N5  UNL     1      -5.436   3.825   0.312  1.00  0.00    -0.261 N 
ATOM     15  H5  UNL     1      -4.946   4.675   0.591  1.00  0.00     0.191 HD
HETATM   16  C19 UNL     1      -4.934   1.495  -0.298  1.00  0.00     0.061 A 
HETATM   17  C20 UNL     1      -3.775   0.770  -0.411  1.00  0.00     0.053 A 
HETATM   18  C21 UNL     1      -4.145  -0.532  -0.746  1.00  0.00     0.155 A 
HETATM   19  N9  UNL     1      -5.482  -0.586  -0.837  1.00  0.00    -0.305 N 
HETATM   20  C25 UNL     1      -5.995   0.627  -0.571  1.00  0.00     0.158 A 
ENDROOT
BRANCH  18  21
HETATM   21  O3  UNL     1      -3.237  -1.559  -0.940  1.00  0.00    -0.345 OA
ATOM     22  H3  UNL     1      -3.489  -2.446  -1.168  1.00  0.00     0.219 HD
ENDBRANCH  18  21
BRANCH  14  23
HETATM   23  N6  UNL     1      -6.753   4.013   0.253  1.00  0.00    -0.144 N 
BRANCH  23  24
HETATM   24  N7  UNL     1      -7.496   4.423  -0.874  1.00  0.00    -0.309 N 
ATOM     25  H72 UNL     1      -6.933   4.564  -1.713  1.00  0.00     0.180 HD
ATOM     26  H71 UNL     1      -8.505   4.567  -0.919  1.00  0.00     0.180 HD
ENDBRANCH  23  24
BRANCH  23  27
HETATM   27  N8  UNL     1      -7.537   3.816   1.421  1.00  0.00    -0.309 N 
ATOM     28  H82 UNL     1      -7.000   3.520   2.236  1.00  0.00     0.180 HD
ATOM     29  H81 UNL     1      -8.546   3.960   1.376  1.00  0.00     0.180 HD
ENDBRANCH  23  27
ENDBRANCH  14  23
BRANCH  20  30
HETATM   30  O6  UNL     1      -7.337   0.964  -0.568  1.00  0.00    -0.345 OA
ATOM     31  H6  UNL     1      -8.058   0.374  -0.754  1.00  0.00     0.219 HD
ENDBRANCH  20  30
BRANCH  19  32
HETATM   32  C22 UNL     1      -6.195  -1.799  -1.171  1.00  0.00     0.167 C 
BRANCH  32  33
HETATM   33  C23 UNL     1      -6.560  -2.605   0.039  1.00  0.00     0.160 C 
BRANCH  33  34
HETATM   34  O4  UNL     1      -5.468  -3.013   0.797  1.00  0.00    -0.392 OA
ATOM     35  H4  UNL     1      -5.699  -3.524   1.564  1.00  0.00     0.210 HD
ENDBRANCH  33  34
BRANCH  33  36
HETATM   36  C24 UNL     1      -7.219  -3.890  -0.455  1.00  0.00     0.197 C 
BRANCH  36  37
HETATM   37  O5  UNL     1      -6.271  -4.584  -1.213  1.00  0.00    -0.398 OA
ATOM     38  H5  UNL     1      -6.681  -5.384  -1.520  1.00  0.00     0.209 HD
ENDBRANCH  36  37
ENDBRANCH  33  36
ENDBRANCH  32  33
ENDBRANCH  19  32
BRANCH   1  39
HETATM   39  C7  UNL     1       3.851   0.745   0.118  1.00  0.00     0.101 C 
BRANCH  39  40
HETATM   40  N1  UNL     1       4.335  -0.579   0.097  1.00  0.00    -0.372 N 
HETATM   41  C1  UNL     1       3.855  -1.476  -0.869  1.00  0.00     0.154 C 
BRANCH  40  42
HETATM   42  C2  UNL     1       5.488  -0.905   0.834  1.00  0.00     0.082 C 
BRANCH  42  43
HETATM   43  C3  UNL     1       6.782  -0.933   0.037  1.00  0.00     0.167 C 
BRANCH  43  44
HETATM   44  N2  UNL     1       7.818  -1.284   0.986  1.00  0.00    -0.358 N 
HETATM   45  C4  UNL     1       9.075  -1.272   0.752  1.00  0.00     0.171 C 
HETATM   46  N3  UNL     1      10.104  -1.610   1.664  1.00  0.00    -0.361 N 
HETATM   47  N4  UNL     1       9.682  -0.916  -0.478  1.00  0.00    -0.361 N 
HETATM   48  C5  UNL     1      11.303  -1.835   0.882  1.00  0.00     0.142 C 
ATOM     49  H3  UNL     1      10.018  -1.681   2.678  1.00  0.00     0.162 HD
HETATM   50  C6  UNL     1      11.127  -0.909  -0.286  1.00  0.00     0.142 C 
ATOM     51  H4  UNL     1       9.193  -0.702  -1.347  1.00  0.00     0.162 HD
ATOM     52  H2  UNL     1       7.520  -1.565   1.920  1.00  0.00     0.162 HD
ENDBRANCH  43  44
ENDBRANCH  42  43
ENDBRANCH  40  42
ENDBRANCH  39  40
ENDBRANCH   1  39
TORSDOF 15
