REMARK  3 active torsions:
REMARK  status: ('A' for Active; 'I' for Inactive)
REMARK    1  A    between atoms: C2_2  and  C3_3 
REMARK    2  A    between atoms: C3_3  and  C4_4 
REMARK    3  A    between atoms: C4_4  and  N1_5 
ROOT
HETATM    1  N1  UNL     1      -0.575  -0.469  -0.521  1.00  0.00     0.211 N 
HETATM    2  C5  UNL     1      -0.132  -1.626   0.164  1.00  0.00     0.345 C 
HETATM    3  N2  UNL     1      -1.538  -0.973  -1.484  1.00  0.00    -0.009 NA
HETATM    4  C6  UNL     1      -2.705  -1.284  -0.704  1.00  0.00     0.184 C 
HETATM    5  C7  UNL     1      -2.621  -0.345   0.449  1.00  0.00     0.369 C 
HETATM    6  N3  UNL     1      -1.394   0.386   0.162  1.00  0.00     0.197 N 
HETATM    7  C8  UNL     1      -0.909   1.028   1.325  1.00  0.00     0.399 C 
HETATM    8  O1  UNL     1      -1.772   1.374  -0.718  1.00  0.00    -0.035 OA
ENDROOT
BRANCH   1   9
HETATM    9  C4  UNL     1       0.427   0.104  -1.351  1.00  0.00     0.305 C 
BRANCH   9  10
HETATM   10  C3  UNL     1       1.542   0.846  -0.744  1.00  0.00     0.032 C 
BRANCH  10  11
HETATM   11  C2  UNL     1       2.452   0.090   0.178  1.00  0.00    -0.003 C 
HETATM   12  C1  UNL     1       3.505   1.098   0.639  1.00  0.00     0.005 C 
ENDBRANCH  10  11
ENDBRANCH   9  10
ENDBRANCH   1   9
TORSDOF 3
