REMARK  3 active torsions:
REMARK  status: ('A' for Active; 'I' for Inactive)
REMARK    1  A    between atoms: C2_2  and  N1_3 
REMARK    2  A    between atoms: C6_7  and  C7_8 
REMARK    3  A    between atoms: C7_8  and  N2_9 
ROOT
HETATM    1  N1  UNL     1      -1.523   0.182  -0.228  1.00  0.00     0.007 N 
HETATM    2  C3  UNL     1      -1.656   1.544  -0.746  1.00  0.00     0.297 C 
HETATM    3  C4  UNL     1      -0.965  -0.711  -1.224  1.00  0.00     0.262 C 
HETATM    4  C5  UNL     1       0.515  -0.858  -0.868  1.00  0.00     0.054 C 
HETATM    5  C6  UNL     1       0.661   0.356   0.027  1.00  0.00     0.134 C 
HETATM    6  N3  UNL     1      -0.551   0.254   0.804  1.00  0.00    -0.040 NA
ENDROOT
BRANCH   5   7
HETATM    7  C7  UNL     1       1.910   0.298   0.862  1.00  0.00     0.254 C 
BRANCH   7   8
HETATM    8  N2  UNL     1       3.031   0.239  -0.075  1.00  0.00    -0.077 N 
HETATM    9  C8  UNL     1       4.305   0.180   0.612  1.00  0.00     0.267 C 
ATOM     10  H22 UNL     1       2.927  -0.536  -0.730  1.00  0.00     0.276 HD
ATOM     11  H21 UNL     1       3.002   1.014  -0.737  1.00  0.00     0.276 HD
ENDBRANCH   7   8
ENDBRANCH   5   7
BRANCH   1  12
HETATM   12  C2  UNL     1      -2.803  -0.241   0.263  1.00  0.00     0.255 C 
HETATM   13  C1  UNL     1      -2.724  -1.166   1.444  1.00  0.00     0.036 C 
ENDBRANCH   1  12
TORSDOF 3
