REMARK  3 active torsions:
REMARK  status: ('A' for Active; 'I' for Inactive)
REMARK    1  A    between atoms: N1_2  and  C3_4 
REMARK    2  A    between atoms: C8_9  and  N2_10 
REMARK    3  A    between atoms: N2_10  and  N3_12 
ROOT
HETATM    1  C3  UNL     1      -0.138  -0.290  -0.319  1.00  0.00     0.246 C 
HETATM    2  C4  UNL     1      -0.415   0.849  -1.216  1.00  0.00     0.038 C 
HETATM    3  C5  UNL     1       0.385   2.076  -1.039  1.00  0.00     0.002 C 
HETATM    4  C6  UNL     1       1.563   2.036  -0.165  1.00  0.00     0.002 C 
HETATM    5  C7  UNL     1       1.903   0.733   0.468  1.00  0.00     0.029 C 
HETATM    6  C8  UNL     1       0.637   0.059   0.926  1.00  0.00     0.134 C 
ENDROOT
BRANCH   6   7
HETATM    7  N2  UNL     1       1.010  -1.163   1.603  1.00  0.00    -0.316 N 
ATOM      8  H2  UNL     1       0.677  -1.319   2.554  1.00  0.00     0.182 HD
BRANCH   7   9
HETATM    9  N3  UNL     1       1.808  -2.135   1.003  1.00  0.00    -0.253 N 
HETATM   10  N4  UNL     1       2.217  -3.159   1.586  1.00  0.00    -0.331 N 
ATOM     11  H42 UNL     1       1.941  -3.277   2.561  1.00  0.00     0.178 HD
ATOM     12  H41 UNL     1       2.801  -3.871   1.147  1.00  0.00     0.178 HD
ATOM     13  H3  UNL     1       2.074  -2.001   0.027  1.00  0.00     0.207 HD
ENDBRANCH   7   9
ENDBRANCH   6   7
BRANCH   1  14
HETATM   14  N1  UNL     1      -1.299  -1.031   0.104  1.00  0.00     0.086 N 
HETATM   15  C1  UNL     1      -1.990  -1.656  -1.013  1.00  0.00     0.310 C 
HETATM   16  C2  UNL     1      -2.283  -0.236   0.788  1.00  0.00     0.310 C 
ENDBRANCH   1  14
TORSDOF 3
