REMARK  2 active torsions:
REMARK  status: ('A' for Active; 'I' for Inactive)
REMARK    1  A    between atoms: C1_4  and  N2_5 
REMARK    2  A    between atoms: N2_5  and  N3_7 
ROOT
HETATM    1  N2  UNL     1       1.318  -0.152  -0.193  1.00  0.00    -0.316 N 
ATOM      2  H2  UNL     1       1.193   0.111  -1.171  1.00  0.00     0.181 HD
ENDROOT
BRANCH   1   3
HETATM    3  C1  UNL     1       2.562  -0.632   0.273  1.00  0.00     0.185 C 
HETATM    4  N1  UNL     1       3.570   0.144   0.320  1.00  0.00    -0.395 N 
ATOM      5  H12 UNL     1       3.462   1.112   0.017  1.00  0.00     0.156 HD
ATOM      6  H11 UNL     1       4.468  -0.203   0.657  1.00  0.00     0.156 HD
ENDBRANCH   1   3
BRANCH   1   7
HETATM    7  N3  UNL     1       0.269  -0.046   0.712  1.00  0.00    -0.231 NA
HETATM    8  C2  UNL     1      -0.672  -1.123   0.526  1.00  0.00     0.113 C 
HETATM    9  C3  UNL     1      -2.030  -0.476   0.291  1.00  0.00     0.017 C 
HETATM   10  C4  UNL     1      -1.557   0.821  -0.383  1.00  0.00     0.017 C 
HETATM   11  C5  UNL     1      -0.453   1.192   0.592  1.00  0.00     0.113 C 
ENDBRANCH   1   7
TORSDOF 2
