REMARK  7 active torsions:
REMARK  status: ('A' for Active; 'I' for Inactive)
REMARK    1  A    between atoms: C2_7  and  C3_8 
REMARK    2  A    between atoms: C4_10  and  C5_11 
REMARK    3  A    between atoms: C4_10  and  C11_20 
REMARK    4  A    between atoms: C5_11  and  S1_12 
REMARK    5  A    between atoms: S1_12  and  C6_15 
REMARK    6  A    between atoms: C11_20  and  O3_21 
REMARK    7  A    between atoms: N3_23  and  O4_25 
ROOT
HETATM    1  N1  UNL     1      -4.971   1.418  -1.219  1.00  0.00    -0.386 N 
ATOM      2  H11 UNL     1      -5.707   1.673  -0.561  1.00  0.00     0.157 HD
ATOM      3  H12 UNL     1      -5.094   1.468  -2.230  1.00  0.00     0.157 HD
HETATM    4  C1  UNL     1      -3.839   1.017  -0.745  1.00  0.00     0.117 C 
HETATM    5  N2  UNL     1      -2.826   0.666  -1.651  1.00  0.00    -0.369 N 
ATOM      6  H2  UNL     1      -3.052   0.429  -2.617  1.00  0.00     0.161 HD
HETATM    7  C2  UNL     1      -1.456   0.646  -1.189  1.00  0.00     0.135 C 
HETATM    8  C4  UNL     1      -1.399  -0.005   0.145  1.00  0.00     0.131 C 
HETATM    9  C12 UNL     1      -2.294   0.649   1.169  1.00  0.00     0.303 C 
HETATM   10  F2  UNL     1      -2.369  -0.217   2.256  1.00  0.00    -0.201 F 
HETATM   11  F3  UNL     1      -1.685   1.802   1.690  1.00  0.00    -0.201 F 
HETATM   12  C13 UNL     1      -3.662   0.945   0.714  1.00  0.00     0.236 C 
HETATM   13 CL1  UNL     1      -4.843  -0.264   1.321  1.00  0.00    -0.086 Cl
HETATM   14 CL2  UNL     1      -4.184   2.524   1.387  1.00  0.00    -0.086 Cl
ENDROOT
BRANCH   8  15
HETATM   15  C5  UNL     1      -0.019   0.016   0.754  1.00  0.00     0.167 C 
BRANCH  15  16
HETATM   16  S1  UNL     1       1.229  -0.787  -0.153  1.00  0.00     0.150 S 
HETATM   17  O1  UNL     1       1.481  -0.279  -1.519  1.00  0.00    -0.227 OA
HETATM   18  O2  UNL     1       0.977  -2.282  -0.272  1.00  0.00    -0.227 OA
BRANCH  16  19
HETATM   19  C6  UNL     1       2.789  -0.661   0.736  1.00  0.00     0.108 C 
HETATM   20  C7  UNL     1       3.881  -1.375   0.007  1.00  0.00     0.020 C 
HETATM   21  C8  UNL     1       5.009  -0.366  -0.086  1.00  0.00     0.001 C 
HETATM   22  C9  UNL     1       4.715   0.652   1.022  1.00  0.00     0.001 C 
HETATM   23  C10 UNL     1       3.205   0.757   0.919  1.00  0.00     0.020 C 
ENDBRANCH  16  19
ENDBRANCH  15  16
ENDBRANCH   8  15
BRANCH   8  24
HETATM   24  C11 UNL     1      -1.821  -1.426   0.017  1.00  0.00     0.153 C 
HETATM   25  N3  UNL     1      -2.185  -1.947  -1.104  1.00  0.00    -0.250 N 
ATOM     26  H3  UNL     1      -2.178  -1.346  -1.928  1.00  0.00     0.196 HD
BRANCH  24  27
HETATM   27  O3  UNL     1      -1.836  -2.254   1.127  1.00  0.00    -0.347 OA
ATOM     28  H3  UNL     1      -2.105  -3.161   1.045  1.00  0.00     0.219 HD
ENDBRANCH  24  27
BRANCH  25  29
HETATM   29  O4  UNL     1      -2.575  -3.228  -1.269  1.00  0.00    -0.288 OA
ATOM     30  H4  UNL     1      -2.843  -3.612  -2.095  1.00  0.00     0.244 HD
ENDBRANCH  25  29
ENDBRANCH   8  24
BRANCH   7  31
HETATM   31  C3  UNL     1      -0.888   2.035  -1.221  1.00  0.00     0.248 C 
HETATM   32  F1  UNL     1      -0.898   2.569  -2.490  1.00  0.00    -0.253 F 
ENDBRANCH   7  31
TORSDOF 7
