REMARK  8 active torsions:
REMARK  status: ('A' for Active; 'I' for Inactive)
REMARK    1  A    between atoms: C2_7  and  C3_8 
REMARK    2  A    between atoms: C7_12  and  O1_13 
REMARK    3  A    between atoms: O1_13  and  C8_14 
REMARK    4  A    between atoms: C8_14  and  C9_15 
REMARK    5  A    between atoms: N3_22  and  C12_23 
REMARK    6  A    between atoms: C14_25  and  O2_26 
REMARK    7  A    between atoms: C15_28  and  C16_29 
REMARK    8  A    between atoms: C16_29  and  O3_30 
ROOT
HETATM    1  N1  UNL     1      -1.729  -3.178  -0.637  1.00  0.00    -0.234 N 
ATOM      2  H11 UNL     1      -2.732  -3.359  -0.605  1.00  0.00     0.174 HD
ATOM      3  H12 UNL     1      -1.275  -4.030  -0.968  1.00  0.00     0.174 HD
HETATM    4  C1  UNL     1      -1.132  -2.073  -0.319  1.00  0.00     0.680 A 
HETATM    5  N2  UNL     1       0.222  -1.829  -0.362  1.00  0.00    -0.190 N 
ATOM      6  H2  UNL     1       0.929  -2.503  -0.656  1.00  0.00     0.184 HD
HETATM    7  C2  UNL     1       0.473  -0.591   0.034  1.00  0.00     0.077 A 
HETATM    8  C11 UNL     1      -0.765  -0.049   0.333  1.00  0.00     0.142 A 
HETATM    9  N3  UNL     1      -1.728  -0.955   0.115  1.00  0.00    -0.164 N 
ENDROOT
BRANCH   7  10
HETATM   10  C3  UNL     1       1.724   0.132   0.162  1.00  0.00     0.017 A 
HETATM   11  C4  UNL     1       1.701   1.463   0.615  1.00  0.00     0.015 A 
HETATM   12  C5  UNL     1       2.841   2.188   0.754  1.00  0.00     0.004 A 
HETATM   13  C6  UNL     1       4.080   1.645   0.454  1.00  0.00     0.038 A 
HETATM   14  C7  UNL     1       4.167   0.352   0.008  1.00  0.00     0.091 A 
HETATM   15  C10 UNL     1       2.958  -0.371  -0.124  1.00  0.00     0.080 A 
HETATM   16 CL1  UNL     1       3.181  -2.007  -0.699  1.00  0.00    -0.080 Cl
BRANCH  14  17
HETATM   17  O1  UNL     1       5.310  -0.211  -0.292  1.00  0.00    -0.341 OA
BRANCH  17  18
HETATM   18  C8  UNL     1       6.608  -0.311  -0.439  1.00  0.00     0.293 C 
BRANCH  18  19
HETATM   19  C9  UNL     1       7.389  -0.192   0.851  1.00  0.00     0.408 C 
HETATM   20  F1  UNL     1       8.754  -0.312   0.620  1.00  0.00    -0.169 F 
HETATM   21  F2  UNL     1       7.070  -1.302   1.648  1.00  0.00    -0.169 F 
HETATM   22  F3  UNL     1       7.125   0.903   1.586  1.00  0.00    -0.169 F 
ENDBRANCH  18  19
ENDBRANCH  17  18
ENDBRANCH  14  17
ENDBRANCH   7  10
BRANCH   9  23
HETATM   23  C12 UNL     1      -3.149  -0.808   0.298  1.00  0.00     0.248 C 
HETATM   24  C13 UNL     1      -3.901  -0.870  -1.017  1.00  0.00     0.089 C 
HETATM   25  C14 UNL     1      -5.227  -0.249  -0.616  1.00  0.00     0.153 C 
HETATM   26  C15 UNL     1      -4.817   0.636   0.531  1.00  0.00     0.176 C 
HETATM   27  O4  UNL     1      -3.463   0.494   0.714  1.00  0.00    -0.356 OA
BRANCH  25  28
HETATM   28  O2  UNL     1      -6.054  -1.259  -0.132  1.00  0.00    -0.393 OA
ATOM     29  H2  UNL     1      -6.884  -0.870   0.119  1.00  0.00     0.210 HD
ENDBRANCH  25  28
BRANCH  26  30
HETATM   30  C16 UNL     1      -5.196   2.079   0.181  1.00  0.00     0.198 C 
BRANCH  30  31
HETATM   31  O3  UNL     1      -4.822   2.955   1.184  1.00  0.00    -0.398 OA
ATOM     32  H3  UNL     1      -5.057   3.850   0.967  1.00  0.00     0.209 HD
ENDBRANCH  30  31
ENDBRANCH  26  30
ENDBRANCH   9  23
TORSDOF 8
