REMARK  9 active torsions:
REMARK  status: ('A' for Active; 'I' for Inactive)
REMARK    1  A    between atoms: C1_2  and  C2_3 
REMARK    2  A    between atoms: C1_2  and  C5_15 
REMARK    3  A    between atoms: C2_3  and  O2_4 
REMARK    4  A    between atoms: C2_3  and  C3_6 
REMARK    5  A    between atoms: C3_6  and  O3_7 
REMARK    6  A    between atoms: C3_6  and  N1_9 
REMARK    7  A    between atoms: N1_9  and  C4_11 
REMARK    8  A    between atoms: C5_15  and  O4_16 
REMARK    9  A    between atoms: C5_15  and  N2_18 
ROOT
HETATM    1  O1  UNL     1       0.801  -2.551  -1.345  1.00  0.00    -0.290 OA
HETATM    2  C1  UNL     1       0.951  -1.362  -1.306  1.00  0.00     0.207 C 
ENDROOT
BRANCH   2   3
HETATM    3  C2  UNL     1       2.239  -0.813  -0.753  1.00  0.00     0.240 C 
BRANCH   3   4
HETATM    4  O2  UNL     1       3.131  -1.893  -0.572  1.00  0.00    -0.383 OA
ATOM      5  H2  UNL     1       3.944  -1.547  -0.223  1.00  0.00     0.210 HD
ENDBRANCH   3   4
BRANCH   3   6
HETATM    6  C3  UNL     1       1.964  -0.201   0.580  1.00  0.00     0.253 C 
BRANCH   6   7
HETATM    7  O3  UNL     1       1.296  -1.169   1.374  1.00  0.00    -0.374 OA
ATOM      8  H3  UNL     1       1.121  -0.779   2.223  1.00  0.00     0.212 HD
ENDBRANCH   6   7
BRANCH   6   9
HETATM    9  N1  UNL     1       3.088   0.269   1.303  1.00  0.00    -0.348 N 
ATOM     10  H1  UNL     1       3.328  -0.142   2.205  1.00  0.00     0.160 HD
BRANCH   9  11
HETATM   11  C4  UNL     1       3.869   1.305   0.768  1.00  0.00     0.264 C 
HETATM   12 CL1  UNL     1       4.962   1.960   2.062  1.00  0.00    -0.061 Cl
HETATM   13 CL2  UNL     1       2.949   2.661   0.134  1.00  0.00    -0.061 Cl
HETATM   14 CL3  UNL     1       4.952   0.699  -0.535  1.00  0.00    -0.061 Cl
ENDBRANCH   9  11
ENDBRANCH   6   9
ENDBRANCH   3   6
ENDBRANCH   2   3
BRANCH   2  15
HETATM   15  C5  UNL     1      -0.070  -0.446  -1.777  1.00  0.00     0.297 C 
BRANCH  15  16
HETATM   16  O4  UNL     1       0.418   0.862  -1.799  1.00  0.00    -0.369 OA
ATOM     17  H4  UNL     1      -0.251   1.462  -2.108  1.00  0.00     0.212 HD
ENDBRANCH  15  16
BRANCH  15  18
HETATM   18  N2  UNL     1      -1.330  -0.509  -1.034  1.00  0.00    -0.308 N 
HETATM   19  C6  UNL     1      -2.034   0.438  -0.284  1.00  0.00     0.046 A 
HETATM   20  C7  UNL     1      -2.180   1.734   0.253  1.00  0.00     0.030 A 
HETATM   21  C11 UNL     1      -3.014  -0.450  -0.018  1.00  0.00     0.028 A 
HETATM   22  C8  UNL     1      -3.267   2.095   1.017  1.00  0.00     0.002 A 
HETATM   23  C9  UNL     1      -4.237   1.145   1.255  1.00  0.00     0.001 A 
HETATM   24  C10 UNL     1      -4.151  -0.133   0.759  1.00  0.00     0.014 A 
HETATM   25  C12 UNL     1      -2.306  -1.495  -0.788  1.00  0.00     0.221 A 
HETATM   26 CL4  UNL     1      -3.248  -2.017  -2.216  1.00  0.00    -0.072 Cl
HETATM   27 CL5  UNL     1      -1.817  -2.874   0.250  1.00  0.00    -0.072 Cl
ENDBRANCH  15  18
ENDBRANCH   2  15
TORSDOF 9
