REMARK  10 active torsions:
REMARK  status: ('A' for Active; 'I' for Inactive)
REMARK    1  A    between atoms: C4_7  and  C5_8 
REMARK    2  A    between atoms: C5_8  and  N2_9 
REMARK    3  A    between atoms: C5_8  and  C6_13 
REMARK    4  A    between atoms: C6_13  and  N3_14 
REMARK    5  A    between atoms: C6_13  and  C9_21 
REMARK    6  A    between atoms: N3_14  and  O1_15 
REMARK    7  A    between atoms: O1_15  and  C7_16 
REMARK    8  A    between atoms: C7_16  and  C8_17 
REMARK    9  A    between atoms: C16_28  and  O2_29 
REMARK   10  A    between atoms: C17_31  and  O3_32 
ROOT
HETATM    1  C5  UNL     1       0.316  -0.951   1.096  1.00  0.00     0.254 C 
ENDROOT
BRANCH   1   2
HETATM    2  C4  UNL     1       1.779  -0.673   0.935  1.00  0.00     0.050 C 
HETATM    3  N1  UNL     1       2.543  -0.498   1.954  1.00  0.00    -0.370 N 
HETATM    4  C3  UNL     1       3.924  -0.232   1.943  1.00  0.00     0.089 C 
ATOM      5  H1  UNL     1       2.099  -0.559   2.870  1.00  0.00     0.164 HD
HETATM    6  C2  UNL     1       4.667  -0.780   0.766  1.00  0.00     0.093 C 
HETATM    7  C1  UNL     1       5.625   0.270   0.255  1.00  0.00     0.041 C 
HETATM    8 CL1  UNL     1       5.648  -2.185   1.284  1.00  0.00    -0.111 Cl
HETATM    9  C17 UNL     1       3.786  -1.262  -0.345  1.00  0.00     0.180 C 
HETATM   10  C16 UNL     1       2.441  -0.580  -0.380  1.00  0.00     0.196 C 
BRANCH   9  11
HETATM   11  O3  UNL     1       4.397  -1.049  -1.581  1.00  0.00    -0.390 OA
ATOM     12  H3  UNL     1       3.838  -1.355  -2.286  1.00  0.00     0.210 HD
ENDBRANCH   9  11
BRANCH  10  13
HETATM   13  O2  UNL     1       1.761  -1.095  -1.446  1.00  0.00    -0.387 OA
ATOM     14  H2  UNL     1       2.187  -1.035  -2.293  1.00  0.00     0.210 HD
ENDBRANCH  10  13
ENDBRANCH   1   2
BRANCH   1  15
HETATM   15  N2  UNL     1       0.112  -2.262   0.554  1.00  0.00    -0.068 N 
ATOM     16  H23 UNL     1       0.446  -2.366  -0.404  1.00  0.00     0.275 HD
ATOM     17  H22 UNL     1       0.713  -2.975   0.969  1.00  0.00     0.275 HD
ATOM     18  H21 UNL     1      -0.884  -2.451   0.664  1.00  0.00     0.275 HD
ENDBRANCH   1  15
BRANCH   1  19
HETATM   19  C6  UNL     1      -0.511   0.125   0.385  1.00  0.00     0.157 C 
BRANCH  19  20
HETATM   20  N3  UNL     1      -0.135   1.419   0.992  1.00  0.00    -0.092 NA
BRANCH  20  21
HETATM   21  O1  UNL     1      -0.724   2.388   0.301  1.00  0.00    -0.277 OA
BRANCH  21  22
HETATM   22  C7  UNL     1      -0.210   3.645   0.511  1.00  0.00     0.312 C 
BRANCH  22  23
HETATM   23  C8  UNL     1      -1.013   4.617  -0.365  1.00  0.00     0.410 C 
HETATM   24  F1  UNL     1      -0.519   5.912  -0.179  1.00  0.00    -0.169 F 
HETATM   25  F2  UNL     1      -0.962   4.256  -1.688  1.00  0.00    -0.169 F 
HETATM   26  F3  UNL     1      -2.333   4.635   0.023  1.00  0.00    -0.169 F 
ENDBRANCH  22  23
ENDBRANCH  21  22
ENDBRANCH  20  21
ENDBRANCH  19  20
BRANCH  19  27
HETATM   27  C9  UNL     1      -1.992  -0.135   0.609  1.00  0.00     0.079 C 
HETATM   28  C10 UNL     1      -2.782   0.966  -0.164  1.00  0.00     0.045 C 
HETATM   29  C11 UNL     1      -4.126   0.426  -0.663  1.00  0.00    -0.029 C 
HETATM   30  C12 UNL     1      -4.213  -0.678  -1.581  1.00  0.00    -0.030 C 
HETATM   31  C13 UNL     1      -4.354  -2.124  -1.119  1.00  0.00     0.038 C 
HETATM   32  C14 UNL     1      -3.165  -2.553  -0.197  1.00  0.00     0.084 C 
HETATM   33  C15 UNL     1      -2.552  -1.365   0.246  1.00  0.00    -0.176 C 
ENDBRANCH  19  27
ENDBRANCH   1  19
TORSDOF 10
