REMARK  1 active torsions:
REMARK  status: ('A' for Active; 'I' for Inactive)
REMARK       I    between atoms: C2_2  and  N1_4 
REMARK    1  A    between atoms: N1_4  and  C3_5 
ROOT
HETATM    1  C3  UNL     1      -0.558   0.564  -0.705  1.00  0.00     0.175 A 
HETATM    2  C4  UNL     1      -1.765  -0.180   0.036  1.00  0.00     0.029 A 
HETATM    3  C5  UNL     1      -2.676   0.775   0.844  1.00  0.00     0.016 A 
HETATM    4  C6  UNL     1      -1.302   1.076   0.476  1.00  0.00     0.029 A 
ENDROOT
BRANCH   1   5
HETATM    5  N1  UNL     1       0.609  -0.131  -0.653  1.00  0.00    -0.409 NA
HETATM    6  C2  UNL     1       1.767  -0.820  -0.600  1.00  0.00     0.282 C 
HETATM    7  C1  UNL     1       2.825  -0.482   0.465  1.00  0.00     0.134 C 
HETATM    8  O1  UNL     1       2.204  -1.787  -1.328  1.00  0.00    -0.258 OA
ENDBRANCH   1   5
TORSDOF 1
