REMARK  1 active torsions:
REMARK  status: ('A' for Active; 'I' for Inactive)
REMARK    1  A    between atoms: C3_3  and  N2_7 
ROOT
HETATM    1  C1  UNL     1       3.014  -0.191  -0.569  1.00  0.00     0.106 C 
HETATM    2  C2  UNL     1       1.959  -0.087   0.041  1.00  0.00    -0.106 C 
HETATM    3  C3  UNL     1       0.725   0.058   0.745  1.00  0.00     0.242 C 
HETATM    4  N1  UNL     1       0.741   0.229   2.014  1.00  0.00    -0.373 N 
ATOM      5  H11 UNL     1      -0.140   0.333   2.517  1.00  0.00     0.158 HD
ATOM      6  H12 UNL     1       1.613   0.266   2.542  1.00  0.00     0.158 HD
ENDROOT
BRANCH   3   7
HETATM    7  N2  UNL     1      -0.485   0.007   0.012  1.00  0.00    -0.027 N 
HETATM    8  C4  UNL     1      -1.644   0.156   0.856  1.00  0.00     0.281 C 
HETATM    9  C5  UNL     1      -0.531  -1.271  -0.664  1.00  0.00     0.281 C 
HETATM   10  C6  UNL     1      -0.493   1.103  -0.960  1.00  0.00     0.281 C 
ENDBRANCH   3   7
TORSDOF 1
