REMARK  3 active torsions:
REMARK  status: ('A' for Active; 'I' for Inactive)
REMARK    1  A    between atoms: C2_2  and  N1_3 
REMARK    2  A    between atoms: N1_3  and  C3_4 
REMARK    3  A    between atoms: N1_3  and  C4_6 
ROOT
HETATM    1  C4  UNL     1       0.251   0.177   0.274  1.00  0.00     0.065 C 
HETATM    2  C5  UNL     1       1.259   1.262  -0.125  1.00  0.00     0.020 C 
HETATM    3  C6  UNL     1       2.413   0.860   0.803  1.00  0.00     0.002 C 
HETATM    4  C7  UNL     1       2.419  -0.642   0.643  1.00  0.00     0.002 C 
HETATM    5  C8  UNL     1       1.064  -1.055   0.149  1.00  0.00     0.020 C 
ENDROOT
BRANCH   1   6
HETATM    6  N1  UNL     1      -0.943   0.227  -0.496  1.00  0.00    -0.257 NA
BRANCH   6   7
HETATM    7  C2  UNL     1      -1.922  -0.615   0.112  1.00  0.00     0.093 C 
HETATM    8  C1  UNL     1      -3.307  -0.015   0.136  1.00  0.00     0.021 C 
ENDBRANCH   6   7
BRANCH   6   9
HETATM    9  C3  UNL     1      -0.783   0.053  -1.871  1.00  0.00     0.324 C 
HETATM   10  O1  UNL     1      -1.407  -0.747  -2.554  1.00  0.00    -0.289 OA
ENDBRANCH   6   9
ENDBRANCH   1   6
TORSDOF 3
