REMARK  5 active torsions:
REMARK  status: ('A' for Active; 'I' for Inactive)
REMARK    1  A    between atoms: C3_3  and  C4_4 
REMARK    2  A    between atoms: C4_4  and  C5_5 
REMARK    3  A    between atoms: C5_5  and  C6_6 
REMARK    4  A    between atoms: C6_6  and  O1_7 
REMARK    5  A    between atoms: O1_7  and  C7_8 
ROOT
HETATM    1  C1  UNL     1       4.983   0.393   0.470  1.00  0.00     0.112 C 
HETATM    2  C2  UNL     1       3.726  -0.268   0.116  1.00  0.00    -0.110 C 
HETATM    3  C3  UNL     1       2.665  -0.813  -0.162  1.00  0.00    -0.096 C 
ENDROOT
BRANCH   3   4
HETATM    4  C4  UNL     1       1.459  -1.463  -0.486  1.00  0.00     0.175 C 
BRANCH   4   5
HETATM    5  C5  UNL     1       0.374  -0.731  -0.483  1.00  0.00    -0.145 C 
BRANCH   5   6
HETATM    6  C6  UNL     1      -0.671   0.069  -0.375  1.00  0.00     0.248 C 
BRANCH   6   7
HETATM    7  O1  UNL     1      -1.228   0.135   0.862  1.00  0.00    -0.375 OA
BRANCH   7   8
HETATM    8  C7  UNL     1      -2.574   0.453   1.094  1.00  0.00     0.122 A 
HETATM    9  C8  UNL     1      -3.663  -0.389   0.528  1.00  0.00     0.034 A 
HETATM   10  C9  UNL     1      -3.412   1.007  -0.004  1.00  0.00     0.034 A 
ENDBRANCH   7   8
ENDBRANCH   6   7
ENDBRANCH   5   6
ENDBRANCH   4   5
ENDBRANCH   3   4
TORSDOF 5
