REMARK  1 active torsions:
REMARK  status: ('A' for Active; 'I' for Inactive)
REMARK    1  A    between atoms: C2_2  and  C3_3 
ROOT
HETATM    1  C3  UNL     1      -1.216   0.350   0.325  1.00  0.00     0.238 A 
HETATM    2  C4  UNL     1      -0.658   0.982  -0.951  1.00  0.00     0.275 A 
HETATM    3  N1  UNL     1       0.127   0.168  -0.076  1.00  0.00    -0.056 N 
HETATM    4  C5  UNL     1       1.122   0.885   0.690  1.00  0.00     0.238 C 
HETATM    5  C6  UNL     1       2.473   0.364   0.247  1.00  0.00     0.030 C 
HETATM    6  C7  UNL     1       2.166  -0.960  -0.381  1.00  0.00     0.030 C 
HETATM    7  C8  UNL     1       0.675  -1.079  -0.472  1.00  0.00     0.238 C 
ENDROOT
BRANCH   1   8
HETATM    8  C2  UNL     1      -2.283  -0.622   0.048  1.00  0.00    -0.002 C 
HETATM    9  C1  UNL     1      -3.446  -0.167  -0.413  1.00  0.00     0.009 C 
ENDBRANCH   1   8
TORSDOF 1
