REMARK  2 active torsions:
REMARK  status: ('A' for Active; 'I' for Inactive)
REMARK    1  A    between atoms: C2_2  and  N1_4 
REMARK    2  A    between atoms: C2_2  and  N2_8 
ROOT
HETATM    1  C1  UNL     1       1.111   1.091   0.796  1.00  0.00     0.078 C 
HETATM    2  C2  UNL     1       0.648   0.053  -0.236  1.00  0.00     0.281 C 
HETATM    3  C3  UNL     1       1.382  -1.221   0.101  1.00  0.00     0.078 C 
ENDROOT
BRANCH   2   4
HETATM    4  N1  UNL     1       1.088   0.540  -1.522  1.00  0.00    -0.045 N 
ATOM      5  H13 UNL     1       0.770   1.487  -1.728  1.00  0.00     0.277 HD
ATOM      6  H12 UNL     1       2.089   0.733  -1.562  1.00  0.00     0.277 HD
ATOM      7  H11 UNL     1       0.780  -0.150  -2.208  1.00  0.00     0.277 HD
ENDBRANCH   2   4
BRANCH   2   8
HETATM    8  N2  UNL     1      -0.771  -0.056  -0.110  1.00  0.00    -0.034 N 
HETATM    9  C4  UNL     1      -1.493   1.189  -0.226  1.00  0.00     0.275 C 
HETATM   10  C5  UNL     1      -1.203  -1.033   0.887  1.00  0.00     0.268 A 
HETATM   11  C6  UNL     1      -1.485  -1.218  -0.536  1.00  0.00     0.268 A 
ENDBRANCH   2   8
TORSDOF 2
