REMARK  4 active torsions:
REMARK  status: ('A' for Active; 'I' for Inactive)
REMARK    1  A    between atoms: C2_2  and  C3_3 
REMARK    2  A    between atoms: C3_3  and  N1_4 
REMARK    3  A    between atoms: N1_4  and  C4_5 
REMARK    4  A    between atoms: C4_5  and  C6_7 
ROOT
HETATM    1  C4  UNL     1      -1.060   0.244  -0.030  1.00  0.00     0.156 C 
HETATM    2  C5  UNL     1      -1.176   1.650  -0.379  1.00  0.00     0.092 C 
ENDROOT
BRANCH   1   3
HETATM    3  N1  UNL     1       0.044  -0.114   0.420  1.00  0.00    -0.416 NA
BRANCH   3   4
HETATM    4  C3  UNL     1       1.197  -0.494   0.789  1.00  0.00     0.182 C 
BRANCH   4   5
HETATM    5  C2  UNL     1       2.048  -0.905  -0.278  1.00  0.00     0.021 C 
HETATM    6  C1  UNL     1       3.282  -0.473  -0.338  1.00  0.00     0.013 C 
ENDBRANCH   4   5
ENDBRANCH   3   4
ENDBRANCH   1   3
BRANCH   1   7
HETATM    7  C6  UNL     1      -2.048  -0.756  -0.143  1.00  0.00     0.236 C 
HETATM    8  O1  UNL     1      -1.879  -1.931  -0.581  1.00  0.00    -0.642 OA
HETATM    9  O2  UNL     1      -3.346  -0.454   0.255  1.00  0.00    -0.642 OA
ENDBRANCH   1   7
TORSDOF 4
