REMARK  1 active torsions:
REMARK  status: ('A' for Active; 'I' for Inactive)
REMARK    1  A    between atoms: C3_4  and  C4_5 
ROOT
HETATM    1  C1  UNL     1      -1.827  -0.450  -0.296  1.00  0.00     0.273 C 
HETATM    2  N1  UNL     1      -0.993   0.464   0.458  1.00  0.00    -0.061 N 
HETATM    3  C2  UNL     1      -0.033  -0.251   1.230  1.00  0.00     0.255 C 
HETATM    4  C3  UNL     1       0.613  -0.539  -0.130  1.00  0.00     0.145 C 
HETATM    5  C5  UNL     1       0.316   0.928  -0.221  1.00  0.00     0.232 A 
HETATM    6  C6  UNL     1      -0.863   1.675  -0.214  1.00  0.00     0.272 A 
ENDROOT
BRANCH   4   7
HETATM    7  C4  UNL     1       2.048  -0.897  -0.006  1.00  0.00     0.180 C 
HETATM    8  O1  UNL     1       2.546  -0.922   1.147  1.00  0.00    -0.648 OA
HETATM    9  O2  UNL     1       2.846  -1.199  -1.071  1.00  0.00    -0.648 OA
ENDBRANCH   4   7
TORSDOF 1
