REMARK  4 active torsions:
REMARK  status: ('A' for Active; 'I' for Inactive)
REMARK    1  A    between atoms: C2_2  and  C3_3 
REMARK    2  A    between atoms: C3_3  and  O1_4 
REMARK    3  A    between atoms: C3_3  and  C4_6 
REMARK    4  A    between atoms: C4_6  and  C5_7 
ROOT
HETATM    1  C5  UNL     1      -1.045  -0.215  -0.607  1.00  0.00     0.014 C 
HETATM    2  C6  UNL     1      -1.264   0.030  -2.062  1.00  0.00     0.087 C 
HETATM    3 CL1  UNL     1      -1.778   1.715  -2.402  1.00  0.00    -0.125 Cl
HETATM    4  C7  UNL     1      -0.025  -0.197  -2.847  1.00  0.00     0.023 C 
HETATM    5  C8  UNL     1       1.192   0.487  -2.289  1.00  0.00     0.041 C 
HETATM    6  C9  UNL     1       1.295   0.299  -0.790  1.00  0.00     0.080 C 
HETATM    7  O2  UNL     1       0.973   1.489  -0.109  1.00  0.00    -0.338 OA
HETATM    8  C10 UNL     1       2.153   2.100   0.335  1.00  0.00     0.078 A 
HETATM    9  C11 UNL     1       2.304   3.353   0.902  1.00  0.00     0.061 A 
HETATM   10  C12 UNL     1       3.547   3.795   1.282  1.00  0.00     0.036 A 
HETATM   11 CL2  UNL     1       3.756   5.398   2.009  1.00  0.00    -0.084 Cl
HETATM   12  C13 UNL     1       4.626   2.963   1.086  1.00  0.00     0.024 A 
HETATM   13  C14 UNL     1       4.465   1.707   0.517  1.00  0.00     0.012 A 
HETATM   14  C15 UNL     1       3.220   1.251   0.129  1.00  0.00    -0.018 A 
HETATM   15  C16 UNL     1       2.731  -0.004  -0.494  1.00  0.00     0.057 C 
HETATM   16  C17 UNL     1       2.897  -1.179   0.413  1.00  0.00     0.013 C 
HETATM   17  C18 UNL     1       1.935  -0.983   1.563  1.00  0.00     0.005 C 
HETATM   18  C19 UNL     1       0.540  -1.233   1.048  1.00  0.00    -0.011 C 
HETATM   19  C20 UNL     1       0.281  -2.723   1.205  1.00  0.00     0.010 C 
HETATM   20  C21 UNL     1       0.318  -0.761  -0.368  1.00  0.00     0.031 C 
ENDROOT
BRANCH   1  21
HETATM   21  C4  UNL     1      -2.140  -0.960   0.082  1.00  0.00     0.038 C 
BRANCH  21  22
HETATM   22  C3  UNL     1      -3.474  -0.268   0.049  1.00  0.00     0.118 C 
BRANCH  22  23
HETATM   23  C2  UNL     1      -4.501  -1.119   0.797  1.00  0.00     0.027 C 
HETATM   24  C1  UNL     1      -5.832  -0.431   0.871  1.00  0.00     0.007 C 
ENDBRANCH  22  23
BRANCH  22  25
HETATM   25  O1  UNL     1      -3.970  -0.065  -1.231  1.00  0.00    -0.396 OA
ATOM     26  H1  UNL     1      -3.332   0.464  -1.696  1.00  0.00     0.210 HD
ENDBRANCH  22  25
ENDBRANCH  21  22
ENDBRANCH   1  21
TORSDOF 4
