REMARK  3 active torsions:
REMARK  status: ('A' for Active; 'I' for Inactive)
REMARK       I    between atoms: C1_2  and  N1_3 
REMARK    1  A    between atoms: C1_2  and  C15_18 
REMARK    2  A    between atoms: N1_3  and  C2_5 
REMARK    3  A    between atoms: C2_5  and  C3_6 
ROOT
HETATM    1  C2  UNL     1      -0.268   0.250   0.341  1.00  0.00     0.037 C 
HETATM    2  C9  UNL     1      -0.071   0.943   1.658  1.00  0.00     0.031 C 
HETATM    3  C10 UNL     1       0.764   2.195   1.552  1.00  0.00     0.002 C 
HETATM    4  C11 UNL     1      -0.138   3.428   1.470  1.00  0.00     0.000 C 
HETATM    5  C12 UNL     1      -0.749   3.615   0.132  1.00  0.00     0.000 C 
HETATM    6  C13 UNL     1      -1.586   2.369  -0.177  1.00  0.00     0.002 C 
HETATM    7  C14 UNL     1      -0.757   1.255  -0.669  1.00  0.00     0.031 C 
ENDROOT
BRANCH   1   8
HETATM    8  N1  UNL     1       1.073  -0.122  -0.111  1.00  0.00    -0.347 N 
HETATM    9  C1  UNL     1       1.970  -1.002   0.496  1.00  0.00     0.257 C 
HETATM   10  O1  UNL     1       1.683  -1.603   1.606  1.00  0.00    -0.267 OA
ATOM     11  H1  UNL     1       1.391   0.316  -0.976  1.00  0.00     0.163 HD
BRANCH   9  12
HETATM   12  C15 UNL     1       3.302  -1.366   0.013  1.00  0.00     0.092 A 
HETATM   13  C16 UNL     1       3.637  -1.353  -1.295  1.00  0.00     0.054 A 
HETATM   14 CL1  UNL     1       2.508  -1.051  -2.626  1.00  0.00    -0.083 Cl
HETATM   15  C17 UNL     1       4.956  -1.649  -1.657  1.00  0.00     0.042 A 
HETATM   16  C18 UNL     1       5.871  -1.947  -0.678  1.00  0.00     0.091 A 
HETATM   17  N2  UNL     1       5.544  -1.964   0.630  1.00  0.00    -0.356 N 
HETATM   18  C19 UNL     1       4.284  -1.679   0.973  1.00  0.00     0.120 A 
ATOM     19  H2  UNL     1       6.241  -2.189   1.340  1.00  0.00     0.166 HD
HETATM   20 CL2  UNL     1       3.844  -1.699   2.683  1.00  0.00    -0.063 Cl
ENDBRANCH   9  12
ENDBRANCH   1   8
BRANCH   1  21
HETATM   21  C3  UNL     1      -1.167  -0.973   0.426  1.00  0.00     0.014 C 
HETATM   22  C4  UNL     1      -1.292  -1.712  -0.867  1.00  0.00     0.007 C 
HETATM   23  C5  UNL     1      -2.654  -1.762  -1.500  1.00  0.00     0.000 C 
HETATM   24  C6  UNL     1      -3.744  -2.016  -0.471  1.00  0.00     0.000 C 
HETATM   25  C7  UNL     1      -3.703  -0.702   0.324  1.00  0.00     0.000 C 
HETATM   26  C8  UNL     1      -2.447  -0.782   1.161  1.00  0.00     0.007 C 
ENDBRANCH   1  21
TORSDOF 3
