REMARK  3 active torsions:
REMARK  status: ('A' for Active; 'I' for Inactive)
REMARK    1  A    between atoms: C5_5  and  C6_6 
REMARK    2  A    between atoms: C6_6  and  C9_9 
REMARK    3  A    between atoms: C9_9  and  N1_10 
ROOT
HETATM    1  N1  UNL     1       1.376  -0.355  -0.188  1.00  0.00    -0.350 N 
HETATM    2  C10 UNL     1       1.816  -1.442   0.755  1.00  0.00     0.204 C 
HETATM    3  C11 UNL     1       3.181  -1.907   0.550  1.00  0.00     0.095 C 
HETATM    4  N2  UNL     1       3.404  -3.165   0.742  1.00  0.00    -0.387 N 
ATOM      5  H21 UNL     1       4.360  -3.491   0.598  1.00  0.00     0.157 HD
ATOM      6  H22 UNL     1       2.643  -3.781   1.026  1.00  0.00     0.157 HD
HETATM    7  N3  UNL     1       4.236  -1.053   0.156  1.00  0.00    -0.338 N 
HETATM    8  C12 UNL     1       5.621  -1.362   0.344  1.00  0.00     0.158 C 
HETATM    9  C13 UNL     1       3.799   0.166  -0.434  1.00  0.00     0.066 A 
HETATM   10  C14 UNL     1       4.823   1.021  -0.874  1.00  0.00     0.056 A 
HETATM   11  C15 UNL     1       4.527   2.216  -1.490  1.00  0.00     0.037 A 
HETATM   12 CL1  UNL     1       5.793   3.267  -2.030  1.00  0.00    -0.084 Cl
HETATM   13  C16 UNL     1       3.202   2.497  -1.637  1.00  0.00     0.050 A 
HETATM   14  C17 UNL     1       2.181   1.654  -1.203  1.00  0.00     0.064 A 
HETATM   15 CL2  UNL     1       0.605   2.166  -1.543  1.00  0.00    -0.082 Cl
HETATM   16  C18 UNL     1       2.464   0.473  -0.590  1.00  0.00     0.083 A 
ENDROOT
BRANCH   1  17
HETATM   17  C9  UNL     1       0.029  -0.312  -0.593  1.00  0.00     0.074 C 
BRANCH  17  18
HETATM   18  C6  UNL     1      -1.078  -0.107   0.398  1.00  0.00    -0.012 C 
HETATM   19  C7  UNL     1      -0.962   0.902   1.464  1.00  0.00     0.021 C 
HETATM   20  C8  UNL     1      -1.284  -1.392   1.283  1.00  0.00     0.021 C 
BRANCH  18  21
HETATM   21  C5  UNL     1      -2.397  -0.141  -0.335  1.00  0.00    -0.001 C 
HETATM   22  C4  UNL     1      -2.890   1.012  -1.063  1.00  0.00     0.006 C 
HETATM   23  C3  UNL     1      -4.311   0.616  -1.431  1.00  0.00     0.005 C 
HETATM   24  C2  UNL     1      -4.807  -0.046  -0.190  1.00  0.00    -0.018 C 
HETATM   25  C1  UNL     1      -5.642   0.931   0.632  1.00  0.00     0.010 C 
HETATM   26  C19 UNL     1      -3.572  -0.452   0.579  1.00  0.00     0.010 C 
ENDBRANCH  18  21
ENDBRANCH  17  18
ENDBRANCH   1  17
TORSDOF 3
