REMARK  3 active torsions:
REMARK  status: ('A' for Active; 'I' for Inactive)
REMARK    1  A    between atoms: N1_6  and  N2_8 
REMARK    2  A    between atoms: C6_10  and  C7_11 
REMARK    3  A    between atoms: N3_12  and  O1_14 
ROOT
HETATM    1  N2  UNL     1       1.152  -0.453   0.742  1.00  0.00    -0.310 N 
ATOM      2  H2  UNL     1       1.610   0.309   1.242  1.00  0.00     0.186 HD
HETATM    3  C6  UNL     1       1.825  -1.055  -0.154  1.00  0.00     0.126 C 
ENDROOT
BRANCH   1   4
HETATM    4  N1  UNL     1      -0.153  -0.752   1.090  1.00  0.00    -0.305 N 
HETATM    5  C5  UNL     1      -1.117  -0.090   0.555  1.00  0.00     0.031 C 
HETATM    6  C2  UNL     1      -2.557  -0.158   0.703  1.00  0.00    -0.043 C 
HETATM    7  C4  UNL     1      -1.316   1.011  -0.421  1.00  0.00     0.064 C 
HETATM    8  C1  UNL     1      -3.341  -0.556   1.673  1.00  0.00     0.021 C 
HETATM    9  C3  UNL     1      -2.699   0.393  -0.659  1.00  0.00     0.045 C 
ATOM     10  H1  UNL     1      -0.349  -1.491   1.765  1.00  0.00     0.186 HD
ENDBRANCH   1   4
BRANCH   3  11
HETATM   11  C7  UNL     1       3.196  -0.681  -0.464  1.00  0.00     0.132 C 
HETATM   12  N3  UNL     1       3.721   0.287   0.200  1.00  0.00    -0.279 N 
ATOM     13  H3  UNL     1       3.154   0.748   0.911  1.00  0.00     0.193 HD
BRANCH  12  14
HETATM   14  O1  UNL     1       4.999   0.731   0.003  1.00  0.00    -0.290 OA
ATOM     15  H1  UNL     1       5.387   1.446   0.494  1.00  0.00     0.244 HD
ENDBRANCH  12  14
ENDBRANCH   3  11
TORSDOF 3
