REMARK  4 active torsions:
REMARK  status: ('A' for Active; 'I' for Inactive)
REMARK    1  A    between atoms: C2_2  and  C3_3 
REMARK    2  A    between atoms: C3_3  and  O1_4 
REMARK    3  A    between atoms: C3_3  and  C4_6 
REMARK    4  A    between atoms: C4_6  and  N1_7 
ROOT
HETATM    1  N1  UNL     1       0.878   0.233  -0.417  1.00  0.00    -0.361 N 
HETATM    2  C5  UNL     1       1.454  -0.787   0.260  1.00  0.00     0.107 A 
HETATM    3  C6  UNL     1       2.365  -0.528   1.275  1.00  0.00     0.104 A 
HETATM    4  N2  UNL     1       2.677   0.738   1.586  1.00  0.00    -0.373 N 
ATOM      5  H2  UNL     1       3.347   0.918   2.333  1.00  0.00     0.164 HD
HETATM    6  C7  UNL     1       2.126   1.774   0.935  1.00  0.00     0.104 A 
HETATM    7  C8  UNL     1       1.224   1.481  -0.067  1.00  0.00     0.107 A 
ENDROOT
BRANCH   1   8
HETATM    8  C4  UNL     1      -0.078   0.001  -1.483  1.00  0.00     0.163 C 
BRANCH   8   9
HETATM    9  C3  UNL     1      -1.489  -0.048  -0.879  1.00  0.00     0.158 C 
BRANCH   9  10
HETATM   10  C2  UNL     1      -1.569  -1.155   0.120  1.00  0.00    -0.004 C 
HETATM   11  C1  UNL     1      -2.072  -0.971   1.332  1.00  0.00     0.009 C 
ENDBRANCH   9  10
BRANCH   9  12
HETATM   12  O1  UNL     1      -2.436  -0.238  -1.872  1.00  0.00    -0.390 OA
ATOM     13  H1  UNL     1      -2.385   0.466  -2.508  1.00  0.00     0.210 HD
ENDBRANCH   9  12
ENDBRANCH   8   9
ENDBRANCH   1   8
TORSDOF 4
