REMARK  9 active torsions:
REMARK  status: ('A' for Active; 'I' for Inactive)
REMARK    1  A    between atoms: C2_2  and  C3_3 
REMARK    2  A    between atoms: C3_3  and  C4_4 
REMARK    3  A    between atoms: C4_4  and  N1_5 
REMARK    4  A    between atoms: C6_7  and  C7_8 
REMARK    5  A    between atoms: C8_11  and  N2_12 
REMARK       I    between atoms: N2_12  and  C9_14 
REMARK    6  A    between atoms: C9_14  and  C10_16 
REMARK    7  A    between atoms: C10_16  and  C11_17 
REMARK    8  A    between atoms: C11_17  and  C12_18 
REMARK    9  A    between atoms: N3_21  and  C15_22 
ROOT
HETATM    1  N2  UNL     1       2.241   2.014   0.037  1.00  0.00    -0.311 N 
ATOM      2  H2  UNL     1       1.803   2.842   0.441  1.00  0.00     0.170 HD
HETATM    3  C9  UNL     1       1.411   0.975  -0.461  1.00  0.00     0.223 C 
HETATM    4  O3  UNL     1       1.918  -0.045  -0.960  1.00  0.00    -0.273 OA
ENDROOT
BRANCH   1   5
HETATM    5  C8  UNL     1       3.658   1.943  -0.006  1.00  0.00     0.141 A 
HETATM    6  C6  UNL     1       4.591   2.841   0.422  1.00  0.00     0.103 A 
HETATM    7  C5  UNL     1       5.814   2.275   0.141  1.00  0.00     0.132 A 
HETATM    8  N1  UNL     1       5.621   1.055  -0.448  1.00  0.00    -0.301 N 
HETATM    9  N4  UNL     1       4.317   0.873  -0.528  1.00  0.00    -0.283 N 
ATOM     10  H4  UNL     1       3.867   0.048  -0.925  1.00  0.00     0.189 HD
BRANCH   6  11
HETATM   11  C7  UNL     1       4.382   4.128   1.046  1.00  0.00     0.214 C 
HETATM   12  O1  UNL     1       3.243   4.591   1.278  1.00  0.00    -0.644 OA
HETATM   13  O2  UNL     1       5.447   4.944   1.435  1.00  0.00    -0.644 OA
ENDBRANCH   6  11
BRANCH   8  14
HETATM   14  C4  UNL     1       6.698   0.188  -0.886  1.00  0.00     0.148 C 
BRANCH  14  15
HETATM   15  C3  UNL     1       7.125  -0.728   0.212  1.00  0.00     0.021 C 
BRANCH  15  16
HETATM   16  C2  UNL     1       5.965  -1.595   0.628  1.00  0.00    -0.003 C 
HETATM   17  C1  UNL     1       5.541  -2.398  -0.604  1.00  0.00     0.005 C 
ENDBRANCH  15  16
ENDBRANCH  14  15
ENDBRANCH   8  14
ENDBRANCH   1   5
BRANCH   3  18
HETATM   18  C10 UNL     1      -0.056   1.107  -0.388  1.00  0.00     0.103 C 
BRANCH  18  19
HETATM   19  C11 UNL     1      -0.755  -0.085  -0.963  1.00  0.00     0.014 C 
BRANCH  19  20
HETATM   20  C12 UNL     1      -2.244   0.114  -0.856  1.00  0.00    -0.011 C 
HETATM   21  C13 UNL     1      -2.582   0.269   0.614  1.00  0.00     0.024 C 
HETATM   22  C14 UNL     1      -3.766  -0.642   0.965  1.00  0.00     0.118 C 
HETATM   23  N3  UNL     1      -4.818  -0.505   0.010  1.00  0.00    -0.405 N 
HETATM   24  C19 UNL     1      -4.477  -0.732  -1.348  1.00  0.00     0.118 C 
HETATM   25  C20 UNL     1      -3.006  -1.072  -1.436  1.00  0.00     0.024 C 
BRANCH  23  26
HETATM   26  C15 UNL     1      -6.082  -0.995   0.431  1.00  0.00     0.017 C 
HETATM   27  C16 UNL     1      -7.107  -0.809  -0.661  1.00  0.00     0.037 C 
HETATM   28  C17 UNL     1      -6.610  -0.345   1.677  1.00  0.00     0.037 C 
HETATM   29  C18 UNL     1      -5.956  -2.477   0.704  1.00  0.00     0.037 C 
ENDBRANCH  23  26
ENDBRANCH  19  20
ENDBRANCH  18  19
ENDBRANCH   3  18
TORSDOF 9
