REMARK  10 active torsions:
REMARK  status: ('A' for Active; 'I' for Inactive)
REMARK    1  A    between atoms: C2_2  and  S1_4 
REMARK    2  A    between atoms: S1_4  and  C3_5 
REMARK    3  A    between atoms: C3_5  and  C4_7 
REMARK    4  A    between atoms: C4_7  and  O3_8 
REMARK    5  A    between atoms: C6_13  and  N2_14 
REMARK    6  A    between atoms: C10_22  and  C11_23 
REMARK    7  A    between atoms: C11_23  and  N4_24 
REMARK    8  A    between atoms: N4_24  and  C12_26 
REMARK    9  A    between atoms: C13_27  and  N5_28 
REMARK   10  A    between atoms: N5_28  and  N6_30 
ROOT
HETATM    1  C4  UNL     1      -1.882   0.523   0.232  1.00  0.00     0.375 C 
HETATM    2  C5  UNL     1      -1.844  -0.980   0.028  1.00  0.00     0.111 A 
HETATM    3  N1  UNL     1      -2.818  -1.764  -0.459  1.00  0.00    -0.190 N 
ATOM      4  H1  UNL     1      -3.705  -1.355  -0.751  1.00  0.00     0.184 HD
HETATM    5  C6  UNL     1      -2.624  -3.077  -0.560  1.00  0.00     0.676 A 
HETATM    6  N3  UNL     1      -1.456  -3.616  -0.175  1.00  0.00    -0.196 N 
ATOM      7  H3  UNL     1      -1.314  -4.623  -0.254  1.00  0.00     0.184 HD
HETATM    8  C7  UNL     1      -0.455  -2.827   0.322  1.00  0.00     0.033 A 
HETATM    9  C8  UNL     1       0.776  -3.472   0.731  1.00  0.00     0.069 C 
HETATM   10  C9  UNL     1      -0.628  -1.473   0.436  1.00  0.00     0.028 A 
HETATM   11  C10 UNL     1       0.135  -0.347   0.879  1.00  0.00     0.282 C 
HETATM   12  N7  UNL     1      -0.480   0.813   0.353  1.00  0.00     0.145 N 
HETATM   13  C16 UNL     1      -0.025   1.291  -0.921  1.00  0.00     0.316 C 
ENDROOT
BRANCH  11  14
HETATM   14  C11 UNL     1       1.617  -0.381   0.754  1.00  0.00     0.161 C 
BRANCH  14  15
HETATM   15  N4  UNL     1       2.177  -0.543  -0.534  1.00  0.00    -0.382 N 
ATOM     16  H4  UNL     1       1.598  -0.652  -1.367  1.00  0.00     0.160 HD
BRANCH  15  17
HETATM   17  C12 UNL     1       3.622  -0.545  -0.596  1.00  0.00     0.115 A 
HETATM   18  C13 UNL     1       4.588   0.435  -0.762  1.00  0.00     0.132 A 
HETATM   19  C14 UNL     1       5.600  -0.508  -0.686  1.00  0.00     0.254 A 
HETATM   20  O4  UNL     1       6.855  -0.509  -0.740  1.00  0.00    -0.281 OA
HETATM   21  C15 UNL     1       4.630  -1.475  -0.522  1.00  0.00     0.252 A 
HETATM   22  O5  UNL     1       4.642  -2.731  -0.363  1.00  0.00    -0.281 OA
BRANCH  18  23
HETATM   23  N5  UNL     1       4.543   1.842  -0.939  1.00  0.00    -0.301 N 
ATOM     24  H5  UNL     1       4.490   2.203  -1.892  1.00  0.00     0.186 HD
BRANCH  23  25
HETATM   25  N6  UNL     1       4.567   2.762   0.107  1.00  0.00    -0.344 N 
ATOM     26  H62 UNL     1       4.620   2.384   1.053  1.00  0.00     0.176 HD
ATOM     27  H61 UNL     1       4.535   3.774  -0.020  1.00  0.00     0.176 HD
ENDBRANCH  23  25
ENDBRANCH  18  23
ENDBRANCH  15  17
ENDBRANCH  14  15
ENDBRANCH  11  14
BRANCH   1  28
HETATM   28  C3  UNL     1      -2.661   0.873   1.415  1.00  0.00     0.266 C 
HETATM   29  O2  UNL     1      -2.329   0.223   2.450  1.00  0.00    -0.279 OA
BRANCH  28  30
HETATM   30  S1  UNL     1      -3.933   2.017   1.612  1.00  0.00    -0.010 SA
BRANCH  30  31
HETATM   31  C2  UNL     1      -4.403   3.113   0.378  1.00  0.00     0.189 C 
HETATM   32  C1  UNL     1      -5.590   4.029   0.655  1.00  0.00     0.105 C 
HETATM   33  O1  UNL     1      -3.915   3.272  -0.711  1.00  0.00    -0.285 OA
ENDBRANCH  30  31
ENDBRANCH  28  30
ENDBRANCH   1  28
BRANCH   1  34
HETATM   34  O3  UNL     1      -2.404   1.079  -0.942  1.00  0.00    -0.352 OA
ATOM     35  H3  UNL     1      -1.897   0.851  -1.712  1.00  0.00     0.213 HD
ENDBRANCH   1  34
BRANCH   5  36
HETATM   36  N2  UNL     1      -3.575  -3.842  -1.035  1.00  0.00    -0.234 N 
ATOM     37  H22 UNL     1      -4.462  -3.433  -1.327  1.00  0.00     0.174 HD
ATOM     38  H21 UNL     1      -3.426  -4.848  -1.112  1.00  0.00     0.174 HD
ENDBRANCH   5  36
TORSDOF 10
