REMARK  11 active torsions:
REMARK  status: ('A' for Active; 'I' for Inactive)
REMARK    1  A    between atoms: O1_2  and  C2_3 
REMARK    2  A    between atoms: C2_3  and  C3_5 
REMARK    3  A    between atoms: C4_9  and  O3_10 
REMARK    4  A    between atoms: C5_12  and  C6_13 
REMARK    5  A    between atoms: C6_13  and  O4_14 
REMARK    6  A    between atoms: C6_13  and  N3_16 
REMARK    7  A    between atoms: N3_16  and  N4_17 
REMARK    8  A    between atoms: N4_17  and  C7_19 
REMARK    9  A    between atoms: C7_19  and  C8_20 
REMARK   10  A    between atoms: C9_23  and  N6_24 
REMARK   11  A    between atoms: C11_31  and  N8_32 
ROOT
HETATM    1  C6  UNL     1       0.702  -2.653  -0.562  1.00  0.00     0.269 C 
ENDROOT
BRANCH   1   2
HETATM    2  C5  UNL     1       2.070  -2.137  -0.458  1.00  0.00     0.155 A 
HETATM    3  C4  UNL     1       2.648  -0.901  -0.508  1.00  0.00     0.197 A 
HETATM    4  N2  UNL     1       4.011  -0.975  -0.265  1.00  0.00    -0.207 N 
HETATM    5  N1  UNL     1       4.986  -0.156  -0.192  1.00  0.00    -0.278 N 
HETATM    6  C14 UNL     1       4.249  -2.261  -0.070  1.00  0.00     0.175 A 
HETATM    7  C3  UNL     1       6.197  -0.540   0.071  1.00  0.00     0.169 A 
ATOM      8  H1  UNL     1       4.807   0.836  -0.346  1.00  0.00     0.188 HD
HETATM    9  S1  UNL     1       5.956  -2.264   0.230  1.00  0.00    -0.027 SA
HETATM   10  N9  UNL     1       3.132  -2.999  -0.174  1.00  0.00    -0.327 N 
ATOM     11  H9  UNL     1       3.070  -4.011  -0.065  1.00  0.00     0.168 HD
BRANCH   3  12
HETATM   12  O3  UNL     1       1.905   0.246  -0.776  1.00  0.00    -0.343 OA
ATOM     13  H3  UNL     1       0.971   0.297  -0.943  1.00  0.00     0.219 HD
ENDBRANCH   3  12
BRANCH   7  14
HETATM   14  C2  UNL     1       7.492   0.126   0.232  1.00  0.00     0.318 C 
HETATM   15  O2  UNL     1       8.521  -0.547   0.481  1.00  0.00    -0.257 OA
BRANCH  14  16
HETATM   16  O1  UNL     1       7.561   1.486   0.113  1.00  0.00    -0.321 OA
HETATM   17  C1  UNL     1       8.852   2.081   0.285  1.00  0.00     0.213 C 
ENDBRANCH  14  16
ENDBRANCH   7  14
ENDBRANCH   1   2
BRANCH   1  18
HETATM   18  O4  UNL     1       0.731  -4.032  -0.515  1.00  0.00    -0.332 OA
ATOM     19  H4  UNL     1      -0.156  -4.366  -0.582  1.00  0.00     0.220 HD
ENDBRANCH   1  18
BRANCH   1  20
HETATM   20  N3  UNL     1      -0.479  -2.071  -0.685  1.00  0.00    -0.302 NA
BRANCH  20  21
HETATM   21  N4  UNL     1      -1.644  -1.501  -0.805  1.00  0.00    -0.264 N 
ATOM     22  H4  UNL     1      -2.320  -1.921  -1.443  1.00  0.00     0.195 HD
BRANCH  21  23
HETATM   23  C7  UNL     1      -2.033  -0.317  -0.092  1.00  0.00     0.213 C 
BRANCH  23  24
HETATM   24  C8  UNL     1      -3.562  -0.216  -0.177  1.00  0.00     0.078 A 
HETATM   25  N5  UNL     1      -4.217  -1.287  -0.695  1.00  0.00    -0.192 N 
HETATM   26  C9  UNL     1      -5.598  -1.315  -0.620  1.00  0.00     0.679 A 
ATOM     27  H5  UNL     1      -3.702  -2.053  -1.129  1.00  0.00     0.184 HD
HETATM   28  N7  UNL     1      -6.258  -0.339  -0.073  1.00  0.00    -0.154 N 
HETATM   29  C10 UNL     1      -5.607   0.738   0.446  1.00  0.00     0.288 A 
ATOM     30  H7  UNL     1      -7.276  -0.380  -0.032  1.00  0.00     0.187 HD
HETATM   31  O5  UNL     1      -6.215   1.692   0.977  1.00  0.00    -0.265 OA
HETATM   32  C11 UNL     1      -4.197   0.812   0.394  1.00  0.00     0.124 A 
BRANCH  26  33
HETATM   33  N6  UNL     1      -6.150  -2.420  -1.139  1.00  0.00    -0.234 N 
ATOM     34  H62 UNL     1      -5.632  -3.186  -1.569  1.00  0.00     0.174 HD
ATOM     35  H61 UNL     1      -7.168  -2.441  -1.084  1.00  0.00     0.174 HD
ENDBRANCH  26  33
BRANCH  32  36
HETATM   36  N8  UNL     1      -3.593   1.987   0.895  1.00  0.00    -0.384 N 
HETATM   37  C12 UNL     1      -3.498   3.130  -0.026  1.00  0.00     0.149 C 
HETATM   38  C13 UNL     1      -3.078   2.135   2.248  1.00  0.00     0.149 C 
ENDBRANCH  32  36
ENDBRANCH  23  24
ENDBRANCH  21  23
ENDBRANCH  20  21
ENDBRANCH   1  20
TORSDOF 11
