REMARK  4 active torsions:
REMARK  status: ('A' for Active; 'I' for Inactive)
REMARK    1  A    between atoms: C3_3  and  C4_4 
REMARK    2  A    between atoms: C4_4  and  N1_5 
REMARK    3  A    between atoms: N1_5  and  C5_7 
REMARK    4  A    between atoms: C5_7  and  N2_9 
ROOT
HETATM    1  C1  UNL     1      -4.775  -0.890  -0.295  1.00  0.00     0.112 C 
HETATM    2  C2  UNL     1      -3.507  -0.131  -0.276  1.00  0.00    -0.109 C 
HETATM    3  C3  UNL     1      -2.466   0.504  -0.239  1.00  0.00    -0.087 C 
ENDROOT
BRANCH   3   4
HETATM    4  C4  UNL     1      -1.224   1.275  -0.164  1.00  0.00     0.216 C 
BRANCH   4   5
HETATM    5  N1  UNL     1      -0.115   0.365  -0.076  1.00  0.00    -0.357 N 
ATOM      6  H1  UNL     1      -0.285  -0.638  -0.150  1.00  0.00     0.162 HD
BRANCH   5   7
HETATM    7  C5  UNL     1       1.206   0.831   0.111  1.00  0.00     0.169 C 
HETATM    8  S1  UNL     1       1.466   2.459   0.240  1.00  0.00    -0.041 SA
BRANCH   7   9
HETATM    9  N2  UNL     1       2.334  -0.008   0.194  1.00  0.00    -0.367 N 
HETATM   10  C6  UNL     1       3.679   0.546   0.404  1.00  0.00     0.151 C 
HETATM   11  C7  UNL     1       2.302  -1.454   0.071  1.00  0.00     0.151 C 
ENDBRANCH   7   9
ENDBRANCH   5   7
ENDBRANCH   4   5
ENDBRANCH   3   4
TORSDOF 4
