REMARK  4 active torsions:
REMARK  status: ('A' for Active; 'I' for Inactive)
REMARK    1  A    between atoms: C3_3  and  N1_4 
REMARK       I    between atoms: N1_4  and  C4_6 
REMARK    2  A    between atoms: C4_6  and  C5_8 
REMARK    3  A    between atoms: C6_9  and  C7_10 
REMARK    4  A    between atoms: C8_11  and  C9_12 
ROOT
HETATM    1  C1  UNL     1       6.091   1.512  -0.475  1.00  0.00     0.014 C 
HETATM    2  C2  UNL     1       5.626   0.525   0.037  1.00  0.00    -0.098 C 
HETATM    3  C3  UNL     1       5.084  -0.686   0.648  1.00  0.00     0.217 C 
ENDROOT
BRANCH   3   4
HETATM    4  N1  UNL     1       3.667  -0.794   0.409  1.00  0.00    -0.340 N 
HETATM    5  C4  UNL     1       2.746   0.187   0.850  1.00  0.00     0.298 C 
HETATM    6  O1  UNL     1       3.131   1.221   1.484  1.00  0.00    -0.258 OA
ATOM      7  H1  UNL     1       3.315  -1.607  -0.096  1.00  0.00     0.164 HD
BRANCH   5   8
HETATM    8  C5  UNL     1       1.333   0.092   0.620  1.00  0.00     0.009 C 
HETATM    9  C6  UNL     1       0.135  -0.005   0.437  1.00  0.00    -0.005 C 
BRANCH   9  10
HETATM   10  C7  UNL     1      -1.264  -0.143   0.221  1.00  0.00    -0.014 C 
HETATM   11  C8  UNL     1      -2.454  -0.282   0.032  1.00  0.00    -0.088 C 
BRANCH  11  12
HETATM   12  C9  UNL     1      -3.887  -0.472  -0.204  1.00  0.00     0.058 C 
HETATM   13  C10 UNL     1      -4.246  -0.303  -1.662  1.00  0.00     0.023 C 
HETATM   14  C11 UNL     1      -4.723   0.514   0.582  1.00  0.00     0.023 C 
ENDBRANCH  11  12
ENDBRANCH   9  10
ENDBRANCH   5   8
ENDBRANCH   3   4
TORSDOF 4
