REMARK  8 active torsions:
REMARK  status: ('A' for Active; 'I' for Inactive)
REMARK    1  A    between atoms: C2_2  and  C3_3 
REMARK    2  A    between atoms: C3_3  and  N1_4 
REMARK    3  A    between atoms: C6_8  and  C7_9 
REMARK    4  A    between atoms: N2_10  and  O2_12 
REMARK    5  A    between atoms: O2_12  and  C8_13 
REMARK    6  A    between atoms: C8_13  and  N3_14 
REMARK    7  A    between atoms: C8_13  and  N4_18 
REMARK    8  A    between atoms: C9_24  and  N6_25 
ROOT
HETATM    1  N1  UNL     1      -2.571  -0.598  -0.202  1.00  0.00    -0.144 N 
HETATM    2  C4  UNL     1      -2.187  -0.414  -1.473  1.00  0.00     0.264 A 
HETATM    3  O1  UNL     1      -3.042  -0.387  -2.370  1.00  0.00    -0.267 OA
HETATM    4  C5  UNL     1      -0.858  -0.255  -1.801  1.00  0.00     0.106 A 
HETATM    5  C6  UNL     1       0.126  -0.280  -0.823  1.00  0.00     0.071 A 
HETATM    6  N5  UNL     1      -0.309  -0.467   0.434  1.00  0.00    -0.190 N 
ATOM      7  H5  UNL     1       0.377  -0.493   1.188  1.00  0.00     0.184 HD
HETATM    8  C9  UNL     1      -1.617  -0.622   0.745  1.00  0.00     0.681 A 
ENDROOT
BRANCH   5   9
HETATM    9  C7  UNL     1       1.520  -0.114  -1.155  1.00  0.00     0.144 C 
HETATM   10  N2  UNL     1       2.407  -0.141  -0.242  1.00  0.00    -0.272 N 
ATOM     11  H2  UNL     1       2.092  -0.283   0.718  1.00  0.00     0.193 HD
BRANCH  10  12
HETATM   12  O2  UNL     1       3.749   0.006  -0.450  1.00  0.00    -0.220 OA
BRANCH  12  13
HETATM   13  C8  UNL     1       4.676   0.471   0.465  1.00  0.00     0.542 C 
BRANCH  13  14
HETATM   14  N3  UNL     1       5.670  -0.567   0.686  1.00  0.00    -0.025 N 
ATOM     15  H33 UNL     1       5.253  -1.454   0.968  1.00  0.00     0.279 HD
ATOM     16  H32 UNL     1       6.102  -0.885  -0.181  1.00  0.00     0.279 HD
ATOM     17  H31 UNL     1       6.354  -0.224   1.361  1.00  0.00     0.279 HD
ENDBRANCH  13  14
BRANCH  13  18
HETATM   18  N4  UNL     1       5.384   1.658   0.055  1.00  0.00    -0.025 N 
ATOM     19  H43 UNL     1       5.826   1.511  -0.853  1.00  0.00     0.279 HD
ATOM     20  H42 UNL     1       4.725   2.397  -0.188  1.00  0.00     0.279 HD
ATOM     21  H41 UNL     1       6.068   2.001   0.730  1.00  0.00     0.279 HD
ENDBRANCH  13  18
ENDBRANCH  12  13
ENDBRANCH  10  12
ENDBRANCH   5   9
BRANCH   8  22
HETATM   22  N6  UNL     1      -2.008  -0.800   1.962  1.00  0.00    -0.234 N 
ATOM     23  H62 UNL     1      -2.994  -0.917   2.196  1.00  0.00     0.174 HD
ATOM     24  H61 UNL     1      -1.284  -0.818   2.680  1.00  0.00     0.174 HD
ENDBRANCH   8  22
BRANCH   1  25
HETATM   25  C3  UNL     1      -3.957  -0.766   0.164  1.00  0.00     0.177 C 
BRANCH  25  26
HETATM   26  C2  UNL     1      -4.646   0.494   0.469  1.00  0.00    -0.016 C 
HETATM   27  C1  UNL     1      -5.202   0.754   1.647  1.00  0.00     0.008 C 
ENDBRANCH  25  26
ENDBRANCH   1  25
TORSDOF 8
