REMARK  4 active torsions:
REMARK  status: ('A' for Active; 'I' for Inactive)
REMARK    1  A    between atoms: N1_1  and  C1_4 
REMARK    2  A    between atoms: C2_7  and  N3_8 
REMARK    3  A    between atoms: N4_11  and  N5_12 
REMARK    4  A    between atoms: C6_18  and  N7_19 
ROOT
HETATM    1  C1  UNL     1       2.532   1.425   0.087  1.00  0.00     0.705 A 
HETATM    2  N2  UNL     1       1.196   1.237   0.090  1.00  0.00    -0.021 N 
ATOM      3  H2  UNL     1       0.578   2.035  -0.055  1.00  0.00     0.203 HD
HETATM    4  C2  UNL     1       0.658   0.003   0.283  1.00  0.00     0.710 A 
HETATM    5  N6  UNL     1       1.517  -1.002   0.467  1.00  0.00    -0.021 N 
ATOM      6  H6  UNL     1       1.143  -1.939   0.615  1.00  0.00     0.203 HD
HETATM    7  C6  UNL     1       2.863  -0.837   0.467  1.00  0.00     0.705 A 
HETATM    8  N8  UNL     1       3.377   0.396   0.274  1.00  0.00    -0.022 N 
ATOM      9  H8  UNL     1       4.386   0.544   0.270  1.00  0.00     0.203 HD
ENDROOT
BRANCH   4  10
HETATM   10  N3  UNL     1      -0.734  -0.199   0.311  1.00  0.00    -0.202 N 
HETATM   11  C3  UNL     1      -1.531  -1.133  -0.418  1.00  0.00     0.159 C 
HETATM   12  C4  UNL     1      -2.930  -0.939   0.131  1.00  0.00     0.135 C 
HETATM   13  N4  UNL     1      -2.945   0.349   0.748  1.00  0.00    -0.218 NA
HETATM   14  C5  UNL     1      -1.607   0.572   1.158  1.00  0.00     0.255 C 
BRANCH  13  15
HETATM   15  N5  UNL     1      -3.537   1.353   0.020  1.00  0.00    -0.362 NA
ATOM     16  H52 UNL     1      -4.500   1.192  -0.275  1.00  0.00     0.171 HD
ATOM     17  H51 UNL     1      -3.548   2.273   0.461  1.00  0.00     0.171 HD
ENDBRANCH  13  15
ENDBRANCH   4  10
BRANCH   1  18
HETATM   18  N1  UNL     1       3.048   2.591  -0.098  1.00  0.00    -0.234 N 
ATOM     19  H12 UNL     1       2.407   3.372  -0.240  1.00  0.00     0.174 HD
ATOM     20  H11 UNL     1       4.058   2.733  -0.100  1.00  0.00     0.174 HD
ENDBRANCH   1  18
BRANCH   7  21
HETATM   21  N7  UNL     1       3.584  -1.872   0.654  1.00  0.00    -0.234 N 
ATOM     22  H72 UNL     1       3.196  -2.804   0.800  1.00  0.00     0.174 HD
ATOM     23  H71 UNL     1       4.596  -1.748   0.654  1.00  0.00     0.174 HD
ENDBRANCH   7  21
TORSDOF 4
