REMARK  2 active torsions:
REMARK  status: ('A' for Active; 'I' for Inactive)
REMARK       I    between atoms: C2_3  and  N2_5 
REMARK    1  A    between atoms: N2_5  and  N3_7 
REMARK    2  A    between atoms: C4_14  and  N6_15 
ROOT
HETATM    1  N1  UNL     1       5.162   0.544   0.235  1.00  0.00    -0.186 NA
HETATM    2  C1  UNL     1       4.101   0.303  -0.156  1.00  0.00     0.163 C 
HETATM    3  C2  UNL     1       2.733   0.003  -0.634  1.00  0.00     0.341 C 
HETATM    4  O1  UNL     1       2.697  -0.429  -1.776  1.00  0.00    -0.254 OA
HETATM    5  N2  UNL     1       1.692   0.241   0.244  1.00  0.00    -0.232 N 
ATOM      6  H2  UNL     1       2.023   0.606   1.137  1.00  0.00     0.192 HD
ENDROOT
BRANCH   5   7
HETATM    7  N3  UNL     1       0.326   0.111   0.219  1.00  0.00    -0.027 N 
HETATM    8  C3  UNL     1      -0.378  -0.334  -0.799  1.00  0.00     0.716 A 
HETATM    9  N4  UNL     1       0.148  -0.701  -1.900  1.00  0.00    -0.232 N 
HETATM   10  N5  UNL     1      -1.745  -0.408  -0.676  1.00  0.00    -0.021 N 
ATOM     11  H42 UNL     1       1.162  -0.646  -1.991  1.00  0.00     0.174 HD
ATOM     12  H41 UNL     1      -0.398  -1.046  -2.689  1.00  0.00     0.174 HD
HETATM   13  C4  UNL     1      -2.387  -0.047   0.435  1.00  0.00     0.694 A 
ATOM     14  H5  UNL     1      -2.290  -0.753  -1.466  1.00  0.00     0.203 HD
HETATM   15  N7  UNL     1      -1.648   0.404   1.462  1.00  0.00    -0.139 N 
HETATM   16  C5  UNL     1      -0.326   0.487   1.372  1.00  0.00     0.374 A 
ATOM     17  H7  UNL     1      -2.110   0.688   2.326  1.00  0.00     0.189 HD
HETATM   18  O2  UNL     1       0.285   0.922   2.386  1.00  0.00    -0.244 OA
BRANCH  13  19
HETATM   19  N6  UNL     1      -3.663  -0.129   0.518  1.00  0.00    -0.234 N 
ATOM     20  H62 UNL     1      -4.224  -0.471  -0.262  1.00  0.00     0.174 HD
ATOM     21  H61 UNL     1      -4.154   0.147   1.368  1.00  0.00     0.174 HD
ENDBRANCH  13  19
ENDBRANCH   5   7
TORSDOF 2
