REMARK  0 active torsions:
REMARK  status: ('A' for Active; 'I' for Inactive)
ROOT
HETATM    1  O1  UNL     1      -1.140  -1.972  -0.769  1.00  0.00    -0.267 OA
HETATM    2  C1  UNL     1      -1.659  -0.883  -0.454  1.00  0.00     0.259 A 
HETATM    3  N1  UNL     1      -3.006  -0.832  -0.442  1.00  0.00    -0.333 N 
ATOM      4  H1  UNL     1      -3.540  -1.666  -0.686  1.00  0.00     0.168 HD
HETATM    5  C2  UNL     1      -3.659   0.298  -0.114  1.00  0.00     0.091 A 
HETATM    6  C3  UNL     1      -2.945   1.428   0.216  1.00  0.00     0.018 A 
HETATM    7  C4  UNL     1      -1.547   1.373   0.203  1.00  0.00     0.022 A 
HETATM    8  C5  UNL     1      -0.884   0.211  -0.134  1.00  0.00     0.078 A 
HETATM    9  C6  UNL     1       0.548   0.186  -0.140  1.00  0.00     0.149 C 
HETATM   10  N2  UNL     1       1.190   0.936   0.727  1.00  0.00    -0.271 N 
ATOM     11  H2  UNL     1       0.603   1.490   1.351  1.00  0.00     0.190 HD
HETATM   12  N3  UNL     1       2.584   1.079   0.912  1.00  0.00    -0.227 N 
ATOM     13  H3  UNL     1       2.915   1.781   1.574  1.00  0.00     0.205 HD
HETATM   14  N4  UNL     1       3.536   0.306   0.232  1.00  0.00     0.005 NA
HETATM   15  N5  UNL     1       3.050  -0.998   0.171  1.00  0.00     0.006 NA
HETATM   16  N6  UNL     1       2.408  -1.318  -1.004  1.00  0.00    -0.009 NA
HETATM   17  N7  UNL     1       1.175  -0.666  -1.111  1.00  0.00    -0.270 N 
ATOM     18  H7  UNL     1       0.662  -0.813  -1.980  1.00  0.00     0.185 HD
ENDROOT
TORSDOF 0
