REMARK  3 active torsions:
REMARK  status: ('A' for Active; 'I' for Inactive)
REMARK    1  A    between atoms: N1_1  and  N2_4 
REMARK    2  A    between atoms: N2_4  and  N3_6 
REMARK    3  A    between atoms: C2_8  and  C3_9 
REMARK       I    between atoms: C3_9  and  N4_11 
REMARK       I    between atoms: N4_11  and  C4_13 
ROOT
HETATM    1  N3  UNL     1      -2.162  -0.325   0.134  1.00  0.00    -0.190 N 
HETATM    2  C1  UNL     1      -0.914   0.132   0.421  1.00  0.00     0.161 A 
HETATM    3  C2  UNL     1      -0.038  -0.922   0.243  1.00  0.00     0.120 A 
HETATM    4  C5  UNL     1      -0.790  -2.012  -0.154  1.00  0.00     0.278 A 
HETATM    5  O3  UNL     1      -0.396  -3.169  -0.422  1.00  0.00    -0.266 OA
HETATM    6  N6  UNL     1      -2.067  -1.599  -0.204  1.00  0.00    -0.243 N 
ATOM      7  H6  UNL     1      -2.857  -2.189  -0.467  1.00  0.00     0.192 HD
ENDROOT
BRANCH   3   8
HETATM    8  C3  UNL     1       1.428  -0.885   0.413  1.00  0.00     0.266 C 
HETATM    9  O1  UNL     1       1.954  -1.965   0.789  1.00  0.00    -0.267 OA
HETATM   10  N4  UNL     1       2.160   0.301   0.160  1.00  0.00    -0.277 N 
HETATM   11  C4  UNL     1       3.559   0.355   0.296  1.00  0.00     0.335 C 
ATOM     12  H4  UNL     1       1.658   1.140  -0.129  1.00  0.00     0.173 HD
HETATM   13  N5  UNL     1       4.277   1.563   0.022  1.00  0.00    -0.040 NA
HETATM   14  O2  UNL     1       4.196  -0.681   0.663  1.00  0.00    -0.251 OA
ENDBRANCH   3   8
BRANCH   1  15
HETATM   15  N2  UNL     1      -3.279   0.494   0.208  1.00  0.00    -0.228 N 
ATOM     16  H2  UNL     1      -3.876   0.486   1.035  1.00  0.00     0.210 HD
BRANCH  15  17
HETATM   17  N1  UNL     1      -3.567   1.324  -0.864  1.00  0.00    -0.329 N 
ATOM     18  H12 UNL     1      -2.960   1.321  -1.683  1.00  0.00     0.178 HD
ATOM     19  H11 UNL     1      -4.388   1.926  -0.810  1.00  0.00     0.178 HD
ENDBRANCH  15  17
ENDBRANCH   1  15
TORSDOF 3
