REMARK  3 active torsions:
REMARK  status: ('A' for Active; 'I' for Inactive)
REMARK    1  A    between atoms: N1_2  and  N2_4 
REMARK       I    between atoms: N2_4  and  C3_6 
REMARK    2  A    between atoms: C3_6  and  C4_8 
REMARK    3  A    between atoms: C4_8  and  O2_9 
ROOT
HETATM    1  C4  UNL     1      -1.534  -0.672  -0.810  1.00  0.00     0.317 C 
HETATM    2  N3  UNL     1      -2.250  -1.116   0.363  1.00  0.00    -0.066 NA
HETATM    3  N4  UNL     1      -2.635   0.070   0.982  1.00  0.00    -0.251 N 
ATOM      4  H4  UNL     1      -2.801   0.198   1.980  1.00  0.00     0.187 HD
HETATM    5  C5  UNL     1      -2.756   1.072  -0.019  1.00  0.00     0.335 C 
HETATM    6  O3  UNL     1      -3.450   2.132   0.110  1.00  0.00    -0.246 OA
HETATM    7  N5  UNL     1      -1.980   0.662  -1.129  1.00  0.00    -0.286 N 
ATOM      8  H5  UNL     1      -1.779   1.196  -1.974  1.00  0.00     0.169 HD
ENDROOT
BRANCH   1   9
HETATM    9  C3  UNL     1      -0.071  -0.715  -0.468  1.00  0.00     0.307 C 
HETATM   10  N2  UNL     1       0.508   0.082   0.506  1.00  0.00    -0.284 N 
ATOM     11  H2  UNL     1      -0.119   0.719   0.998  1.00  0.00     0.184 HD
HETATM   12  O1  UNL     1       0.602  -1.545  -1.146  1.00  0.00    -0.265 OA
BRANCH  10  13
HETATM   13  N1  UNL     1       1.820   0.116   0.886  1.00  0.00    -0.237 NA
HETATM   14  C1  UNL     1       2.462   1.384   0.653  1.00  0.00     0.135 C 
HETATM   15  C2  UNL     1       2.642  -0.918   0.336  1.00  0.00     0.135 C 
ENDBRANCH  10  13
ENDBRANCH   1   9
BRANCH   1  16
HETATM   16  O2  UNL     1      -1.851  -1.573  -1.828  1.00  0.00    -0.348 OA
ATOM     17  H2  UNL     1      -2.776  -1.546  -2.044  1.00  0.00     0.214 HD
ENDBRANCH   1  16
TORSDOF 3
