REMARK  4 active torsions:
REMARK  status: ('A' for Active; 'I' for Inactive)
REMARK    1  A    between atoms: N1_1  and  C1_5 
REMARK    2  A    between atoms: C1_5  and  N2_6 
REMARK    3  A    between atoms: C1_5  and  C2_10 
REMARK    4  A    between atoms: C2_10  and  C3_12 
ROOT
HETATM    1  C3  UNL     1       0.594   0.384   0.274  1.00  0.00     0.166 A 
HETATM    2  N3  UNL     1       0.835  -0.938   0.345  1.00  0.00    -0.288 N 
ATOM      3  H3  UNL     1       0.049  -1.575   0.474  1.00  0.00     0.187 HD
HETATM    4  N4  UNL     1       2.060  -1.444   0.253  1.00  0.00    -0.251 N 
ATOM      5  H4  UNL     1       2.230  -2.448   0.309  1.00  0.00     0.191 HD
HETATM    6  C4  UNL     1       3.070  -0.563   0.082  1.00  0.00     0.341 A 
HETATM    7  O2  UNL     1       4.235  -1.040  -0.006  1.00  0.00    -0.245 OA
HETATM    8  N5  UNL     1       2.881   0.755   0.005  1.00  0.00    -0.272 N 
ATOM      9  H5  UNL     1       3.680   1.376  -0.125  1.00  0.00     0.174 HD
HETATM   10  C5  UNL     1       1.634   1.271   0.099  1.00  0.00     0.281 A 
HETATM   11  O3  UNL     1       1.469   2.518   0.025  1.00  0.00    -0.265 OA
ENDROOT
BRANCH   1  12
HETATM   12  C2  UNL     1      -0.759   0.895   0.379  1.00  0.00     0.240 C 
HETATM   13  O1  UNL     1      -0.987   2.128   0.313  1.00  0.00    -0.286 OA
BRANCH  12  14
HETATM   14  C1  UNL     1      -1.892  -0.054   0.569  1.00  0.00     0.453 C 
BRANCH  14  15
HETATM   15  N1  UNL     1      -3.151   0.635   0.652  1.00  0.00    -0.043 N 
ATOM     16  H13 UNL     1      -3.418   1.066  -0.233  1.00  0.00     0.277 HD
ATOM     17  H12 UNL     1      -3.940  -0.005   0.742  1.00  0.00     0.277 HD
ATOM     18  H11 UNL     1      -3.107   1.309   1.416  1.00  0.00     0.277 HD
ENDBRANCH  14  15
BRANCH  14  19
HETATM   19  N2  UNL     1      -1.955  -1.016  -0.522  1.00  0.00    -0.043 N 
ATOM     20  H23 UNL     1      -2.744  -1.656  -0.432  1.00  0.00     0.277 HD
ATOM     21  H22 UNL     1      -2.222  -0.585  -1.407  1.00  0.00     0.277 HD
ATOM     22  H21 UNL     1      -1.062  -1.505  -0.581  1.00  0.00     0.277 HD
ENDBRANCH  14  19
ENDBRANCH  12  14
ENDBRANCH   1  12
TORSDOF 4
