REMARK  5 active torsions:
REMARK  status: ('A' for Active; 'I' for Inactive)
REMARK    1  A    between atoms: C2_2  and  N1_3 
REMARK    2  A    between atoms: C2_2  and  C3_7 
REMARK    3  A    between atoms: C3_7  and  N2_8 
REMARK    4  A    between atoms: C3_7  and  C4_12 
REMARK       I    between atoms: C4_12  and  N3_14 
REMARK    5  A    between atoms: N3_14  and  C5_16 
ROOT
HETATM    1  C3  UNL     1      -1.662   0.301  -0.893  1.00  0.00     0.304 C 
ENDROOT
BRANCH   1   2
HETATM    2  C2  UNL     1      -2.210   0.242   0.519  1.00  0.00     0.219 C 
HETATM    3  C1  UNL     1      -2.201  -1.180   1.039  1.00  0.00     0.042 C 
BRANCH   2   4
HETATM    4  N1  UNL     1      -3.627   0.621   0.414  1.00  0.00    -0.073 N 
ATOM      5  H13 UNL     1      -4.181  -0.023  -0.150  1.00  0.00     0.274 HD
ATOM      6  H12 UNL     1      -4.147   0.501   1.283  1.00  0.00     0.274 HD
ATOM      7  H11 UNL     1      -3.633   1.579   0.064  1.00  0.00     0.274 HD
ENDBRANCH   2   4
ENDBRANCH   1   2
BRANCH   1   8
HETATM    8  N2  UNL     1      -2.454  -0.505  -1.779  1.00  0.00    -0.064 N 
ATOM      9  H23 UNL     1      -2.536  -1.465  -1.445  1.00  0.00     0.275 HD
ATOM     10  H22 UNL     1      -3.440  -0.247  -1.745  1.00  0.00     0.275 HD
ATOM     11  H21 UNL     1      -2.085  -0.465  -2.729  1.00  0.00     0.275 HD
ENDBRANCH   1   8
BRANCH   1  12
HETATM   12  C4  UNL     1      -0.240  -0.094  -0.952  1.00  0.00     0.253 C 
HETATM   13  O1  UNL     1       0.100  -1.025  -1.714  1.00  0.00    -0.271 OA
HETATM   14  N3  UNL     1       0.764   0.534  -0.181  1.00  0.00    -0.309 N 
ATOM     15  H3  UNL     1       0.473   1.292   0.437  1.00  0.00     0.166 HD
BRANCH  14  16
HETATM   16  C5  UNL     1       2.142   0.199  -0.194  1.00  0.00     0.452 C 
HETATM   17  N4  UNL     1       2.669  -0.223   1.083  1.00  0.00    -0.014 N 
HETATM   18  C6  UNL     1       4.114  -0.066   0.848  1.00  0.00     0.379 C 
ATOM     19  H42 UNL     1       2.299   0.269   1.896  1.00  0.00     0.284 HD
ATOM     20  H41 UNL     1       2.372  -1.146   1.398  1.00  0.00     0.284 HD
HETATM   21  N5  UNL     1       4.211   0.621  -0.432  1.00  0.00    -0.069 NA
HETATM   22  O2  UNL     1       2.992   1.242  -0.529  1.00  0.00    -0.230 OA
ENDBRANCH  14  16
ENDBRANCH   1  12
TORSDOF 5
