REMARK  1 active torsions:
REMARK  status: ('A' for Active; 'I' for Inactive)
REMARK       I    between atoms: N1_2  and  C2_4 
REMARK       I    between atoms: N3_6  and  C3_8 
REMARK       I    between atoms: C3_8  and  N5_12 
REMARK    1  A    between atoms: N5_12  and  N6_14 
ROOT
HETATM    1  C1  UNL     1      -2.627   0.613  -0.464  1.00  0.00     0.148 C 
HETATM    2  N1  UNL     1      -1.283   0.402   0.035  1.00  0.00    -0.368 N 
ATOM      3  H1  UNL     1      -0.720   1.188   0.361  1.00  0.00     0.161 HD
HETATM    4  C2  UNL     1      -0.760  -0.931   0.062  1.00  0.00     0.202 C 
HETATM    5  N2  UNL     1      -1.609  -2.041  -0.163  1.00  0.00    -0.063 NA
HETATM    6  N3  UNL     1       0.484  -1.173   0.289  1.00  0.00    -0.163 N 
ATOM      7  H3  UNL     1       0.778  -2.150   0.292  1.00  0.00     0.187 HD
HETATM    8  C3  UNL     1       1.465  -0.208   0.532  1.00  0.00     0.697 C 
HETATM    9  N4  UNL     1       1.710   0.149   1.740  1.00  0.00    -0.233 N 
ATOM     10  H41 UNL     1       2.426   0.853   1.917  1.00  0.00     0.174 HD
ATOM     11  H42 UNL     1       1.183  -0.280   2.501  1.00  0.00     0.174 HD
HETATM   12  N5  UNL     1       2.202   0.391  -0.531  1.00  0.00    -0.072 N 
ATOM     13  H5  UNL     1       1.974   0.157  -1.497  1.00  0.00     0.212 HD
ENDROOT
BRANCH  12  14
HETATM   14  N6  UNL     1       3.234   1.295  -0.264  1.00  0.00    -0.024 N 
HETATM   15  O1  UNL     1       3.242   1.971   0.793  1.00  0.00    -0.516 OA
HETATM   16  O2  UNL     1       4.268   1.483  -1.129  1.00  0.00    -0.516 OA
ENDBRANCH  12  14
TORSDOF 1
