REMARK  4 active torsions:
REMARK  status: ('A' for Active; 'I' for Inactive)
REMARK    1  A    between atoms: C2_2  and  N1_4 
REMARK       I    between atoms: N1_4  and  C4_6 
REMARK    2  A    between atoms: C4_6  and  C5_8 
REMARK       I    between atoms: C5_8  and  N2_10 
REMARK    3  A    between atoms: N2_10  and  N3_12 
REMARK    4  A    between atoms: N3_12  and  N4_13 
ROOT
HETATM    1  C5  UNL     1       1.585  -0.420  -0.515  1.00  0.00     0.326 C 
HETATM    2  O2  UNL     1       1.704  -1.545   0.065  1.00  0.00    -0.261 OA
HETATM    3  N2  UNL     1       2.693   0.180  -1.135  1.00  0.00    -0.246 N 
ATOM      4  H2  UNL     1       2.585   1.083  -1.596  1.00  0.00     0.187 HD
ENDROOT
BRANCH   1   5
HETATM    5  C4  UNL     1       0.262   0.167  -0.480  1.00  0.00     0.311 C 
HETATM    6  N1  UNL     1      -0.845  -0.414   0.168  1.00  0.00    -0.349 N 
ATOM      7  H1  UNL     1      -0.743  -1.306   0.652  1.00  0.00     0.163 HD
HETATM    8  O1  UNL     1       0.136   1.294  -1.090  1.00  0.00    -0.262 OA
BRANCH   6   9
HETATM    9  C2  UNL     1      -2.121   0.253   0.147  1.00  0.00     0.076 C 
HETATM   10  C1  UNL     1      -3.252  -0.681  -0.238  1.00  0.00     0.032 C 
HETATM   11  C3  UNL     1      -2.447   0.831   1.524  1.00  0.00     0.032 C 
ENDBRANCH   6   9
ENDBRANCH   1   5
BRANCH   3  12
HETATM   12  N3  UNL     1       3.934  -0.442  -1.127  1.00  0.00    -0.027 NA
BRANCH  12  13
HETATM   13  N4  UNL     1       4.142  -0.926   0.179  1.00  0.00    -0.329 N 
ATOM     14  H42 UNL     1       3.494  -0.830   0.961  1.00  0.00     0.174 HD
ATOM     15  H41 UNL     1       5.054  -1.383   0.185  1.00  0.00     0.174 HD
ENDBRANCH  12  13
ENDBRANCH   3  12
TORSDOF 4
