REMARK  3 active torsions:
REMARK  status: ('A' for Active; 'I' for Inactive)
REMARK    1  A    between atoms: N1_2  and  N2_3 
REMARK    2  A    between atoms: N2_3  and  C2_5 
REMARK    3  A    between atoms: C2_5  and  C4_17 
REMARK       I    between atoms: N3_6  and  C3_8 
REMARK       I    between atoms: C3_8  and  N5_12 
ROOT
HETATM    1  C2  UNL     1      -0.224   0.203  -0.288  1.00  0.00     0.198 C 
HETATM    2  N3  UNL     1      -0.657  -0.991  -0.379  1.00  0.00    -0.170 N 
ATOM      3  H3  UNL     1       0.034  -1.698  -0.631  1.00  0.00     0.186 HD
HETATM    4  C3  UNL     1      -1.961  -1.455  -0.177  1.00  0.00     0.691 C 
HETATM    5  N4  UNL     1      -2.863  -1.571  -1.101  1.00  0.00    -0.233 N 
ATOM      6  H41 UNL     1      -3.814  -1.909  -0.954  1.00  0.00     0.174 HD
ATOM      7  H42 UNL     1      -2.592  -1.299  -2.046  1.00  0.00     0.174 HD
HETATM    8  N5  UNL     1      -2.339  -1.834   1.142  1.00  0.00    -0.139 N 
ATOM      9  H5  UNL     1      -1.615  -1.934   1.853  1.00  0.00     0.205 HD
HETATM   10  N6  UNL     1      -3.560  -2.054   1.465  1.00  0.00    -0.331 N 
ATOM     11  H61 UNL     1      -3.831  -2.326   2.410  1.00  0.00     0.177 HD
ATOM     12  H62 UNL     1      -4.271  -1.950   0.741  1.00  0.00     0.177 HD
ENDROOT
BRANCH   1  13
HETATM   13  N2  UNL     1       1.150   0.453  -0.537  1.00  0.00    -0.285 N 
ATOM     14  H2  UNL     1       1.418   0.744  -1.477  1.00  0.00     0.184 HD
BRANCH  13  15
HETATM   15  N1  UNL     1       2.152   0.328   0.411  1.00  0.00    -0.144 NA
HETATM   16  C1  UNL     1       2.789  -0.954   0.421  1.00  0.00     0.159 C 
ENDBRANCH  13  15
ENDBRANCH   1  13
BRANCH   1  17
HETATM   17  C4  UNL     1      -1.104   1.297   0.061  1.00  0.00     0.300 C 
HETATM   18  N7  UNL     1      -0.616   2.646   0.164  1.00  0.00    -0.054 NA
HETATM   19  O1  UNL     1      -2.316   1.052   0.277  1.00  0.00    -0.268 OA
ENDBRANCH   1  17
TORSDOF 3
