REMARK  4 active torsions:
REMARK  status: ('A' for Active; 'I' for Inactive)
REMARK       I    between atoms: C2_2  and  N1_4 
REMARK    1  A    between atoms: N1_4  and  N2_6 
REMARK    2  A    between atoms: N2_6  and  C3_8 
REMARK    3  A    between atoms: C3_8  and  O2_9 
REMARK    4  A    between atoms: C3_8  and  N3_11 
REMARK       I    between atoms: N3_11  and  C4_13 
ROOT
HETATM    1  C3  UNL     1       0.620  -0.874   0.844  1.00  0.00     0.239 C 
ENDROOT
BRANCH   1   2
HETATM    2  N2  UNL     1      -0.188  -0.052   0.035  1.00  0.00    -0.263 N 
ATOM      3  H2  UNL     1       0.228   0.602  -0.628  1.00  0.00     0.190 HD
BRANCH   2   4
HETATM    4  N1  UNL     1      -1.596  -0.159   0.167  1.00  0.00    -0.267 N 
HETATM    5  C2  UNL     1      -2.370   0.918  -0.292  1.00  0.00     0.232 C 
HETATM    6  C1  UNL     1      -3.839   0.858  -0.176  1.00  0.00     0.119 C 
HETATM    7  O1  UNL     1      -1.833   1.918  -0.794  1.00  0.00    -0.272 OA
ATOM      8  H1  UNL     1      -2.029  -0.986   0.579  1.00  0.00     0.190 HD
ENDBRANCH   2   4
ENDBRANCH   1   2
BRANCH   1   9
HETATM    9  O2  UNL     1       0.004  -1.683   1.665  1.00  0.00    -0.331 OA
ATOM     10  H2  UNL     1       0.549  -2.238   2.211  1.00  0.00     0.221 HD
ENDBRANCH   1   9
BRANCH   1  11
HETATM   11  N3  UNL     1       2.021  -0.906   0.852  1.00  0.00    -0.276 N 
HETATM   12  C4  UNL     1       2.879  -0.138   0.064  1.00  0.00     0.335 C 
HETATM   13  N4  UNL     1       4.306  -0.338   0.239  1.00  0.00    -0.040 NA
HETATM   14  O3  UNL     1       2.532   0.721  -0.792  1.00  0.00    -0.251 OA
ATOM     15  H3  UNL     1       2.459  -1.559   1.502  1.00  0.00     0.173 HD
ENDBRANCH   1  11
TORSDOF 4
