REMARK  3 active torsions:
REMARK  status: ('A' for Active; 'I' for Inactive)
REMARK    1  A    between atoms: O1_2  and  N1_3 
REMARK    2  A    between atoms: C2_5  and  C4_7 
REMARK       I    between atoms: C4_7  and  N2_9 
REMARK    3  A    between atoms: N2_9  and  N3_11 
REMARK       I    between atoms: N3_11  and  C5_13 
ROOT
HETATM    1  C4  UNL     1      -0.082   0.626   0.295  1.00  0.00     0.283 C 
HETATM    2  O2  UNL     1      -0.251   1.777   0.714  1.00  0.00    -0.265 OA
HETATM    3  N2  UNL     1       1.221   0.055   0.233  1.00  0.00    -0.262 N 
ATOM      4  H2  UNL     1       1.358  -0.895  -0.113  1.00  0.00     0.190 HD
ENDROOT
BRANCH   3   5
HETATM    5  N3  UNL     1       2.300   0.820   0.654  1.00  0.00    -0.271 N 
HETATM    6  C5  UNL     1       3.535   0.702  -0.018  1.00  0.00     0.200 C 
HETATM    7  N4  UNL     1       3.646   1.137  -1.217  1.00  0.00    -0.372 N 
HETATM    8  N5  UNL     1       4.625   0.095   0.674  1.00  0.00    -0.062 NA
ATOM      9  H42 UNL     1       2.867   1.571  -1.712  1.00  0.00     0.158 HD
ATOM     10  H41 UNL     1       4.539   1.052  -1.703  1.00  0.00     0.158 HD
ATOM     11  H3  UNL     1       2.201   1.461   1.441  1.00  0.00     0.189 HD
ENDBRANCH   3   5
BRANCH   1  12
HETATM   12  C2  UNL     1      -1.228  -0.153  -0.139  1.00  0.00     0.097 C 
HETATM   13  N1  UNL     1      -2.396   0.381  -0.075  1.00  0.00    -0.266 N 
ATOM     14  H1  UNL     1      -2.518   1.332   0.273  1.00  0.00     0.194 HD
HETATM   15  C3  UNL     1      -1.024  -1.534  -0.641  1.00  0.00     0.076 C 
BRANCH  13  16
HETATM   16  O1  UNL     1      -3.464  -0.354  -0.483  1.00  0.00    -0.285 OA
HETATM   17  C1  UNL     1      -4.786   0.065  -0.604  1.00  0.00     0.237 C 
ENDBRANCH  13  16
ENDBRANCH   1  12
TORSDOF 3
