REMARK  15 active torsions:
REMARK  status: ('A' for Active; 'I' for Inactive)
REMARK    1  A    between atoms: C3_9  and  N4_10 
REMARK    2  A    between atoms: N4_10  and  C4_12 
REMARK    3  A    between atoms: C5_17  and  C6_18 
REMARK    4  A    between atoms: C6_18  and  N7_19 
REMARK    5  A    between atoms: N7_19  and  C7_20 
REMARK    6  A    between atoms: C7_20  and  O2_21 
REMARK    7  A    between atoms: C7_20  and  C8_23 
REMARK       I    between atoms: C8_23  and  N8_25 
REMARK    8  A    between atoms: N8_25  and  S1_27 
REMARK    9  A    between atoms: S1_27  and  N9_28 
REMARK   10  A    between atoms: C9_33  and  O6_34 
REMARK   11  A    between atoms: C10_36  and  O7_37 
REMARK   12  A    between atoms: C11_39  and  C12_40 
REMARK   13  A    between atoms: C12_40  and  O8_41 
REMARK   14  A    between atoms: C12_40  and  N10_43 
REMARK   15  A    between atoms: N10_43  and  C13_45 
ROOT
HETATM    1  C4  UNL     1      -0.231  -0.177   1.171  1.00  0.00     0.229 C 
HETATM    2  N5  UNL     1       0.108  -1.253   2.023  1.00  0.00    -0.314 N 
ATOM      3  H5  UNL     1      -0.651  -1.659   2.570  1.00  0.00     0.182 HD
HETATM    4  N6  UNL     1       1.201  -1.741   2.171  1.00  0.00    -0.325 N 
ATOM      5  H6  UNL     1       1.308  -2.519   2.822  1.00  0.00     0.180 HD
HETATM    6  C5  UNL     1       2.358  -1.267   1.464  1.00  0.00     0.182 C 
HETATM    7  C9  UNL     1       2.075  -0.535   0.210  1.00  0.00     0.180 C 
HETATM    8  C10 UNL     1       0.684  -0.057  -0.016  1.00  0.00     0.193 C 
ENDROOT
BRANCH   1   9
HETATM    9  N4  UNL     1      -1.630  -0.374   0.741  1.00  0.00    -0.351 N 
ATOM     10  H4  UNL     1      -2.333   0.348   0.899  1.00  0.00     0.163 HD
BRANCH   9  11
HETATM   11  C3  UNL     1      -1.973  -1.607   0.095  1.00  0.00     0.124 A 
HETATM   12  N3  UNL     1      -1.053  -2.629   0.231  1.00  0.00    -0.294 N 
HETATM   13  C2  UNL     1      -1.397  -3.852  -0.161  1.00  0.00     0.327 A 
ATOM     14  H3  UNL     1      -0.129  -2.449   0.624  1.00  0.00     0.172 HD
HETATM   15  N2  UNL     1      -2.617  -4.084  -0.680  1.00  0.00    -0.296 N 
HETATM   16  O1  UNL     1      -0.561  -4.806  -0.043  1.00  0.00    -0.247 OA
HETATM   17  C1  UNL     1      -3.523  -3.137  -0.832  1.00  0.00     0.138 A 
ATOM     18  H2  UNL     1      -2.851  -5.034  -0.969  1.00  0.00     0.171 HD
HETATM   19  N1  UNL     1      -4.813  -3.387  -1.392  1.00  0.00    -0.081 NA
HETATM   20  C11 UNL     1      -3.216  -1.809  -0.435  1.00  0.00     0.100 A 
BRANCH  20  21
HETATM   21  C12 UNL     1      -4.222  -0.815  -0.638  1.00  0.00     0.153 C 
BRANCH  21  22
HETATM   22  O8  UNL     1      -5.408  -1.290  -0.919  1.00  0.00    -0.345 OA
ATOM     23  H8  UNL     1      -6.077  -0.629  -1.054  1.00  0.00     0.219 HD
ENDBRANCH  21  22
BRANCH  21  24
HETATM   24  N10 UNL     1      -4.195   0.569  -0.613  1.00  0.00    -0.365 N 
ATOM     25  H10 UNL     1      -3.308   1.037  -0.428  1.00  0.00     0.162 HD
BRANCH  24  26
HETATM   26  C13 UNL     1      -5.387   1.389  -0.841  1.00  0.00     0.093 C 
HETATM   27  C14 UNL     1      -5.372   2.537   0.092  1.00  0.00     0.036 C 
HETATM   28  C15 UNL     1      -6.534   3.453  -0.213  1.00  0.00     0.076 C 
HETATM   29  S2  UNL     1      -6.726   3.198  -2.023  1.00  0.00    -0.167 SA
HETATM   30  C16 UNL     1      -5.349   1.994  -2.247  1.00  0.00     0.099 C 
ENDBRANCH  24  26
ENDBRANCH  21  24
ENDBRANCH  20  21
ENDBRANCH   9  11
ENDBRANCH   1   9
BRANCH   8  31
HETATM   31  O7  UNL     1       0.652   1.282  -0.415  1.00  0.00    -0.389 OA
ATOM     32  H7  UNL     1       1.230   1.358  -1.165  1.00  0.00     0.210 HD
ENDBRANCH   8  31
BRANCH   7  33
HETATM   33  O6  UNL     1       2.478  -1.356  -0.876  1.00  0.00    -0.390 OA
ATOM     34  H6  UNL     1       2.296  -0.886  -1.681  1.00  0.00     0.210 HD
ENDBRANCH   7  33
BRANCH   6  35
HETATM   35  C6  UNL     1       3.168  -0.458   2.492  1.00  0.00     0.187 C 
BRANCH  35  36
HETATM   36  N7  UNL     1       4.340   0.094   2.101  1.00  0.00    -0.391 NA
BRANCH  36  37
HETATM   37  C7  UNL     1       5.530   0.655   1.705  1.00  0.00     0.284 C 
BRANCH  37  38
HETATM   38  O2  UNL     1       6.306   1.389   2.452  1.00  0.00    -0.331 OA
ATOM     39  H2  UNL     1       7.129   1.777   2.178  1.00  0.00     0.220 HD
ENDBRANCH  37  38
BRANCH  37  40
HETATM   40  C8  UNL     1       6.108   0.507   0.355  1.00  0.00     0.321 C 
HETATM   41  O3  UNL     1       5.553  -0.159  -0.520  1.00  0.00    -0.261 OA
HETATM   42  N8  UNL     1       7.340   1.155   0.070  1.00  0.00    -0.229 N 
ATOM     43  H8  UNL     1       7.796   1.701   0.801  1.00  0.00     0.183 HD
BRANCH  42  44
HETATM   44  S1  UNL     1       8.075   1.041  -1.466  1.00  0.00     0.319 S 
HETATM   45  O4  UNL     1       7.391  -0.008  -2.303  1.00  0.00    -0.183 OA
HETATM   46  O5  UNL     1       9.524   0.726  -1.356  1.00  0.00    -0.183 OA
BRANCH  44  47
HETATM   47  N9  UNL     1       7.859   2.551  -2.295  1.00  0.00    -0.311 N 
ATOM     48  H92 UNL     1       7.372   3.362  -1.914  1.00  0.00     0.170 HD
ATOM     49  H91 UNL     1       8.298   2.483  -3.213  1.00  0.00     0.170 HD
ENDBRANCH  44  47
ENDBRANCH  42  44
ENDBRANCH  37  40
ENDBRANCH  36  37
ENDBRANCH  35  36
ENDBRANCH   6  35
TORSDOF 15
