REMARK  13 active torsions:
REMARK  status: ('A' for Active; 'I' for Inactive)
REMARK    1  A    between atoms: N2_4  and  N3_6 
REMARK    2  A    between atoms: C1_7  and  N4_8 
REMARK    3  A    between atoms: N4_8  and  C2_10 
REMARK    4  A    between atoms: C8_24  and  N9_25 
REMARK       I    between atoms: N10_28  and  C11_30 
REMARK    5  A    between atoms: C11_30  and  C12_32 
REMARK    6  A    between atoms: C12_32  and  N11_33 
REMARK    7  A    between atoms: C12_32  and  C13_37 
REMARK    8  A    between atoms: C13_37  and  O3_38 
REMARK    9  A    between atoms: C13_37  and  C17_46 
REMARK   10  A    between atoms: O3_38  and  C14_39 
REMARK   11  A    between atoms: C17_46  and  O4_47 
REMARK   12  A    between atoms: C17_46  and  C18_49 
REMARK   13  A    between atoms: C18_49  and  O5_50 
ROOT
HETATM    1  N9  UNL     1       1.531  -1.480   0.091  1.00  0.00    -0.300 N 
HETATM    2  C9  UNL     1       0.358  -0.964  -0.548  1.00  0.00     0.192 C 
HETATM    3  C10 UNL     1      -0.814  -1.182   0.312  1.00  0.00     0.019 C 
HETATM    4  N10 UNL     1      -1.755  -0.322   0.460  1.00  0.00    -0.330 N 
ATOM      5  H10 UNL     1      -1.658   0.551  -0.059  1.00  0.00     0.168 HD
HETATM    6  C11 UNL     1      -2.898  -0.449   1.253  1.00  0.00     0.255 C 
HETATM    7  O2  UNL     1      -2.780  -0.436   2.504  1.00  0.00    -0.271 OA
HETATM    8  C19 UNL     1      -0.807  -2.499   0.994  1.00  0.00     0.152 C 
HETATM    9  S1  UNL     1       0.991  -2.886   0.997  1.00  0.00    -0.046 SA
ENDROOT
BRANCH   1  10
HETATM   10  C8  UNL     1       2.861  -1.017   0.049  1.00  0.00     0.139 A 
HETATM   11  N3  UNL     1       3.839  -1.345  -0.815  1.00  0.00    -0.209 N 
HETATM   12  C1  UNL     1       4.967  -0.656  -0.479  1.00  0.00     0.146 A 
HETATM   13  C6  UNL     1       4.678   0.117   0.621  1.00  0.00     0.055 A 
HETATM   14  C7  UNL     1       3.369  -0.091   0.971  1.00  0.00     0.055 A 
BRANCH  11  15
HETATM   15  N2  UNL     1       3.720  -2.229  -1.865  1.00  0.00    -0.239 N 
HETATM   16  N1  UNL     1       3.861  -1.889  -3.090  1.00  0.00    -0.330 N 
ATOM     17  H12 UNL     1       4.072  -0.910  -3.282  1.00  0.00     0.178 HD
ATOM     18  H11 UNL     1       3.773  -2.543  -3.867  1.00  0.00     0.178 HD
ATOM     19  H2  UNL     1       3.509  -3.204  -1.655  1.00  0.00     0.208 HD
ENDBRANCH  11  15
BRANCH  12  20
HETATM   20  N4  UNL     1       6.212  -0.733  -1.155  1.00  0.00    -0.175 N 
ATOM     21  H4  UNL     1       6.327  -1.338  -1.968  1.00  0.00     0.186 HD
BRANCH  20  22
HETATM   22  C2  UNL     1       7.293   0.051  -0.675  1.00  0.00     0.682 C 
HETATM   23  N5  UNL     1       8.309  -0.556  -0.170  1.00  0.00    -0.217 N 
HETATM   24  C3  UNL     1       9.534  -0.063   0.389  1.00  0.00     0.241 C 
ATOM     25  H5  UNL     1       8.228  -1.573  -0.167  1.00  0.00     0.178 HD
HETATM   26  C4  UNL     1       9.378   1.178   1.184  1.00  0.00     0.242 C 
HETATM   27  O1  UNL     1       9.898   1.201   2.351  1.00  0.00    -0.271 OA
HETATM   28  N6  UNL     1       8.706   2.369   0.797  1.00  0.00    -0.299 N 
HETATM   29  C5  UNL     1       7.742   2.471  -0.058  1.00  0.00     0.209 C 
ATOM     30  H6  UNL     1       9.017   3.233   1.240  1.00  0.00     0.171 HD
HETATM   31  N7  UNL     1       7.243   3.780  -0.267  1.00  0.00    -0.063 NA
HETATM   32  N8  UNL     1       7.123   1.446  -0.811  1.00  0.00    -0.163 N 
ATOM     33  H8  UNL     1       6.477   1.751  -1.539  1.00  0.00     0.187 HD
ENDBRANCH  20  22
ENDBRANCH  12  20
ENDBRANCH   1  10
BRANCH   6  34
HETATM   34  C12 UNL     1      -4.281  -0.602   0.650  1.00  0.00     0.306 C 
BRANCH  34  35
HETATM   35  N11 UNL     1      -4.171  -2.077   0.258  1.00  0.00    -0.064 N 
ATOM     36 3H11 UNL     1      -3.381  -2.338  -0.332  1.00  0.00     0.275 HD
ATOM     37 2H11 UNL     1      -3.917  -2.732   0.998  1.00  0.00     0.275 HD
ATOM     38 1H11 UNL     1      -5.101  -2.180  -0.148  1.00  0.00     0.275 HD
ENDBRANCH  34  35
BRANCH  34  39
HETATM   39  C13 UNL     1      -4.492   0.161  -0.588  1.00  0.00     0.202 C 
BRANCH  39  40
HETATM   40  O3  UNL     1      -5.651  -0.400  -1.310  1.00  0.00    -0.312 OA
BRANCH  40  41
HETATM   41  C14 UNL     1      -6.888  -0.433  -0.737  1.00  0.00     0.215 C 
HETATM   42  N12 UNL     1      -7.217   0.126   0.359  1.00  0.00    -0.355 N 
HETATM   43  C15 UNL     1      -8.623  -0.124   0.657  1.00  0.00     0.143 C 
ATOM     44  H12 UNL     1      -6.586   0.672   0.946  1.00  0.00     0.163 HD
HETATM   45  C16 UNL     1      -9.182  -0.554  -0.694  1.00  0.00     0.143 C 
HETATM   46  N13 UNL     1      -8.001  -1.119  -1.310  1.00  0.00    -0.355 N 
ATOM     47  H13 UNL     1      -7.970  -1.858  -2.012  1.00  0.00     0.163 HD
ENDBRANCH  40  41
ENDBRANCH  39  40
BRANCH  39  48
HETATM   48  C17 UNL     1      -4.601   1.622  -0.632  1.00  0.00     0.173 C 
BRANCH  48  49
HETATM   49  O4  UNL     1      -4.529   1.978  -2.050  1.00  0.00    -0.391 OA
ATOM     50  H4  UNL     1      -4.600   2.925  -2.079  1.00  0.00     0.210 HD
ENDBRANCH  48  49
BRANCH  48  51
HETATM   51  C18 UNL     1      -3.652   2.523   0.014  1.00  0.00     0.198 C 
BRANCH  51  52
HETATM   52  O5  UNL     1      -3.650   2.474   1.398  1.00  0.00    -0.398 OA
ATOM     53  H5  UNL     1      -3.032   3.061   1.819  1.00  0.00     0.209 HD
ENDBRANCH  51  52
ENDBRANCH  48  51
ENDBRANCH  39  48
ENDBRANCH  34  39
ENDBRANCH   6  34
TORSDOF 13
