REMARK  15 active torsions:
REMARK  status: ('A' for Active; 'I' for Inactive)
REMARK    1  A    between atoms: N1_1  and  C1_4 
REMARK    2  A    between atoms: C2_7  and  C3_8 
REMARK    3  A    between atoms: C3_8  and  C8_28 
REMARK    4  A    between atoms: N3_9  and  O1_11 
REMARK    5  A    between atoms: O1_11  and  C4_12 
REMARK    6  A    between atoms: C5_15  and  O4_16 
REMARK    7  A    between atoms: C6_18  and  C7_19 
REMARK    8  A    between atoms: C7_19  and  O5_20 
REMARK    9  A    between atoms: O5_20  and  S1_21 
REMARK   10  A    between atoms: S1_21  and  N4_22 
REMARK   11  A    between atoms: C8_28  and  O9_29 
REMARK   12  A    between atoms: C8_28  and  N5_31 
REMARK   13  A    between atoms: N5_31  and  C9_33 
REMARK   14  A    between atoms: C9_33  and  C10_34 
REMARK   15  A    between atoms: C11_35  and  O10_36 
ROOT
HETATM    1  C3  UNL     1      -0.925  -0.074   1.076  1.00  0.00     0.132 C 
HETATM    2  N3  UNL     1       0.376  -0.354   1.060  1.00  0.00    -0.255 N 
ATOM      3  H3  UNL     1       0.811  -0.664   1.929  1.00  0.00     0.195 HD
ENDROOT
BRANCH   1   4
HETATM    4  C2  UNL     1      -1.548  -0.257   2.358  1.00  0.00     0.087 A 
HETATM    5  N2  UNL     1      -0.809  -0.683   3.433  1.00  0.00    -0.189 N 
HETATM    6  C1  UNL     1      -1.334  -0.874   4.655  1.00  0.00     0.679 A 
ATOM      7  H2  UNL     1       0.186  -0.863   3.298  1.00  0.00     0.184 HD
HETATM    8  N8  UNL     1      -2.628  -0.664   4.927  1.00  0.00    -0.156 N 
HETATM    9  C15 UNL     1      -3.396  -0.247   3.913  1.00  0.00     0.261 A 
ATOM     10  H8  UNL     1      -3.010  -0.814   5.861  1.00  0.00     0.187 HD
HETATM   11  C14 UNL     1      -2.874  -0.038   2.621  1.00  0.00     0.107 A 
HETATM   12  O13 UNL     1      -4.637  -0.024   4.088  1.00  0.00    -0.268 OA
BRANCH   6  13
HETATM   13  N1  UNL     1      -0.578  -1.278   5.621  1.00  0.00    -0.234 N 
ATOM     14  H12 UNL     1       0.408  -1.438   5.414  1.00  0.00     0.174 HD
ATOM     15  H11 UNL     1      -0.977  -1.423   6.549  1.00  0.00     0.174 HD
ENDBRANCH   6  13
ENDBRANCH   1   4
BRANCH   1  16
HETATM   16  C8  UNL     1      -1.561   0.369  -0.132  1.00  0.00     0.171 C 
BRANCH  16  17
HETATM   17  O9  UNL     1      -0.780   0.461  -1.173  1.00  0.00    -0.344 OA
ATOM     18  H9  UNL     1      -1.201   0.754  -1.973  1.00  0.00     0.219 HD
ENDBRANCH  16  17
BRANCH  16  19
HETATM   19  N5  UNL     1      -2.880   0.722  -0.393  1.00  0.00    -0.344 N 
ATOM     20  H5  UNL     1      -3.270   1.483   0.163  1.00  0.00     0.167 HD
BRANCH  19  21
HETATM   21  C9  UNL     1      -3.649   0.190  -1.256  1.00  0.00     0.111 C 
BRANCH  21  22
HETATM   22  C10 UNL     1      -5.021   0.674  -1.416  1.00  0.00     0.098 A 
HETATM   23  C11 UNL     1      -5.874   0.094  -2.360  1.00  0.00     0.161 A 
HETATM   24  N6  UNL     1      -7.130   0.550  -2.494  1.00  0.00    -0.288 N 
HETATM   25  C12 UNL     1      -7.629   1.557  -1.756  1.00  0.00     0.329 A 
ATOM     26  H6  UNL     1      -7.734   0.111  -3.189  1.00  0.00     0.172 HD
HETATM   27  O11 UNL     1      -8.823   1.938  -1.934  1.00  0.00    -0.247 OA
HETATM   28  N7  UNL     1      -6.824   2.126  -0.846  1.00  0.00    -0.275 N 
HETATM   29  C13 UNL     1      -5.556   1.704  -0.674  1.00  0.00     0.265 A 
ATOM     30  H7  UNL     1      -7.178   2.892  -0.274  1.00  0.00     0.173 HD
HETATM   31  O12 UNL     1      -4.807   2.256   0.194  1.00  0.00    -0.267 OA
BRANCH  23  32
HETATM   32  O10 UNL     1      -5.388  -0.943  -3.132  1.00  0.00    -0.345 OA
ATOM     33  H10 UNL     1      -5.968  -1.337  -3.773  1.00  0.00     0.219 HD
ENDBRANCH  23  32
ENDBRANCH  21  22
ENDBRANCH  19  21
ENDBRANCH  16  19
ENDBRANCH   1  16
BRANCH   2  34
HETATM   34  O1  UNL     1       1.153  -0.252  -0.036  1.00  0.00    -0.217 OA
BRANCH  34  35
HETATM   35  C4  UNL     1       2.333  -1.019  -0.129  1.00  0.00     0.471 C 
HETATM   36  O2  UNL     1       2.177  -1.884  -1.227  1.00  0.00    -0.175 OA
HETATM   37  O3  UNL     1       3.232  -2.691  -1.315  1.00  0.00    -0.201 OA
HETATM   38  C5  UNL     1       4.300  -1.922  -1.740  1.00  0.00     0.325 C 
HETATM   39  C6  UNL     1       4.569  -0.871  -0.675  1.00  0.00     0.210 C 
HETATM   40  O8  UNL     1       3.410  -0.156  -0.350  1.00  0.00    -0.323 OA
BRANCH  38  41
HETATM   41  O4  UNL     1       5.423  -2.725  -1.825  1.00  0.00    -0.366 OA
ATOM     42  H4  UNL     1       6.157  -2.197  -2.117  1.00  0.00     0.212 HD
ENDBRANCH  38  41
BRANCH  39  43
HETATM   43  C7  UNL     1       5.604   0.084  -1.186  1.00  0.00     0.229 C 
BRANCH  43  44
HETATM   44  O5  UNL     1       5.906   1.039  -0.214  1.00  0.00    -0.257 OA
BRANCH  44  45
HETATM   45  S1  UNL     1       7.068   2.119  -0.770  1.00  0.00     0.355 S 
HETATM   46  O6  UNL     1       7.608   2.927   0.374  1.00  0.00    -0.176 OA
HETATM   47  O7  UNL     1       6.472   3.052  -1.780  1.00  0.00    -0.176 OA
BRANCH  45  48
HETATM   48  N4  UNL     1       8.371   1.276  -1.531  1.00  0.00    -0.306 N 
ATOM     49  H42 UNL     1       8.414   0.261  -1.622  1.00  0.00     0.171 HD
ATOM     50  H41 UNL     1       9.076   1.931  -1.868  1.00  0.00     0.171 HD
ENDBRANCH  45  48
ENDBRANCH  44  45
ENDBRANCH  43  44
ENDBRANCH  39  43
ENDBRANCH  34  35
ENDBRANCH   2  34
TORSDOF 15
