REMARK  8 active torsions:
REMARK  status: ('A' for Active; 'I' for Inactive)
REMARK    1  A    between atoms: N1_1  and  C1_4 
REMARK    2  A    between atoms: N4_13  and  O3_14 
REMARK    3  A    between atoms: C4_16  and  C5_17 
REMARK    4  A    between atoms: C5_17  and  O4_18 
REMARK    5  A    between atoms: C5_17  and  N5_20 
REMARK    6  A    between atoms: N5_20  and  N6_21 
REMARK       I    between atoms: N6_21  and  C6_22 
REMARK    7  A    between atoms: C6_22  and  C7_24 
REMARK    8  A    between atoms: C7_24  and  N7_25 
ROOT
HETATM    1  C1  UNL     1      -2.231   0.875  -0.145  1.00  0.00     0.138 C 
HETATM    2  N2  UNL     1      -3.509   0.992  -0.478  1.00  0.00    -0.293 N 
ATOM      3  H2  UNL     1      -3.812   1.927  -0.751  1.00  0.00     0.172 HD
HETATM    4  C2  UNL     1      -4.437   0.061  -0.502  1.00  0.00     0.329 C 
HETATM    5  O1  UNL     1      -5.687   0.408  -0.578  1.00  0.00    -0.246 OA
HETATM    6  N3  UNL     1      -4.281  -1.312  -0.434  1.00  0.00    -0.258 N 
ATOM      7  H3  UNL     1      -5.136  -1.868  -0.426  1.00  0.00     0.175 HD
HETATM    8  C3  UNL     1      -3.097  -2.007  -0.376  1.00  0.00     0.355 C 
HETATM    9  O2  UNL     1      -3.207  -3.197  -0.652  1.00  0.00    -0.244 OA
HETATM   10  N4  UNL     1      -1.866  -1.528  -0.044  1.00  0.00    -0.163 N 
HETATM   11  C4  UNL     1      -1.529  -0.281   0.199  1.00  0.00     0.179 C 
ENDROOT
BRANCH  11  12
HETATM   12  C5  UNL     1      -0.261  -0.042   0.947  1.00  0.00     0.287 C 
BRANCH  12  13
HETATM   13  O4  UNL     1      -0.605   0.052   2.231  1.00  0.00    -0.331 OA
ATOM     14  H4  UNL     1       0.203   0.204   2.707  1.00  0.00     0.220 HD
ENDBRANCH  12  13
BRANCH  12  15
HETATM   15  N5  UNL     1       0.955   0.064   0.398  1.00  0.00    -0.217 NA
BRANCH  15  16
HETATM   16  N6  UNL     1       2.152   0.169  -0.123  1.00  0.00    -0.205 NA
HETATM   17  C6  UNL     1       3.337   0.309  -0.840  1.00  0.00     0.352 C 
HETATM   18  O5  UNL     1       3.546   0.443  -2.048  1.00  0.00    -0.252 OA
BRANCH  17  19
HETATM   19  C7  UNL     1       4.516   0.297   0.190  1.00  0.00     0.351 C 
BRANCH  19  20
HETATM   20  N7  UNL     1       5.765   0.453  -0.381  1.00  0.00    -0.070 N 
ATOM     21  H73 UNL     1       5.917  -0.248  -1.106  1.00  0.00     0.274 HD
ATOM     22  H72 UNL     1       5.795   1.299  -0.949  1.00  0.00     0.274 HD
ATOM     23  H71 UNL     1       6.533   0.445   0.290  1.00  0.00     0.274 HD
ENDBRANCH  19  20
ENDBRANCH  17  19
ENDBRANCH  15  16
ENDBRANCH  12  15
ENDBRANCH  11  12
BRANCH   1  24
HETATM   24  N1  UNL     1      -1.480   1.906  -0.096  1.00  0.00    -0.383 N 
ATOM     25  H12 UNL     1      -1.993   2.751  -0.347  1.00  0.00     0.157 HD
ATOM     26  H11 UNL     1      -0.497   1.816   0.160  1.00  0.00     0.157 HD
ENDBRANCH   1  24
BRANCH  10  27
HETATM   27  O3  UNL     1      -0.953  -2.532   0.043  1.00  0.00    -0.278 OA
ATOM     28  H3  UNL     1      -0.094  -2.198   0.275  1.00  0.00     0.245 HD
ENDBRANCH  10  27
TORSDOF 8
