REMARK  4 active torsions:
REMARK  status: ('A' for Active; 'I' for Inactive)
REMARK    1  A    between atoms: N1_1  and  C1_4 
REMARK    2  A    between atoms: C2_7  and  S1_8 
REMARK    3  A    between atoms: S1_8  and  N3_9 
REMARK    4  A    between atoms: C3_16  and  C4_17 
REMARK       I    between atoms: C4_17  and  N5_19 
ROOT
HETATM    1  C1  UNL     1       1.596  -2.024  -0.833  1.00  0.00     0.128 A 
HETATM    2  N2  UNL     1       2.435  -0.990  -0.603  1.00  0.00    -0.316 N 
ATOM      3  H2  UNL     1       3.441  -1.158  -0.588  1.00  0.00     0.169 HD
HETATM    4  C2  UNL     1       1.976   0.252  -0.394  1.00  0.00     0.226 A 
HETATM    5  N4  UNL     1       0.644   0.440  -0.420  1.00  0.00    -0.325 N 
ATOM      6  H4  UNL     1       0.289   1.383  -0.261  1.00  0.00     0.168 HD
HETATM    7  C3  UNL     1      -0.242  -0.537  -0.642  1.00  0.00     0.131 A 
HETATM    8  C6  UNL     1       0.233  -1.813  -0.856  1.00  0.00     0.122 A 
HETATM    9  N8  UNL     1      -0.663  -2.883  -1.096  1.00  0.00    -0.096 NA
ENDROOT
BRANCH   7  10
HETATM   10  C4  UNL     1      -1.687  -0.256  -0.656  1.00  0.00     0.276 C 
HETATM   11  O3  UNL     1      -2.517  -1.173  -0.864  1.00  0.00    -0.266 OA
HETATM   12  N5  UNL     1      -2.156   1.040  -0.437  1.00  0.00    -0.298 N 
HETATM   13  C5  UNL     1      -2.912   1.295   0.570  1.00  0.00     0.203 C 
ATOM     14  H5  UNL     1      -1.897   1.789  -1.080  1.00  0.00     0.171 HD
HETATM   15  N6  UNL     1      -3.423   2.593   0.848  1.00  0.00    -0.066 NA
HETATM   16  N7  UNL     1      -3.267   0.248   1.461  1.00  0.00    -0.066 NA
ENDBRANCH   7  10
BRANCH   4  17
HETATM   17  S1  UNL     1       3.070   1.604  -0.093  1.00  0.00     0.289 S 
HETATM   18  O1  UNL     1       2.835   2.608  -1.158  1.00  0.00    -0.198 OA
HETATM   19  O2  UNL     1       4.474   1.090  -0.188  1.00  0.00    -0.198 OA
BRANCH  17  20
HETATM   20  N3  UNL     1       2.694   2.248   1.439  1.00  0.00    -0.322 N 
ATOM     21  H32 UNL     1       1.963   1.902   2.061  1.00  0.00     0.169 HD
ATOM     22  H31 UNL     1       3.326   3.029   1.613  1.00  0.00     0.169 HD
ENDBRANCH  17  20
ENDBRANCH   4  17
BRANCH   1  23
HETATM   23  N1  UNL     1       2.082  -3.196  -1.028  1.00  0.00    -0.384 N 
ATOM     24  H12 UNL     1       3.090  -3.352  -1.011  1.00  0.00     0.157 HD
ATOM     25  H11 UNL     1       1.449  -3.977  -1.202  1.00  0.00     0.157 HD
ENDBRANCH   1  23
TORSDOF 4
