REMARK  4 active torsions:
REMARK  status: ('A' for Active; 'I' for Inactive)
REMARK       I    between atoms: C1_4  and  N2_5 
REMARK       I    between atoms: C1_4  and  N4_10 
REMARK    1  A    between atoms: N2_5  and  N3_7 
REMARK    2  A    between atoms: C4_19  and  N7_20 
REMARK    3  A    between atoms: N7_20  and  N8_22 
REMARK    4  A    between atoms: N8_22  and  S1_24 
ROOT
HETATM    1  N1  UNL     1       2.029   1.001  -1.628  1.00  0.00    -0.232 N 
ATOM      2  H11 UNL     1       1.527   0.641  -2.440  1.00  0.00     0.174 HD
ATOM      3  H12 UNL     1       2.736   1.735  -1.665  1.00  0.00     0.174 HD
HETATM    4  C1  UNL     1       1.761   0.503  -0.464  1.00  0.00     0.715 C 
HETATM    5  N2  UNL     1       2.447   0.996   0.646  1.00  0.00    -0.138 N 
ATOM      6  H2  UNL     1       1.983   1.054   1.553  1.00  0.00     0.205 HD
HETATM    7  N4  UNL     1       0.775  -0.521  -0.413  1.00  0.00     0.079 N 
HETATM    8  C2  UNL     1       0.921  -1.738  -0.937  1.00  0.00     0.366 A 
HETATM    9  O1  UNL     1       2.008  -1.996  -1.515  1.00  0.00    -0.245 OA
HETATM   10  N5  UNL     1      -0.013  -2.704  -0.887  1.00  0.00    -0.259 N 
ATOM     11  H5  UNL     1       0.146  -3.621  -1.303  1.00  0.00     0.175 HD
HETATM   12  C3  UNL     1      -1.168  -2.406  -0.263  1.00  0.00     0.342 A 
HETATM   13  O2  UNL     1      -2.105  -3.261  -0.170  1.00  0.00    -0.246 OA
HETATM   14  N6  UNL     1      -1.363  -1.192   0.281  1.00  0.00    -0.138 N 
ATOM     15  H6  UNL     1      -2.245  -0.985   0.750  1.00  0.00     0.189 HD
HETATM   16  C4  UNL     1      -0.408  -0.248   0.214  1.00  0.00     0.727 A 
ENDROOT
BRANCH  16  17
HETATM   17  N7  UNL     1      -0.591   0.917   0.734  1.00  0.00    -0.120 N 
ATOM     18  H7  UNL     1       0.132   1.635   0.684  1.00  0.00     0.206 HD
BRANCH  17  19
HETATM   19  N8  UNL     1      -1.810   1.165   1.368  1.00  0.00    -0.199 N 
ATOM     20  H8  UNL     1      -1.870   0.997   2.372  1.00  0.00     0.201 HD
BRANCH  19  21
HETATM   21  S1  UNL     1      -3.212   1.734   0.564  1.00  0.00     0.373 S 
HETATM   22  O3  UNL     1      -4.090   2.540   1.456  1.00  0.00    -0.186 OA
HETATM   23  O4  UNL     1      -2.875   2.540  -0.671  1.00  0.00    -0.186 OA
ENDBRANCH  19  21
ENDBRANCH  17  19
ENDBRANCH  16  17
BRANCH   5  24
HETATM   24  N3  UNL     1       3.771   1.409   0.507  1.00  0.00    -0.331 N 
ATOM     25  H32 UNL     1       4.220   1.345  -0.406  1.00  0.00     0.177 HD
ATOM     26  H31 UNL     1       4.273   1.769   1.319  1.00  0.00     0.177 HD
ENDBRANCH   5  24
TORSDOF 4
