REMARK  4 active torsions:
REMARK  status: ('A' for Active; 'I' for Inactive)
REMARK    1  A    between atoms: N1_1  and  N2_4 
REMARK       I    between atoms: N2_4  and  C1_6 
REMARK    2  A    between atoms: C1_6  and  C2_8 
REMARK       I    between atoms: C2_8  and  N3_10 
REMARK    3  A    between atoms: N3_10  and  C3_12 
REMARK    4  A    between atoms: C5_19  and  S1_20 
ROOT
HETATM    1  C3  UNL     1      -0.856  -0.818   0.488  1.00  0.00     0.154 A 
HETATM    2  N4  UNL     1      -1.514  -1.758  -0.185  1.00  0.00    -0.292 N 
ATOM      3  H4  UNL     1      -1.377  -1.961  -1.175  1.00  0.00     0.172 HD
HETATM    4  C4  UNL     1      -2.394  -2.413   0.622  1.00  0.00     0.327 A 
HETATM    5  O3  UNL     1      -3.174  -3.349   0.330  1.00  0.00    -0.247 OA
HETATM    6  N5  UNL     1      -2.290  -1.871   1.845  1.00  0.00    -0.294 N 
ATOM      7  H5  UNL     1      -2.820  -2.147   2.671  1.00  0.00     0.171 HD
HETATM    8  C5  UNL     1      -1.363  -0.901   1.787  1.00  0.00     0.199 A 
ENDROOT
BRANCH   1   9
HETATM    9  N3  UNL     1       0.138   0.115   0.121  1.00  0.00    -0.302 N 
HETATM   10  C2  UNL     1       0.681   0.236  -1.185  1.00  0.00     0.316 C 
HETATM   11  O2  UNL     1       0.263  -0.529  -2.086  1.00  0.00    -0.262 OA
ATOM     12  H3  UNL     1       0.490   0.744   0.843  1.00  0.00     0.171 HD
BRANCH  10  13
HETATM   13  C1  UNL     1       1.713   1.233  -1.482  1.00  0.00     0.327 C 
HETATM   14  N2  UNL     1       2.271   1.373  -2.776  1.00  0.00    -0.268 N 
ATOM     15  H2  UNL     1       1.945   0.762  -3.525  1.00  0.00     0.190 HD
HETATM   16  O1  UNL     1       2.093   1.969  -0.541  1.00  0.00    -0.261 OA
BRANCH  14  17
HETATM   17  N1  UNL     1       3.254   2.324  -3.056  1.00  0.00    -0.342 N 
ATOM     18  H12 UNL     1       3.568   2.927  -2.296  1.00  0.00     0.176 HD
ATOM     19  H11 UNL     1       3.656   2.425  -3.988  1.00  0.00     0.176 HD
ENDBRANCH  14  17
ENDBRANCH  10  13
ENDBRANCH   1   9
BRANCH   8  20
HETATM   20  S1  UNL     1      -0.905   0.073   3.165  1.00  0.00     0.158 S 
HETATM   21  O4  UNL     1      -1.268   1.509   2.810  1.00  0.00    -0.590 OA
HETATM   22  O5  UNL     1       0.555   0.051   3.424  1.00  0.00    -0.590 OA
HETATM   23  O6  UNL     1      -1.752  -0.351   4.530  1.00  0.00    -0.590 OA
ENDBRANCH   8  20
TORSDOF 4
