REMARK  4 active torsions:
REMARK  status: ('A' for Active; 'I' for Inactive)
REMARK    1  A    between atoms: N1_1  and  C1_5 
REMARK    2  A    between atoms: C1_5  and  C2_6 
REMARK    3  A    between atoms: C2_6  and  N2_7 
REMARK    4  A    between atoms: N2_7  and  C3_9 
ROOT
HETATM    1  C3  UNL     1       1.108   0.220  -0.151  1.00  0.00     0.679 A 
HETATM    2  N3  UNL     1       0.207  -0.709   0.199  1.00  0.00    -0.184 N 
ATOM      3  H3  UNL     1       0.431  -1.629   0.578  1.00  0.00     0.184 HD
HETATM    4  C4  UNL     1      -1.041  -0.244  -0.025  1.00  0.00     0.148 A 
HETATM    5  C5  UNL     1      -2.096  -1.064   0.277  1.00  0.00     0.279 C 
HETATM    6  O1  UNL     1      -1.758  -2.271   0.352  1.00  0.00    -0.265 OA
HETATM    7  N4  UNL     1      -3.407  -0.847   0.509  1.00  0.00    -0.273 N 
ATOM      8  H4  UNL     1      -3.833  -1.559   1.103  1.00  0.00     0.173 HD
HETATM    9  C6  UNL     1      -4.270   0.105   0.125  1.00  0.00     0.330 C 
HETATM   10  O2  UNL     1      -5.461  -0.181   0.459  1.00  0.00    -0.246 OA
HETATM   11  N5  UNL     1      -4.168   1.283  -0.529  1.00  0.00    -0.272 N 
ATOM     12  H5  UNL     1      -5.086   1.680  -0.726  1.00  0.00     0.174 HD
HETATM   13  C7  UNL     1      -3.181   2.073  -0.990  1.00  0.00     0.302 C 
HETATM   14  O3  UNL     1      -3.581   3.111  -1.582  1.00  0.00    -0.264 OA
HETATM   15  C8  UNL     1      -1.803   1.979  -0.948  1.00  0.00     0.269 C 
HETATM   16  O4  UNL     1      -1.209   2.994  -1.385  1.00  0.00    -0.280 OA
HETATM   17  C9  UNL     1      -0.895   1.031  -0.538  1.00  0.00     0.137 A 
HETATM   18  N6  UNL     1       0.432   1.292  -0.605  1.00  0.00    -0.185 N 
ATOM     19  H6  UNL     1       0.851   2.158  -0.944  1.00  0.00     0.184 HD
ENDROOT
BRANCH   1  20
HETATM   20  N2  UNL     1       2.380   0.081  -0.058  1.00  0.00    -0.224 N 
ATOM     21  H2  UNL     1       2.998   0.839  -0.348  1.00  0.00     0.177 HD
BRANCH  20  22
HETATM   22  C2  UNL     1       2.937  -1.149   0.457  1.00  0.00     0.165 C 
BRANCH  22  23
HETATM   23  C1  UNL     1       4.369  -0.976   0.924  1.00  0.00     0.249 C 
BRANCH  23  24
HETATM   24  N1  UNL     1       5.145  -0.539  -0.223  1.00  0.00    -0.078 N 
ATOM     25  H13 UNL     1       5.059  -1.164  -1.025  1.00  0.00     0.274 HD
ATOM     26  H12 UNL     1       4.766   0.297  -0.667  1.00  0.00     0.274 HD
ATOM     27  H11 UNL     1       6.108  -0.423   0.091  1.00  0.00     0.274 HD
ENDBRANCH  23  24
ENDBRANCH  22  23
ENDBRANCH  20  22
ENDBRANCH   1  20
TORSDOF 4
