REMARK  3 active torsions:
REMARK  status: ('A' for Active; 'I' for Inactive)
REMARK       I    between atoms: N1_1  and  C1_4 
REMARK       I    between atoms: C1_4  and  N3_6 
REMARK       I    between atoms: N3_6  and  C2_8 
REMARK    1  A    between atoms: C2_8  and  C3_10 
REMARK    2  A    between atoms: C3_10  and  C4_11 
REMARK    3  A    between atoms: N8_24  and  O3_25 
ROOT
HETATM    1  C4  UNL     1      -0.491  -0.705  -0.384  1.00  0.00     0.138 A 
HETATM    2  N4  UNL     1      -1.491  -0.855   0.501  1.00  0.00    -0.335 N 
ATOM      3  H4  UNL     1      -1.282  -1.111   1.466  1.00  0.00     0.167 HD
HETATM    4  C5  UNL     1      -2.764  -0.669   0.119  1.00  0.00     0.151 A 
HETATM    5  C6  UNL     1      -3.999  -0.729   0.704  1.00  0.00     0.290 A 
HETATM    6  O2  UNL     1      -4.176  -1.020   1.920  1.00  0.00    -0.264 OA
HETATM    7  N5  UNL     1      -4.922  -0.432  -0.228  1.00  0.00    -0.263 N 
ATOM      8  H5  UNL     1      -5.931  -0.398  -0.080  1.00  0.00     0.190 HD
HETATM    9  N6  UNL     1      -4.300  -0.192  -1.365  1.00  0.00    -0.280 N 
ATOM     10  H6  UNL     1      -4.763   0.059  -2.239  1.00  0.00     0.189 HD
HETATM   11  C7  UNL     1      -2.976  -0.323  -1.213  1.00  0.00     0.169 A 
HETATM   12  N7  UNL     1      -1.960  -0.179  -2.081  1.00  0.00    -0.254 N 
ATOM     13  H7  UNL     1      -2.147   0.075  -3.051  1.00  0.00     0.191 HD
HETATM   14  N8  UNL     1      -0.718  -0.368  -1.672  1.00  0.00    -0.148 N 
ENDROOT
BRANCH   1  15
HETATM   15  C3  UNL     1       0.884  -0.920   0.081  1.00  0.00     0.184 C 
BRANCH  15  16
HETATM   16  C2  UNL     1       1.530   0.294   0.574  1.00  0.00     0.231 C 
HETATM   17  N3  UNL     1       2.902   0.281   1.087  1.00  0.00    -0.301 N 
HETATM   18  C1  UNL     1       3.475   1.409   1.531  1.00  0.00     0.188 C 
ATOM     19  H3  UNL     1       3.426  -0.594   1.107  1.00  0.00     0.171 HD
HETATM   20  N1  UNL     1       4.010   2.447   1.943  1.00  0.00    -0.373 N 
HETATM   21  N2  UNL     1       4.967   0.583   1.939  1.00  0.00    -0.064 NA
ATOM     22  H12 UNL     1       4.446   3.305   2.281  1.00  0.00     0.158 HD
ATOM     23  H11 UNL     1       3.142   2.927   1.706  1.00  0.00     0.158 HD
HETATM   24  O1  UNL     1       0.919   1.389   0.569  1.00  0.00    -0.273 OA
ENDBRANCH  15  16
ENDBRANCH   1  15
BRANCH  14  25
HETATM   25  O3  UNL     1       0.369  -0.241  -2.495  1.00  0.00    -0.267 OA
ATOM     26  H3  UNL     1       0.209  -0.004  -3.401  1.00  0.00     0.247 HD
ENDBRANCH  14  25
TORSDOF 3
