REMARK  5 active torsions:
REMARK  status: ('A' for Active; 'I' for Inactive)
REMARK    1  A    between atoms: C2_2  and  C4_4 
REMARK    2  A    between atoms: C4_4  and  O1_5 
REMARK    3  A    between atoms: C4_4  and  C5_7 
REMARK    4  A    between atoms: C8_11  and  O3_12 
REMARK    5  A    between atoms: C17_22  and  O4_23 
ROOT
HETATM    1  C5  UNL     1       2.276  -0.091  -0.134  1.00  0.00     0.183 C 
HETATM    2  O2  UNL     1       1.031  -0.446  -0.661  1.00  0.00    -0.344 OA
HETATM    3  C6  UNL     1       0.073  -0.100   0.251  1.00  0.00     0.169 C 
HETATM    4  C7  UNL     1       0.712  -0.135   1.615  1.00  0.00     0.102 C 
HETATM    5  C8  UNL     1       2.166  -0.412   1.299  1.00  0.00     0.154 C 
HETATM    6  C9  UNL     1      -0.427   1.275  -0.077  1.00  0.00     0.078 C 
HETATM    7  C10 UNL     1      -1.708   1.325  -0.833  1.00  0.00    -0.033 C 
HETATM    8  C11 UNL     1      -1.376   1.249  -2.329  1.00  0.00     0.016 C 
HETATM    9  C12 UNL     1      -2.281   2.735  -0.631  1.00  0.00     0.016 C 
HETATM   10  C13 UNL     1      -2.693   0.272  -0.472  1.00  0.00    -0.003 C 
HETATM   11  C14 UNL     1      -3.983   0.911  -0.011  1.00  0.00     0.019 C 
HETATM   12  C15 UNL     1      -3.050  -0.621  -1.657  1.00  0.00     0.016 C 
HETATM   13  C16 UNL     1      -3.488  -1.937  -1.079  1.00  0.00     0.036 C 
HETATM   14  C17 UNL     1      -3.027  -1.973   0.338  1.00  0.00     0.153 C 
HETATM   15  C18 UNL     1      -2.163  -0.714   0.533  1.00  0.00     0.094 C 
HETATM   16  C19 UNL     1      -2.405  -0.281   1.949  1.00  0.00     0.050 C 
HETATM   17  O5  UNL     1      -0.897  -1.078   0.233  1.00  0.00    -0.341 OA
ENDROOT
BRANCH   1  18
HETATM   18  C4  UNL     1       3.290  -0.896  -0.929  1.00  0.00     0.153 C 
BRANCH  18  19
HETATM   19  C2  UNL     1       4.716  -0.576  -0.684  1.00  0.00     0.009 C 
HETATM   20  C1  UNL     1       5.284  -0.886   0.648  1.00  0.00     0.012 C 
HETATM   21  C3  UNL     1       4.985   0.912  -0.945  1.00  0.00     0.012 C 
ENDBRANCH  18  19
BRANCH  18  22
HETATM   22  O1  UNL     1       3.078  -0.510  -2.306  1.00  0.00    -0.393 OA
ATOM     23  H1  UNL     1       2.164  -0.715  -2.463  1.00  0.00     0.210 HD
ENDBRANCH  18  22
ENDBRANCH   1  18
BRANCH   5  24
HETATM   24  O3  UNL     1       2.944   0.439   2.126  1.00  0.00    -0.393 OA
ATOM     25  H3  UNL     1       2.873   0.232   3.050  1.00  0.00     0.210 HD
ENDBRANCH   5  24
BRANCH  14  26
HETATM   26  O4  UNL     1      -4.058  -2.025   1.259  1.00  0.00    -0.393 OA
ATOM     27  H4  UNL     1      -3.764  -2.048   2.162  1.00  0.00     0.210 HD
ENDBRANCH  14  26
TORSDOF 5
