REMARK  3 active torsions:
REMARK  status: ('A' for Active; 'I' for Inactive)
REMARK    1  A    between atoms: C2_3  and  N2_4 
REMARK    2  A    between atoms: N2_4  and  C3_6 
REMARK    3  A    between atoms: C5_13  and  N5_14 
ROOT
HETATM    1  N1  UNL     1       3.116  -0.412   1.989  1.00  0.00    -0.196 NA
HETATM    2  C1  UNL     1       2.762  -0.388   0.881  1.00  0.00     0.079 C 
HETATM    3  C2  UNL     1       2.295  -0.352  -0.514  1.00  0.00     0.262 C 
ENDROOT
BRANCH   3   4
HETATM    4  N2  UNL     1       1.319   0.683  -0.616  1.00  0.00    -0.213 N 
ATOM      5  H2  UNL     1       1.632   1.602  -0.929  1.00  0.00     0.178 HD
BRANCH   4   6
HETATM    6  C3  UNL     1       0.066   0.536  -0.339  1.00  0.00     0.695 A 
HETATM    7  N3  UNL     1      -0.775   1.578  -0.467  1.00  0.00    -0.165 N 
HETATM    8  C4  UNL     1      -2.087   1.480  -0.192  1.00  0.00     0.208 A 
ATOM      9  H3  UNL     1      -0.404   2.474  -0.784  1.00  0.00     0.186 HD
HETATM   10 CL1  UNL     1      -3.165   2.870  -0.372  1.00  0.00    -0.044 Cl
HETATM   11  N4  UNL     1      -2.552   0.293   0.223  1.00  0.00    -0.165 N 
HETATM   12  C5  UNL     1      -1.699  -0.757   0.351  1.00  0.00     0.692 A 
ATOM     13  H4  UNL     1      -3.542   0.179   0.442  1.00  0.00     0.186 HD
HETATM   14  N6  UNL     1      -0.396  -0.655   0.077  1.00  0.00    -0.022 N 
ATOM     15  H6  UNL     1       0.228  -1.455   0.180  1.00  0.00     0.203 HD
BRANCH  12  16
HETATM   16  N5  UNL     1      -2.223  -1.860   0.754  1.00  0.00    -0.234 N 
ATOM     17  H52 UNL     1      -3.218  -1.938   0.963  1.00  0.00     0.174 HD
ATOM     18  H51 UNL     1      -1.583  -2.648   0.850  1.00  0.00     0.174 HD
ENDBRANCH  12  16
ENDBRANCH   4   6
ENDBRANCH   3   4
TORSDOF 3
