REMARK  5 active torsions:
REMARK  status: ('A' for Active; 'I' for Inactive)
REMARK    1  A    between atoms: N1_1  and  C1_4 
REMARK    2  A    between atoms: C3_6  and  C4_7 
REMARK    3  A    between atoms: C4_7  and  N2_8 
REMARK    4  A    between atoms: N2_8  and  N3_10 
REMARK    5  A    between atoms: C5_13  and  N4_14 
ROOT
HETATM    1  C1  UNL     1      -1.610  -1.664  -0.374  1.00  0.00     0.101 C 
HETATM    2  C2  UNL     1      -0.298  -1.251  -0.585  1.00  0.00     0.064 C 
HETATM    3  C3  UNL     1       0.249  -0.041  -0.172  1.00  0.00     0.028 C 
HETATM    4  C5  UNL     1      -0.434   1.139   0.039  1.00  0.00     0.112 C 
HETATM    5  N5  UNL     1      -1.625   1.207   0.687  1.00  0.00    -0.318 N 
ATOM      6  H5  UNL     1      -1.839   2.110   1.110  1.00  0.00     0.170 HD
HETATM    7  C6  UNL     1      -2.577   0.246   0.855  1.00  0.00     0.182 C 
HETATM    8 CL1  UNL     1      -3.862   0.594   1.986  1.00  0.00    -0.045 Cl
HETATM    9  N6  UNL     1      -2.613  -0.961   0.218  1.00  0.00    -0.319 N 
ATOM     10  H6  UNL     1      -3.532  -1.403   0.180  1.00  0.00     0.170 HD
ENDROOT
BRANCH   3  11
HETATM   11  C4  UNL     1       1.680  -0.056   0.078  1.00  0.00     0.121 C 
BRANCH  11  12
HETATM   12  N2  UNL     1       2.352   0.936   0.519  1.00  0.00    -0.318 N 
ATOM     13  H2  UNL     1       1.868   1.812   0.716  1.00  0.00     0.185 HD
BRANCH  12  14
HETATM   14  N3  UNL     1       3.722   0.861   0.739  1.00  0.00    -0.345 N 
ATOM     15  H32 UNL     1       4.191  -0.022   0.537  1.00  0.00     0.176 HD
ATOM     16  H31 UNL     1       4.259   1.654   1.091  1.00  0.00     0.176 HD
ENDBRANCH  12  14
ENDBRANCH  11  12
ENDBRANCH   3  11
BRANCH   4  17
HETATM   17  N4  UNL     1       0.065   2.216  -0.424  1.00  0.00    -0.385 N 
ATOM     18  H42 UNL     1       0.960   2.165  -0.911  1.00  0.00     0.157 HD
ATOM     19  H41 UNL     1      -0.440   3.088  -0.268  1.00  0.00     0.157 HD
ENDBRANCH   4  17
BRANCH   1  20
HETATM   20  N1  UNL     1      -1.856  -2.844  -0.800  1.00  0.00    -0.385 N 
ATOM     21  H12 UNL     1      -1.104  -3.371  -1.244  1.00  0.00     0.157 HD
ATOM     22  H11 UNL     1      -2.818  -3.147  -0.645  1.00  0.00     0.157 HD
ENDBRANCH   1  20
TORSDOF 5
