REMARK  1 active torsions:
REMARK  status: ('A' for Active; 'I' for Inactive)
REMARK    1  A    between atoms: N1_2  and  C2_3 
ROOT
HETATM    1  C1  UNL     1      -0.400  -1.192  -1.015  1.00  0.00     0.275 C 
HETATM    2  N1  UNL     1      -0.093  -0.140  -0.101  1.00  0.00    -0.041 N 
HETATM    3  C5  UNL     1      -0.962   1.029  -0.306  1.00  0.00     0.267 C 
HETATM    4  C6  UNL     1      -2.254   0.538   0.290  1.00  0.00     0.262 C 
HETATM    5  N2  UNL     1      -1.882  -0.558   1.190  1.00  0.00    -0.049 N 
ATOM      6  H21 UNL     1      -2.269  -1.464   0.926  1.00  0.00     0.279 HD
ATOM      7  H22 UNL     1      -2.323  -0.511   2.109  1.00  0.00     0.279 HD
HETATM    8  C7  UNL     1      -0.410  -0.519   1.226  1.00  0.00     0.467 C 
ENDROOT
BRANCH   2   9
HETATM    9  C2  UNL     1       1.261   0.296  -0.308  1.00  0.00     0.192 A 
HETATM   10  C3  UNL     1       2.418  -0.340   0.327  1.00  0.00     0.035 A 
HETATM   11  C4  UNL     1       1.999   1.071   0.729  1.00  0.00     0.035 A 
ENDBRANCH   2   9
TORSDOF 1
