REMARK  0 active torsions:
REMARK  status: ('A' for Active; 'I' for Inactive)
ROOT
HETATM    1  C1  UNL     1      -1.244   1.721   0.005  1.00  0.00     0.297 C 
HETATM    2  N1  UNL     1      -0.434   0.557   0.013  1.00  0.00     0.007 N 
HETATM    3  C2  UNL     1      -1.080  -0.610   0.593  1.00  0.00     0.262 C 
HETATM    4  C3  UNL     1      -0.327  -1.781  -0.051  1.00  0.00     0.053 C 
HETATM    5  C4  UNL     1       0.711  -1.051  -0.862  1.00  0.00     0.110 C 
HETATM    6  C5  UNL     1       1.709  -0.328   0.003  1.00  0.00     0.053 C 
HETATM    7  C6  UNL     1       0.828   0.705   0.700  1.00  0.00     0.262 C 
HETATM    8  N2  UNL     1      -0.104   0.102  -1.294  1.00  0.00    -0.042 NA
ENDROOT
TORSDOF 0
