REMARK  1 active torsions:
REMARK  status: ('A' for Active; 'I' for Inactive)
REMARK    1  A    between atoms: C2_2  and  N1_4 
ROOT
HETATM    1  N1  UNL     1       0.426  -0.222   0.061  1.00  0.00     0.024 N 
HETATM    2  C4  UNL     1       1.304  -1.157   0.715  1.00  0.00     0.298 A 
HETATM    3  C5  UNL     1       1.484   0.315   0.816  1.00  0.00     0.256 A 
HETATM    4  C6  UNL     1       1.885   1.008  -0.454  1.00  0.00     0.179 C 
HETATM    5  N2  UNL     1       0.830   0.287  -1.158  1.00  0.00    -0.044 NA
ENDROOT
BRANCH   1   6
HETATM    6  C2  UNL     1      -0.949  -0.138   0.430  1.00  0.00     0.204 C 
HETATM    7  C1  UNL     1      -1.664  -1.127  -0.509  1.00  0.00     0.042 C 
HETATM    8  C3  UNL     1      -1.575   1.208   0.175  1.00  0.00     0.042 C 
ENDBRANCH   1   6
TORSDOF 1
