REMARK  2 active torsions:
REMARK  status: ('A' for Active; 'I' for Inactive)
REMARK    1  A    between atoms: N1_2  and  C4_5 
REMARK    2  A    between atoms: C4_5  and  C5_6 
ROOT
HETATM    1  C5  UNL     1       0.994   0.762   0.229  1.00  0.00     0.213 C 
HETATM    2  C6  UNL     1       1.762  -0.264  -0.533  1.00  0.00     0.062 C 
HETATM    3  C7  UNL     1       2.990   0.019   0.334  1.00  0.00     0.235 C 
HETATM    4  N2  UNL     1       2.087   0.774   1.210  1.00  0.00    -0.069 N 
ATOM      5  H21 UNL     1       1.906   0.418   2.149  1.00  0.00     0.277 HD
ATOM      6  H22 UNL     1       2.402   1.671   1.581  1.00  0.00     0.277 HD
ENDROOT
BRANCH   1   7
HETATM    7  C4  UNL     1      -0.275   0.355   0.873  1.00  0.00     0.269 C 
BRANCH   7   8
HETATM    8  N1  UNL     1      -1.287  -0.141   0.009  1.00  0.00    -0.077 N 
HETATM    9  C1  UNL     1      -1.301   0.460  -1.302  1.00  0.00     0.271 C 
HETATM   10  C2  UNL     1      -2.582   0.147   0.629  1.00  0.00     0.271 C 
HETATM   11  C3  UNL     1      -1.205  -1.579  -0.177  1.00  0.00     0.271 C 
ENDBRANCH   7   8
ENDBRANCH   1   7
TORSDOF 2
