REMARK  3 active torsions:
REMARK  status: ('A' for Active; 'I' for Inactive)
REMARK    1  A    between atoms: N1_1  and  N2_4 
REMARK    2  A    between atoms: C1_6  and  N3_7 
REMARK    3  A    between atoms: N3_7  and  C2_9 
ROOT
HETATM    1  N2  UNL     1       3.094  -0.606   0.519  1.00  0.00    -0.303 N 
ATOM      2  H2  UNL     1       2.825  -0.097   1.361  1.00  0.00     0.187 HD
HETATM    3  C1  UNL     1       2.159  -0.310  -0.259  1.00  0.00     0.192 C 
ENDROOT
BRANCH   3   4
HETATM    4  N3  UNL     1       0.830  -0.854  -0.093  1.00  0.00    -0.381 N 
ATOM      5  H3  UNL     1       0.587  -1.842  -0.026  1.00  0.00     0.160 HD
BRANCH   4   6
HETATM    6  C2  UNL     1      -0.073   0.234  -0.041  1.00  0.00     0.082 C 
HETATM    7  C3  UNL     1      -1.136   0.172   1.059  1.00  0.00     0.025 C 
HETATM    8  C4  UNL     1      -1.974   1.000   0.074  1.00  0.00     0.004 C 
HETATM    9  C5  UNL     1      -1.260   0.168  -1.005  1.00  0.00     0.025 C 
ENDBRANCH   4   6
ENDBRANCH   3   4
BRANCH   1  10
HETATM   10  N1  UNL     1       4.149  -1.144   0.884  1.00  0.00    -0.344 N 
ATOM     11  H12 UNL     1       4.377  -1.635   0.020  1.00  0.00     0.176 HD
ATOM     12  H11 UNL     1       4.911  -1.385   1.518  1.00  0.00     0.176 HD
ENDBRANCH   1  10
TORSDOF 3
