REMARK  4 active torsions:
REMARK  status: ('A' for Active; 'I' for Inactive)
REMARK    1  A    between atoms: C2_2  and  C18_27 
REMARK    2  A    between atoms: N1_3  and  C3_5 
REMARK    3  A    between atoms: N2_7  and  C4_9 
REMARK    4  A    between atoms: C4_9  and  C5_10 
ROOT
HETATM    1  C5  UNL     1       0.910  -0.157   0.016  1.00  0.00     0.009 A 
HETATM    2  C6  UNL     1       1.753  -1.029  -0.673  1.00  0.00     0.101 A 
HETATM    3  N3  UNL     1       1.033  -1.704  -1.593  1.00  0.00    -0.368 N 
ATOM      4  H3  UNL     1       1.388  -2.406  -2.242  1.00  0.00     0.165 HD
HETATM    5  C7  UNL     1      -0.219  -1.287  -1.498  1.00  0.00     0.018 A 
HETATM    6  C8  UNL     1      -1.215  -1.786  -2.527  1.00  0.00     0.069 C 
HETATM    7  C9  UNL     1      -0.355  -0.327  -0.505  1.00  0.00     0.035 A 
HETATM    8  C10 UNL     1      -1.639   0.267  -0.201  1.00  0.00     0.172 C 
HETATM    9  C11 UNL     1      -2.641  -0.921   0.011  1.00  0.00     0.240 C 
HETATM   10  N4  UNL     1      -3.993  -0.743  -0.176  1.00  0.00    -0.051 N 
HETATM   11  C12 UNL     1      -4.681  -1.618  -1.120  1.00  0.00     0.278 C 
HETATM   12  C13 UNL     1      -4.677  -1.121   1.107  1.00  0.00     0.278 C 
HETATM   13  C14 UNL     1      -4.300   0.618  -0.472  1.00  0.00     0.270 C 
HETATM   14  C15 UNL     1      -3.549   1.456   0.448  1.00  0.00     0.271 C 
HETATM   15  N5  UNL     1      -2.077   1.306   0.490  1.00  0.00    -0.041 N 
HETATM   16  C16 UNL     1      -1.718   2.568  -0.257  1.00  0.00     0.279 C 
HETATM   17  C17 UNL     1      -1.853   1.485   1.918  1.00  0.00     0.279 C 
ENDROOT
BRANCH   1  18
HETATM   18  C4  UNL     1       1.392   0.849   0.894  1.00  0.00     0.104 C 
BRANCH  18  19
HETATM   19  N2  UNL     1       2.569   0.626   1.669  1.00  0.00    -0.342 N 
HETATM   20  C3  UNL     1       3.882   0.322   1.693  1.00  0.00     0.176 C 
HETATM   21  S1  UNL     1       4.570   0.195   3.275  1.00  0.00    -0.041 SA
ATOM     22  H2  UNL     1       2.293   0.754   2.642  1.00  0.00     0.167 HD
BRANCH  20  23
HETATM   23  N1  UNL     1       4.770   0.050   0.734  1.00  0.00    -0.333 N 
HETATM   24  C2  UNL     1       5.924  -0.006   0.334  1.00  0.00     0.073 C 
HETATM   25  C1  UNL     1       6.078  -0.511  -1.112  1.00  0.00     0.074 C 
ATOM     26  H1  UNL     1       4.208  -0.269  -0.055  1.00  0.00     0.168 HD
BRANCH  24  27
HETATM   27  C18 UNL     1       7.168   0.342   0.991  1.00  0.00     0.277 C 
HETATM   28  N6  UNL     1       8.439   0.157   0.338  1.00  0.00    -0.056 NA
HETATM   29  O1  UNL     1       7.248   0.821   2.143  1.00  0.00    -0.270 OA
ENDBRANCH  24  27
ENDBRANCH  20  23
ENDBRANCH  18  19
ENDBRANCH   1  18
TORSDOF 4
