REMARK  4 active torsions:
REMARK  status: ('A' for Active; 'I' for Inactive)
REMARK    1  A    between atoms: C10_18  and  N6_19 
REMARK    2  A    between atoms: N6_19  and  C11_20 
REMARK    3  A    between atoms: C11_20  and  C12_21 
REMARK    4  A    between atoms: C12_21  and  N7_22 
ROOT
HETATM    1  C1  UNL     1       4.301   3.471   0.313  1.00  0.00     0.091 C 
HETATM    2  C2  UNL     1       3.992   2.059  -0.114  1.00  0.00     0.097 C 
HETATM    3  N1  UNL     1       4.956   1.510  -0.717  1.00  0.00    -0.284 N 
HETATM    4  C3  UNL     1       6.148   2.253  -0.913  1.00  0.00     0.179 C 
HETATM    5  N2  UNL     1       4.991   0.184  -1.223  1.00  0.00    -0.295 N 
ATOM      6  H2  UNL     1       5.640   0.003  -1.989  1.00  0.00     0.187 HD
HETATM    7  C4  UNL     1       4.209  -0.925  -0.769  1.00  0.00     0.081 A 
HETATM    8  C5  UNL     1       4.530  -2.257  -0.925  1.00  0.00     0.121 A 
HETATM    9  N3  UNL     1       3.514  -2.955  -0.357  1.00  0.00    -0.349 N 
ATOM     10  H3  UNL     1       3.458  -3.972  -0.311  1.00  0.00     0.167 HD
HETATM   11  C6  UNL     1       2.584  -2.103   0.140  1.00  0.00     0.123 A 
HETATM   12  C7  UNL     1       3.001  -0.812  -0.107  1.00  0.00     0.082 A 
HETATM   13  C8  UNL     1       2.262   0.429   0.266  1.00  0.00     0.127 C 
HETATM   14  N4  UNL     1       2.650   1.664   0.272  1.00  0.00    -0.325 N 
HETATM   15  C9  UNL     1       1.730   2.695   0.626  1.00  0.00     0.159 C 
HETATM   16  N5  UNL     1       0.939   0.522   0.756  1.00  0.00    -0.315 N 
ATOM     17  H5  UNL     1       0.659   1.443   1.094  1.00  0.00     0.170 HD
HETATM   18  C10 UNL     1      -0.079  -0.517   0.845  1.00  0.00     0.196 C 
HETATM   19  C18 UNL     1       0.308  -1.934   1.075  1.00  0.00     0.067 C 
HETATM   20  C19 UNL     1      -0.754  -2.715   1.740  1.00  0.00     0.074 C 
HETATM   21  N8  UNL     1       1.401  -2.576   0.784  1.00  0.00    -0.336 N 
HETATM   22  C20 UNL     1       1.469  -3.972   1.154  1.00  0.00     0.158 C 
ENDROOT
BRANCH  18  23
HETATM   23  N6  UNL     1      -1.237  -0.259   0.739  1.00  0.00    -0.427 NA
BRANCH  23  24
HETATM   24  C11 UNL     1      -2.536   0.030   0.620  1.00  0.00     0.248 C 
BRANCH  24  25
HETATM   25  C12 UNL     1      -2.981  -0.309  -0.819  1.00  0.00     0.270 C 
BRANCH  25  26
HETATM   26  N7  UNL     1      -4.382  -0.016  -1.008  1.00  0.00    -0.068 N 
HETATM   27  C13 UNL     1      -4.703  -0.409  -2.370  1.00  0.00     0.272 C 
HETATM   28  C14 UNL     1      -4.696   1.364  -0.857  1.00  0.00     0.237 C 
HETATM   29  C15 UNL     1      -5.496   1.545   0.396  1.00  0.00     0.029 C 
HETATM   30  C16 UNL     1      -5.895   0.160   0.817  1.00  0.00     0.029 C 
HETATM   31  C17 UNL     1      -5.234  -0.779  -0.131  1.00  0.00     0.237 C 
ENDBRANCH  25  26
ENDBRANCH  24  25
ENDBRANCH  23  24
ENDBRANCH  18  23
TORSDOF 4
