REMARK  8 active torsions:
REMARK  status: ('A' for Active; 'I' for Inactive)
REMARK    1  A    between atoms: C4_7  and  C5_8 
REMARK    2  A    between atoms: C5_8  and  C6_9 
REMARK    3  A    between atoms: C6_9  and  C7_10 
REMARK    4  A    between atoms: C7_10  and  C8_11 
REMARK    5  A    between atoms: N3_17  and  C11_18 
REMARK    6  A    between atoms: C11_18  and  C12_19 
REMARK    7  A    between atoms: C13_20  and  C14_21 
REMARK    8  A    between atoms: C15_22  and  C16_23 
ROOT
HETATM    1  C8  UNL     1       0.475  -1.707   1.058  1.00  0.00    -0.027 A 
HETATM    2  C9  UNL     1       0.174  -2.609   2.060  1.00  0.00     0.101 A 
HETATM    3  N2  UNL     1      -0.843  -3.469   1.873  1.00  0.00    -0.318 N 
ATOM      4  H2  UNL     1      -1.076  -4.141   2.604  1.00  0.00     0.170 HD
HETATM    5  C10 UNL     1      -1.561  -3.453   0.727  1.00  0.00     0.327 A 
HETATM    6  O2  UNL     1      -2.494  -4.298   0.647  1.00  0.00    -0.246 OA
HETATM    7  N3  UNL     1      -1.302  -2.599  -0.263  1.00  0.00    -0.298 N 
HETATM    8  C20 UNL     1      -0.288  -1.734  -0.089  1.00  0.00     0.105 A 
ENDROOT
BRANCH   1   9
HETATM    9  C7  UNL     1       1.574  -0.722   1.169  1.00  0.00     0.041 C 
BRANCH   9  10
HETATM   10  C6  UNL     1       2.871  -1.278   0.644  1.00  0.00     0.005 C 
BRANCH  10  11
HETATM   11  C5  UNL     1       4.012  -0.330   0.731  1.00  0.00     0.009 C 
BRANCH  11  12
HETATM   12  C4  UNL     1       3.823   0.939  -0.026  1.00  0.00     0.028 C 
HETATM   13  C3  UNL     1       4.931   1.935   0.018  1.00  0.00     0.112 C 
HETATM   14  C2  UNL     1       6.160   1.642   0.805  1.00  0.00     0.150 C 
HETATM   15  N5  UNL     1       5.399   1.520  -1.322  1.00  0.00    -0.327 N 
HETATM   16  N1  UNL     1       7.186   2.287  -0.037  1.00  0.00    -0.341 N 
HETATM   17  C1  UNL     1       6.714   2.049  -1.375  1.00  0.00     0.318 C 
ATOM     18  H1  UNL     1       8.027   2.782   0.259  1.00  0.00     0.164 HD
HETATM   19  O1  UNL     1       7.368   2.276  -2.426  1.00  0.00    -0.247 OA
HETATM   20  C21 UNL     1       4.110   0.890  -1.513  1.00  0.00     0.134 C 
ENDBRANCH  11  12
ENDBRANCH  10  11
ENDBRANCH   9  10
ENDBRANCH   1   9
BRANCH   7  21
HETATM   21  C11 UNL     1      -2.082  -2.607  -1.469  1.00  0.00     0.227 C 
BRANCH  21  22
HETATM   22  C12 UNL     1      -3.210  -1.679  -1.265  1.00  0.00    -0.072 C 
HETATM   23  C13 UNL     1      -4.150  -0.932  -1.091  1.00  0.00    -0.013 C 
BRANCH  23  24
HETATM   24  C14 UNL     1      -5.267  -0.076  -0.883  1.00  0.00    -0.008 C 
HETATM   25  C15 UNL     1      -6.228   0.639  -0.718  1.00  0.00    -0.035 C 
BRANCH  25  26
HETATM   26  C16 UNL     1      -7.393   1.486  -0.540  1.00  0.00     0.087 A 
HETATM   27  C17 UNL     1      -7.520   2.748  -1.053  1.00  0.00     0.040 A 
HETATM   28  C18 UNL     1      -8.772   3.189  -0.648  1.00  0.00     0.020 A 
HETATM   29  C19 UNL     1      -9.376   2.197   0.097  1.00  0.00     0.089 A 
HETATM   30  N4  UNL     1      -8.520   1.178   0.146  1.00  0.00    -0.359 N 
ATOM     31  H4  UNL     1      -8.688   0.295   0.629  1.00  0.00     0.166 HD
ENDBRANCH  25  26
ENDBRANCH  23  24
ENDBRANCH  21  22
ENDBRANCH   7  21
TORSDOF 8
