REMARK  7 active torsions:
REMARK  status: ('A' for Active; 'I' for Inactive)
REMARK    1  A    between atoms: C3_3  and  C4_4 
REMARK    2  A    between atoms: C4_4  and  N1_5 
REMARK    3  A    between atoms: N1_5  and  C5_6 
REMARK    4  A    between atoms: C5_6  and  C6_7 
REMARK    5  A    between atoms: C6_7  and  C7_8 
REMARK    6  A    between atoms: C11_12  and  C12_13 
REMARK    7  A    between atoms: C12_13  and  O1_14 
ROOT
HETATM    1  C1  UNL     1      -1.729  -2.708   5.704  1.00  0.00     0.112 C 
HETATM    2  C2  UNL     1      -1.312  -2.315   4.362  1.00  0.00    -0.109 C 
HETATM    3  C3  UNL     1      -0.972  -1.994   3.247  1.00  0.00    -0.079 C 
ENDROOT
BRANCH   3   4
HETATM    4  C4  UNL     1      -0.529  -1.621   1.932  1.00  0.00     0.338 C 
BRANCH   4   5
HETATM    5  N1  UNL     1      -1.536  -1.399   0.961  1.00  0.00    -0.011 N 
HETATM    6  C18 UNL     1      -1.495   0.034   0.615  1.00  0.00     0.274 C 
HETATM    7  C19 UNL     1      -2.855   0.323   0.039  1.00  0.00     0.267 C 
HETATM    8  N5  UNL     1      -3.698  -0.465   0.890  1.00  0.00    -0.049 N 
HETATM    9  C20 UNL     1      -4.856  -0.954   0.148  1.00  0.00     0.274 C 
HETATM   10  C21 UNL     1      -4.148   0.378   1.998  1.00  0.00     0.274 C 
HETATM   11  C22 UNL     1      -2.901  -1.524   1.437  1.00  0.00     0.478 C 
BRANCH   5  12
HETATM   12  C5  UNL     1      -1.315  -2.132  -0.228  1.00  0.00     0.208 C 
BRANCH  12  13
HETATM   13  C6  UNL     1      -0.010  -2.457  -0.773  1.00  0.00     0.054 C 
BRANCH  13  14
HETATM   14  C7  UNL     1       0.955  -1.479  -1.165  1.00  0.00     0.031 C 
HETATM   15  C8  UNL     1       2.028  -0.941  -0.418  1.00  0.00     0.016 C 
HETATM   16  C9  UNL     1       2.956   0.146  -0.435  1.00  0.00     0.029 A 
HETATM   17  C10 UNL     1       3.562   1.053  -0.762  1.00  0.00     0.048 A 
HETATM   18  C17 UNL     1       2.856   0.929  -1.852  1.00  0.00     0.065 A 
HETATM   19  C16 UNL     1       2.330   0.240  -1.722  1.00  0.00     0.064 A 
HETATM   20  C11 UNL     1       4.119   2.116  -1.428  1.00  0.00     0.030 A 
HETATM   21  N2  UNL     1       3.792   2.559  -2.724  1.00  0.00    -0.326 N 
HETATM   22  C13 UNL     1       4.052   3.459  -3.674  1.00  0.00     0.129 C 
HETATM   23  C14 UNL     1       2.875   1.631  -2.925  1.00  0.00     0.100 A 
HETATM   24  N3  UNL     1       1.908   0.997  -3.682  1.00  0.00    -0.334 N 
HETATM   25  C15 UNL     1       1.574   0.048  -2.792  1.00  0.00     0.095 A 
ATOM     26  H3  UNL     1       1.558   1.189  -4.621  1.00  0.00     0.168 HD
HETATM   27  N4  UNL     1       0.789  -0.981  -2.554  1.00  0.00    -0.345 N 
ATOM     28  H4  UNL     1       0.148  -1.385  -3.237  1.00  0.00     0.167 HD
BRANCH  20  29
HETATM   29  C12 UNL     1       5.152   2.926  -0.817  1.00  0.00     0.218 C 
BRANCH  29  30
HETATM   30  O1  UNL     1       5.604   3.962  -1.646  1.00  0.00    -0.395 OA
ATOM     31  H1  UNL     1       6.282   4.493  -1.245  1.00  0.00     0.209 HD
ENDBRANCH  29  30
ENDBRANCH  20  29
ENDBRANCH  13  14
ENDBRANCH  12  13
ENDBRANCH   5  12
ENDBRANCH   4   5
ENDBRANCH   3   4
TORSDOF 7
