REMARK  10 active torsions:
REMARK  status: ('A' for Active; 'I' for Inactive)
REMARK    1  A    between atoms: C2_2  and  C3_3 
REMARK    2  A    between atoms: C3_3  and  C4_4 
REMARK    3  A    between atoms: C4_4  and  N1_5 
REMARK    4  A    between atoms: N2_10  and  C8_11 
REMARK    5  A    between atoms: C8_11  and  C9_12 
REMARK    6  A    between atoms: C9_12  and  N3_13 
REMARK    7  A    between atoms: N3_13  and  C11_15 
REMARK    8  A    between atoms: C11_15  and  C12_16 
REMARK    9  A    between atoms: C12_16  and  N4_17 
REMARK   10  A    between atoms: N4_17  and  C13_19 
ROOT
HETATM    1  N1  UNL     1      -2.544  -0.040  -1.092  1.00  0.00    -0.350 N 
HETATM    2  C5  UNL     1      -1.873  -0.490  -2.283  1.00  0.00     0.135 C 
HETATM    3  C6  UNL     1      -0.513   0.155  -2.353  1.00  0.00     0.123 C 
HETATM    4  C7  UNL     1       0.450  -0.377  -1.370  1.00  0.00     0.221 C 
HETATM    5  O1  UNL     1       1.614  -0.381  -1.914  1.00  0.00    -0.273 OA
HETATM    6  N2  UNL     1       0.546  -0.889  -0.030  1.00  0.00    -0.349 N 
HETATM    7  C15 UNL     1      -0.113  -0.494   1.168  1.00  0.00     0.156 C 
HETATM    8  C16 UNL     1      -1.026   0.706   1.045  1.00  0.00     0.153 C 
HETATM    9  C17 UNL     1      -1.474   1.014   2.473  1.00  0.00     0.153 C 
HETATM   10  N5  UNL     1      -2.350   2.122   2.595  1.00  0.00    -0.358 N 
ATOM     11  H5  UNL     1      -3.059   1.976   3.314  1.00  0.00     0.162 HD
HETATM   12  C18 UNL     1      -2.480   3.385   1.960  1.00  0.00     0.235 C 
HETATM   13  O2  UNL     1      -2.903   4.346   2.632  1.00  0.00    -0.272 OA
HETATM   14  C19 UNL     1      -2.150   3.666   0.539  1.00  0.00     0.225 C 
HETATM   15  N6  UNL     1      -0.852   3.136   0.171  1.00  0.00    -0.351 N 
ATOM     16  H6  UNL     1      -0.297   3.693  -0.479  1.00  0.00     0.163 HD
HETATM   17  C20 UNL     1      -0.272   1.915   0.626  1.00  0.00     0.239 C 
HETATM   18  O3  UNL     1       1.007   1.881   0.670  1.00  0.00    -0.272 OA
HETATM   19  C21 UNL     1      -2.219   0.421   0.206  1.00  0.00     0.241 C 
HETATM   20  O4  UNL     1      -3.318   0.655   0.828  1.00  0.00    -0.272 OA
ENDROOT
BRANCH   6  21
HETATM   21  C8  UNL     1       1.460  -1.975   0.027  1.00  0.00     0.140 C 
BRANCH  21  22
HETATM   22  C9  UNL     1       2.901  -1.692   0.301  1.00  0.00     0.114 C 
BRANCH  22  23
HETATM   23  N3  UNL     1       3.224  -1.108   1.534  1.00  0.00    -0.294 NA
HETATM   24  C10 UNL     1       3.032  -2.009   2.669  1.00  0.00     0.116 C 
BRANCH  23  25
HETATM   25  C11 UNL     1       4.399  -0.388   1.752  1.00  0.00     0.076 C 
BRANCH  25  26
HETATM   26  C12 UNL     1       4.631   0.913   1.109  1.00  0.00     0.094 C 
BRANCH  26  27
HETATM   27  N4  UNL     1       4.719   1.010  -0.290  1.00  0.00    -0.398 N 
ATOM     28  H4  UNL     1       3.990   1.456  -0.848  1.00  0.00     0.158 HD
BRANCH  27  29
HETATM   29  C13 UNL     1       5.899   0.443  -0.890  1.00  0.00     0.114 C 
HETATM   30  C14 UNL     1       5.800   0.640  -2.387  1.00  0.00     0.026 C 
ENDBRANCH  27  29
ENDBRANCH  26  27
ENDBRANCH  25  26
ENDBRANCH  23  25
ENDBRANCH  22  23
ENDBRANCH  21  22
ENDBRANCH   6  21
BRANCH   1  31
HETATM   31  C4  UNL     1      -3.996  -0.078  -1.269  1.00  0.00     0.126 C 
BRANCH  31  32
HETATM   32  C3  UNL     1      -4.555  -1.422  -0.859  1.00  0.00     0.020 C 
BRANCH  32  33
HETATM   33  C2  UNL     1      -6.051  -1.372  -1.075  1.00  0.00    -0.003 C 
HETATM   34  C1  UNL     1      -6.688  -2.691  -0.684  1.00  0.00     0.005 C 
ENDBRANCH  32  33
ENDBRANCH  31  32
ENDBRANCH   1  31
TORSDOF 10
