REMARK  9 active torsions:
REMARK  status: ('A' for Active; 'I' for Inactive)
REMARK    1  A    between atoms: C2_2  and  C3_3 
REMARK    2  A    between atoms: C2_2  and  N5_24 
REMARK    3  A    between atoms: C3_3  and  C4_4 
REMARK    4  A    between atoms: C4_4  and  C5_5 
REMARK    5  A    between atoms: C5_5  and  N1_6 
REMARK       I    between atoms: N1_6  and  C6_8 
REMARK       I    between atoms: C6_8  and  N3_12 
REMARK    6  A    between atoms: N3_12  and  C7_14 
REMARK    7  A    between atoms: C7_14  and  C8_15 
REMARK    8  A    between atoms: N5_24  and  S1_26 
REMARK    9  A    between atoms: S1_26  and  N6_29 
ROOT
HETATM    1  N1  UNL     1       0.840   0.481  -0.538  1.00  0.00    -0.227 N 
ATOM      2  H1  UNL     1       1.189  -0.438  -0.808  1.00  0.00     0.177 HD
HETATM    3  C6  UNL     1       1.657   1.390   0.159  1.00  0.00     0.667 C 
HETATM    4  N2  UNL     1       1.686   1.377   1.438  1.00  0.00    -0.235 N 
ATOM      5  H21 UNL     1       2.278   2.036   1.943  1.00  0.00     0.174 HD
ATOM      6  H22 UNL     1       1.120   0.701   1.951  1.00  0.00     0.174 HD
HETATM    7  N3  UNL     1       2.440   2.325  -0.551  1.00  0.00    -0.226 N 
ATOM      8  H3  UNL     1       2.289   3.314  -0.352  1.00  0.00     0.177 HD
ENDROOT
BRANCH   1   9
HETATM    9  C5  UNL     1      -0.506   0.888  -0.859  1.00  0.00     0.138 C 
BRANCH   9  10
HETATM   10  C4  UNL     1      -1.364   1.017   0.381  1.00  0.00     0.022 C 
BRANCH  10  11
HETATM   11  C3  UNL     1      -2.757   1.448   0.003  1.00  0.00     0.027 C 
BRANCH  11  12
HETATM   12  C2  UNL     1      -3.640   1.583   1.222  1.00  0.00     0.090 C 
HETATM   13  C1  UNL     1      -3.036   2.615   2.144  1.00  0.00     0.033 C 
BRANCH  12  14
HETATM   14  N5  UNL     1      -3.765   0.313   1.884  1.00  0.00    -0.302 N 
ATOM     15  H5  UNL     1      -2.977  -0.233   2.232  1.00  0.00     0.173 HD
BRANCH  14  16
HETATM   16  S1  UNL     1      -5.413  -0.171   2.015  1.00  0.00     0.299 S 
HETATM   17  O2  UNL     1      -5.504  -1.041   3.254  1.00  0.00    -0.188 OA
HETATM   18  O3  UNL     1      -6.311   1.004   2.263  1.00  0.00    -0.188 OA
BRANCH  16  19
HETATM   19  N6  UNL     1      -5.845  -1.033   0.605  1.00  0.00    -0.189 NA
HETATM   20  C15 UNL     1      -5.098  -2.226   0.393  1.00  0.00     0.135 C 
HETATM   21  C16 UNL     1      -5.315  -2.669  -1.041  1.00  0.00     0.183 C 
HETATM   22  O4  UNL     1      -6.532  -2.271  -1.561  1.00  0.00    -0.389 OA
HETATM   23  C17 UNL     1      -7.558  -2.216  -0.621  1.00  0.00     0.183 C 
HETATM   24  C18 UNL     1      -7.274  -1.197   0.461  1.00  0.00     0.135 C 
ENDBRANCH  16  19
ENDBRANCH  14  16
ENDBRANCH  12  14
ENDBRANCH  11  12
ENDBRANCH  10  11
ENDBRANCH   9  10
ENDBRANCH   1   9
BRANCH   7  25
HETATM   25  C7  UNL     1       3.427   1.991  -1.526  1.00  0.00     0.144 C 
BRANCH  25  26
HETATM   26  C8  UNL     1       4.659   1.321  -0.995  1.00  0.00     0.032 C 
HETATM   27  C9  UNL     1       5.613   1.043  -2.163  1.00  0.00     0.036 C 
HETATM   28  C10 UNL     1       5.852  -0.447  -2.087  1.00  0.00     0.240 C 
HETATM   29  N4  UNL     1       5.697  -0.705  -0.689  1.00  0.00    -0.044 N 
HETATM   30  C11 UNL     1       5.628  -2.126  -0.382  1.00  0.00     0.266 C 
HETATM   31  C13 UNL     1       6.749  -0.189   0.123  1.00  0.00     0.404 C 
HETATM   32  C14 UNL     1       4.431  -0.034  -0.399  1.00  0.00     0.246 C 
HETATM   33  C12 UNL     1       6.162  -2.148   1.036  1.00  0.00     0.198 C 
HETATM   34  O1  UNL     1       6.934  -1.030   1.208  1.00  0.00    -0.362 OA
ENDBRANCH  25  26
ENDBRANCH   7  25
TORSDOF 9
