REMARK  9 active torsions:
REMARK  status: ('A' for Active; 'I' for Inactive)
REMARK       I    between atoms: N1_3  and  C3_4 
REMARK    1  A    between atoms: C4_9  and  C5_10 
REMARK       I    between atoms: C5_10  and  N4_12 
REMARK    2  A    between atoms: N4_12  and  C6_14 
REMARK    3  A    between atoms: C6_14  and  C7_15 
REMARK    4  A    between atoms: C7_15  and  N5_16 
REMARK    5  A    between atoms: N5_16  and  C8_19 
REMARK    6  A    between atoms: C8_19  and  C9_20 
REMARK    7  A    between atoms: C9_20  and  N6_21 
REMARK    8  A    between atoms: N6_21  and  C12_24 
REMARK    9  A    between atoms: C12_24  and  C13_25 
ROOT
HETATM    1  C5  UNL     1      -2.704   1.012   0.351  1.00  0.00     0.244 C 
HETATM    2  O1  UNL     1      -1.829   1.385   1.169  1.00  0.00    -0.271 OA
HETATM    3  N4  UNL     1      -2.311   0.567  -0.927  1.00  0.00    -0.337 N 
ATOM      4  H4  UNL     1      -3.086   0.287  -1.529  1.00  0.00     0.167 HD
ENDROOT
BRANCH   3   5
HETATM    5  C6  UNL     1      -1.046   0.440  -1.521  1.00  0.00     0.091 C 
BRANCH   5   6
HETATM    6  C7  UNL     1      -0.048  -0.556  -1.060  1.00  0.00     0.277 C 
BRANCH   6   7
HETATM    7  N5  UNL     1       0.339  -0.435   0.298  1.00  0.00    -0.069 N 
ATOM      8  H52 UNL     1       0.472   0.539   0.571  1.00  0.00     0.277 HD
ATOM      9  H51 UNL     1      -0.424  -0.667   0.934  1.00  0.00     0.277 HD
BRANCH   7  10
HETATM   10  C8  UNL     1       1.563  -1.264   0.566  1.00  0.00     0.260 C 
BRANCH  10  11
HETATM   11  C9  UNL     1       2.768  -0.693  -0.080  1.00  0.00     0.264 C 
BRANCH  11  12
HETATM   12  N6  UNL     1       3.992  -1.438   0.132  1.00  0.00    -0.071 N 
HETATM   13  C10 UNL     1       3.839  -2.820  -0.382  1.00  0.00     0.272 C 
HETATM   14  C11 UNL     1       4.180  -1.596   1.552  1.00  0.00     0.272 C 
BRANCH  12  15
HETATM   15  C12 UNL     1       5.076  -0.893  -0.599  1.00  0.00     0.268 C 
BRANCH  15  16
HETATM   16  C13 UNL     1       5.378   0.549  -0.461  1.00  0.00     0.147 C 
HETATM   17  C14 UNL     1       5.835   0.892   0.936  1.00  0.00     0.036 C 
HETATM   18  C15 UNL     1       6.870   1.975   0.690  1.00  0.00     0.029 C 
HETATM   19  C16 UNL     1       7.407   1.528  -0.641  1.00  0.00     0.168 C 
HETATM   20  O2  UNL     1       6.459   0.814  -1.305  1.00  0.00    -0.384 OA
ENDBRANCH  15  16
ENDBRANCH  12  15
ENDBRANCH  11  12
ENDBRANCH  10  11
ENDBRANCH   7  10
ENDBRANCH   6   7
ENDBRANCH   5   6
ENDBRANCH   3   5
BRANCH   1  21
HETATM   21  C4  UNL     1      -4.096   1.072   0.813  1.00  0.00     0.181 C 
HETATM   22  N1  UNL     1      -5.129   1.180  -0.161  1.00  0.00    -0.325 N 
HETATM   23  C2  UNL     1      -6.259   0.281  -0.099  1.00  0.00     0.206 C 
HETATM   24  C3  UNL     1      -5.122   2.186  -1.159  1.00  0.00     0.185 C 
HETATM   25  C1  UNL     1      -7.317   0.507  -1.127  1.00  0.00     0.049 C 
HETATM   26  S1  UNL     1      -5.675  -1.385  -0.031  1.00  0.00     0.165 S 
HETATM   27  C18 UNL     1      -4.379  -1.407   1.198  1.00  0.00     0.145 C 
HETATM   28  O3  UNL     1      -5.108  -1.817  -1.333  1.00  0.00    -0.226 OA
HETATM   29  O4  UNL     1      -6.784  -2.338   0.338  1.00  0.00    -0.226 OA
HETATM   30  C17 UNL     1      -4.332  -0.045   1.811  1.00  0.00     0.050 C 
HETATM   31  N2  UNL     1      -5.043   3.417  -0.688  1.00  0.00    -0.374 N 
HETATM   32  N3  UNL     1      -5.187   2.019  -2.548  1.00  0.00    -0.064 NA
ATOM     33  H22 UNL     1      -4.996   3.539   0.324  1.00  0.00     0.158 HD
ATOM     34  H21 UNL     1      -5.038   4.141  -1.406  1.00  0.00     0.158 HD
ENDBRANCH   1  21
TORSDOF 9
