REMARK  10 active torsions:
REMARK  status: ('A' for Active; 'I' for Inactive)
REMARK    1  A    between atoms: N1_1  and  C1_5 
REMARK    2  A    between atoms: C1_5  and  C2_6 
REMARK    3  A    between atoms: C2_6  and  C3_7 
REMARK    4  A    between atoms: C3_7  and  C4_8 
REMARK       I    between atoms: C4_8  and  N2_10 
REMARK       I    between atoms: N3_14  and  C8_15 
REMARK    5  A    between atoms: C8_15  and  C9_17 
REMARK    6  A    between atoms: C9_17  and  C10_18 
REMARK    7  A    between atoms: C10_18  and  C11_19 
REMARK    8  A    between atoms: C11_19  and  C12_20 
REMARK    9  A    between atoms: C12_20  and  C13_21 
REMARK   10  A    between atoms: C13_21  and  N4_22 
REMARK       I    between atoms: C14_24  and  N6_26 
ROOT
HETATM    1  C4  UNL     1      -5.750   0.149   0.525  1.00  0.00     0.220 C 
HETATM    2  O1  UNL     1      -6.276   0.634   1.585  1.00  0.00    -0.273 OA
HETATM    3  N2  UNL     1      -4.768   0.944  -0.118  1.00  0.00    -0.337 N 
HETATM    4  C5  UNL     1      -4.471   2.215   0.481  1.00  0.00     0.128 C 
HETATM    5  C6  UNL     1      -3.070   2.346   0.991  1.00  0.00     0.041 C 
HETATM    6  C7  UNL     1      -2.084   2.601  -0.151  1.00  0.00     0.146 C 
HETATM    7  N3  UNL     1      -1.579   1.337  -0.624  1.00  0.00    -0.244 N 
HETATM    8  C8  UNL     1      -0.187   1.288  -0.861  1.00  0.00     0.233 C 
HETATM    9  O2  UNL     1       0.270   0.189  -1.278  1.00  0.00    -0.272 OA
HETATM   10  S1  UNL     1      -2.494  -0.085  -0.919  1.00  0.00     0.251 S 
HETATM   11  O3  UNL     1      -1.908  -0.929  -2.014  1.00  0.00    -0.204 OA
HETATM   12  O4  UNL     1      -2.563  -0.960   0.315  1.00  0.00    -0.204 OA
HETATM   13  C16 UNL     1      -4.194   0.331  -1.324  1.00  0.00     0.289 C 
ENDROOT
BRANCH   8  14
HETATM   14  C9  UNL     1       0.706   2.427  -0.648  1.00  0.00     0.104 C 
BRANCH  14  15
HETATM   15  C10 UNL     1       2.147   2.209  -0.916  1.00  0.00     0.009 C 
BRANCH  15  16
HETATM   16  C11 UNL     1       2.817   1.158  -0.072  1.00  0.00     0.002 C 
BRANCH  16  17
HETATM   17  C12 UNL     1       4.286   1.113  -0.509  1.00  0.00     0.020 C 
BRANCH  17  18
HETATM   18  C13 UNL     1       5.050   0.066   0.297  1.00  0.00     0.122 C 
BRANCH  18  19
HETATM   19  N4  UNL     1       6.430   0.016  -0.097  1.00  0.00    -0.364 N 
HETATM   20  C14 UNL     1       7.158  -0.991   0.221  1.00  0.00     0.190 C 
HETATM   21  N5  UNL     1       6.591  -2.056   0.967  1.00  0.00    -0.063 NA
HETATM   22  N6  UNL     1       8.513  -0.974  -0.201  1.00  0.00    -0.307 N 
HETATM   23  C15 UNL     1       9.493  -1.398   0.505  1.00  0.00     0.203 C 
ATOM     24  H6  UNL     1       8.719  -0.600  -1.127  1.00  0.00     0.170 HD
HETATM   25  N7  UNL     1       9.309  -1.937   1.806  1.00  0.00    -0.066 NA
HETATM   26  N8  UNL     1      10.814  -1.320  -0.037  1.00  0.00    -0.066 NA
ATOM     27  H4  UNL     1       6.833   0.785  -0.632  1.00  0.00     0.162 HD
ENDBRANCH  18  19
ENDBRANCH  17  18
ENDBRANCH  16  17
ENDBRANCH  15  16
ENDBRANCH  14  15
ENDBRANCH   8  14
BRANCH   1  28
HETATM   28  C3  UNL     1      -6.178  -1.181   0.032  1.00  0.00     0.105 C 
BRANCH  28  29
HETATM   29  C2  UNL     1      -7.206  -1.764   0.976  1.00  0.00     0.036 C 
BRANCH  29  30
HETATM   30  C1  UNL     1      -7.698  -3.117   0.549  1.00  0.00     0.230 C 
BRANCH  30  31
HETATM   31  N1  UNL     1      -8.675  -3.537   1.557  1.00  0.00    -0.079 N 
ATOM     32  H13 UNL     1      -8.307  -3.522   2.508  1.00  0.00     0.274 HD
ATOM     33  H12 UNL     1      -9.425  -2.860   1.701  1.00  0.00     0.274 HD
ATOM     34  H11 UNL     1      -9.009  -4.456   1.267  1.00  0.00     0.274 HD
ENDBRANCH  30  31
ENDBRANCH  29  30
ENDBRANCH  28  29
ENDBRANCH   1  28
TORSDOF 10
