REMARK  1 active torsions:
REMARK  status: ('A' for Active; 'I' for Inactive)
REMARK    1  A    between atoms: C2_2  and  N1_3 
ROOT
HETATM    1  N1  UNL     1       0.098  -0.181  -0.288  1.00  0.00     0.028 N 
HETATM    2  C3  UNL     1       0.673  -1.117  -1.214  1.00  0.00     0.299 C 
HETATM    3  C4  UNL     1      -0.889   0.598  -0.998  1.00  0.00     0.285 C 
HETATM    4  C5  UNL     1      -1.774   1.077   0.154  1.00  0.00     0.196 C 
HETATM    5  N2  UNL     1      -1.808  -0.110   0.978  1.00  0.00    -0.217 N 
HETATM    6  N3  UNL     1      -2.678  -0.396   1.828  1.00  0.00    -0.330 N 
ATOM      7  H31 UNL     1      -2.702  -1.234   2.409  1.00  0.00     0.178 HD
ATOM      8  H32 UNL     1      -3.497   0.161   2.073  1.00  0.00     0.178 HD
HETATM    9  N4  UNL     1      -0.690  -0.870   0.643  1.00  0.00     0.090 NA
ENDROOT
BRANCH   1  10
HETATM   10  C2  UNL     1       1.043   0.617   0.412  1.00  0.00     0.257 C 
HETATM   11  C1  UNL     1       2.474   0.200   0.199  1.00  0.00     0.036 C 
ENDBRANCH   1  10
TORSDOF 1
