REMARK  0 active torsions:
REMARK  status: ('A' for Active; 'I' for Inactive)
ROOT
HETATM    1  C1  UNL     1       2.045   0.350  -0.035  1.00  0.00     0.274 C 
HETATM    2  N1  UNL     1       0.648   0.135  -0.086  1.00  0.00    -0.045 N 
HETATM    3  C2  UNL     1       0.259  -1.233  -0.376  1.00  0.00     0.241 C 
HETATM    4  C3  UNL     1      -1.249  -1.164  -0.136  1.00  0.00     0.062 C 
HETATM    5  C4  UNL     1      -1.409   0.059   0.699  1.00  0.00     0.215 C 
HETATM    6  C5  UNL     1       0.020   0.239   1.249  1.00  0.00     0.272 C 
HETATM    7  N2  UNL     1      -1.420   1.209  -0.185  1.00  0.00    -0.045 N 
ATOM      8  H21 UNL     1      -1.614   2.104   0.265  1.00  0.00     0.279 HD
ATOM      9  H22 UNL     1      -2.210   1.258  -0.828  1.00  0.00     0.279 HD
HETATM   10  C6  UNL     1      -0.110   1.098  -0.814  1.00  0.00     0.467 C 
ENDROOT
TORSDOF 0
