REMARK  1 active torsions:
REMARK  status: ('A' for Active; 'I' for Inactive)
REMARK    1  A    between atoms: C3_3  and  N1_4 
ROOT
HETATM    1  C1  UNL     1       3.267   0.348   1.049  1.00  0.00     0.013 C 
HETATM    2  C2  UNL     1       2.429   0.285   0.173  1.00  0.00    -0.089 C 
HETATM    3  C3  UNL     1       1.418   0.234  -0.885  1.00  0.00     0.332 C 
ENDROOT
BRANCH   3   4
HETATM    4  N1  UNL     1       0.092   0.089  -0.389  1.00  0.00    -0.021 N 
HETATM    5  C4  UNL     1      -0.784  -0.892  -0.997  1.00  0.00     0.268 C 
HETATM    6  C5  UNL     1      -1.966  -0.970  -0.042  1.00  0.00     0.262 C 
HETATM    7  N2  UNL     1      -1.374  -0.704   1.233  1.00  0.00    -0.042 N 
HETATM    8  C6  UNL     1      -0.243   0.198   0.985  1.00  0.00     0.414 A 
ATOM      9  H22 UNL     1      -2.037  -0.342   1.919  1.00  0.00     0.279 HD
ATOM     10  H21 UNL     1      -1.114  -1.549   1.742  1.00  0.00     0.279 HD
HETATM   11  C7  UNL     1      -0.535   1.314   0.072  1.00  0.00     0.304 A 
ENDBRANCH   3   4
TORSDOF 1
