REMARK  11 active torsions:
REMARK  status: ('A' for Active; 'I' for Inactive)
REMARK    1  A    between atoms: N1_2  and  C2_3 
REMARK    2  A    between atoms: C2_3  and  C3_4 
REMARK    3  A    between atoms: C3_4  and  C4_5 
REMARK    4  A    between atoms: C4_5  and  C5_6 
REMARK    5  A    between atoms: C5_6  and  C6_7 
REMARK    6  A    between atoms: N3_9  and  O1_11 
REMARK    7  A    between atoms: C11_17  and  C12_18 
REMARK       I    between atoms: C12_18  and  N4_20 
REMARK    8  A    between atoms: N4_20  and  C13_22 
REMARK       I    between atoms: N5_25  and  C16_26 
REMARK    9  A    between atoms: C16_26  and  C17_28 
REMARK       I    between atoms: N6_29  and  C18_31 
REMARK   10  A    between atoms: C18_31  and  C19_33 
REMARK   11  A    between atoms: C19_33  and  N7_34 
ROOT
HETATM    1  C12 UNL     1       0.245   1.463  -2.142  1.00  0.00     0.249 C 
HETATM    2  O2  UNL     1       0.857   1.839  -3.216  1.00  0.00    -0.271 OA
HETATM    3  N4  UNL     1       0.967   0.551  -1.357  1.00  0.00    -0.353 N 
ATOM      4  H4  UNL     1       0.547   0.203  -0.495  1.00  0.00     0.163 HD
ENDROOT
BRANCH   1   5
HETATM    5  C11 UNL     1      -1.065   2.036  -1.934  1.00  0.00     0.281 C 
HETATM    6  N1  UNL     1      -1.698   1.934  -0.671  1.00  0.00    -0.058 N 
HETATM    7  C1  UNL     1      -0.816   2.197   0.451  1.00  0.00     0.273 C 
HETATM    8  C7  UNL     1      -2.670   3.044  -0.638  1.00  0.00     0.238 C 
HETATM    9  C8  UNL     1      -3.704   2.957  -1.690  1.00  0.00     0.028 C 
HETATM   10  C9  UNL     1      -3.176   2.551  -3.038  1.00  0.00     0.004 C 
HETATM   11  C10 UNL     1      -2.055   1.593  -3.009  1.00  0.00     0.043 C 
BRANCH   6  12
HETATM   12  C2  UNL     1      -2.433   0.729  -0.421  1.00  0.00     0.238 C 
BRANCH  12  13
HETATM   13  C3  UNL     1      -3.257   0.795   0.828  1.00  0.00     0.028 C 
BRANCH  13  14
HETATM   14  C4  UNL     1      -4.004  -0.538   1.042  1.00  0.00     0.009 C 
BRANCH  14  15
HETATM   15  C5  UNL     1      -4.820  -0.433   2.305  1.00  0.00     0.075 C 
BRANCH  15  16
HETATM   16  C6  UNL     1      -5.545  -1.725   2.507  1.00  0.00     0.113 C 
HETATM   17  N2  UNL     1      -6.460  -2.209   1.549  1.00  0.00    -0.086 NA
HETATM   18  N3  UNL     1      -5.313  -2.394   3.583  1.00  0.00    -0.260 N 
ATOM     19  H3  UNL     1      -4.647  -2.026   4.262  1.00  0.00     0.195 HD
BRANCH  18  20
HETATM   20  O1  UNL     1      -5.934  -3.583   3.840  1.00  0.00    -0.289 OA
ATOM     21  H1  UNL     1      -5.763  -4.076   4.634  1.00  0.00     0.244 HD
ENDBRANCH  18  20
ENDBRANCH  15  16
ENDBRANCH  14  15
ENDBRANCH  13  14
ENDBRANCH  12  13
ENDBRANCH   6  12
ENDBRANCH   1   5
BRANCH   3  22
HETATM   22  C13 UNL     1       2.305   0.081  -1.733  1.00  0.00     0.104 C 
HETATM   23  C14 UNL     1       2.236  -1.423  -1.790  1.00  0.00     0.046 C 
HETATM   24  C15 UNL     1       2.554  -1.808  -0.351  1.00  0.00     0.128 C 
HETATM   25  N5  UNL     1       3.647  -0.911  -0.052  1.00  0.00    -0.345 N 
HETATM   26  C16 UNL     1       4.837  -1.195   0.679  1.00  0.00     0.259 C 
HETATM   27  C20 UNL     1       3.306   0.350  -0.643  1.00  0.00     0.151 C 
HETATM   28  O3  UNL     1       5.712  -0.317   0.866  1.00  0.00    -0.267 OA
BRANCH  26  29
HETATM   29  C17 UNL     1       5.071  -2.521   1.235  1.00  0.00     0.165 C 
HETATM   30  N6  UNL     1       6.111  -2.837   1.897  1.00  0.00    -0.330 N 
HETATM   31  C18 UNL     1       7.197  -2.010   2.213  1.00  0.00     0.247 C 
ATOM     32  H6  UNL     1       6.159  -3.798   2.235  1.00  0.00     0.168 HD
HETATM   33  O4  UNL     1       7.135  -1.251   3.200  1.00  0.00    -0.271 OA
BRANCH  31  34
HETATM   34  C19 UNL     1       8.417  -2.030   1.385  1.00  0.00     0.332 C 
BRANCH  34  35
HETATM   35  N7  UNL     1       9.426  -1.109   1.867  1.00  0.00    -0.071 N 
ATOM     36  H73 UNL     1       9.052  -0.163   1.948  1.00  0.00     0.274 HD
ATOM     37  H72 UNL     1       9.644  -1.283   2.848  1.00  0.00     0.274 HD
ATOM     38  H71 UNL     1      10.270  -1.123   1.294  1.00  0.00     0.274 HD
ENDBRANCH  34  35
ENDBRANCH  31  34
ENDBRANCH  26  29
ENDBRANCH   3  22
TORSDOF 11
