REMARK  3 active torsions:
REMARK  status: ('A' for Active; 'I' for Inactive)
REMARK    1  A    between atoms: C3_3  and  C4_4 
REMARK    2  A    between atoms: C5_5  and  C6_6 
REMARK    3  A    between atoms: C6_6  and  C7_7 
ROOT
HETATM    1  C1  UNL     1       3.627   0.529   1.785  1.00  0.00     0.013 C 
HETATM    2  C2  UNL     1       3.320   0.545   0.620  1.00  0.00    -0.105 C 
HETATM    3  C3  UNL     1       2.916   0.565  -0.807  1.00  0.00     0.186 C 
ENDROOT
BRANCH   3   4
HETATM    4  C4  UNL     1       1.494   0.173  -0.887  1.00  0.00    -0.095 C 
HETATM    5  C5  UNL     1       0.335  -0.151  -0.932  1.00  0.00    -0.104 C 
BRANCH   5   6
HETATM    6  C6  UNL     1      -1.090  -0.549  -0.961  1.00  0.00     0.128 C 
BRANCH   6   7
HETATM    7  C7  UNL     1      -1.647  -0.270   0.410  1.00  0.00     0.222 A 
HETATM    8  C8  UNL     1      -3.110  -0.613   0.590  1.00  0.00     0.266 A 
HETATM    9  N1  UNL     1      -2.650   0.752   0.583  1.00  0.00    -0.067 N 
ATOM     10  H12 UNL     1      -2.751   1.525   1.241  1.00  0.00     0.277 HD
ATOM     11  H11 UNL     1      -2.911   1.573   0.036  1.00  0.00     0.277 HD
ENDBRANCH   6   7
ENDBRANCH   5   6
ENDBRANCH   3   4
TORSDOF 3
