REMARK  1 active torsions:
REMARK  status: ('A' for Active; 'I' for Inactive)
REMARK    1  A    between atoms: C2_2  and  N1_3 
ROOT
HETATM    1  N1  UNL     1       0.188  -0.441  -0.292  1.00  0.00    -0.032 N 
HETATM    2  C3  UNL     1      -0.474   0.683  -0.884  1.00  0.00     0.267 C 
HETATM    3  C4  UNL     1      -1.542   1.062   0.104  1.00  0.00     0.262 C 
HETATM    4  N2  UNL     1      -1.788  -0.138   0.897  1.00  0.00    -0.042 N 
ATOM      5  H21 UNL     1      -2.694  -0.564   0.703  1.00  0.00     0.279 HD
ATOM      6  H22 UNL     1      -1.944   0.063   1.885  1.00  0.00     0.279 HD
HETATM    7  C5  UNL     1      -0.694  -1.029   0.676  1.00  0.00     0.413 A 
HETATM    8  C6  UNL     1      -0.413  -1.708  -0.571  1.00  0.00     0.303 A 
ENDROOT
BRANCH   1   9
HETATM    9  C2  UNL     1       1.566  -0.393   0.084  1.00  0.00     0.236 C 
HETATM   10  C1  UNL     1       2.173   0.970   0.004  1.00  0.00     0.035 C 
ENDBRANCH   1   9
TORSDOF 1
