REMARK  0 active torsions:
REMARK  status: ('A' for Active; 'I' for Inactive)
ROOT
HETATM    1  C1  UNL     1       2.501   0.142  -1.008  1.00  0.00     0.030 C 
HETATM    2  C2  UNL     1       1.274   0.421  -0.218  1.00  0.00     0.104 C 
HETATM    3  C3  UNL     1       1.141  -0.496   1.007  1.00  0.00     0.052 C 
HETATM    4  C4  UNL     1      -0.336  -0.220   1.321  1.00  0.00     0.261 C 
HETATM    5  N1  UNL     1      -0.952  -0.047   0.026  1.00  0.00     0.003 N 
HETATM    6  C5  UNL     1      -1.770   1.155   0.033  1.00  0.00     0.296 C 
HETATM    7  C6  UNL     1      -1.742  -1.234  -0.272  1.00  0.00     0.296 C 
HETATM    8  N2  UNL     1       0.048   0.033  -0.921  1.00  0.00    -0.043 NA
ENDROOT
TORSDOF 0
