REMARK  9 active torsions:
REMARK  status: ('A' for Active; 'I' for Inactive)
REMARK       I    between atoms: N3_4  and  C2_6 
REMARK    1  A    between atoms: C2_6  and  C3_8 
REMARK       I    between atoms: N4_12  and  C7_13 
REMARK    2  A    between atoms: C7_13  and  C8_15 
REMARK    3  A    between atoms: C8_15  and  N5_16 
REMARK       I    between atoms: N5_16  and  C9_18 
REMARK    4  A    between atoms: C9_18  and  C10_20 
REMARK       I    between atoms: N6_24  and  C14_25 
REMARK    5  A    between atoms: C14_25  and  C15_27 
REMARK    6  A    between atoms: C15_27  and  C16_28 
REMARK    7  A    between atoms: C16_28  and  C17_29 
REMARK    8  A    between atoms: C17_29  and  C18_30 
REMARK    9  A    between atoms: C18_30  and  C19_31 
ROOT
HETATM    1  N5  UNL     1      -0.949  -2.598   0.778  1.00  0.00    -0.351 N 
ATOM      2  H5  UNL     1      -0.838  -3.595   0.961  1.00  0.00     0.163 HD
HETATM    3  C9  UNL     1       0.131  -1.749   1.116  1.00  0.00     0.241 C 
HETATM    4  O3  UNL     1       0.022  -0.517   0.906  1.00  0.00    -0.271 OA
ENDROOT
BRANCH   1   5
HETATM    5  C8  UNL     1      -2.189  -2.166   0.198  1.00  0.00     0.225 C 
BRANCH   5   6
HETATM    6  C7  UNL     1      -2.011  -1.517  -1.136  1.00  0.00     0.238 C 
HETATM    7  N4  UNL     1      -3.123  -1.016  -1.857  1.00  0.00    -0.337 N 
HETATM    8  C3  UNL     1      -3.069  -0.374  -3.142  1.00  0.00     0.179 C 
HETATM    9  C6  UNL     1      -4.481  -1.067  -1.430  1.00  0.00     0.127 C 
HETATM   10  C4  UNL     1      -4.328  -0.814  -3.823  1.00  0.00     0.037 C 
HETATM   11  C5  UNL     1      -5.264  -1.135  -2.703  1.00  0.00     0.022 C 
HETATM   12  O2  UNL     1      -0.868  -1.407  -1.637  1.00  0.00    -0.272 OA
BRANCH   8  13
HETATM   13  C2  UNL     1      -3.054   1.110  -3.033  1.00  0.00     0.246 C 
HETATM   14  N3  UNL     1      -3.044   1.844  -1.843  1.00  0.00    -0.302 N 
HETATM   15  C1  UNL     1      -3.884   2.706  -1.441  1.00  0.00     0.203 C 
ATOM     16  H3  UNL     1      -2.260   1.663  -1.217  1.00  0.00     0.171 HD
HETATM   17  N1  UNL     1      -5.027   3.074  -2.188  1.00  0.00    -0.066 NA
HETATM   18  N2  UNL     1      -3.625   3.322  -0.163  1.00  0.00    -0.066 NA
HETATM   19  O1  UNL     1      -3.049   1.753  -4.130  1.00  0.00    -0.271 OA
ENDBRANCH   8  13
ENDBRANCH   5   6
ENDBRANCH   1   5
BRANCH   3  20
HETATM   20  C10 UNL     1       1.362  -2.322   1.706  1.00  0.00     0.179 C 
HETATM   21  C11 UNL     1       0.968  -2.912   3.067  1.00  0.00     0.037 C 
HETATM   22  C12 UNL     1       1.828  -2.155   4.065  1.00  0.00     0.022 C 
HETATM   23  C13 UNL     1       2.045  -0.838   3.320  1.00  0.00     0.127 C 
HETATM   24  N6  UNL     1       2.351  -1.322   2.001  1.00  0.00    -0.339 N 
HETATM   25  C14 UNL     1       3.414  -0.893   1.174  1.00  0.00     0.220 C 
HETATM   26  O4  UNL     1       3.587  -1.391   0.025  1.00  0.00    -0.273 OA
BRANCH  25  27
HETATM   27  C15 UNL     1       4.367   0.150   1.607  1.00  0.00     0.103 C 
BRANCH  27  28
HETATM   28  C16 UNL     1       5.355   0.585   0.591  1.00  0.00     0.010 C 
BRANCH  28  29
HETATM   29  C17 UNL     1       4.797   1.203  -0.648  1.00  0.00     0.011 C 
BRANCH  29  30
HETATM   30  C18 UNL     1       3.997   2.465  -0.377  1.00  0.00     0.113 C 
BRANCH  30  31
HETATM   31  C19 UNL     1       4.884   3.468   0.240  1.00  0.00     0.172 C 
HETATM   32  O5  UNL     1       5.106   3.567   1.461  1.00  0.00    -0.648 OA
HETATM   33  O6  UNL     1       5.528   4.381  -0.614  1.00  0.00    -0.648 OA
ENDBRANCH  30  31
ENDBRANCH  29  30
ENDBRANCH  28  29
ENDBRANCH  27  28
ENDBRANCH  25  27
ENDBRANCH   3  20
TORSDOF 9
