REMARK  10 active torsions:
REMARK  status: ('A' for Active; 'I' for Inactive)
REMARK    1  A    between atoms: C5_8  and  C6_9 
REMARK    2  A    between atoms: C9_15  and  N3_16 
REMARK       I    between atoms: N3_16  and  C10_18 
REMARK    3  A    between atoms: C10_18  and  C11_20 
REMARK    4  A    between atoms: C11_20  and  C12_21 
REMARK    5  A    between atoms: C12_21  and  N4_22 
REMARK    6  A    between atoms: N5_25  and  C15_26 
REMARK    7  A    between atoms: C15_26  and  C16_27 
REMARK    8  A    between atoms: C16_27  and  C17_28 
REMARK    9  A    between atoms: C17_28  and  C18_29 
REMARK   10  A    between atoms: C18_29  and  O3_30 
ROOT
HETATM    1  N3  UNL     1      -2.456   0.233   1.281  1.00  0.00    -0.354 N 
ATOM      2  H3  UNL     1      -2.114  -0.074   2.192  1.00  0.00     0.162 HD
HETATM    3  C10 UNL     1      -1.501   0.520   0.270  1.00  0.00     0.219 C 
HETATM    4  O2  UNL     1      -1.925   0.898  -0.847  1.00  0.00    -0.274 OA
ENDROOT
BRANCH   1   5
HETATM    5  C9  UNL     1      -3.872   0.349   1.097  1.00  0.00     0.124 C 
HETATM    6  C6  UNL     1      -4.593  -0.970   1.253  1.00  0.00     0.275 C 
HETATM    7  N2  UNL     1      -4.922  -1.072   2.660  1.00  0.00    -0.062 N 
HETATM    8  C7  UNL     1      -5.044   0.257   3.176  1.00  0.00     0.235 C 
ATOM      9  H22 UNL     1      -5.750  -1.642   2.833  1.00  0.00     0.278 HD
ATOM     10  H21 UNL     1      -4.256  -1.640   3.183  1.00  0.00     0.278 HD
HETATM   11  C8  UNL     1      -4.556   1.212   2.110  1.00  0.00     0.055 C 
BRANCH   6  12
HETATM   12  C5  UNL     1      -5.855  -0.977   0.469  1.00  0.00     0.113 C 
HETATM   13  N1  UNL     1      -6.745  -2.076   0.535  1.00  0.00    -0.315 N 
HETATM   14  C4  UNL     1      -7.970  -2.101  -0.216  1.00  0.00     0.225 C 
ATOM     15  H1  UNL     1      -6.511  -2.870   1.131  1.00  0.00     0.170 HD
HETATM   16  C3  UNL     1      -8.097  -1.126  -1.328  1.00  0.00     0.127 C 
HETATM   17  O1  UNL     1      -8.905  -2.889   0.025  1.00  0.00    -0.273 OA
HETATM   18  C2  UNL     1      -7.341   0.140  -1.091  1.00  0.00     0.087 C 
HETATM   19  C1  UNL     1      -8.286   1.131  -0.445  1.00  0.00     0.032 C 
HETATM   20  N6  UNL     1      -6.169   0.016  -0.289  1.00  0.00    -0.373 N 
ATOM     21  H6  UNL     1      -5.511   0.795  -0.318  1.00  0.00     0.161 HD
ENDBRANCH   6  12
ENDBRANCH   1   5
BRANCH   3  22
HETATM   22  C11 UNL     1      -0.046   0.395   0.478  1.00  0.00     0.130 C 
BRANCH  22  23
HETATM   23  C12 UNL     1       0.695   0.764  -0.765  1.00  0.00     0.247 C 
BRANCH  23  24
HETATM   24  N4  UNL     1       2.115   0.675  -0.666  1.00  0.00    -0.062 N 
HETATM   25  C13 UNL     1       2.454  -0.332   0.323  1.00  0.00     0.265 C 
HETATM   26  C14 UNL     1       3.952  -0.476   0.464  1.00  0.00     0.265 C 
HETATM   27  N5  UNL     1       4.596   0.323  -0.562  1.00  0.00    -0.062 N 
HETATM   28  C19 UNL     1       4.109  -0.159  -1.838  1.00  0.00     0.265 C 
HETATM   29  C21 UNL     1       4.242   1.701  -0.328  1.00  0.00     0.265 C 
HETATM   30  C20 UNL     1       2.664   0.266  -1.961  1.00  0.00     0.265 C 
HETATM   31  C22 UNL     1       2.749   1.927  -0.325  1.00  0.00     0.265 C 
BRANCH  27  32
HETATM   32  C15 UNL     1       6.022   0.177  -0.420  1.00  0.00     0.237 C 
BRANCH  32  33
HETATM   33  C16 UNL     1       6.740  -0.013  -1.715  1.00  0.00     0.030 C 
BRANCH  33  34
HETATM   34  C17 UNL     1       8.223  -0.156  -1.479  1.00  0.00     0.028 C 
BRANCH  34  35
HETATM   35  C18 UNL     1       8.596  -1.316  -0.613  1.00  0.00     0.164 C 
BRANCH  35  36
HETATM   36  O3  UNL     1       9.994  -1.305  -0.498  1.00  0.00    -0.401 OA
ATOM     37  H3  UNL     1      10.231  -2.042   0.052  1.00  0.00     0.209 HD
ENDBRANCH  35  36
ENDBRANCH  34  35
ENDBRANCH  33  34
ENDBRANCH  32  33
ENDBRANCH  27  32
ENDBRANCH  23  24
ENDBRANCH  22  23
ENDBRANCH   3  22
TORSDOF 10
