REMARK  9 active torsions:
REMARK  status: ('A' for Active; 'I' for Inactive)
REMARK    1  A    between atoms: C2_2  and  O1_3 
REMARK    2  A    between atoms: O1_3  and  C3_4 
REMARK    3  A    between atoms: C5_7  and  O3_8 
REMARK    4  A    between atoms: C6_10  and  O4_11 
REMARK    5  A    between atoms: C7_13  and  O5_14 
REMARK    6  A    between atoms: C8_16  and  N1_17 
REMARK    7  A    between atoms: C8_16  and  N2_21 
REMARK    8  A    between atoms: N1_17  and  O6_19 
REMARK    9  A    between atoms: N2_21  and  C9_23 
ROOT
HETATM    1  C1  UNL     1       0.444  -1.669  -0.499  1.00  0.00     0.080 C 
HETATM    2  C2  UNL     1       0.374  -0.300   0.105  1.00  0.00     0.091 C 
HETATM    3  C8  UNL     1       1.310   0.173   0.874  1.00  0.00     0.155 C 
ENDROOT
BRANCH   2   4
HETATM    4  O1  UNL     1      -0.734   0.450  -0.189  1.00  0.00    -0.319 OA
BRANCH   4   5
HETATM    5  C3  UNL     1      -2.055   0.052   0.121  1.00  0.00     0.297 C 
HETATM    6  O2  UNL     1      -2.326  -1.137  -0.520  1.00  0.00    -0.356 OA
HETATM    7  C4  UNL     1      -3.532  -1.613  -0.030  1.00  0.00     0.205 C 
HETATM    8  C5  UNL     1      -4.700  -0.745  -0.320  1.00  0.00     0.173 C 
HETATM    9  C6  UNL     1      -4.443   0.716  -0.282  1.00  0.00     0.182 C 
HETATM   10  C7  UNL     1      -2.997   1.108  -0.347  1.00  0.00     0.205 C 
BRANCH   8  11
HETATM   11  O3  UNL     1      -5.198  -1.088  -1.592  1.00  0.00    -0.391 OA
ATOM     12  H3  UNL     1      -5.946  -0.532  -1.778  1.00  0.00     0.210 HD
ENDBRANCH   8  11
BRANCH   9  13
HETATM   13  O4  UNL     1      -4.952   1.213   0.928  1.00  0.00    -0.390 OA
ATOM     14  H4  UNL     1      -4.787   2.148   0.952  1.00  0.00     0.210 HD
ENDBRANCH   9  13
BRANCH  10  15
HETATM   15  O5  UNL     1      -2.653   1.445  -1.658  1.00  0.00    -0.388 OA
ATOM     16  H5  UNL     1      -3.253   2.118  -1.956  1.00  0.00     0.210 HD
ENDBRANCH  10  15
ENDBRANCH   4   5
ENDBRANCH   2   4
BRANCH   3  17
HETATM   17  N1  UNL     1       1.189   1.478   1.419  1.00  0.00    -0.251 N 
ATOM     18  H1  UNL     1       0.861   2.239   0.825  1.00  0.00     0.196 HD
BRANCH  17  19
HETATM   19  O6  UNL     1       1.496   1.728   2.692  1.00  0.00    -0.288 OA
ATOM     20  H6  UNL     1       1.415   2.601   3.057  1.00  0.00     0.244 HD
ENDBRANCH  17  19
ENDBRANCH   3  17
BRANCH   3  21
HETATM   21  N2  UNL     1       2.465  -0.593   1.187  1.00  0.00    -0.337 N 
ATOM     22  H2  UNL     1       2.397  -1.366   1.849  1.00  0.00     0.168 HD
BRANCH  21  23
HETATM   23  C9  UNL     1       3.713  -0.288   0.582  1.00  0.00     0.072 A 
HETATM   24  C10 UNL     1       3.796   0.757  -0.311  1.00  0.00     0.036 A 
HETATM   25  C11 UNL     1       5.002   1.093  -0.930  1.00  0.00     0.044 A 
HETATM   26  C12 UNL     1       6.151   0.381  -0.661  1.00  0.00     0.119 A 
HETATM   27  F1  UNL     1       7.344   0.689  -1.252  1.00  0.00    -0.206 F 
HETATM   28  C13 UNL     1       6.075  -0.662   0.229  1.00  0.00     0.086 A 
HETATM   29  C14 UNL     1       4.865  -0.995   0.847  1.00  0.00     0.145 A 
HETATM   30  F2  UNL     1       4.812  -2.030   1.723  1.00  0.00    -0.204 F 
ENDBRANCH  21  23
ENDBRANCH   3  21
TORSDOF 9
