REMARK  10 active torsions:
REMARK  status: ('A' for Active; 'I' for Inactive)
REMARK    1  A    between atoms: C2_2  and  O1_3 
REMARK    2  A    between atoms: C2_2  and  C11_24 
REMARK    3  A    between atoms: O1_3  and  N1_4 
REMARK    4  A    between atoms: C5_12  and  O3_13 
REMARK    5  A    between atoms: C5_12  and  C6_15 
REMARK    6  A    between atoms: C6_15  and  O4_16 
REMARK    7  A    between atoms: C8_19  and  C9_20 
REMARK    8  A    between atoms: C9_20  and  C10_21 
REMARK    9  A    between atoms: C11_24  and  O5_25 
REMARK   10  A    between atoms: C11_24  and  O6_27 
ROOT
HETATM    1  N1  UNL     1       1.072  -0.212  -0.604  1.00  0.00    -0.247 N 
ATOM      2  H1  UNL     1       1.330  -1.179  -0.800  1.00  0.00     0.196 HD
HETATM    3  C3  UNL     1      -0.167   0.038  -0.344  1.00  0.00     0.149 C 
HETATM    4  O2  UNL     1      -0.609   1.309  -0.068  1.00  0.00    -0.280 OA
HETATM    5  C4  UNL     1      -1.936   1.637   0.198  1.00  0.00     0.156 C 
HETATM    6  N2  UNL     1      -2.278   2.830   0.556  1.00  0.00    -0.381 N 
ATOM      7  H21 UNL     1      -3.250   3.070   0.751  1.00  0.00     0.158 HD
ATOM      8  H22 UNL     1      -1.593   3.579   0.659  1.00  0.00     0.158 HD
HETATM    9  C5  UNL     1      -2.938   0.541   0.048  1.00  0.00     0.144 C 
HETATM   10  C7  UNL     1      -2.248  -0.719   0.594  1.00  0.00     0.061 C 
HETATM   11  C8  UNL     1      -1.139  -1.106  -0.349  1.00  0.00     0.069 C 
ENDROOT
BRANCH   1  12
HETATM   12  O1  UNL     1       2.051   0.719  -0.635  1.00  0.00    -0.269 OA
BRANCH  12  13
HETATM   13  C2  UNL     1       3.333   0.517  -0.093  1.00  0.00     0.203 C 
HETATM   14  C1  UNL     1       3.659   1.496   1.011  1.00  0.00     0.047 C 
BRANCH  13  15
HETATM   15  C11 UNL     1       4.367   0.688  -1.202  1.00  0.00     0.284 C 
BRANCH  15  16
HETATM   16  O5  UNL     1       4.107  -0.249  -2.188  1.00  0.00    -0.369 OA
ATOM     17  H5  UNL     1       4.751  -0.143  -2.878  1.00  0.00     0.212 HD
ENDBRANCH  15  16
BRANCH  15  18
HETATM   18  O6  UNL     1       5.657   0.570  -0.681  1.00  0.00    -0.369 OA
ATOM     19  H6  UNL     1       6.301   0.676  -1.371  1.00  0.00     0.212 HD
ENDBRANCH  15  18
ENDBRANCH  13  15
ENDBRANCH  12  13
ENDBRANCH   1  12
BRANCH  11  20
HETATM   20  C9  UNL     1      -0.481  -2.354   0.134  1.00  0.00     0.049 C 
BRANCH  20  21
HETATM   21  C10 UNL     1      -1.411  -3.514   0.141  1.00  0.00     0.179 C 
HETATM   22 CL1  UNL     1      -0.477  -4.932   0.737  1.00  0.00    -0.108 Cl
HETATM   23 CL2  UNL     1      -2.051  -3.917  -1.448  1.00  0.00    -0.108 Cl
ENDBRANCH  20  21
ENDBRANCH  11  20
BRANCH   9  24
HETATM   24  O3  UNL     1      -3.240   0.426  -1.288  1.00  0.00    -0.379 OA
ATOM     25  H3  UNL     1      -3.878  -0.272  -1.383  1.00  0.00     0.211 HD
ENDBRANCH   9  24
BRANCH   9  26
HETATM   26  C6  UNL     1      -4.150   0.775   0.907  1.00  0.00     0.210 C 
BRANCH  26  27
HETATM   27  O4  UNL     1      -4.823   1.937   0.565  1.00  0.00    -0.397 OA
ATOM     28  H4  UNL     1      -5.589   2.085   1.108  1.00  0.00     0.209 HD
ENDBRANCH  26  27
ENDBRANCH   9  26
TORSDOF 10
