REMARK  9 active torsions:
REMARK  status: ('A' for Active; 'I' for Inactive)
REMARK    1  A    between atoms: O1_2  and  C2_3 
REMARK    2  A    between atoms: C2_3  and  N2_7 
REMARK    3  A    between atoms: N2_7  and  N3_9 
REMARK    4  A    between atoms: C3_11  and  C4_12 
REMARK    5  A    between atoms: C3_11  and  C6_15 
REMARK    6  A    between atoms: C6_15  and  O3_16 
REMARK    7  A    between atoms: C6_15  and  N4_18 
REMARK    8  A    between atoms: N4_18  and  N5_19 
REMARK       I    between atoms: N5_19  and  C7_21 
REMARK    9  A    between atoms: C7_21  and  C8_23 
ROOT
HETATM    1  C6  UNL     1       0.409   0.650   1.077  1.00  0.00     0.286 C 
ENDROOT
BRANCH   1   2
HETATM    2  C3  UNL     1       1.622   1.481   1.203  1.00  0.00     0.117 C 
HETATM    3  N3  UNL     1       2.540   1.619   0.334  1.00  0.00    -0.294 N 
ATOM      4  H3  UNL     1       3.305   2.235   0.609  1.00  0.00     0.187 HD
BRANCH   3   5
HETATM    5  N2  UNL     1       2.660   1.068  -0.913  1.00  0.00    -0.265 N 
ATOM      6  H2  UNL     1       2.241   1.541  -1.713  1.00  0.00     0.190 HD
BRANCH   5   7
HETATM    7  C2  UNL     1       3.359  -0.153  -1.110  1.00  0.00     0.231 C 
HETATM    8  N1  UNL     1       3.461  -0.698  -2.282  1.00  0.00    -0.364 N 
ATOM      9  H12 UNL     1       3.963  -1.575  -2.423  1.00  0.00     0.159 HD
ATOM     10  H11 UNL     1       3.012  -0.197  -3.049  1.00  0.00     0.159 HD
BRANCH   7  11
HETATM   11  O1  UNL     1       3.971  -0.835  -0.065  1.00  0.00    -0.326 OA
HETATM   12  C1  UNL     1       5.166  -1.596  -0.280  1.00  0.00     0.213 C 
ENDBRANCH   7  11
ENDBRANCH   5   7
ENDBRANCH   3   5
BRANCH   2  13
HETATM   13  C4  UNL     1       1.787   2.221   2.474  1.00  0.00     0.173 C 
HETATM   14  C5  UNL     1       2.956   3.079   2.721  1.00  0.00     0.098 C 
HETATM   15  O2  UNL     1       0.902   2.101   3.341  1.00  0.00    -0.291 OA
ENDBRANCH   2  13
ENDBRANCH   1   2
BRANCH   1  16
HETATM   16  O3  UNL     1      -0.677   1.510   1.322  1.00  0.00    -0.372 OA
ATOM     17  H3  UNL     1      -1.458   0.975   1.241  1.00  0.00     0.212 HD
ENDBRANCH   1  16
BRANCH   1  18
HETATM   18  N4  UNL     1       0.269   0.025  -0.230  1.00  0.00    -0.100 NA
BRANCH  18  19
HETATM   19  N5  UNL     1      -0.889  -0.800  -0.212  1.00  0.00    -0.267 N 
HETATM   20  C7  UNL     1      -2.084  -0.256  -0.719  1.00  0.00     0.270 C 
HETATM   21  O4  UNL     1      -2.068   0.962  -1.171  1.00  0.00    -0.266 OA
ATOM     22  H5  UNL     1      -0.855  -1.751   0.155  1.00  0.00     0.185 HD
BRANCH  20  23
HETATM   23  C8  UNL     1      -3.376  -0.911  -0.800  1.00  0.00     0.072 A 
HETATM   24  C9  UNL     1      -4.503  -0.153  -1.142  1.00  0.00     0.023 A 
HETATM   25  C10 UNL     1      -5.765  -0.696  -1.223  1.00  0.00     0.043 A 
HETATM   26  C11 UNL     1      -5.995  -2.027  -0.969  1.00  0.00     0.119 A 
HETATM   27  F1  UNL     1      -7.250  -2.549  -1.053  1.00  0.00    -0.206 F 
HETATM   28  C12 UNL     1      -4.911  -2.792  -0.632  1.00  0.00     0.085 A 
HETATM   29  C13 UNL     1      -3.625  -2.238  -0.551  1.00  0.00     0.135 A 
HETATM   30  F2  UNL     1      -2.587  -3.043  -0.223  1.00  0.00    -0.205 F 
ENDBRANCH  20  23
ENDBRANCH  18  19
ENDBRANCH   1  18
TORSDOF 9
