REMARK  7 active torsions:
REMARK  status: ('A' for Active; 'I' for Inactive)
REMARK    1  A    between atoms: C2_2  and  C5_5 
REMARK    2  A    between atoms: C9_11  and  C10_12 
REMARK    3  A    between atoms: C10_12  and  C11_13 
REMARK    4  A    between atoms: C11_13  and  C12_14 
REMARK    5  A    between atoms: C12_14  and  C13_15 
REMARK    6  A    between atoms: N4_21  and  C15_23 
REMARK    7  A    between atoms: C15_23  and  C16_24 
ROOT
HETATM    1  C12 UNL     1       0.733   1.107   1.801  1.00  0.00     0.066 C 
ENDROOT
BRANCH   1   2
HETATM    2  C11 UNL     1      -0.193   0.072   2.341  1.00  0.00     0.007 C 
BRANCH   2   3
HETATM    3  C10 UNL     1      -0.996  -0.658   1.286  1.00  0.00     0.005 C 
BRANCH   3   4
HETATM    4  C9  UNL     1      -1.911   0.247   0.518  1.00  0.00    -0.007 C 
HETATM    5  C5  UNL     1      -2.726  -0.354  -0.550  1.00  0.00     0.014 C 
HETATM    6  C6  UNL     1      -3.205   0.823  -1.408  1.00  0.00     0.119 C 
HETATM    7  N1  UNL     1      -3.817   1.867  -0.654  1.00  0.00    -0.421 N 
HETATM    8  C7  UNL     1      -3.093   2.360   0.464  1.00  0.00     0.114 C 
ATOM      9  H1  UNL     1      -4.732   2.242  -0.906  1.00  0.00     0.153 HD
HETATM   10  C8  UNL     1      -2.668   1.218   1.401  1.00  0.00     0.024 C 
BRANCH   5  11
HETATM   11  C2  UNL     1      -3.790  -1.306  -0.350  1.00  0.00    -0.046 C 
HETATM   12  C1  UNL     1      -4.197  -1.792  -1.766  1.00  0.00     0.015 C 
HETATM   13  C3  UNL     1      -5.099  -0.822   0.230  1.00  0.00     0.015 C 
HETATM   14  C4  UNL     1      -3.475  -2.582   0.378  1.00  0.00     0.015 C 
ENDBRANCH   5  11
ENDBRANCH   3   4
ENDBRANCH   2   3
ENDBRANCH   1   2
BRANCH   1  15
HETATM   15  C13 UNL     1       1.774   0.534   0.895  1.00  0.00     0.069 A 
HETATM   16  N2  UNL     1       1.714   0.368  -0.411  1.00  0.00    -0.296 N 
HETATM   17  N3  UNL     1       2.686  -0.136  -1.048  1.00  0.00    -0.279 N 
ATOM     18  H2  UNL     1       0.873   0.649  -0.916  1.00  0.00     0.187 HD
HETATM   19  C14 UNL     1       3.778  -0.497  -0.375  1.00  0.00     0.161 A 
ATOM     20  H3  UNL     1       2.634  -0.263  -2.059  1.00  0.00     0.189 HD
HETATM   21  N4  UNL     1       4.880  -1.031  -0.842  1.00  0.00    -0.369 N 
HETATM   22  S1  UNL     1       3.345  -0.079   1.231  1.00  0.00    -0.038 SA
ATOM     23  H4  UNL     1       4.969  -1.216  -1.841  1.00  0.00     0.161 HD
BRANCH  21  24
HETATM   24  C15 UNL     1       5.975  -1.361   0.054  1.00  0.00     0.126 C 
BRANCH  24  25
HETATM   25  C16 UNL     1       7.228  -0.590  -0.265  1.00  0.00     0.003 A 
HETATM   26  C17 UNL     1       7.845  -0.753  -1.625  1.00  0.00     0.007 A 
HETATM   27  C18 UNL     1       7.203   0.531  -1.239  1.00  0.00     0.007 A 
ENDBRANCH  24  25
ENDBRANCH  21  24
ENDBRANCH   1  15
TORSDOF 7
