REMARK  8 active torsions:
REMARK  status: ('A' for Active; 'I' for Inactive)
REMARK    1  A    between atoms: C2_2  and  N1_3 
REMARK    2  A    between atoms: N1_3  and  C3_5 
REMARK    3  A    between atoms: C3_5  and  C6_9 
REMARK    4  A    between atoms: C6_9  and  C12_16 
REMARK    5  A    between atoms: C7_10  and  C8_11 
REMARK    6  A    between atoms: C8_11  and  C9_12 
REMARK       I    between atoms: C12_16  and  N3_18 
REMARK       I    between atoms: N3_18  and  C13_20 
REMARK    7  A    between atoms: C13_20  and  O4_22 
REMARK    8  A    between atoms: O4_22  and  C14_23 
ROOT
HETATM    1  C3  UNL     1      -1.941   1.677   0.643  1.00  0.00     0.145 C 
HETATM    2  C4  UNL     1      -1.210   3.021   0.181  1.00  0.00     0.060 C 
HETATM    3  C5  UNL     1      -1.930   1.756   2.085  1.00  0.00     0.095 C 
HETATM    4  N2  UNL     1      -1.914   1.847   3.238  1.00  0.00    -0.194 NA
ENDROOT
BRANCH   1   5
HETATM    5  N1  UNL     1      -3.257   1.802   0.122  1.00  0.00    -0.398 N 
ATOM      6  H1  UNL     1      -4.065   1.813   0.744  1.00  0.00     0.155 HD
BRANCH   5   7
HETATM    7  C2  UNL     1      -3.420   1.911  -1.276  1.00  0.00     0.111 C 
HETATM    8  C1  UNL     1      -4.937   2.017  -1.531  1.00  0.00     0.026 C 
ENDBRANCH   5   7
ENDBRANCH   1   5
BRANCH   1   9
HETATM    9  C6  UNL     1      -1.148   0.614   0.017  1.00  0.00     0.051 C 
HETATM   10  C7  UNL     1      -1.487  -0.788  -0.065  1.00  0.00     0.029 C 
BRANCH  10  11
HETATM   11  C8  UNL     1      -1.737  -1.734   1.014  1.00  0.00     0.100 A 
HETATM   12  C11 UNL     1      -2.966  -1.493   1.920  1.00  0.00     0.211 A 
HETATM   13  O1  UNL     1      -1.668  -1.542   2.344  1.00  0.00    -0.371 OA
BRANCH  11  14
HETATM   14  C9  UNL     1      -1.929  -3.226   0.507  1.00  0.00     0.040 C 
HETATM   15  C10 UNL     1      -3.101  -3.282  -0.426  1.00  0.00     0.008 C 
ENDBRANCH  11  14
ENDBRANCH  10  11
BRANCH   9  16
HETATM   16  C12 UNL     1       0.330   0.788   0.382  1.00  0.00     0.259 C 
HETATM   17  O2  UNL     1       0.696   1.564   1.280  1.00  0.00    -0.267 OA
HETATM   18  N3  UNL     1       1.315   0.053  -0.309  1.00  0.00    -0.269 N 
HETATM   19  C13 UNL     1       2.713   0.185   0.013  1.00  0.00     0.368 C 
ATOM     20  H3  UNL     1       1.032  -0.585  -1.052  1.00  0.00     0.174 HD
HETATM   21  O3  UNL     1       3.105   0.962   0.925  1.00  0.00    -0.238 OA
BRANCH  19  22
HETATM   22  O4  UNL     1       3.690  -0.530  -0.655  1.00  0.00    -0.294 OA
BRANCH  22  23
HETATM   23  C14 UNL     1       5.043  -0.405  -0.347  1.00  0.00     0.061 C 
HETATM   24  C15 UNL     1       5.334  -0.785   1.092  1.00  0.00     0.046 C 
HETATM   25  C16 UNL     1       5.810  -1.405  -1.223  1.00  0.00     0.046 C 
HETATM   26  C17 UNL     1       5.632   0.941  -0.604  1.00  0.00     0.046 C 
ENDBRANCH  22  23
ENDBRANCH  19  22
ENDBRANCH   9  16
ENDBRANCH   1   9
TORSDOF 8
