REMARK  8 active torsions:
REMARK  status: ('A' for Active; 'I' for Inactive)
REMARK    1  A    between atoms: N1_2  and  C2_4 
REMARK    2  A    between atoms: C3_7  and  C4_8 
REMARK    3  A    between atoms: C4_8  and  S1_9 
REMARK    4  A    between atoms: S1_9  and  C5_10 
REMARK    5  A    between atoms: C5_10  and  C6_11 
REMARK    6  A    between atoms: C6_11  and  C7_12 
REMARK    7  A    between atoms: C14_19  and  N3_20 
REMARK    8  A    between atoms: C15_22  and  C16_23 
ROOT
HETATM    1  C16 UNL     1       7.268   1.120  -0.634  1.00  0.00     0.168 C 
HETATM    2  C17 UNL     1       8.554   1.828  -0.849  1.00  0.00     0.064 C 
HETATM    3  N4  UNL     1       9.548   2.377  -0.994  1.00  0.00    -0.197 NA
ENDROOT
BRANCH   1   4
HETATM    4  C15 UNL     1       6.168   2.095  -1.028  1.00  0.00     0.076 C 
HETATM    5  N3  UNL     1       4.881   1.663  -0.906  1.00  0.00    -0.355 N 
ATOM      6  H3  UNL     1       4.306   2.465  -1.165  1.00  0.00     0.166 HD
BRANCH   5   7
HETATM    7  C14 UNL     1       4.078   0.765  -0.632  1.00  0.00     0.122 A 
HETATM    8  C13 UNL     1       2.681   1.023  -0.727  1.00  0.00     0.075 A 
HETATM    9  C3  UNL     1       1.813   0.022  -0.421  1.00  0.00     0.039 A 
HETATM   10  N2  UNL     1       2.232  -1.201  -0.032  1.00  0.00    -0.195 N 
HETATM   11  C2  UNL     1       3.555  -1.409   0.046  1.00  0.00     0.679 A 
ATOM     12  H2  UNL     1       1.567  -1.940   0.194  1.00  0.00     0.184 HD
HETATM   13  N5  UNL     1       4.478  -0.457  -0.244  1.00  0.00    -0.177 N 
ATOM     14  H5  UNL     1       5.473  -0.669  -0.167  1.00  0.00     0.186 HD
BRANCH   9  15
HETATM   15  C4  UNL     1       0.350   0.307  -0.520  1.00  0.00     0.131 C 
BRANCH  15  16
HETATM   16  S1  UNL     1      -0.182   0.932   1.092  1.00  0.00    -0.163 SA
BRANCH  16  17
HETATM   17  C5  UNL     1      -1.946   1.289   1.127  1.00  0.00     0.074 C 
BRANCH  17  18
HETATM   18  C6  UNL     1      -2.692  -0.017   0.989  1.00  0.00     0.015 C 
BRANCH  18  19
HETATM   19  C7  UNL     1      -4.196   0.155   1.009  1.00  0.00    -0.014 C 
HETATM   20  C8  UNL     1      -4.809  -1.208   0.865  1.00  0.00     0.005 C 
HETATM   21  C9  UNL     1      -6.236  -1.184   0.404  1.00  0.00     0.000 C 
HETATM   22  C10 UNL     1      -6.472  -0.271  -0.761  1.00  0.00     0.000 C 
HETATM   23  C11 UNL     1      -6.071   1.126  -0.334  1.00  0.00     0.000 C 
HETATM   24  C12 UNL     1      -4.565   1.086  -0.117  1.00  0.00     0.005 C 
ENDBRANCH  18  19
ENDBRANCH  17  18
ENDBRANCH  16  17
ENDBRANCH  15  16
ENDBRANCH   9  15
BRANCH  11  25
HETATM   25  N1  UNL     1       4.025  -2.566   0.415  1.00  0.00    -0.230 N 
HETATM   26  C1  UNL     1       3.118  -3.668   0.752  1.00  0.00     0.165 C 
ATOM     27  H1  UNL     1       5.034  -2.707   0.470  1.00  0.00     0.177 HD
ENDBRANCH  11  25
ENDBRANCH   5   7
ENDBRANCH   1   4
TORSDOF 8
