REMARK  12 active torsions:
REMARK  status: ('A' for Active; 'I' for Inactive)
REMARK    1  A    between atoms: C2_3  and  O1_4 
REMARK    2  A    between atoms: O1_4  and  C3_5 
REMARK    3  A    between atoms: C3_5  and  C4_6 
REMARK    4  A    between atoms: C4_6  and  C5_7 
REMARK    5  A    between atoms: C5_7  and  O2_10 
REMARK    6  A    between atoms: C8_12  and  S1_13 
REMARK    7  A    between atoms: S1_13  and  C9_14 
REMARK    8  A    between atoms: C10_17  and  N3_18 
REMARK    9  A    between atoms: N4_21  and  N5_22 
REMARK   10  A    between atoms: C12_27  and  C13_28 
REMARK   11  A    between atoms: C13_28  and  C14_29 
REMARK   12  A    between atoms: N7_34  and  N8_35 
ROOT
HETATM    1  C9  UNL     1       1.071  -1.463   0.057  1.00  0.00     0.104 A 
HETATM    2  N2  UNL     1       0.534  -2.441  -0.711  1.00  0.00    -0.183 N 
ATOM      3  H2  UNL     1      -0.326  -2.268  -1.232  1.00  0.00     0.185 HD
HETATM    4  C10 UNL     1       1.136  -3.637  -0.785  1.00  0.00     0.700 A 
HETATM    5  N4  UNL     1       2.271  -3.904  -0.114  1.00  0.00    -0.054 N 
HETATM    6  C11 UNL     1       2.851  -2.976   0.662  1.00  0.00     0.291 A 
HETATM    7  O3  UNL     1       3.917  -3.225   1.298  1.00  0.00    -0.265 OA
HETATM    8  C12 UNL     1       2.232  -1.719   0.747  1.00  0.00     0.054 A 
ENDROOT
BRANCH   1   9
HETATM    9  S1  UNL     1       0.211   0.120   0.182  1.00  0.00    -0.049 SA
BRANCH   9  10
HETATM   10  C8  UNL     1      -0.972   0.084   1.511  1.00  0.00     0.132 A 
HETATM   11  C2  UNL     1      -2.280  -0.370   1.322  1.00  0.00     0.183 A 
HETATM   12  N1  UNL     1      -2.873  -0.269   2.505  1.00  0.00    -0.282 N 
HETATM   13  C1  UNL     1      -4.240  -0.613   2.867  1.00  0.00     0.163 C 
HETATM   14  C19 UNL     1      -1.984   0.228   3.408  1.00  0.00     0.329 A 
HETATM   15  N9  UNL     1      -0.813   0.444   2.790  1.00  0.00    -0.299 N 
HETATM   16  O6  UNL     1      -2.242   0.442   4.621  1.00  0.00    -0.246 OA
ATOM     17  H9  UNL     1       0.038   0.813   3.215  1.00  0.00     0.171 HD
BRANCH  11  18
HETATM   18  O1  UNL     1      -2.841  -0.829   0.154  1.00  0.00    -0.333 OA
BRANCH  18  19
HETATM   19  C3  UNL     1      -3.395  -0.015  -0.829  1.00  0.00     0.180 C 
BRANCH  19  20
HETATM   20  C4  UNL     1      -4.544   0.799  -0.324  1.00  0.00     0.063 C 
BRANCH  20  21
HETATM   21  C5  UNL     1      -5.113   1.675  -1.424  1.00  0.00     0.052 C 
HETATM   22  C6  UNL     1      -5.606   0.853  -2.569  1.00  0.00     0.045 C 
HETATM   23  C7  UNL     1      -6.275   2.435  -0.820  1.00  0.00     0.045 C 
BRANCH  21  24
HETATM   24  O2  UNL     1      -4.089   2.549  -1.789  1.00  0.00    -0.391 OA
ATOM     25  H2  UNL     1      -4.445   3.098  -2.478  1.00  0.00     0.210 HD
ENDBRANCH  21  24
ENDBRANCH  20  21
ENDBRANCH  19  20
ENDBRANCH  18  19
ENDBRANCH  11  18
ENDBRANCH   9  10
ENDBRANCH   1   9
BRANCH   8  26
HETATM   26  C13 UNL     1       2.871  -0.671   1.572  1.00  0.00     0.126 C 
BRANCH  26  27
HETATM   27  C14 UNL     1       3.643   0.286   0.779  1.00  0.00     0.112 A 
HETATM   28  N6  UNL     1       3.110   1.294   0.040  1.00  0.00    -0.321 N 
HETATM   29  C15 UNL     1       4.081   1.995  -0.537  1.00  0.00     0.198 A 
ATOM     30  H6  UNL     1       2.113   1.485  -0.058  1.00  0.00     0.169 HD
HETATM   31  C16 UNL     1       5.267   1.419  -0.156  1.00  0.00     0.217 A 
HETATM   32  O5  UNL     1       4.145   3.105  -1.381  1.00  0.00    -0.330 OA
HETATM   33  N7  UNL     1       4.964   0.364   0.658  1.00  0.00    -0.224 N 
HETATM   34  O4  UNL     1       6.446   1.957  -0.620  1.00  0.00    -0.329 OA
HETATM   35  C17 UNL     1       6.560   3.026  -1.526  1.00  0.00     0.204 C 
HETATM   36  C18 UNL     1       5.259   3.300  -2.251  1.00  0.00     0.204 C 
BRANCH  33  37
HETATM   37  N8  UNL     1       5.920  -0.445   1.247  1.00  0.00    -0.335 N 
ATOM     38  H82 UNL     1       5.694  -1.232   1.855  1.00  0.00     0.177 HD
ATOM     39  H81 UNL     1       6.934  -0.385   1.154  1.00  0.00     0.177 HD
ENDBRANCH  33  37
ENDBRANCH  26  27
ENDBRANCH   8  26
BRANCH   4  40
HETATM   40  N3  UNL     1       0.639  -4.591  -1.518  1.00  0.00    -0.233 N 
ATOM     41  H32 UNL     1      -0.222  -4.389  -2.027  1.00  0.00     0.174 HD
ATOM     42  H31 UNL     1       1.097  -5.501  -1.574  1.00  0.00     0.174 HD
ENDBRANCH   4  40
BRANCH   5  43
HETATM   43  N5  UNL     1       2.854  -5.176  -0.230  1.00  0.00    -0.321 N 
ATOM     44  H52 UNL     1       2.413  -5.882  -0.820  1.00  0.00     0.178 HD
ATOM     45  H51 UNL     1       3.715  -5.378   0.279  1.00  0.00     0.178 HD
ENDBRANCH   5  43
TORSDOF 12
