REMARK  13 active torsions:
REMARK  status: ('A' for Active; 'I' for Inactive)
REMARK    1  A    between atoms: C2_2  and  O1_4 
REMARK    2  A    between atoms: C2_2  and  C17_42 
REMARK    3  A    between atoms: O1_4  and  C4_5 
REMARK    4  A    between atoms: C6_8  and  O3_9 
REMARK    5  A    between atoms: C7_11  and  C8_12 
REMARK    6  A    between atoms: N1_13  and  N2_15 
REMARK       I    between atoms: N2_15  and  C9_17 
REMARK    7  A    between atoms: C9_17  and  C10_19 
REMARK    8  A    between atoms: N3_21  and  C12_22 
REMARK    9  A    between atoms: C15_28  and  N6_29 
REMARK   10  A    between atoms: C16_34  and  N8_35 
REMARK   11  A    between atoms: C17_42  and  O5_43 
REMARK   12  A    between atoms: C17_42  and  C18_45 
REMARK   13  A    between atoms: C18_45  and  N11_46 
ROOT
HETATM    1  C12 UNL     1      -6.572   0.101  -1.182  1.00  0.00     0.139 A 
HETATM    2  C13 UNL     1      -6.752   0.185  -2.536  1.00  0.00     0.162 A 
HETATM    3  C14 UNL     1      -6.170  -0.799  -3.377  1.00  0.00     0.120 C 
HETATM    4  N4  UNL     1      -5.709  -1.604  -4.070  1.00  0.00    -0.190 NA
HETATM    5  N5  UNL     1      -7.475   1.196  -3.044  1.00  0.00    -0.180 N 
ATOM      6  H5  UNL     1      -7.607   1.254  -4.054  1.00  0.00     0.185 HD
HETATM    7  C15 UNL     1      -8.029   2.132  -2.257  1.00  0.00     0.678 A 
HETATM    8  N7  UNL     1      -7.851   2.045  -0.945  1.00  0.00    -0.175 N 
ATOM      9  H7  UNL     1      -8.272   2.756  -0.347  1.00  0.00     0.186 HD
HETATM   10  C16 UNL     1      -7.140   1.060  -0.371  1.00  0.00     0.146 A 
ENDROOT
BRANCH   1  11
HETATM   11  N3  UNL     1      -5.803  -0.977  -0.657  1.00  0.00    -0.244 N 
HETATM   12  C11 UNL     1      -4.516  -0.950  -0.244  1.00  0.00     0.155 A 
HETATM   13  C10 UNL     1      -4.145  -2.204   0.195  1.00  0.00     0.136 A 
HETATM   14  N10 UNL     1      -5.240  -2.968   0.033  1.00  0.00    -0.279 N 
HETATM   15  N9  UNL     1      -6.223  -2.210  -0.480  1.00  0.00    -0.235 N 
ATOM     16  H10 UNL     1      -5.312  -3.959   0.262  1.00  0.00     0.189 HD
ATOM     17  H9  UNL     1      -7.161  -2.543  -0.701  1.00  0.00     0.209 HD
BRANCH  13  18
HETATM   18  C9  UNL     1      -2.847  -2.607   0.721  1.00  0.00     0.289 C 
HETATM   19  N2  UNL     1      -1.797  -1.656   0.823  1.00  0.00    -0.265 N 
ATOM     20  H2  UNL     1      -1.950  -0.691   0.529  1.00  0.00     0.190 HD
HETATM   21  O4  UNL     1      -2.653  -3.793   1.084  1.00  0.00    -0.264 OA
BRANCH  19  22
HETATM   22  N1  UNL     1      -0.557  -2.044   1.326  1.00  0.00    -0.308 N 
HETATM   23  C8  UNL     1       0.336  -1.172   1.549  1.00  0.00     0.126 C 
ATOM     24  H1  UNL     1      -0.368  -3.028   1.515  1.00  0.00     0.186 HD
BRANCH  23  25
HETATM   25  C7  UNL     1       1.634  -1.598   2.078  1.00  0.00     0.074 A 
HETATM   26  C4  UNL     1       2.746  -0.823   2.390  1.00  0.00     0.108 A 
HETATM   27  C5  UNL     1       3.692  -1.694   2.864  1.00  0.00     0.182 A 
HETATM   28  O2  UNL     1       3.198  -2.893   2.842  1.00  0.00    -0.297 OA
HETATM   29  C6  UNL     1       1.982  -2.895   2.384  1.00  0.00     0.197 A 
BRANCH  26  30
HETATM   30  O1  UNL     1       2.885   0.500   2.263  1.00  0.00    -0.335 OA
BRANCH  30  31
HETATM   31  C2  UNL     1       3.291   1.418   1.356  1.00  0.00     0.088 C 
HETATM   32  C1  UNL     1       3.105   2.808   2.066  1.00  0.00     0.049 C 
HETATM   33  C3  UNL     1       2.439   1.495   0.100  1.00  0.00     0.049 C 
BRANCH  31  34
HETATM   34  C17 UNL     1       4.730   1.466   0.945  1.00  0.00     0.180 C 
BRANCH  34  35
HETATM   35  O5  UNL     1       5.474   1.691   2.130  1.00  0.00    -0.391 OA
ATOM     36  H5  UNL     1       6.387   1.721   1.869  1.00  0.00     0.210 HD
ENDBRANCH  34  35
BRANCH  34  37
HETATM   37  C18 UNL     1       5.298   0.337   0.194  1.00  0.00     0.306 C 
BRANCH  37  38
HETATM   38  N11 UNL     1       4.635  -0.012  -1.044  1.00  0.00     0.091 N 
HETATM   39  C19 UNL     1       5.328  -1.184  -1.610  1.00  0.00     0.274 C 
HETATM   40  C20 UNL     1       6.217  -0.285  -2.436  1.00  0.00     0.060 C 
HETATM   41  C21 UNL     1       5.107   0.717  -2.208  1.00  0.00     0.274 C 
ENDBRANCH  37  38
ENDBRANCH  34  37
ENDBRANCH  31  34
ENDBRANCH  30  31
ENDBRANCH  26  30
BRANCH  29  42
HETATM   42  O3  UNL     1       1.183  -4.026   2.237  1.00  0.00    -0.340 OA
ATOM     43  H3  UNL     1       0.294  -4.027   1.902  1.00  0.00     0.220 HD
ENDBRANCH  29  42
ENDBRANCH  23  25
ENDBRANCH  19  22
ENDBRANCH  13  18
ENDBRANCH   1  11
BRANCH  10  44
HETATM   44  N8  UNL     1      -6.993   1.014   0.894  1.00  0.00    -0.383 N 
ATOM     45  H82 UNL     1      -6.453   0.266   1.330  1.00  0.00     0.157 HD
ATOM     46  H81 UNL     1      -7.413   1.724   1.494  1.00  0.00     0.157 HD
ENDBRANCH  10  44
BRANCH   7  47
HETATM   47  N6  UNL     1      -8.723   3.095  -2.795  1.00  0.00    -0.234 N 
ATOM     48  H62 UNL     1      -8.860   3.162  -3.804  1.00  0.00     0.174 HD
ATOM     49  H61 UNL     1      -9.144   3.806  -2.197  1.00  0.00     0.174 HD
ENDBRANCH   7  47
TORSDOF 13
