REMARK  11 active torsions:
REMARK  status: ('A' for Active; 'I' for Inactive)
REMARK    1  A    between atoms: C2_2  and  N1_4 
REMARK    2  A    between atoms: C2_2  and  C4_8 
REMARK    3  A    between atoms: C4_8  and  C5_9 
REMARK    4  A    between atoms: C6_10  and  O1_11 
REMARK    5  A    between atoms: N2_13  and  C7_14 
REMARK    6  A    between atoms: C7_14  and  C8_15 
REMARK       I    between atoms: C8_15  and  N3_17 
REMARK    7  A    between atoms: N3_17  and  C9_19 
REMARK    8  A    between atoms: C9_19  and  C11_24 
REMARK    9  A    between atoms: C12_27  and  N7_28 
REMARK       I    between atoms: N7_28  and  C13_30 
REMARK   10  A    between atoms: N10_35  and  C15_36 
REMARK   11  A    between atoms: N11_44  and  N12_45 
ROOT
HETATM    1  C9  UNL     1      -1.604   0.115  -0.874  1.00  0.00     0.162 C 
HETATM    2  N4  UNL     1      -1.370  -0.111  -2.119  1.00  0.00    -0.276 N 
ATOM      3  H4  UNL     1      -0.422  -0.324  -2.430  1.00  0.00     0.179 HD
HETATM    4  C10 UNL     1      -2.409  -0.065  -3.038  1.00  0.00     0.183 C 
HETATM    5  N5  UNL     1      -3.275  -0.014  -3.835  1.00  0.00    -0.172 NA
ENDROOT
BRANCH   1   6
HETATM    6  N3  UNL     1      -0.461   0.047  -0.003  1.00  0.00    -0.308 N 
HETATM    7  C8  UNL     1      -0.483   0.249   1.380  1.00  0.00     0.241 C 
HETATM    8  O2  UNL     1      -1.484   0.517   2.081  1.00  0.00    -0.271 OA
ATOM      9  H3  UNL     1       0.440  -0.166  -0.430  1.00  0.00     0.170 HD
BRANCH   7  10
HETATM   10  C7  UNL     1       0.810   0.140   2.137  1.00  0.00     0.239 C 
BRANCH  10  11
HETATM   11  N2  UNL     1       1.926  -0.180   1.272  1.00  0.00    -0.268 N 
HETATM   12  C6  UNL     1       2.746   0.674   0.623  1.00  0.00     0.172 A 
HETATM   13  C5  UNL     1       3.692  -0.012  -0.104  1.00  0.00     0.092 A 
HETATM   14  N11 UNL     1       3.423  -1.335   0.122  1.00  0.00    -0.212 N 
HETATM   15  C21 UNL     1       2.367  -1.407   0.945  1.00  0.00     0.350 A 
HETATM   16  O4  UNL     1       1.899  -2.530   1.323  1.00  0.00    -0.244 OA
BRANCH  12  17
HETATM   17  O1  UNL     1       2.602   2.042   0.715  1.00  0.00    -0.344 OA
ATOM     18  H1  UNL     1       1.949   2.516   1.217  1.00  0.00     0.219 HD
ENDBRANCH  12  17
BRANCH  13  19
HETATM   19  C4  UNL     1       4.802   0.461  -0.956  1.00  0.00     0.101 C 
BRANCH  19  20
HETATM   20  C2  UNL     1       6.022   0.906  -0.217  1.00  0.00     0.122 C 
HETATM   21  C1  UNL     1       6.604  -0.210   0.626  1.00  0.00     0.046 C 
HETATM   22  C3  UNL     1       5.802   2.118   0.651  1.00  0.00     0.046 C 
BRANCH  20  23
HETATM   23  N1  UNL     1       7.070   1.225  -1.206  1.00  0.00    -0.071 N 
ATOM     24  H13 UNL     1       7.975   1.449  -0.791  1.00  0.00     0.275 HD
ATOM     25  H12 UNL     1       7.386   0.420  -1.747  1.00  0.00     0.275 HD
ATOM     26  H11 UNL     1       6.678   1.976  -1.774  1.00  0.00     0.275 HD
ENDBRANCH  20  23
ENDBRANCH  19  20
ENDBRANCH  13  19
BRANCH  14  27
HETATM   27  N12 UNL     1       4.149  -2.396  -0.430  1.00  0.00    -0.334 N 
ATOM     28 2H12 UNL     1       4.952  -2.341  -1.056  1.00  0.00     0.177 HD
ATOM     29 1H12 UNL     1       3.949  -3.382  -0.262  1.00  0.00     0.177 HD
ENDBRANCH  14  27
ENDBRANCH  10  11
ENDBRANCH   7  10
ENDBRANCH   1   6
BRANCH   1  30
HETATM   30  C11 UNL     1      -2.953   0.395  -0.392  1.00  0.00     0.161 A 
HETATM   31  N6  UNL     1      -3.348   1.616   0.078  1.00  0.00    -0.322 N 
HETATM   32  C12 UNL     1      -4.636   1.572   0.470  1.00  0.00     0.153 A 
ATOM     33  H6  UNL     1      -2.752   2.443   0.125  1.00  0.00     0.169 HD
HETATM   34  C14 UNL     1      -5.065   0.284   0.242  1.00  0.00     0.169 A 
HETATM   35  N9  UNL     1      -6.382  -0.174   0.526  1.00  0.00    -0.078 NA
HETATM   36  N10 UNL     1      -4.026  -0.406  -0.280  1.00  0.00    -0.279 N 
BRANCH  32  37
HETATM   37  N7  UNL     1      -5.413   2.642   1.018  1.00  0.00    -0.294 N 
HETATM   38  C13 UNL     1      -4.875   3.928   1.212  1.00  0.00     0.334 C 
HETATM   39  N8  UNL     1      -3.532   4.199   0.867  1.00  0.00    -0.040 NA
HETATM   40  O3  UNL     1      -5.584   4.836   1.692  1.00  0.00    -0.251 OA
ATOM     41  H7  UNL     1      -6.384   2.467   1.275  1.00  0.00     0.172 HD
ENDBRANCH  32  37
BRANCH  36  42
HETATM   42  C15 UNL     1      -4.099  -1.775  -0.626  1.00  0.00     0.042 A 
HETATM   43  C16 UNL     1      -5.144  -2.256  -1.389  1.00  0.00     0.030 A 
HETATM   44  C17 UNL     1      -5.196  -3.592  -1.709  1.00  0.00     0.002 A 
HETATM   45  C18 UNL     1      -4.220  -4.481  -1.283  1.00  0.00     0.000 A 
HETATM   46  C19 UNL     1      -3.181  -3.991  -0.521  1.00  0.00     0.002 A 
HETATM   47  C20 UNL     1      -3.117  -2.640  -0.190  1.00  0.00     0.030 A 
ENDBRANCH  36  42
ENDBRANCH   1  30
TORSDOF 11
