REMARK  12 active torsions:
REMARK  status: ('A' for Active; 'I' for Inactive)
REMARK    1  A    between atoms: N1_1  and  C1_4 
REMARK    2  A    between atoms: N4_11  and  C5_12 
REMARK    3  A    between atoms: N5_14  and  C7_15 
REMARK    4  A    between atoms: C10_18  and  O1_19 
REMARK    5  A    between atoms: O1_19  and  C11_20 
REMARK    6  A    between atoms: C11_20  and  C12_21 
REMARK    7  A    between atoms: C12_21  and  O2_22 
REMARK    8  A    between atoms: O2_22  and  N6_23 
REMARK    9  A    between atoms: N6_23  and  C13_25 
REMARK   10  A    between atoms: C14_28  and  N8_29 
REMARK   11  A    between atoms: C15_34  and  N10_35 
REMARK   12  A    between atoms: C16_40  and  N12_41 
ROOT
HETATM    1  C7  UNL     1      -1.884   1.262   0.276  1.00  0.00     0.056 A 
HETATM    2  C8  UNL     1      -1.284   0.071   0.570  1.00  0.00     0.034 A 
HETATM    3  C9  UNL     1       0.018  -0.126   0.128  1.00  0.00     0.041 A 
HETATM    4  C10 UNL     1       0.669   0.856  -0.581  1.00  0.00     0.102 A 
HETATM    5  C16 UNL     1       0.051   2.051  -0.869  1.00  0.00     0.138 A 
HETATM    6  C17 UNL     1      -1.244   2.254  -0.433  1.00  0.00     0.070 A 
ENDROOT
BRANCH   4   7
HETATM    7  O1  UNL     1       1.962   0.662  -1.021  1.00  0.00    -0.346 OA
BRANCH   7   8
HETATM    8  C11 UNL     1       2.634  -0.568  -0.739  1.00  0.00     0.204 C 
BRANCH   8   9
HETATM    9  C12 UNL     1       4.033  -0.537  -1.323  1.00  0.00     0.228 C 
BRANCH   9  10
HETATM   10  O2  UNL     1       4.783   0.532  -0.762  1.00  0.00    -0.264 OA
BRANCH  10  11
HETATM   11  N6  UNL     1       6.073   0.787  -1.114  1.00  0.00    -0.095 N 
ATOM     12  H6  UNL     1       6.255   1.455  -1.863  1.00  0.00     0.213 HD
BRANCH  11  13
HETATM   13  C13 UNL     1       7.084   0.210  -0.530  1.00  0.00     0.731 A 
HETATM   14  N7  UNL     1       6.823  -0.667   0.455  1.00  0.00    -0.020 N 
HETATM   15  C14 UNL     1       7.874  -1.272   1.068  1.00  0.00     0.705 A 
ATOM     16  H7  UNL     1       5.864  -0.872   0.734  1.00  0.00     0.203 HD
HETATM   17  N9  UNL     1       9.128  -1.006   0.704  1.00  0.00    -0.022 N 
HETATM   18  C15 UNL     1       9.354  -0.132  -0.276  1.00  0.00     0.705 A 
ATOM     19  H9  UNL     1       9.908  -1.468   1.172  1.00  0.00     0.203 HD
HETATM   20  N11 UNL     1       8.338   0.478  -0.896  1.00  0.00    -0.020 N 
ATOM     21  H11 UNL     1       8.521   1.145  -1.645  1.00  0.00     0.203 HD
BRANCH  15  22
HETATM   22  N8  UNL     1       7.641  -2.112   2.011  1.00  0.00    -0.234 N 
ATOM     23  H82 UNL     1       6.681  -2.316   2.290  1.00  0.00     0.174 HD
ATOM     24  H81 UNL     1       8.430  -2.566   2.471  1.00  0.00     0.174 HD
ENDBRANCH  15  22
BRANCH  18  25
HETATM   25  N10 UNL     1      10.574   0.143  -0.647  1.00  0.00    -0.234 N 
ATOM     26 2H10 UNL     1      11.349  -0.322  -0.174  1.00  0.00     0.174 HD
ATOM     27 1H10 UNL     1      10.747   0.812  -1.397  1.00  0.00     0.174 HD
ENDBRANCH  18  25
ENDBRANCH  11  13
ENDBRANCH  10  11
ENDBRANCH   9  10
ENDBRANCH   8   9
ENDBRANCH   7   8
ENDBRANCH   4   7
BRANCH   5  28
HETATM   28  N12 UNL     1       0.681   3.095  -1.597  1.00  0.00    -0.113 N 
HETATM   29  O3  UNL     1       1.524   2.871  -2.486  1.00  0.00    -0.532 OA
HETATM   30  O4  UNL     1       0.369   4.406  -1.334  1.00  0.00    -0.532 OA
ENDBRANCH   5  28
BRANCH   1  31
HETATM   31  N5  UNL     1      -3.234   1.498   0.720  1.00  0.00    -0.247 N 
HETATM   32  C6  UNL     1      -4.349   0.911   0.210  1.00  0.00     0.165 A 
HETATM   33  C5  UNL     1      -5.456   1.380   0.883  1.00  0.00     0.158 A 
HETATM   34  N14 UNL     1      -4.978   2.247   1.792  1.00  0.00    -0.266 N 
HETATM   35  N13 UNL     1      -3.641   2.307   1.682  1.00  0.00    -0.014 NA
ATOM     36  H14 UNL     1      -5.541   2.775   2.459  1.00  0.00     0.186 HD
BRANCH  33  37
HETATM   37  N4  UNL     1      -6.837   1.085   0.735  1.00  0.00    -0.203 N 
HETATM   38  N3  UNL     1      -7.856   1.942   0.701  1.00  0.00    -0.011 NA
HETATM   39  N2  UNL     1      -9.003   1.298   0.550  1.00  0.00    -0.280 N 
HETATM   40  C4  UNL     1      -8.745  -0.018   0.482  1.00  0.00     0.092 A 
ATOM     41  H2  UNL     1      -9.926   1.729   0.495  1.00  0.00     0.184 HD
HETATM   42  C3  UNL     1      -9.479  -1.183   0.332  1.00  0.00     0.038 A 
HETATM   43  C18 UNL     1      -7.381  -0.146   0.598  1.00  0.00     0.157 A 
HETATM   44  C2  UNL     1      -8.867  -2.418   0.302  1.00  0.00     0.050 A 
HETATM   45  C1  UNL     1      -7.498  -2.509   0.421  1.00  0.00     0.100 A 
HETATM   46  N15 UNL     1      -6.783  -1.356   0.568  1.00  0.00    -0.326 N 
ATOM     47  H15 UNL     1      -5.768  -1.410   0.658  1.00  0.00     0.169 HD
BRANCH  45  48
HETATM   48  N1  UNL     1      -6.929  -3.667   0.392  1.00  0.00    -0.385 N 
ATOM     49  H12 UNL     1      -7.463  -4.529   0.282  1.00  0.00     0.157 HD
ATOM     50  H11 UNL     1      -5.915  -3.734   0.480  1.00  0.00     0.157 HD
ENDBRANCH  45  48
ENDBRANCH  33  37
ENDBRANCH   1  31
TORSDOF 12
