REMARK  2 active torsions:
REMARK  status: ('A' for Active; 'I' for Inactive)
REMARK    1  A    between atoms: S1_2  and  C2_3 
REMARK    2  A    between atoms: N2_5  and  C3_7 
ROOT
HETATM    1  C2  UNL     1       0.299   0.829  -0.052  1.00  0.00     0.155 C 
HETATM    2  N1  UNL     1       1.059   1.992   0.250  1.00  0.00    -0.075 NA
HETATM    3  N2  UNL     1      -0.901   0.982  -0.498  1.00  0.00    -0.330 N 
ATOM      4  H2  UNL     1      -1.274   1.923  -0.623  1.00  0.00     0.168 HD
ENDROOT
BRANCH   3   5
HETATM    5  C3  UNL     1      -1.711  -0.138  -0.817  1.00  0.00     0.072 C 
HETATM    6  C4  UNL     1      -2.706  -0.710   0.116  1.00  0.00     0.088 C 
HETATM    7  N3  UNL     1      -1.580  -0.685  -1.965  1.00  0.00    -0.389 N 
ATOM      8  H32 UNL     1      -0.894  -0.291  -2.608  1.00  0.00     0.157 HD
ATOM      9  H31 UNL     1      -2.162  -1.490  -2.194  1.00  0.00     0.157 HD
ENDBRANCH   3   5
BRANCH   1  10
HETATM   10  S1  UNL     1       0.942  -0.817   0.162  1.00  0.00    -0.102 SA
HETATM   11  C1  UNL     1       2.615  -0.837   0.787  1.00  0.00     0.098 C 
ENDBRANCH   1  10
TORSDOF 2
