REMARK  2 active torsions:
REMARK  status: ('A' for Active; 'I' for Inactive)
REMARK    1  A    between atoms: C3_3  and  N1_4 
REMARK    2  A    between atoms: C6_11  and  O1_12 
ROOT
HETATM    1  C1  UNL     1      -1.653  -1.405  -0.536  1.00  0.00     0.016 C 
HETATM    2  C2  UNL     1      -0.541  -0.400  -0.381  1.00  0.00     0.073 C 
HETATM    3  C3  UNL     1      -0.836   0.664   0.631  1.00  0.00     0.219 C 
HETATM    4  C4  UNL     1       0.547   1.139   1.016  1.00  0.00     0.308 C 
HETATM    5  N2  UNL     1       1.489   0.187   0.505  1.00  0.00     0.115 N 
HETATM    6  C5  UNL     1       2.053   0.600  -0.774  1.00  0.00     0.313 C 
HETATM    7  C6  UNL     1       0.686  -1.023   0.300  1.00  0.00     0.361 C 
ENDROOT
BRANCH   3   8
HETATM    8  N1  UNL     1      -1.583   1.775   0.118  1.00  0.00    -0.073 N 
ATOM      9  H13 UNL     1      -1.113   2.176  -0.694  1.00  0.00     0.274 HD
ATOM     10  H12 UNL     1      -2.445   1.452  -0.321  1.00  0.00     0.274 HD
ATOM     11  H11 UNL     1      -1.784   2.500   0.807  1.00  0.00     0.274 HD
ENDBRANCH   3   8
BRANCH   7  12
HETATM   12  O1  UNL     1       1.305  -1.956  -0.469  1.00  0.00    -0.367 OA
ATOM     13  H1  UNL     1       2.064  -2.341  -0.048  1.00  0.00     0.212 HD
ENDBRANCH   7  12
TORSDOF 2
