REMARK  1 active torsions:
REMARK  status: ('A' for Active; 'I' for Inactive)
REMARK    1  A    between atoms: C5_6  and  O2_7 
ROOT
HETATM    1  C1  UNL     1      -2.277   1.005   0.160  1.00  0.00     0.078 C 
HETATM    2  C2  UNL     1      -0.958   0.226   0.179  1.00  0.00     0.156 C 
HETATM    3  C3  UNL     1      -1.317  -1.215   0.426  1.00  0.00     0.078 C 
HETATM    4  O1  UNL     1      -0.236   0.737   1.266  1.00  0.00    -0.353 OA
HETATM    5  C4  UNL     1       1.022   0.164   1.346  1.00  0.00     0.205 C 
HETATM    6  C5  UNL     1       1.812   0.338   0.064  1.00  0.00     0.165 C 
HETATM    7  C6  UNL     1       0.943  -0.007  -1.126  1.00  0.00     0.205 C 
HETATM    8  O3  UNL     1      -0.342   0.449  -1.025  1.00  0.00    -0.353 OA
ENDROOT
BRANCH   6   9
HETATM    9  O2  UNL     1       2.925  -0.467   0.143  1.00  0.00    -0.391 OA
ATOM     10  H2  UNL     1       3.420  -0.358  -0.660  1.00  0.00     0.210 HD
ENDBRANCH   6   9
TORSDOF 1
