REMARK  2 active torsions:
REMARK  status: ('A' for Active; 'I' for Inactive)
REMARK    1  A    between atoms: C3_4  and  O1_6 
REMARK    2  A    between atoms: C6_9  and  O2_10 
ROOT
HETATM    1  C1  UNL     1       2.469  -0.544   0.065  1.00  0.00     0.313 C 
HETATM    2  N1  UNL     1       1.157  -0.127  -0.298  1.00  0.00     0.115 N 
HETATM    3  C2  UNL     1       0.122  -1.075  -0.051  1.00  0.00     0.312 C 
HETATM    4  C3  UNL     1      -1.103  -0.294   0.333  1.00  0.00     0.085 C 
HETATM    5  C4  UNL     1      -1.938   0.094  -0.857  1.00  0.00     0.047 C 
HETATM    6  C5  UNL     1      -0.545   0.963   0.944  1.00  0.00     0.103 C 
HETATM    7  C6  UNL     1       0.760   1.149   0.199  1.00  0.00     0.359 C 
ENDROOT
BRANCH   4   8
HETATM    8  O1  UNL     1      -1.808  -1.022   1.279  1.00  0.00    -0.388 OA
ATOM      9  H1  UNL     1      -2.582  -0.528   1.522  1.00  0.00     0.210 HD
ENDBRANCH   4   8
BRANCH   7  10
HETATM   10  O2  UNL     1       0.482   1.969  -0.906  1.00  0.00    -0.368 OA
ATOM     11  H2  UNL     1       0.217   2.819  -0.575  1.00  0.00     0.212 HD
ENDBRANCH   7  10
TORSDOF 2
