REMARK  10 active torsions:
REMARK  status: ('A' for Active; 'I' for Inactive)
REMARK       I    between atoms: N1_2  and  C2_4 
REMARK    1  A    between atoms: C2_4  and  C3_6 
REMARK    2  A    between atoms: C3_6  and  C4_11 
REMARK    3  A    between atoms: N2_7  and  O2_9 
REMARK    4  A    between atoms: C6_15  and  C7_16 
REMARK    5  A    between atoms: C8_22  and  N6_23 
REMARK    6  A    between atoms: C9_28  and  N8_29 
REMARK    7  A    between atoms: N8_29  and  C10_31 
REMARK    8  A    between atoms: C10_31  and  C11_32 
REMARK    9  A    between atoms: C11_32  and  C12_33 
REMARK   10  A    between atoms: C14_37  and  C15_38 
ROOT
HETATM    1  C4  UNL     1      -2.414  -0.779   0.625  1.00  0.00     0.058 A 
HETATM    2  C5  UNL     1      -3.597  -0.150   0.837  1.00  0.00     0.107 A 
HETATM    3  N3  UNL     1      -3.681   1.217   0.722  1.00  0.00    -0.349 N 
ATOM      4  H3  UNL     1      -4.582   1.666   0.886  1.00  0.00     0.167 HD
HETATM    5  C6  UNL     1      -2.640   1.980   0.406  1.00  0.00     0.139 A 
HETATM    6  N7  UNL     1      -1.468   1.340   0.198  1.00  0.00    -0.326 N 
ATOM      7  H7  UNL     1      -0.659   1.911  -0.046  1.00  0.00     0.169 HD
HETATM    8  C9  UNL     1      -1.282   0.013   0.286  1.00  0.00     0.120 A 
ENDROOT
BRANCH   8   9
HETATM    9  N8  UNL     1      -0.238  -0.585   0.105  1.00  0.00    -0.355 N 
ATOM     10  H8  UNL     1      -0.473  -1.566   0.258  1.00  0.00     0.166 HD
BRANCH   9  11
HETATM   11  C10 UNL     1       1.116  -0.593  -0.207  1.00  0.00     0.068 C 
BRANCH  11  12
HETATM   12  C11 UNL     1       1.642   0.709  -0.635  1.00  0.00     0.106 C 
BRANCH  12  13
HETATM   13  C12 UNL     1       3.053   0.824  -1.002  1.00  0.00     0.064 A 
HETATM   14  N9  UNL     1       3.524   2.070  -1.279  1.00  0.00    -0.365 N 
HETATM   15  C13 UNL     1       4.796   2.314  -1.624  1.00  0.00     0.106 A 
ATOM     16  H9  UNL     1       2.878   2.857  -1.221  1.00  0.00     0.165 HD
HETATM   17  C14 UNL     1       5.732   1.307  -1.724  1.00  0.00     0.060 A 
HETATM   18  C16 UNL     1       5.302   0.046  -1.455  1.00  0.00     0.076 A 
HETATM   19  C17 UNL     1       3.946  -0.220  -1.087  1.00  0.00     0.195 A 
HETATM   20  O6  UNL     1       3.583  -1.440  -0.839  1.00  0.00    -0.286 OA
BRANCH  17  21
HETATM   21  C15 UNL     1       7.120   1.576  -2.100  1.00  0.00     0.210 C 
HETATM   22  O4  UNL     1       7.531   2.737  -2.353  1.00  0.00    -0.644 OA
HETATM   23  O5  UNL     1       8.038   0.550  -2.192  1.00  0.00    -0.644 OA
ENDBRANCH  17  21
ENDBRANCH  12  13
ENDBRANCH  11  12
ENDBRANCH   9  11
ENDBRANCH   8   9
BRANCH   1  24
HETATM   24  C3  UNL     1      -2.234  -2.252   0.726  1.00  0.00     0.137 C 
HETATM   25  N2  UNL     1      -1.067  -2.716   0.500  1.00  0.00    -0.263 N 
ATOM     26  H2  UNL     1      -0.407  -1.970   0.279  1.00  0.00     0.194 HD
BRANCH  24  27
HETATM   27  C2  UNL     1      -3.281  -3.186   1.054  1.00  0.00     0.270 C 
HETATM   28  N1  UNL     1      -3.150  -4.587   1.155  1.00  0.00    -0.360 N 
HETATM   29  C1  UNL     1      -4.301  -5.410   1.497  1.00  0.00     0.149 C 
ATOM     30  H1  UNL     1      -2.244  -5.025   0.988  1.00  0.00     0.162 HD
HETATM   31  O1  UNL     1      -4.471  -2.753   1.288  1.00  0.00    -0.266 OA
ENDBRANCH  24  27
BRANCH  25  32
HETATM   32  O2  UNL     1      -0.490  -3.882   0.475  1.00  0.00    -0.289 OA
ATOM     33  H2  UNL     1       0.379  -4.227   0.307  1.00  0.00     0.244 HD
ENDBRANCH  25  32
ENDBRANCH   1  24
BRANCH   5  34
HETATM   34  C7  UNL     1      -2.731   3.433   0.283  1.00  0.00     0.145 A 
HETATM   35  N4  UNL     1      -1.677   4.242  -0.041  1.00  0.00    -0.234 N 
HETATM   36  O3  UNL     1      -2.077   5.473  -0.070  1.00  0.00    -0.155 OA
ATOM     37  H4  UNL     1      -0.726   3.926  -0.230  1.00  0.00     0.197 HD
HETATM   38  N5  UNL     1      -3.337   5.521   0.218  1.00  0.00    -0.224 N 
HETATM   39  C8  UNL     1      -3.792   4.245   0.449  1.00  0.00     0.154 A 
ATOM     40  H5  UNL     1      -3.902   6.369   0.266  1.00  0.00     0.198 HD
BRANCH  39  41
HETATM   41  N6  UNL     1      -4.994   3.934   0.760  1.00  0.00    -0.382 N 
ATOM     42  H62 UNL     1      -5.332   2.987   0.931  1.00  0.00     0.157 HD
ATOM     43  H61 UNL     1      -5.798   4.549   0.886  1.00  0.00     0.157 HD
ENDBRANCH  39  41
ENDBRANCH   5  34
TORSDOF 10
