REMARK  12 active torsions:
REMARK  status: ('A' for Active; 'I' for Inactive)
REMARK    1  A    between atoms: N3_5  and  O1_6 
REMARK    2  A    between atoms: C3_9  and  C4_10 
REMARK    3  A    between atoms: C4_10  and  N4_11 
REMARK    4  A    between atoms: N4_11  and  N5_12 
REMARK    5  A    between atoms: N5_12  and  C5_14 
REMARK    6  A    between atoms: C6_15  and  O2_16 
REMARK    7  A    between atoms: C8_19  and  O3_20 
REMARK    8  A    between atoms: C9_22  and  C10_23 
REMARK    9  A    between atoms: C10_23  and  S1_24 
REMARK   10  A    between atoms: S1_24  and  N6_25 
REMARK   11  A    between atoms: C11_30  and  O6_31 
REMARK   12  A    between atoms: N7_37  and  O7_38 
ROOT
HETATM    1  N5  UNL     1      -0.694  -1.797  -0.316  1.00  0.00    -0.299 N 
ATOM      2  H5  UNL     1      -0.989  -2.151  -1.226  1.00  0.00     0.182 HD
ENDROOT
BRANCH   1   3
HETATM    3  N4  UNL     1       0.649  -1.870  -0.130  1.00  0.00    -0.136 NA
BRANCH   3   4
HETATM    4  C4  UNL     1       1.309  -0.551  -0.269  1.00  0.00     0.175 C 
BRANCH   4   5
HETATM    5  C3  UNL     1       2.785  -0.756  -0.264  1.00  0.00    -0.009 A 
HETATM    6  C2  UNL     1       3.643   0.328  -0.377  1.00  0.00     0.118 A 
HETATM    7  N3  UNL     1       3.196   1.567  -0.405  1.00  0.00    -0.158 N 
HETATM    8  C15 UNL     1       5.005   0.163  -0.482  1.00  0.00     0.097 A 
HETATM    9  N2  UNL     1       4.015   2.596  -0.515  1.00  0.00    -0.245 N 
HETATM   10  C1  UNL     1       5.334   2.439  -0.617  1.00  0.00     0.236 A 
ATOM     11  H2  UNL     1       3.627   3.539  -0.522  1.00  0.00     0.192 HD
HETATM   12  N1  UNL     1       6.204   3.572  -0.770  1.00  0.00    -0.060 NA
HETATM   13  N7  UNL     1       5.876   1.183  -0.606  1.00  0.00    -0.191 N 
HETATM   14  C14 UNL     1       5.572  -1.090  -0.502  1.00  0.00     0.034 A 
HETATM   15  C13 UNL     1       4.765  -2.170  -0.393  1.00  0.00     0.003 A 
HETATM   16  C12 UNL     1       3.395  -1.990  -0.268  1.00  0.00     0.011 A 
BRANCH   7  17
HETATM   17  O1  UNL     1       1.885   1.866  -0.286  1.00  0.00    -0.267 OA
ATOM     18  H1  UNL     1       1.295   1.125  -0.207  1.00  0.00     0.247 HD
ENDBRANCH   7  17
BRANCH  13  19
HETATM   19  O7  UNL     1       7.226   1.067  -0.734  1.00  0.00    -0.280 OA
ATOM     20  H7  UNL     1       7.602   0.195  -0.726  1.00  0.00     0.245 HD
ENDBRANCH  13  19
ENDBRANCH   4   5
ENDBRANCH   3   4
ENDBRANCH   1   3
BRANCH   1  21
HETATM   21  C5  UNL     1      -1.762  -1.344   0.465  1.00  0.00     0.112 A 
HETATM   22  C6  UNL     1      -1.712  -1.303   1.810  1.00  0.00     0.098 A 
HETATM   23  C7  UNL     1      -2.774  -0.800   2.534  1.00  0.00     0.076 A 
HETATM   24  C8  UNL     1      -3.871  -0.339   1.970  1.00  0.00     0.082 A 
HETATM   25  C9  UNL     1      -3.984  -0.366   0.494  1.00  0.00     0.045 A 
HETATM   26  C11 UNL     1      -2.936  -0.863  -0.189  1.00  0.00     0.110 A 
BRANCH  22  27
HETATM   27  O2  UNL     1      -0.599  -1.751   2.573  1.00  0.00    -0.358 OA
ATOM     28  H2  UNL     1      -0.564  -1.722   3.522  1.00  0.00     0.217 HD
ENDBRANCH  22  27
BRANCH  24  29
HETATM   29  O3  UNL     1      -4.968   0.202   2.592  1.00  0.00    -0.360 OA
ATOM     30  H3  UNL     1      -5.759   0.535   2.185  1.00  0.00     0.217 HD
ENDBRANCH  24  29
BRANCH  25  31
HETATM   31  C10 UNL     1      -5.344   0.034   0.107  1.00  0.00     0.148 C 
BRANCH  31  32
HETATM   32  S1  UNL     1      -5.764   1.398  -0.846  1.00  0.00     0.247 S 
HETATM   33  O4  UNL     1      -4.850   2.614  -0.233  1.00  0.00    -0.202 OA
HETATM   34  O5  UNL     1      -7.162   1.926  -0.379  1.00  0.00    -0.202 OA
BRANCH  32  35
HETATM   35  N6  UNL     1      -5.625   1.603  -2.487  1.00  0.00    -0.325 N 
ATOM     36  H62 UNL     1      -5.235   0.800  -2.981  1.00  0.00     0.169 HD
ATOM     37  H61 UNL     1      -5.875   2.414  -3.053  1.00  0.00     0.169 HD
ENDBRANCH  32  35
ENDBRANCH  31  32
ENDBRANCH  25  31
BRANCH  26  38
HETATM   38  O6  UNL     1      -2.974  -0.932  -1.550  1.00  0.00    -0.357 OA
ATOM     39  H6  UNL     1      -3.755  -0.612  -1.985  1.00  0.00     0.217 HD
ENDBRANCH  26  38
ENDBRANCH   1  21
TORSDOF 12
