REMARK  8 active torsions:
REMARK  status: ('A' for Active; 'I' for Inactive)
REMARK    1  A    between atoms: C2_2  and  C3_3 
REMARK    2  A    between atoms: C3_3  and  C4_4 
REMARK    3  A    between atoms: N3_11  and  C6_12 
REMARK    4  A    between atoms: C9_15  and  N4_16 
REMARK       I    between atoms: N4_16  and  C10_18 
REMARK    5  A    between atoms: C10_18  and  C11_20 
REMARK    6  A    between atoms: C12_23  and  N6_24 
REMARK    7  A    between atoms: C14_31  and  C15_32 
REMARK       I    between atoms: C15_32  and  N9_34 
REMARK    8  A    between atoms: N9_34  and  N10_36 
ROOT
HETATM    1  C6  UNL     1      -1.021  -0.287  -1.341  1.00  0.00     0.121 A 
HETATM    2  C7  UNL     1      -1.131   0.935  -0.736  1.00  0.00     0.052 A 
HETATM    3  C8  UNL     1      -0.405   1.229   0.414  1.00  0.00     0.036 A 
HETATM    4  C9  UNL     1       0.445   0.264   0.952  1.00  0.00     0.068 A 
HETATM    5  C14 UNL     1       0.544  -0.947   0.334  1.00  0.00     0.131 A 
HETATM    6  N11 UNL     1      -0.204  -1.193  -0.813  1.00  0.00    -0.335 N 
ATOM      7  H11 UNL     1      -0.122  -2.103  -1.266  1.00  0.00     0.168 HD
ENDROOT
BRANCH   4   8
HETATM    8  N4  UNL     1       1.077   0.556   2.161  1.00  0.00    -0.318 N 
HETATM    9  C10 UNL     1       1.366   1.802   2.741  1.00  0.00     0.292 C 
HETATM   10  O3  UNL     1       1.081   2.867   2.189  1.00  0.00    -0.264 OA
ATOM     11  H4  UNL     1       1.373  -0.255   2.704  1.00  0.00     0.169 HD
BRANCH   9  12
HETATM   12  C11 UNL     1       2.025   1.879   4.037  1.00  0.00     0.204 A 
HETATM   13  N5  UNL     1       2.448   2.994   4.683  1.00  0.00    -0.169 N 
HETATM   14  C12 UNL     1       2.997   2.677   5.856  1.00  0.00     0.694 A 
ATOM     15  H5  UNL     1       2.359   3.944   4.322  1.00  0.00     0.186 HD
HETATM   16  N7  UNL     1       2.934   1.357   5.978  1.00  0.00    -0.127 N 
HETATM   17  C13 UNL     1       3.395   0.573   7.084  1.00  0.00     0.197 C 
HETATM   18  N8  UNL     1       2.349   0.876   4.883  1.00  0.00    -0.264 N 
ATOM     19  H8  UNL     1       2.170  -0.113   4.707  1.00  0.00     0.189 HD
BRANCH  14  20
HETATM   20  N6  UNL     1       3.494   3.511   6.690  1.00  0.00    -0.233 N 
ATOM     21  H62 UNL     1       3.542   4.526   6.596  1.00  0.00     0.174 HD
ATOM     22  H61 UNL     1       3.914   3.268   7.587  1.00  0.00     0.174 HD
ENDBRANCH  14  20
ENDBRANCH   9  12
ENDBRANCH   4   8
BRANCH   5  23
HETATM   23  C15 UNL     1       1.441  -1.978   0.774  1.00  0.00     0.288 C 
HETATM   24  O4  UNL     1       2.217  -1.889   1.706  1.00  0.00    -0.264 OA
HETATM   25  N9  UNL     1       1.447  -3.241   0.072  1.00  0.00    -0.271 N 
ATOM     26  H9  UNL     1       0.811  -3.365  -0.715  1.00  0.00     0.189 HD
BRANCH  25  27
HETATM   27  N10 UNL     1       2.289  -4.301   0.427  1.00  0.00    -0.342 N 
ATOM     28 2H10 UNL     1       2.919  -4.160   1.217  1.00  0.00     0.176 HD
ATOM     29 1H10 UNL     1       2.293  -5.193  -0.069  1.00  0.00     0.176 HD
ENDBRANCH  25  27
ENDBRANCH   5  23
BRANCH   1  30
HETATM   30  N3  UNL     1      -1.816  -0.548  -2.492  1.00  0.00    -0.240 N 
HETATM   31  C5  UNL     1      -3.111  -0.074  -2.804  1.00  0.00     0.204 C 
HETATM   32  N1  UNL     1      -3.527  -0.223  -3.958  1.00  0.00    -0.335 N 
HETATM   33  N2  UNL     1      -3.923   0.564  -1.780  1.00  0.00    -0.062 NA
HETATM   34  C3  UNL     1      -2.744  -0.842  -4.951  1.00  0.00     0.190 C 
ATOM     35  H1  UNL     1      -4.461   0.111  -4.197  1.00  0.00     0.164 HD
HETATM   36  S1  UNL     1      -1.399  -1.547  -3.914  1.00  0.00    -0.000 SA
BRANCH  34  37
HETATM   37  C2  UNL     1      -2.184   0.057  -6.020  1.00  0.00     0.051 C 
HETATM   38  C1  UNL     1      -1.427   1.237  -5.538  1.00  0.00     0.009 C 
ENDBRANCH  34  37
BRANCH  34  39
HETATM   39  C4  UNL     1      -3.478  -1.994  -5.525  1.00  0.00     0.215 C 
HETATM   40  O1  UNL     1      -4.616  -2.298  -5.112  1.00  0.00    -0.645 OA
HETATM   41  O2  UNL     1      -2.887  -2.728  -6.527  1.00  0.00    -0.645 OA
ENDBRANCH  34  39
ENDBRANCH   1  30
TORSDOF 8
