REMARK  4 active torsions:
REMARK  status: ('A' for Active; 'I' for Inactive)
REMARK    1  A    between atoms: O1_2  and  C2_3 
REMARK    2  A    between atoms: C2_3  and  C3_5 
REMARK    3  A    between atoms: C4_6  and  N1_7 
REMARK       I    between atoms: N1_7  and  C5_9 
REMARK       I    between atoms: C5_9  and  N2_11 
REMARK    4  A    between atoms: N2_11  and  C6_13 
ROOT
HETATM    1  C3  UNL     1      -1.371  -0.232  -0.004  1.00  0.00     0.107 A 
HETATM    2  C4  UNL     1      -0.600  -0.228  -1.108  1.00  0.00     0.097 A 
HETATM    3  S1  UNL     1      -1.407  -1.473  -2.089  1.00  0.00    -0.073 SA
HETATM    4  C9  UNL     1      -2.635  -1.902  -1.026  1.00  0.00     0.019 A 
HETATM    5  C10 UNL     1      -2.431  -1.105   0.050  1.00  0.00     0.101 A 
HETATM    6  O4  UNL     1      -3.393  -1.327   1.089  1.00  0.00    -0.349 OA
HETATM    7  C11 UNL     1      -3.822  -2.642   1.411  1.00  0.00     0.176 C 
HETATM    8  C12 UNL     1      -3.640  -3.630   0.301  1.00  0.00     0.032 C 
HETATM    9  C13 UNL     1      -3.801  -2.869  -0.996  1.00  0.00     0.051 C 
ENDROOT
BRANCH   2  10
HETATM   10  N1  UNL     1       0.663   0.294  -1.494  1.00  0.00    -0.302 N 
HETATM   11  C5  UNL     1       1.752   0.584  -0.735  1.00  0.00     0.321 C 
HETATM   12  O3  UNL     1       1.906   0.378   0.474  1.00  0.00    -0.247 OA
HETATM   13  N2  UNL     1       2.899   1.212  -1.372  1.00  0.00    -0.339 N 
ATOM     14  H2  UNL     1       2.850   1.415  -2.370  1.00  0.00     0.164 HD
ATOM     15  H1  UNL     1       0.769   0.479  -2.491  1.00  0.00     0.171 HD
BRANCH  13  16
HETATM   16  C6  UNL     1       4.094   1.559  -0.662  1.00  0.00     0.078 C 
HETATM   17  C7  UNL     1       5.259   0.842  -1.290  1.00  0.00     0.032 C 
HETATM   18  C8  UNL     1       4.254   3.063  -0.734  1.00  0.00     0.032 C 
ENDBRANCH  13  16
ENDBRANCH   2  10
BRANCH   1  19
HETATM   19  C2  UNL     1      -1.260   0.873   1.029  1.00  0.00     0.298 C 
HETATM   20  O2  UNL     1      -0.527   1.854   0.906  1.00  0.00    -0.259 OA
BRANCH  19  21
HETATM   21  O1  UNL     1      -2.013   0.814   2.200  1.00  0.00    -0.322 OA
HETATM   22  C1  UNL     1      -1.889   1.852   3.142  1.00  0.00     0.213 C 
ENDBRANCH  19  21
ENDBRANCH   1  19
TORSDOF 4
