REMARK  4 active torsions:
REMARK  status: ('A' for Active; 'I' for Inactive)
REMARK    1  A    between atoms: N2_10  and  C8_11 
REMARK    2  A    between atoms: C8_11  and  C9_12 
REMARK    3  A    between atoms: C11_14  and  O1_15 
REMARK    4  A    between atoms: C12_17  and  O2_18 
ROOT
HETATM    1  C1  UNL     1      -3.161  -2.503  -0.464  1.00  0.00     0.310 C 
HETATM    2  N1  UNL     1      -2.794  -1.170  -0.025  1.00  0.00     0.086 N 
HETATM    3  C2  UNL     1      -3.431  -0.911   1.237  1.00  0.00     0.282 C 
HETATM    4  C3  UNL     1      -3.353   0.530   1.647  1.00  0.00     0.104 C 
HETATM    5  S1  UNL     1      -3.003   1.610   0.212  1.00  0.00    -0.167 SA
HETATM    6  C4  UNL     1      -1.649   2.724   0.658  1.00  0.00     0.074 C 
HETATM    7  C5  UNL     1      -0.690   2.932  -0.491  1.00  0.00     0.012 C 
HETATM    8  C6  UNL     1      -0.472   1.667  -1.295  1.00  0.00     0.031 C 
HETATM    9  C7  UNL     1       0.599   0.827  -0.670  1.00  0.00     0.273 C 
HETATM   10  N2  UNL     1       0.614  -0.533  -1.096  1.00  0.00     0.096 N 
HETATM   11  C13 UNL     1      -0.674  -1.160  -1.144  1.00  0.00     0.303 C 
HETATM   12  C14 UNL     1      -1.356  -1.178   0.199  1.00  0.00     0.302 C 
ENDROOT
BRANCH  10  13
HETATM   13  C8  UNL     1       1.471  -1.311  -0.249  1.00  0.00     0.337 C 
BRANCH  13  14
HETATM   14  C9  UNL     1       2.890  -0.811  -0.266  1.00  0.00     0.087 A 
HETATM   15  C10 UNL     1       3.421   0.134   0.586  1.00  0.00     0.076 A 
HETATM   16  C11 UNL     1       4.755   0.335   0.266  1.00  0.00     0.126 A 
HETATM   17  C12 UNL     1       4.972  -0.529  -0.802  1.00  0.00     0.217 A 
HETATM   18  O3  UNL     1       3.856  -1.167  -1.065  1.00  0.00    -0.288 OA
BRANCH  16  19
HETATM   19  O1  UNL     1       5.658   1.198   0.871  1.00  0.00    -0.356 OA
ATOM     20  H1  UNL     1       6.572   1.336   0.652  1.00  0.00     0.218 HD
ENDBRANCH  16  19
BRANCH  17  21
HETATM   21  O2  UNL     1       6.201  -0.672  -1.468  1.00  0.00    -0.339 OA
ATOM     22  H2  UNL     1       6.349  -1.262  -2.198  1.00  0.00     0.220 HD
ENDBRANCH  17  21
ENDBRANCH  13  14
ENDBRANCH  10  13
TORSDOF 4
