REMARK  0 active torsions:
REMARK  status: ('A' for Active; 'I' for Inactive)
ROOT
HETATM    1  C1  UNL     1      -1.436   2.162  -0.954  1.00  0.00     0.050 C 
HETATM    2  C2  UNL     1      -1.728   0.926  -0.239  1.00  0.00    -0.038 A 
HETATM    3  C3  UNL     1      -3.119   0.575  -0.087  1.00  0.00    -0.010 A 
HETATM    4  C4  UNL     1      -4.176   1.367  -0.365  1.00  0.00     0.020 A 
HETATM    5  C5  UNL     1      -5.430   0.863  -0.136  1.00  0.00     0.051 A 
HETATM    6  S1  UNL     1      -5.110  -0.698   0.461  1.00  0.00    -0.099 SA
HETATM    7  C6  UNL     1      -3.412  -0.666   0.404  1.00  0.00     0.040 A 
HETATM    8  C7  UNL     1      -2.464  -1.582   0.756  1.00  0.00     0.075 A 
HETATM    9  N1  UNL     1      -2.793  -2.871   1.260  1.00  0.00    -0.100 NA
HETATM   10  C8  UNL     1      -1.118  -1.264   0.624  1.00  0.00     0.001 A 
HETATM   11  C9  UNL     1      -0.193  -2.211   0.988  1.00  0.00     0.016 A 
HETATM   12  C10 UNL     1       1.121  -1.911   0.872  1.00  0.00     0.031 A 
HETATM   13  C11 UNL     1       1.513  -0.678   0.402  1.00  0.00     0.045 A 
HETATM   14  C12 UNL     1       0.582   0.292   0.028  1.00  0.00     0.003 A 
HETATM   15  C13 UNL     1       1.007   1.520  -0.363  1.00  0.00     0.016 A 
HETATM   16  C14 UNL     1       2.388   1.788  -0.399  1.00  0.00     0.025 A 
HETATM   17  C15 UNL     1       3.265   0.810  -0.035  1.00  0.00     0.007 A 
HETATM   18  C16 UNL     1       4.723   1.065  -0.069  1.00  0.00     0.068 C 
HETATM   19  N2  UNL     1       2.826  -0.388   0.354  1.00  0.00    -0.354 N 
HETATM   20  C17 UNL     1       3.760  -1.432   0.746  1.00  0.00     0.156 C 
HETATM   21  C18 UNL     1      -0.780   0.008   0.125  1.00  0.00    -0.005 A 
ENDROOT
TORSDOF 0
