REMARK  0 active torsions:
REMARK  status: ('A' for Active; 'I' for Inactive)
ROOT
HETATM    1  O1  UNL     1      -3.302   4.248  -0.195  1.00  0.00    -0.267 OA
HETATM    2  C1  UNL     1      -2.666   3.162  -0.143  1.00  0.00     0.262 A 
HETATM    3  C2  UNL     1      -1.307   2.969  -0.176  1.00  0.00     0.108 A 
HETATM    4  C3  UNL     1      -1.101   1.618  -0.091  1.00  0.00     0.073 A 
HETATM    5  N1  UNL     1      -2.307   1.009  -0.008  1.00  0.00    -0.252 N 
HETATM    6  N2  UNL     1      -3.240   1.950  -0.040  1.00  0.00    -0.259 N 
ATOM      7  H2  UNL     1      -4.245   1.780   0.007  1.00  0.00     0.191 HD
HETATM    8  C4  UNL     1      -2.401  -0.391   0.091  1.00  0.00     0.068 A 
HETATM    9  C5  UNL     1      -3.648  -0.984   0.175  1.00  0.00     0.032 A 
HETATM   10  C6  UNL     1      -3.769  -2.353   0.273  1.00  0.00     0.002 A 
HETATM   11  C7  UNL     1      -2.605  -3.087   0.283  1.00  0.00     0.001 A 
HETATM   12  C8  UNL     1      -1.347  -2.520   0.201  1.00  0.00     0.014 A 
HETATM   13  C9  UNL     1      -1.253  -1.159   0.105  1.00  0.00     0.004 A 
HETATM   14  C10 UNL     1       0.058  -0.545   0.018  1.00  0.00    -0.010 A 
HETATM   15  C11 UNL     1       1.220  -1.248   0.026  1.00  0.00     0.025 A 
HETATM   16  C12 UNL     1       2.453  -0.582  -0.062  1.00  0.00    -0.025 A 
HETATM   17  C13 UNL     1       3.591  -1.360  -0.048  1.00  0.00     0.012 A 
HETATM   18  C14 UNL     1       4.853  -0.771  -0.131  1.00  0.00     0.001 A 
HETATM   19  C15 UNL     1       4.892   0.600  -0.226  1.00  0.00     0.001 A 
HETATM   20  C16 UNL     1       3.766   1.392  -0.242  1.00  0.00     0.012 A 
HETATM   21  C17 UNL     1       2.516   0.788  -0.158  1.00  0.00    -0.025 A 
HETATM   22  C18 UNL     1       1.351   1.501  -0.167  1.00  0.00     0.027 A 
HETATM   23  C19 UNL     1       0.139   0.848  -0.080  1.00  0.00     0.005 A 
ENDROOT
TORSDOF 0
