REMARK  2 active torsions:
REMARK  status: ('A' for Active; 'I' for Inactive)
REMARK    1  A    between atoms: C7_7  and  N1_8 
REMARK    2  A    between atoms: N1_8  and  C8_10 
ROOT
HETATM    1  C1  UNL     1       4.424  -3.156   0.681  1.00  0.00     0.068 C 
HETATM    2  C2  UNL     1       3.189  -2.312   0.486  1.00  0.00     0.007 A 
HETATM    3  C3  UNL     1       1.957  -2.899   0.408  1.00  0.00     0.032 A 
HETATM    4  C4  UNL     1       0.753  -2.186   0.228  1.00  0.00    -0.044 A 
HETATM    5  C5  UNL     1      -0.491  -2.897   0.034  1.00  0.00     0.049 C 
HETATM    6  C6  UNL     1       0.863  -0.821   0.135  1.00  0.00     0.041 A 
HETATM    7  C7  UNL     1      -0.250   0.035  -0.084  1.00  0.00     0.056 A 
HETATM    8  C12 UNL     1      -0.002   1.420  -0.236  1.00  0.00     0.018 A 
HETATM    9  C13 UNL     1      -1.027   2.289  -0.537  1.00  0.00     0.016 A 
HETATM   10  C14 UNL     1      -0.723   3.640  -0.735  1.00  0.00     0.002 A 
HETATM   11  C15 UNL     1       0.555   4.125  -0.642  1.00  0.00     0.009 A 
HETATM   12  C16 UNL     1       1.564   3.240  -0.347  1.00  0.00    -0.034 A 
HETATM   13  C17 UNL     1       2.972   3.695  -0.232  1.00  0.00     0.050 C 
HETATM   14  C18 UNL     1       1.277   1.896  -0.150  1.00  0.00     0.052 A 
HETATM   15  N2  UNL     1       2.303   1.071   0.072  1.00  0.00    -0.341 N 
ATOM     16  H2  UNL     1       3.247   1.452   0.136  1.00  0.00     0.167 HD
HETATM   17  C19 UNL     1       2.115  -0.246   0.212  1.00  0.00     0.119 A 
HETATM   18  N3  UNL     1       3.235  -1.005   0.385  1.00  0.00    -0.346 N 
ATOM     19  H3  UNL     1       4.141  -0.539   0.438  1.00  0.00     0.167 HD
ENDROOT
BRANCH   7  20
HETATM   20  N1  UNL     1      -1.391  -0.441   0.066  1.00  0.00    -0.380 N 
ATOM     21  H1  UNL     1      -1.192  -1.408   0.323  1.00  0.00     0.160 HD
BRANCH  20  22
HETATM   22  C8  UNL     1      -2.754  -0.409   0.083  1.00  0.00     0.019 C 
HETATM   23  C9  UNL     1      -3.502  -1.673   0.669  1.00  0.00     0.037 C 
HETATM   24  C10 UNL     1      -3.483   0.668   0.890  1.00  0.00     0.037 C 
HETATM   25  C11 UNL     1      -3.336  -0.369  -1.344  1.00  0.00     0.037 C 
ENDBRANCH  20  22
ENDBRANCH   7  20
TORSDOF 2
