REMARK  8 active torsions:
REMARK  status: ('A' for Active; 'I' for Inactive)
REMARK    1  A    between atoms: N1_1  and  C1_4 
REMARK    2  A    between atoms: N2_7  and  C4_8 
REMARK    3  A    between atoms: C4_8  and  C5_9 
REMARK    4  A    between atoms: C5_9  and  O1_10 
REMARK    5  A    between atoms: O1_10  and  C6_11 
REMARK    6  A    between atoms: C6_11  and  C7_12 
REMARK    7  A    between atoms: C7_12  and  N3_13 
REMARK    8  A    between atoms: C12_21  and  N5_22 
ROOT
HETATM    1  C7  UNL     1       1.931   0.316   1.753  1.00  0.00     0.156 C 
ENDROOT
BRANCH   1   2
HETATM    2  C6  UNL     1       0.531  -0.051   1.273  1.00  0.00     0.188 C 
BRANCH   2   3
HETATM    3  O1  UNL     1      -0.344   0.748   1.952  1.00  0.00    -0.388 OA
BRANCH   3   4
HETATM    4  C5  UNL     1      -1.664   0.510   1.639  1.00  0.00     0.188 C 
BRANCH   4   5
HETATM    5  C4  UNL     1      -2.008   0.724   0.205  1.00  0.00     0.159 C 
BRANCH   5   6
HETATM    6  N2  UNL     1      -3.413   0.475  -0.072  1.00  0.00    -0.308 N 
HETATM    7  C3  UNL     1      -4.295   1.486   0.029  1.00  0.00     0.099 A 
HETATM    8  C2  UNL     1      -5.619   1.208  -0.242  1.00  0.00     0.065 A 
HETATM    9  C1  UNL     1      -6.018  -0.073  -0.604  1.00  0.00     0.103 A 
HETATM   10  N7  UNL     1      -5.105  -1.050  -0.692  1.00  0.00    -0.295 N 
HETATM   11  C14 UNL     1      -3.814  -0.759  -0.423  1.00  0.00     0.328 A 
ATOM     12  H7  UNL     1      -5.380  -1.996  -0.957  1.00  0.00     0.172 HD
HETATM   13  O3  UNL     1      -2.940  -1.666  -0.501  1.00  0.00    -0.246 OA
BRANCH   9  14
HETATM   14  N1  UNL     1      -7.272  -0.284  -0.848  1.00  0.00    -0.385 N 
ATOM     15  H12 UNL     1      -7.967   0.460  -0.781  1.00  0.00     0.157 HD
ATOM     16  H11 UNL     1      -7.565  -1.224  -1.114  1.00  0.00     0.157 HD
ENDBRANCH   9  14
ENDBRANCH   5   6
ENDBRANCH   4   5
ENDBRANCH   3   4
ENDBRANCH   2   3
ENDBRANCH   1   2
BRANCH   1  17
HETATM   17  N3  UNL     1       2.886  -0.527   1.040  1.00  0.00    -0.340 N 
HETATM   18  C8  UNL     1       3.350  -1.740   1.417  1.00  0.00     0.094 A 
HETATM   19  C9  UNL     1       4.238  -2.218   0.480  1.00  0.00     0.038 A 
HETATM   20  C10 UNL     1       4.328  -1.271  -0.510  1.00  0.00     0.078 A 
HETATM   21  C11 UNL     1       5.066  -1.234  -1.680  1.00  0.00     0.273 A 
HETATM   22  C13 UNL     1       3.482  -0.244  -0.132  1.00  0.00     0.139 A 
HETATM   23  O2  UNL     1       5.835  -2.163  -2.028  1.00  0.00    -0.267 OA
HETATM   24  N4  UNL     1       4.923  -0.137  -2.446  1.00  0.00    -0.156 N 
HETATM   25  C12 UNL     1       4.103   0.873  -2.092  1.00  0.00     0.680 A 
ATOM     26  H4  UNL     1       5.449  -0.068  -3.317  1.00  0.00     0.187 HD
HETATM   27  N6  UNL     1       3.386   0.832  -0.951  1.00  0.00    -0.176 N 
ATOM     28  H6  UNL     1       2.773   1.609  -0.705  1.00  0.00     0.186 HD
BRANCH  25  29
HETATM   29  N5  UNL     1       3.970   1.916  -2.826  1.00  0.00    -0.234 N 
ATOM     30  H52 UNL     1       4.512   1.947  -3.689  1.00  0.00     0.174 HD
ATOM     31  H51 UNL     1       3.350   2.680  -2.558  1.00  0.00     0.174 HD
ENDBRANCH  25  29
ENDBRANCH   1  17
TORSDOF 8
