REMARK  9 active torsions:
REMARK  status: ('A' for Active; 'I' for Inactive)
REMARK    1  A    between atoms: C3_8  and  C4_9 
REMARK    2  A    between atoms: C4_9  and  N4_10 
REMARK    3  A    between atoms: N4_10  and  C5_11 
REMARK    4  A    between atoms: C8_18  and  N7_19 
REMARK    5  A    between atoms: N7_19  and  C9_21 
REMARK    6  A    between atoms: C9_21  and  C10_22 
REMARK    7  A    between atoms: C10_22  and  C11_23 
REMARK    8  A    between atoms: C11_23  and  C12_24 
REMARK    9  A    between atoms: C12_24  and  O1_25 
ROOT
HETATM    1  C5  UNL     1       1.927   0.212  -0.337  1.00  0.00     0.208 A 
HETATM    2  N5  UNL     1       2.052   0.035  -1.700  1.00  0.00    -0.325 N 
ATOM      3  H5  UNL     1       2.943   0.228  -2.157  1.00  0.00     0.169 HD
HETATM    4  C6  UNL     1       1.024  -0.383  -2.417  1.00  0.00     0.183 A 
HETATM    5  N6  UNL     1      -0.178  -0.665  -1.893  1.00  0.00    -0.347 N 
ATOM      6  H6  UNL     1      -0.945  -0.987  -2.484  1.00  0.00     0.167 HD
HETATM    7  C7  UNL     1      -0.348  -0.510  -0.546  1.00  0.00     0.109 A 
HETATM    8  C8  UNL     1      -1.624  -0.804   0.008  1.00  0.00     0.135 A 
HETATM    9  N8  UNL     1      -1.709  -0.616   1.300  1.00  0.00    -0.337 N 
ATOM     10  H8  UNL     1      -2.598  -0.818   1.757  1.00  0.00     0.168 HD
HETATM   11  C13 UNL     1      -0.683  -0.168   2.069  1.00  0.00     0.182 A 
HETATM   12  N9  UNL     1       0.544   0.110   1.551  1.00  0.00    -0.346 N 
ATOM     13  H9  UNL     1       1.315   0.435   2.134  1.00  0.00     0.167 HD
HETATM   14  C14 UNL     1       0.678  -0.067   0.245  1.00  0.00     0.123 A 
ENDROOT
BRANCH   1  15
HETATM   15  N4  UNL     1       2.894   0.456   0.354  1.00  0.00    -0.395 NA
BRANCH  15  16
HETATM   16  C4  UNL     1       3.940   0.728   1.158  1.00  0.00     0.218 C 
BRANCH  16  17
HETATM   17  C3  UNL     1       4.999   1.300   0.281  1.00  0.00     0.103 A 
HETATM   18  C1  UNL     1       6.206   0.592   0.051  1.00  0.00     0.146 A 
HETATM   19  N1  UNL     1       6.397  -0.799   0.356  1.00  0.00    -0.080 NA
HETATM   20  N2  UNL     1       7.041   1.373  -0.628  1.00  0.00    -0.339 N 
HETATM   21  C2  UNL     1       6.391   2.498  -0.808  1.00  0.00     0.182 A 
ATOM     22  H2  UNL     1       7.985   1.146  -0.942  1.00  0.00     0.167 HD
HETATM   23  N3  UNL     1       5.146   2.509  -0.284  1.00  0.00    -0.348 N 
ATOM     24  H3  UNL     1       4.467   3.269  -0.312  1.00  0.00     0.167 HD
ENDBRANCH  16  17
ENDBRANCH  15  16
ENDBRANCH   1  15
BRANCH   8  25
HETATM   25  N7  UNL     1      -2.463  -1.215  -0.815  1.00  0.00    -0.354 N 
ATOM     26  H7  UNL     1      -2.029  -1.265  -1.737  1.00  0.00     0.166 HD
BRANCH  25  27
HETATM   27  C9  UNL     1      -3.780  -1.627  -0.912  1.00  0.00     0.062 C 
BRANCH  27  28
HETATM   28  C10 UNL     1      -4.711  -0.649  -0.232  1.00  0.00     0.046 C 
BRANCH  28  29
HETATM   29  C11 UNL     1      -6.129  -0.935  -0.476  1.00  0.00     0.031 C 
BRANCH  29  30
HETATM   30  C12 UNL     1      -6.843   0.233   0.271  1.00  0.00     0.164 C 
BRANCH  30  31
HETATM   31  O1  UNL     1      -6.355   1.379  -0.368  1.00  0.00    -0.401 OA
ATOM     32  H1  UNL     1      -6.790   2.091   0.087  1.00  0.00     0.209 HD
ENDBRANCH  30  31
ENDBRANCH  29  30
ENDBRANCH  28  29
ENDBRANCH  27  28
ENDBRANCH  25  27
ENDBRANCH   8  25
TORSDOF 9
