REMARK  9 active torsions:
REMARK  status: ('A' for Active; 'I' for Inactive)
REMARK    1  A    between atoms: O1_1  and  C1_3 
REMARK    2  A    between atoms: C1_3  and  C2_4 
REMARK    3  A    between atoms: C2_4  and  N1_5 
REMARK    4  A    between atoms: C6_9  and  S1_10 
REMARK    5  A    between atoms: S1_10  and  C7_11 
REMARK    6  A    between atoms: C9_13  and  N2_14 
REMARK    7  A    between atoms: N2_14  and  C10_16 
REMARK    8  A    between atoms: C12_19  and  O3_20 
REMARK    9  A    between atoms: C13_22  and  O4_23 
ROOT
HETATM    1  C7  UNL     1      -0.266  -0.437  -0.479  1.00  0.00     0.251 C 
HETATM    2  C8  UNL     1       0.987   0.288  -0.906  1.00  0.00     0.070 C 
HETATM    3  C9  UNL     1       1.944  -0.955  -0.942  1.00  0.00     0.107 C 
HETATM    4  C14 UNL     1       1.678  -1.404   0.442  1.00  0.00     0.258 C 
HETATM    5  N3  UNL     1       0.197  -1.546   0.377  1.00  0.00    -0.060 N 
ATOM      6  H31 UNL     1      -0.114  -2.465   0.062  1.00  0.00     0.278 HD
ATOM      7  H32 UNL     1      -0.253  -1.574   1.292  1.00  0.00     0.278 HD
ENDROOT
BRANCH   3   8
HETATM    8  N2  UNL     1       3.193  -0.563  -1.395  1.00  0.00    -0.389 N 
ATOM      9  H2  UNL     1       3.512  -0.934  -2.290  1.00  0.00     0.156 HD
BRANCH   8  10
HETATM   10  C10 UNL     1       4.037   0.296  -0.717  1.00  0.00     0.248 C 
HETATM   11  O2  UNL     1       4.914   0.963  -1.601  1.00  0.00    -0.362 OA
HETATM   12  C11 UNL     1       5.612   1.748  -0.644  1.00  0.00     0.205 C 
HETATM   13  C12 UNL     1       6.089   0.695   0.354  1.00  0.00     0.175 C 
HETATM   14  C13 UNL     1       4.968  -0.356   0.246  1.00  0.00     0.197 C 
BRANCH  13  15
HETATM   15  O3  UNL     1       7.299   0.147  -0.048  1.00  0.00    -0.391 OA
ATOM     16  H3  UNL     1       7.596  -0.508   0.573  1.00  0.00     0.210 HD
ENDBRANCH  13  15
BRANCH  14  17
HETATM   17  O4  UNL     1       4.468  -0.673   1.469  1.00  0.00    -0.389 OA
ATOM     18  H4  UNL     1       5.062  -1.089   2.083  1.00  0.00     0.210 HD
ENDBRANCH  14  17
ENDBRANCH   8  10
ENDBRANCH   3   8
BRANCH   1  19
HETATM   19  S1  UNL     1      -1.356   0.641   0.494  1.00  0.00    -0.100 SA
BRANCH  19  20
HETATM   20  C6  UNL     1      -2.973  -0.059   0.705  1.00  0.00     0.286 C 
HETATM   21  N1  UNL     1      -4.051   0.772   0.278  1.00  0.00     0.104 N 
HETATM   22  C3  UNL     1      -4.171   0.713  -1.131  1.00  0.00     0.274 C 
HETATM   23  C4  UNL     1      -3.743  -0.723  -1.424  1.00  0.00     0.033 C 
HETATM   24  C5  UNL     1      -3.186  -1.297  -0.161  1.00  0.00     0.048 C 
BRANCH  21  25
HETATM   25  C2  UNL     1      -5.241   0.396   0.992  1.00  0.00     0.299 C 
BRANCH  25  26
HETATM   26  C1  UNL     1      -6.337   1.426   0.867  1.00  0.00     0.194 C 
BRANCH  26  27
HETATM   27  O1  UNL     1      -7.481   1.036   1.574  1.00  0.00    -0.399 OA
ATOM     28  H1  UNL     1      -8.171   1.684   1.495  1.00  0.00     0.209 HD
ENDBRANCH  26  27
ENDBRANCH  25  26
ENDBRANCH  21  25
ENDBRANCH  19  20
ENDBRANCH   1  19
TORSDOF 9
