REMARK  8 active torsions:
REMARK  status: ('A' for Active; 'I' for Inactive)
REMARK    1  A    between atoms: C1_2  and  C2_3 
REMARK    2  A    between atoms: C2_3  and  C3_4 
REMARK    3  A    between atoms: C3_4  and  S1_5 
REMARK    4  A    between atoms: S1_5  and  C4_6 
REMARK    5  A    between atoms: C4_6  and  C5_7 
REMARK    6  A    between atoms: N2_13  and  N3_15 
REMARK       I    between atoms: C11_17  and  N5_19 
REMARK    7  A    between atoms: N5_19  and  N6_21 
REMARK    8  A    between atoms: N6_21  and  C12_23 
ROOT
HETATM    1  N3  UNL     1       2.481   0.520  -0.681  1.00  0.00    -0.271 N 
ATOM      2  H3  UNL     1       2.887   1.361  -1.091  1.00  0.00     0.189 HD
HETATM    3  C11 UNL     1       3.138  -0.576  -0.738  1.00  0.00     0.222 C 
HETATM    4  N4  UNL     1       2.703  -1.809  -0.215  1.00  0.00    -0.061 NA
HETATM    5  N5  UNL     1       4.417  -0.507  -1.394  1.00  0.00    -0.270 N 
ATOM      6  H5  UNL     1       4.470  -0.244  -2.378  1.00  0.00     0.189 HD
ENDROOT
BRANCH   1   7
HETATM    7  N2  UNL     1       1.235   0.600  -0.079  1.00  0.00    -0.289 N 
HETATM    8  C1  UNL     1       0.182   0.081  -0.595  1.00  0.00     0.108 C 
HETATM    9  N1  UNL     1       0.292  -0.601  -1.828  1.00  0.00    -0.086 NA
ATOM     10  H2  UNL     1       1.152   1.092   0.811  1.00  0.00     0.188 HD
BRANCH   8  11
HETATM   11  C2  UNL     1      -1.113   0.186   0.070  1.00  0.00     0.084 C 
BRANCH  11  12
HETATM   12  C3  UNL     1      -1.679  -1.196   0.406  1.00  0.00     0.081 C 
BRANCH  12  13
HETATM   13  S1  UNL     1      -3.282  -1.011   1.227  1.00  0.00    -0.164 SA
BRANCH  13  14
HETATM   14  C4  UNL     1      -4.446  -0.307   0.023  1.00  0.00     0.112 C 
BRANCH  14  15
HETATM   15  C5  UNL     1      -5.784  -0.107   0.576  1.00  0.00    -0.049 A 
HETATM   16  C6  UNL     1      -6.738  -1.094   0.506  1.00  0.00     0.008 A 
HETATM   17  C7  UNL     1      -8.012  -0.881   1.042  1.00  0.00     0.001 A 
HETATM   18  C8  UNL     1      -8.321   0.316   1.645  1.00  0.00     0.000 A 
HETATM   19  C9  UNL     1      -7.356   1.319   1.719  1.00  0.00     0.001 A 
HETATM   20  C10 UNL     1      -6.118   1.081   1.184  1.00  0.00     0.008 A 
ENDBRANCH  14  15
ENDBRANCH  13  14
ENDBRANCH  12  13
ENDBRANCH  11  12
ENDBRANCH   8  11
ENDBRANCH   1   7
BRANCH   5  21
HETATM   21  N6  UNL     1       5.582  -0.798  -0.690  1.00  0.00    -0.269 N 
ATOM     22  H6  UNL     1       5.937  -1.754  -0.682  1.00  0.00     0.190 HD
BRANCH  21  23
HETATM   23  C12 UNL     1       6.295   0.226   0.026  1.00  0.00     0.190 C 
HETATM   24  N7  UNL     1       7.254   0.960  -0.385  1.00  0.00    -0.360 N 
HETATM   25  C13 UNL     1       7.694   1.863   0.634  1.00  0.00     0.142 C 
ATOM     26  H7  UNL     1       7.656   0.910  -1.321  1.00  0.00     0.162 HD
HETATM   27  C14 UNL     1       6.529   1.878   1.598  1.00  0.00     0.142 C 
HETATM   28  N8  UNL     1       5.964   0.541   1.379  1.00  0.00    -0.360 N 
ATOM     29  H8  UNL     1       5.449  -0.035   2.045  1.00  0.00     0.162 HD
ENDBRANCH  21  23
ENDBRANCH   5  21
TORSDOF 8
