REMARK  8 active torsions:
REMARK  status: ('A' for Active; 'I' for Inactive)
REMARK    1  A    between atoms: N1_1  and  C1_4 
REMARK    2  A    between atoms: C2_7  and  C3_8 
REMARK    3  A    between atoms: N3_10  and  C5_11 
REMARK    4  A    between atoms: C5_11  and  C6_12 
REMARK    5  A    between atoms: N5_21  and  C13_23 
REMARK    6  A    between atoms: C13_23  and  C14_24 
REMARK    7  A    between atoms: C14_24  and  C15_25 
REMARK    8  A    between atoms: C15_25  and  N6_26 
ROOT
HETATM    1  C3  UNL     1      -0.421   1.349  -0.448  1.00  0.00     0.071 A 
HETATM    2  C4  UNL     1       0.900   1.374  -0.846  1.00  0.00     0.129 A 
HETATM    3  N3  UNL     1       1.306   0.130  -1.132  1.00  0.00    -0.296 N 
HETATM    4  N4  UNL     1       0.310  -0.704  -0.940  1.00  0.00    -0.283 N 
ATOM      5  H4  UNL     1       0.338  -1.714  -1.082  1.00  0.00     0.189 HD
HETATM    6  C12 UNL     1      -0.771   0.018  -0.517  1.00  0.00     0.131 A 
HETATM    7  N5  UNL     1      -1.912  -0.482  -0.237  1.00  0.00    -0.374 N 
ATOM      8  H5  UNL     1      -2.665   0.133   0.072  1.00  0.00     0.161 HD
ENDROOT
BRANCH   1   9
HETATM    9  C2  UNL     1      -1.261   2.486  -0.043  1.00  0.00     0.140 A 
HETATM   10  N2  UNL     1      -0.768   3.726  -0.030  1.00  0.00    -0.176 N 
HETATM   11  C1  UNL     1      -1.529   4.770   0.339  1.00  0.00     0.681 A 
ATOM     12  H2  UNL     1       0.202   3.884  -0.304  1.00  0.00     0.186 HD
HETATM   13  N8  UNL     1      -2.815   4.625   0.710  1.00  0.00    -0.141 N 
HETATM   14  C16 UNL     1      -3.288   3.361   0.687  1.00  0.00     0.340 A 
ATOM     15  H8  UNL     1      -3.393   5.417   0.990  1.00  0.00     0.189 HD
HETATM   16  N7  UNL     1      -2.543   2.307   0.322  1.00  0.00    -0.293 N 
HETATM   17  O1  UNL     1      -4.505   3.233   1.039  1.00  0.00    -0.246 OA
ATOM     18  H7  UNL     1      -2.948   1.371   0.321  1.00  0.00     0.172 HD
BRANCH  11  19
HETATM   19  N1  UNL     1      -1.047   5.984   0.352  1.00  0.00    -0.234 N 
ATOM     20  H12 UNL     1      -0.073   6.094   0.071  1.00  0.00     0.174 HD
ATOM     21  H11 UNL     1      -1.625   6.777   0.632  1.00  0.00     0.174 HD
ENDBRANCH  11  19
ENDBRANCH   1   9
BRANCH   3  22
HETATM   22  C5  UNL     1       2.620  -0.227  -1.578  1.00  0.00     0.186 C 
BRANCH  22  23
HETATM   23  C6  UNL     1       3.549  -0.542  -0.488  1.00  0.00    -0.038 A 
HETATM   24  C7  UNL     1       3.689  -1.817   0.003  1.00  0.00     0.009 A 
HETATM   25  C8  UNL     1       4.580  -2.075   1.037  1.00  0.00     0.001 A 
HETATM   26  C9  UNL     1       5.337  -1.060   1.586  1.00  0.00     0.000 A 
HETATM   27  C10 UNL     1       5.204   0.214   1.103  1.00  0.00     0.001 A 
HETATM   28  C11 UNL     1       4.313   0.455   0.074  1.00  0.00     0.009 A 
ENDBRANCH  22  23
ENDBRANCH   3  22
BRANCH   7  29
HETATM   29  C13 UNL     1      -2.160  -1.907  -0.349  1.00  0.00     0.123 C 
BRANCH  29  30
HETATM   30  C14 UNL     1      -3.643  -2.176  -0.426  1.00  0.00     0.047 C 
BRANCH  30  31
HETATM   31  C15 UNL     1      -3.839  -3.667  -0.541  1.00  0.00     0.231 C 
BRANCH  31  32
HETATM   32  N6  UNL     1      -3.270  -4.330   0.623  1.00  0.00    -0.079 N 
ATOM     33  H63 UNL     1      -2.291  -4.082   0.765  1.00  0.00     0.274 HD
ATOM     34  H62 UNL     1      -3.645  -3.960   1.497  1.00  0.00     0.274 HD
ATOM     35  H61 UNL     1      -3.403  -5.338   0.545  1.00  0.00     0.274 HD
ENDBRANCH  31  32
ENDBRANCH  30  31
ENDBRANCH  29  30
ENDBRANCH   7  29
TORSDOF 8
