REMARK  10 active torsions:
REMARK  status: ('A' for Active; 'I' for Inactive)
REMARK    1  A    between atoms: C2_2  and  C3_3 
REMARK    2  A    between atoms: C3_3  and  C4_4 
REMARK    3  A    between atoms: C6_6  and  C7_7 
REMARK    4  A    between atoms: C7_7  and  C8_8 
REMARK    5  A    between atoms: C8_8  and  O1_9 
REMARK    6  A    between atoms: O1_9  and  C9_10 
REMARK    7  A    between atoms: C12_13  and  C13_14 
REMARK    8  A    between atoms: C13_14  and  C14_15 
REMARK    9  A    between atoms: C14_15  and  C15_16 
REMARK   10  A    between atoms: C18_19  and  O2_20 
ROOT
HETATM    1  C4  UNL     1       0.520   1.670   0.722  1.00  0.00    -0.024 A 
HETATM    2  C5  UNL     1       1.618   0.871   0.485  1.00  0.00     0.017 A 
HETATM    3  C6  UNL     1       1.541  -0.496   0.432  1.00  0.00    -0.055 A 
HETATM    4  C11 UNL     1       0.317  -1.086   0.623  1.00  0.00     0.017 A 
HETATM    5  C12 UNL     1      -0.815  -0.339   0.863  1.00  0.00    -0.024 A 
HETATM    6  C18 UNL     1      -0.702   1.037   0.910  1.00  0.00     0.078 A 
ENDROOT
BRANCH   3   7
HETATM    7  C7  UNL     1       2.750  -1.375   0.171  1.00  0.00     0.065 C 
BRANCH   7   8
HETATM    8  C8  UNL     1       2.940  -1.589  -1.287  1.00  0.00     0.172 C 
BRANCH   8   9
HETATM    9  O1  UNL     1       3.960  -2.395  -1.605  1.00  0.00    -0.391 OA
BRANCH   9  10
HETATM   10  C9  UNL     1       5.246  -2.170  -1.298  1.00  0.00     0.163 C 
HETATM   11  C10 UNL     1       5.674  -2.162   0.131  1.00  0.00     0.033 C 
ENDBRANCH   9  10
ENDBRANCH   8   9
ENDBRANCH   7   8
ENDBRANCH   3   7
BRANCH   1  12
HETATM   12  C3  UNL     1       0.615   3.142   0.773  1.00  0.00     0.041 C 
BRANCH  12  13
HETATM   13  C2  UNL     1       0.090   3.801  -0.478  1.00  0.00     0.000 C 
HETATM   14  C1  UNL     1       0.261   5.311  -0.264  1.00  0.00     0.005 C 
ENDBRANCH  12  13
ENDBRANCH   1  12
BRANCH   5  15
HETATM   15  C13 UNL     1      -2.103  -1.029   1.046  1.00  0.00     0.042 C 
BRANCH  15  16
HETATM   16  C14 UNL     1      -2.930  -0.971  -0.208  1.00  0.00     0.008 C 
BRANCH  16  17
HETATM   17  C15 UNL     1      -4.244  -1.654  -0.051  1.00  0.00    -0.023 C 
HETATM   18  C16 UNL     1      -5.122  -1.081   1.016  1.00  0.00     0.009 C 
HETATM   19  C17 UNL     1      -5.010  -1.679  -1.349  1.00  0.00     0.009 C 
ENDBRANCH  16  17
ENDBRANCH  15  16
ENDBRANCH   5  15
BRANCH   6  20
HETATM   20  O2  UNL     1      -1.841   1.771   1.153  1.00  0.00    -0.360 OA
ATOM     21  H2  UNL     1      -2.677   1.338   1.282  1.00  0.00     0.217 HD
ENDBRANCH   6  20
TORSDOF 10
