REMARK  9 active torsions:
REMARK  status: ('A' for Active; 'I' for Inactive)
REMARK    1  A    between atoms: C2_2  and  C3_3 
REMARK    2  A    between atoms: C3_3  and  C6_6 
REMARK    3  A    between atoms: C6_6  and  C7_7 
REMARK    4  A    between atoms: C7_7  and  C8_8 
REMARK    5  A    between atoms: C8_8  and  C9_9 
REMARK    6  A    between atoms: C9_9  and  C10_10 
REMARK    7  A    between atoms: C9_9  and  C13_15 
REMARK    8  A    between atoms: C10_10  and  O2_12 
REMARK    9  A    between atoms: O2_12  and  C11_13 
ROOT
HETATM    1  C9  UNL     1      -0.677   0.153  -0.533  1.00  0.00     0.089 C 
ENDROOT
BRANCH   1   2
HETATM    2  C8  UNL     1       0.625  -0.501  -0.152  1.00  0.00     0.015 C 
BRANCH   2   3
HETATM    3  C7  UNL     1       0.884  -0.589   1.325  1.00  0.00     0.005 C 
BRANCH   3   4
HETATM    4  C6  UNL     1       2.208  -1.266   1.597  1.00  0.00     0.038 C 
BRANCH   4   5
HETATM    5  C3  UNL     1       3.386  -0.618   1.040  1.00  0.00    -0.063 C 
HETATM    6  C4  UNL     1       4.077  -1.294   0.118  1.00  0.00    -0.024 C 
HETATM    7  C5  UNL     1       5.304  -0.699  -0.469  1.00  0.00     0.036 C 
BRANCH   5   8
HETATM    8  C2  UNL     1       3.860   0.677   1.437  1.00  0.00    -0.004 C 
HETATM    9  C1  UNL     1       3.372   1.497   2.316  1.00  0.00     0.012 C 
ENDBRANCH   5   8
ENDBRANCH   4   5
ENDBRANCH   3   4
ENDBRANCH   2   3
ENDBRANCH   1   2
BRANCH   1  10
HETATM   10  C10 UNL     1      -0.674   1.523  -0.066  1.00  0.00     0.263 C 
HETATM   11  O1  UNL     1       0.395   2.067   0.323  1.00  0.00    -0.265 OA
BRANCH  10  12
HETATM   12  O2  UNL     1      -1.737   2.399   0.024  1.00  0.00    -0.322 OA
BRANCH  12  13
HETATM   13  C11 UNL     1      -1.693   3.718   0.476  1.00  0.00     0.174 C 
HETATM   14  C12 UNL     1      -0.812   4.633  -0.296  1.00  0.00     0.034 C 
ENDBRANCH  12  13
ENDBRANCH  10  12
ENDBRANCH   1  10
BRANCH   1  15
HETATM   15  C13 UNL     1      -1.790  -0.724  -0.124  1.00  0.00    -0.001 C 
HETATM   16  C14 UNL     1      -3.176  -0.285  -0.407  1.00  0.00     0.005 C 
HETATM   17  C15 UNL     1      -3.863  -1.111  -1.515  1.00  0.00     0.000 C 
HETATM   18  C16 UNL     1      -4.002  -2.540  -1.128  1.00  0.00     0.000 C 
HETATM   19  C17 UNL     1      -2.813  -2.977  -0.339  1.00  0.00     0.000 C 
HETATM   20  C18 UNL     1      -1.627  -2.085  -0.760  1.00  0.00     0.005 C 
ENDBRANCH   1  15
TORSDOF 9
