REMARK  10 active torsions:
REMARK  status: ('A' for Active; 'I' for Inactive)
REMARK    1  A    between atoms: O1_2  and  C2_3 
REMARK    2  A    between atoms: C2_3  and  C5_6 
REMARK    3  A    between atoms: C5_6  and  O2_7 
REMARK    4  A    between atoms: C5_6  and  C6_9 
REMARK    5  A    between atoms: C5_6  and  C14_17 
REMARK    6  A    between atoms: C6_9  and  C7_10 
REMARK    7  A    between atoms: C7_10  and  C8_11 
REMARK    8  A    between atoms: C8_11  and  C9_12 
REMARK    9  A    between atoms: C9_12  and  C10_13 
REMARK   10  A    between atoms: C10_13  and  C11_14 
ROOT
HETATM    1  C5  UNL     1      -1.106   0.047   0.527  1.00  0.00     0.092 C 
ENDROOT
BRANCH   1   2
HETATM    2  C2  UNL     1      -1.742   1.380   0.225  1.00  0.00     0.084 C 
HETATM    3  C3  UNL     1      -2.473   1.872   1.440  1.00  0.00     0.049 C 
HETATM    4  C4  UNL     1      -0.586   2.383   0.027  1.00  0.00     0.049 C 
BRANCH   2   5
HETATM    5  O1  UNL     1      -2.501   1.393  -0.908  1.00  0.00    -0.383 OA
HETATM    6  C1  UNL     1      -2.982   2.609  -1.289  1.00  0.00     0.202 C 
ENDBRANCH   2   5
ENDBRANCH   1   2
BRANCH   1   7
HETATM    7  O2  UNL     1      -0.389   0.213   1.722  1.00  0.00    -0.386 OA
ATOM      8  H2  UNL     1       0.012  -0.627   1.912  1.00  0.00     0.210 HD
ENDBRANCH   1   7
BRANCH   1   9
HETATM    9  C6  UNL     1      -0.003  -0.235  -0.507  1.00  0.00     0.041 C 
BRANCH   9  10
HETATM   10  C7  UNL     1       0.692  -1.548  -0.289  1.00  0.00     0.003 C 
BRANCH  10  11
HETATM   11  C8  UNL     1       1.782  -1.749  -1.322  1.00  0.00     0.000 C 
BRANCH  11  12
HETATM   12  C9  UNL     1       2.814  -0.662  -1.255  1.00  0.00     0.000 C 
BRANCH  12  13
HETATM   13  C10 UNL     1       3.484  -0.600   0.087  1.00  0.00     0.004 C 
BRANCH  13  14
HETATM   14  C11 UNL     1       4.528   0.500   0.136  1.00  0.00    -0.023 C 
HETATM   15  C12 UNL     1       5.606   0.307  -0.880  1.00  0.00     0.009 C 
HETATM   16  C13 UNL     1       3.845   1.824  -0.120  1.00  0.00     0.009 C 
ENDBRANCH  13  14
ENDBRANCH  12  13
ENDBRANCH  11  12
ENDBRANCH  10  11
ENDBRANCH   9  10
ENDBRANCH   1   9
BRANCH   1  17
HETATM   17  C14 UNL     1      -1.964  -1.122   0.636  1.00  0.00     0.023 C 
HETATM   18  C15 UNL     1      -2.773  -1.509  -0.574  1.00  0.00     0.007 C 
HETATM   19  C16 UNL     1      -3.507  -2.740  -0.013  1.00  0.00     0.001 C 
HETATM   20  C17 UNL     1      -3.610  -2.508   1.486  1.00  0.00     0.001 C 
HETATM   21  C18 UNL     1      -3.035  -1.092   1.697  1.00  0.00     0.007 C 
ENDBRANCH   1  17
TORSDOF 10
