REMARK  14 active torsions:
REMARK  status: ('A' for Active; 'I' for Inactive)
REMARK    1  A    between atoms: C3_3  and  C4_4 
REMARK    2  A    between atoms: C4_4  and  C5_5 
REMARK    3  A    between atoms: C5_5  and  C6_6 
REMARK    4  A    between atoms: C6_6  and  C7_7 
REMARK    5  A    between atoms: C7_7  and  C8_8 
REMARK    6  A    between atoms: C8_8  and  C9_9 
REMARK    7  A    between atoms: C9_9  and  C10_10 
REMARK    8  A    between atoms: C10_10  and  N1_11 
REMARK    9  A    between atoms: N1_11  and  C11_13 
REMARK   10  A    between atoms: C11_13  and  C12_14 
REMARK   11  A    between atoms: C12_14  and  C13_15 
REMARK   12  A    between atoms: C13_15  and  C14_16 
REMARK   13  A    between atoms: C14_16  and  C15_17 
REMARK   14  A    between atoms: C15_17  and  C16_18 
ROOT
HETATM    1  C1  UNL     1       9.128   0.996   0.302  1.00  0.00     0.096 C 
HETATM    2  C2  UNL     1       8.493  -0.041   0.163  1.00  0.00    -0.188 C 
HETATM    3  C3  UNL     1       7.739  -1.296   0.021  1.00  0.00     0.079 C 
ENDROOT
BRANCH   3   4
HETATM    4  C4  UNL     1       6.866  -1.238  -1.196  1.00  0.00     0.011 C 
BRANCH   4   5
HETATM    5  C5  UNL     1       5.904  -0.099  -1.081  1.00  0.00     0.001 C 
BRANCH   5   6
HETATM    6  C6  UNL     1       5.035  -0.302   0.151  1.00  0.00     0.000 C 
BRANCH   6   7
HETATM    7  C7  UNL     1       4.054   0.870   0.223  1.00  0.00     0.000 C 
BRANCH   7   8
HETATM    8  C8  UNL     1       3.202   0.684   1.446  1.00  0.00     0.002 C 
BRANCH   8   9
HETATM    9  C9  UNL     1       2.440  -0.599   1.404  1.00  0.00     0.019 C 
BRANCH   9  10
HETATM   10  C10 UNL     1       1.542  -0.603   0.183  1.00  0.00     0.113 C 
BRANCH  10  11
HETATM   11  N1  UNL     1       0.641   0.490   0.265  1.00  0.00    -0.421 N 
ATOM     12  H1  UNL     1       0.644   1.125   1.064  1.00  0.00     0.153 HD
BRANCH  11  13
HETATM   13  C11 UNL     1      -0.267   0.661  -0.816  1.00  0.00     0.113 C 
BRANCH  13  14
HETATM   14  C12 UNL     1      -1.262  -0.473  -0.809  1.00  0.00     0.019 C 
BRANCH  14  15
HETATM   15  C13 UNL     1      -1.991  -0.478   0.508  1.00  0.00     0.002 C 
BRANCH  15  16
HETATM   16  C14 UNL     1      -2.727   0.807   0.712  1.00  0.00     0.000 C 
BRANCH  16  17
HETATM   17  C15 UNL     1      -3.743   1.072  -0.378  1.00  0.00     0.004 C 
BRANCH  17  18
HETATM   18  C16 UNL     1      -4.805  -0.006  -0.463  1.00  0.00    -0.014 C 
HETATM   19  C17 UNL     1      -5.555  -0.109   0.827  1.00  0.00     0.004 C 
HETATM   20  C18 UNL     1      -6.944  -0.673   0.575  1.00  0.00     0.000 C 
HETATM   21  C19 UNL     1      -7.673   0.369  -0.231  1.00  0.00     0.000 C 
HETATM   22  C20 UNL     1      -7.026   0.546  -1.559  1.00  0.00     0.000 C 
HETATM   23  C21 UNL     1      -5.626   0.081  -1.698  1.00  0.00     0.004 C 
ENDBRANCH  17  18
ENDBRANCH  16  17
ENDBRANCH  15  16
ENDBRANCH  14  15
ENDBRANCH  13  14
ENDBRANCH  11  13
ENDBRANCH  10  11
ENDBRANCH   9  10
ENDBRANCH   8   9
ENDBRANCH   7   8
ENDBRANCH   6   7
ENDBRANCH   5   6
ENDBRANCH   4   5
ENDBRANCH   3   4
TORSDOF 14
