REMARK  14 active torsions:
REMARK  status: ('A' for Active; 'I' for Inactive)
REMARK    1  A    between atoms: C3_3  and  C4_4 
REMARK    2  A    between atoms: C4_4  and  C5_5 
REMARK    3  A    between atoms: C5_5  and  C6_6 
REMARK    4  A    between atoms: C6_6  and  C7_7 
REMARK    5  A    between atoms: C7_7  and  C8_8 
REMARK    6  A    between atoms: C8_8  and  C9_9 
REMARK    7  A    between atoms: C9_9  and  C10_10 
REMARK    8  A    between atoms: C10_10  and  C11_11 
REMARK    9  A    between atoms: C11_11  and  C12_12 
REMARK   10  A    between atoms: C12_12  and  C13_13 
REMARK   11  A    between atoms: C13_13  and  C14_14 
REMARK   12  A    between atoms: C14_14  and  C15_15 
REMARK   13  A    between atoms: C15_15  and  C16_16 
REMARK   14  A    between atoms: C16_16  and  C17_17 
ROOT
HETATM    1  C11 UNL     1       0.884  -1.240  -0.694  1.00  0.00     0.000 C 
ENDROOT
BRANCH   1   2
HETATM    2  C10 UNL     1       0.738   0.202  -1.039  1.00  0.00     0.000 C 
BRANCH   2   3
HETATM    3  C9  UNL     1       0.032   0.961   0.039  1.00  0.00     0.000 C 
BRANCH   3   4
HETATM    4  C8  UNL     1      -1.352   0.401   0.257  1.00  0.00     0.000 C 
BRANCH   4   5
HETATM    5  C7  UNL     1      -2.034   1.211   1.342  1.00  0.00     0.000 C 
BRANCH   5   6
HETATM    6  C6  UNL     1      -3.425   0.725   1.631  1.00  0.00     0.000 C 
BRANCH   6   7
HETATM    7  C5  UNL     1      -4.301   0.808   0.399  1.00  0.00     0.001 C 
BRANCH   7   8
HETATM    8  C4  UNL     1      -5.689   0.322   0.696  1.00  0.00     0.009 C 
BRANCH   8   9
HETATM    9  C3  UNL     1      -6.620   0.371  -0.468  1.00  0.00     0.011 A 
HETATM   10  C2  UNL     1      -6.845   1.715  -1.057  1.00  0.00    -0.026 A 
HETATM   11  C1  UNL     1      -6.393   1.409  -2.254  1.00  0.00    -0.030 A 
HETATM   12  C20 UNL     1      -6.121   0.051  -1.808  1.00  0.00     0.035 A 
ENDBRANCH   8   9
ENDBRANCH   7   8
ENDBRANCH   6   7
ENDBRANCH   5   6
ENDBRANCH   4   5
ENDBRANCH   3   4
ENDBRANCH   2   3
ENDBRANCH   1   2
BRANCH   1  13
HETATM   13  C12 UNL     1       1.618  -1.987  -1.803  1.00  0.00     0.000 C 
BRANCH  13  14
HETATM   14  C13 UNL     1       2.989  -1.467  -2.071  1.00  0.00     0.000 C 
BRANCH  14  15
HETATM   15  C14 UNL     1       3.880  -1.563  -0.839  1.00  0.00     0.000 C 
BRANCH  15  16
HETATM   16  C15 UNL     1       5.240  -1.032  -1.174  1.00  0.00     0.006 C 
BRANCH  16  17
HETATM   17  C16 UNL     1       6.213  -1.054  -0.055  1.00  0.00     0.058 C 
BRANCH  17  18
HETATM   18  C17 UNL     1       5.882  -0.227   1.111  1.00  0.00     0.025 A 
HETATM   19  C18 UNL     1       4.881   0.670   1.337  1.00  0.00     0.113 A 
HETATM   20  N1  UNL     1       5.032   1.133   2.593  1.00  0.00    -0.360 N 
HETATM   21  C19 UNL     1       6.100   0.551   3.159  1.00  0.00     0.180 A 
ATOM     22  H1  UNL     1       4.428   1.820   3.044  1.00  0.00     0.166 HD
HETATM   23  N2  UNL     1       6.614  -0.280   2.245  1.00  0.00    -0.355 N 
ATOM     24  H2  UNL     1       7.437  -0.867   2.384  1.00  0.00     0.166 HD
ENDBRANCH  17  18
ENDBRANCH  16  17
ENDBRANCH  15  16
ENDBRANCH  14  15
ENDBRANCH  13  14
ENDBRANCH   1  13
TORSDOF 14
