REMARK  13 active torsions:
REMARK  status: ('A' for Active; 'I' for Inactive)
REMARK    1  A    between atoms: N1_2  and  C2_5 
REMARK    2  A    between atoms: C2_5  and  C3_6 
REMARK    3  A    between atoms: C3_6  and  N2_7 
REMARK    4  A    between atoms: N2_7  and  C4_8 
REMARK    5  A    between atoms: C9_14  and  O2_15 
REMARK    6  A    between atoms: O2_15  and  C10_16 
REMARK    7  A    between atoms: C12_18  and  O3_19 
REMARK    8  A    between atoms: O3_19  and  C13_20 
REMARK    9  A    between atoms: C16_24  and  O5_25 
REMARK   10  A    between atoms: C17_27  and  O6_28 
REMARK   11  A    between atoms: C18_30  and  O7_31 
REMARK   12  A    between atoms: C19_33  and  N3_34 
REMARK   13  A    between atoms: C21_39  and  N4_40 
ROOT
HETATM    1  C10 UNL     1       0.428  -0.335  -0.699  1.00  0.00     0.158 C 
HETATM    2  C11 UNL     1      -0.840  -0.796   0.004  1.00  0.00     0.068 C 
HETATM    3  C12 UNL     1      -2.079  -0.322  -0.714  1.00  0.00     0.157 C 
HETATM    4  C19 UNL     1      -2.020  -0.450  -2.195  1.00  0.00     0.214 C 
HETATM    5  C20 UNL     1      -0.711  -0.035  -2.802  1.00  0.00     0.070 C 
HETATM    6  C21 UNL     1       0.076   0.702  -1.737  1.00  0.00     0.214 C 
ENDROOT
BRANCH   1   7
HETATM    7  O2  UNL     1       1.401   0.014   0.194  1.00  0.00    -0.347 OA
BRANCH   7   8
HETATM    8  C9  UNL     1       2.487  -0.805   0.223  1.00  0.00     0.321 C 
HETATM    9  C4  UNL     1       3.798  -0.173  -0.063  1.00  0.00     0.116 C 
HETATM   10  C5  UNL     1       4.874  -1.217  -0.325  1.00  0.00     0.076 C 
HETATM   11  C6  UNL     1       4.452  -2.546   0.244  1.00  0.00     0.038 C 
HETATM   12  C7  UNL     1       3.504  -2.499   1.378  1.00  0.00     0.121 C 
HETATM   13  C8  UNL     1       4.196  -2.688   2.728  1.00  0.00     0.040 C 
HETATM   14  O1  UNL     1       2.676  -1.421   1.471  1.00  0.00    -0.350 OA
BRANCH   9  15
HETATM   15  N2  UNL     1       4.086   0.985  -0.099  1.00  0.00    -0.424 NA
BRANCH  15  16
HETATM   16  C3  UNL     1       4.411   2.256  -0.141  1.00  0.00     0.182 C 
BRANCH  16  17
HETATM   17  C2  UNL     1       5.842   2.614  -0.552  1.00  0.00     0.290 C 
BRANCH  17  18
HETATM   18  N1  UNL     1       6.125   2.143  -1.872  1.00  0.00    -0.074 N 
HETATM   19  C1  UNL     1       7.458   2.468  -2.277  1.00  0.00     0.267 C 
ATOM     20  H12 UNL     1       5.439   2.486  -2.544  1.00  0.00     0.277 HD
ATOM     21  H11 UNL     1       5.945   1.143  -1.956  1.00  0.00     0.277 HD
ENDBRANCH  17  18
ENDBRANCH  16  17
ENDBRANCH  15  16
ENDBRANCH   9  15
ENDBRANCH   7   8
ENDBRANCH   1   7
BRANCH   6  22
HETATM   22  N4  UNL     1       1.195   1.389  -2.300  1.00  0.00    -0.072 N 
ATOM     23  H43 UNL     1       1.762   1.806  -1.562  1.00  0.00     0.274 HD
ATOM     24  H42 UNL     1       1.865   0.721  -2.681  1.00  0.00     0.274 HD
ATOM     25  H41 UNL     1       0.957   2.090  -3.002  1.00  0.00     0.274 HD
ENDBRANCH   6  22
BRANCH   3  26
HETATM   26  O3  UNL     1      -3.119  -1.109  -0.160  1.00  0.00    -0.351 OA
BRANCH  26  27
HETATM   27  C13 UNL     1      -4.051  -0.371   0.509  1.00  0.00     0.292 C 
HETATM   28  O4  UNL     1      -5.344  -0.539   0.008  1.00  0.00    -0.351 OA
HETATM   29  C14 UNL     1      -6.245   0.372   0.480  1.00  0.00     0.152 C 
HETATM   30  C15 UNL     1      -7.624  -0.308   0.401  1.00  0.00     0.042 C 
HETATM   31  C16 UNL     1      -6.067   0.876   1.859  1.00  0.00     0.178 C 
HETATM   32  C17 UNL     1      -4.924   0.369   2.650  1.00  0.00     0.183 C 
HETATM   33  C18 UNL     1      -4.187  -0.768   1.987  1.00  0.00     0.204 C 
BRANCH  31  34
HETATM   34  O5  UNL     1      -7.240   0.755   2.633  1.00  0.00    -0.390 OA
ATOM     35  H5  UNL     1      -7.126   1.079   3.519  1.00  0.00     0.210 HD
ENDBRANCH  31  34
BRANCH  32  36
HETATM   36  O6  UNL     1      -5.343  -0.074   3.907  1.00  0.00    -0.390 OA
ATOM     37  H6  UNL     1      -4.609  -0.400   4.415  1.00  0.00     0.210 HD
ENDBRANCH  32  36
BRANCH  33  38
HETATM   38  O7  UNL     1      -5.010  -1.889   2.021  1.00  0.00    -0.388 OA
ATOM     39  H7  UNL     1      -5.094  -2.134   2.935  1.00  0.00     0.210 HD
ENDBRANCH  33  38
ENDBRANCH  26  27
ENDBRANCH   3  26
BRANCH   4  40
HETATM   40  N3  UNL     1      -3.045   0.385  -2.848  1.00  0.00    -0.072 N 
ATOM     41  H33 UNL     1      -3.978   0.178  -2.492  1.00  0.00     0.274 HD
ATOM     42  H32 UNL     1      -2.977   1.359  -2.554  1.00  0.00     0.274 HD
ATOM     43  H31 UNL     1      -3.005   0.297  -3.863  1.00  0.00     0.274 HD
ENDBRANCH   4  40
TORSDOF 13
