REMARK  12 active torsions:
REMARK  status: ('A' for Active; 'I' for Inactive)
REMARK    1  A    between atoms: C2_2  and  C3_3 
REMARK       I    between atoms: C3_3  and  N1_5 
REMARK    2  A    between atoms: N1_5  and  C4_7 
REMARK    3  A    between atoms: C4_7  and  C5_8 
REMARK    4  A    between atoms: C6_10  and  O3_11 
REMARK    5  A    between atoms: O3_11  and  C7_12 
REMARK    6  A    between atoms: C8_13  and  N2_14 
REMARK    7  A    between atoms: C12_21  and  O4_22 
REMARK    8  A    between atoms: O4_22  and  C13_23 
REMARK    9  A    between atoms: C16_26  and  O5_27 
REMARK   10  A    between atoms: C19_32  and  O7_33 
REMARK   11  A    between atoms: C20_35  and  O8_36 
REMARK   12  A    between atoms: C21_38  and  O9_39 
ROOT
HETATM    1  C7  UNL     1      -1.203   0.821  -0.894  1.00  0.00     0.184 C 
HETATM    2  C8  UNL     1      -0.834   1.439  -2.254  1.00  0.00     0.215 C 
HETATM    3  C9  UNL     1       0.062   0.428  -2.923  1.00  0.00     0.035 C 
HETATM    4  C10 UNL     1      -0.601  -0.896  -3.124  1.00  0.00     0.005 C 
HETATM    5  C11 UNL     1      -1.379  -1.380  -1.934  1.00  0.00     0.035 C 
HETATM    6  C12 UNL     1      -2.169  -0.289  -1.256  1.00  0.00     0.155 C 
ENDROOT
BRANCH   1   7
HETATM    7  O3  UNL     1      -0.030   0.221  -0.450  1.00  0.00    -0.349 OA
BRANCH   7   8
HETATM    8  C6  UNL     1       0.391   0.720   0.776  1.00  0.00     0.292 C 
HETATM    9  O2  UNL     1       1.608   1.366   0.702  1.00  0.00    -0.349 OA
HETATM   10  C5  UNL     1       2.696   0.506   0.547  1.00  0.00     0.173 C 
HETATM   11  C21 UNL     1       2.819  -0.300   1.847  1.00  0.00     0.180 C 
HETATM   12  C20 UNL     1       1.606  -1.201   1.877  1.00  0.00     0.183 C 
HETATM   13  C19 UNL     1       0.341  -0.406   1.775  1.00  0.00     0.204 C 
BRANCH  10  14
HETATM   14  C4  UNL     1       3.917   1.342   0.352  1.00  0.00     0.157 C 
BRANCH  14  15
HETATM   15  N1  UNL     1       5.069   0.494   0.173  1.00  0.00    -0.359 N 
HETATM   16  C3  UNL     1       6.364   1.039  -0.027  1.00  0.00     0.217 C 
HETATM   17  O1  UNL     1       6.484   2.288  -0.045  1.00  0.00    -0.274 OA
ATOM     18  H1  UNL     1       4.951  -0.519   0.190  1.00  0.00     0.162 HD
BRANCH  16  19
HETATM   19  C2  UNL     1       7.534   0.131  -0.209  1.00  0.00     0.098 C 
HETATM   20  C1  UNL     1       8.806   0.928  -0.406  1.00  0.00     0.014 C 
ENDBRANCH  16  19
ENDBRANCH  14  15
ENDBRANCH  10  14
BRANCH  11  21
HETATM   21  O9  UNL     1       2.895   0.529   2.950  1.00  0.00    -0.390 OA
ATOM     22  H9  UNL     1       2.971   0.030   3.755  1.00  0.00     0.210 HD
ENDBRANCH  11  21
BRANCH  12  23
HETATM   23  O8  UNL     1       1.616  -2.066   2.951  1.00  0.00    -0.390 OA
ATOM     24  H8  UNL     1       2.418  -2.570   3.016  1.00  0.00     0.210 HD
ENDBRANCH  12  23
BRANCH  13  25
HETATM   25  O7  UNL     1       0.059   0.150   3.025  1.00  0.00    -0.388 OA
ATOM     26  H7  UNL     1       0.027  -0.560   3.655  1.00  0.00     0.210 HD
ENDBRANCH  13  25
ENDBRANCH   7   8
ENDBRANCH   1   7
BRANCH   2  27
HETATM   27  N2  UNL     1      -0.136   2.684  -2.086  1.00  0.00    -0.072 N 
ATOM     28  H23 UNL     1      -0.666   3.337  -1.509  1.00  0.00     0.274 HD
ATOM     29  H22 UNL     1       0.683   2.577  -1.488  1.00  0.00     0.274 HD
ATOM     30  H21 UNL     1       0.109   3.094  -2.988  1.00  0.00     0.274 HD
ENDBRANCH   2  27
BRANCH   6  31
HETATM   31  O4  UNL     1      -2.851  -0.811  -0.187  1.00  0.00    -0.353 OA
BRANCH  31  32
HETATM   32  C13 UNL     1      -4.223  -0.600  -0.310  1.00  0.00     0.261 C 
HETATM   33  C14 UNL     1      -4.768   0.184   0.873  1.00  0.00     0.070 C 
HETATM   34  C15 UNL     1      -6.225  -0.208   0.862  1.00  0.00     0.048 A 
HETATM   35  C16 UNL     1      -6.701  -0.872   2.134  1.00  0.00     0.127 A 
HETATM   36  C18 UNL     1      -6.220  -1.503   0.110  1.00  0.00     0.133 A 
HETATM   37  C17 UNL     1      -6.679  -2.190   1.400  1.00  0.00     0.064 A 
HETATM   38  O6  UNL     1      -4.919  -1.781  -0.242  1.00  0.00    -0.355 OA
BRANCH  35  39
HETATM   39  O5  UNL     1      -5.821  -0.792   3.207  1.00  0.00    -0.395 OA
ATOM     40  H5  UNL     1      -6.120  -1.209   4.006  1.00  0.00     0.210 HD
ENDBRANCH  35  39
ENDBRANCH  31  32
ENDBRANCH   6  31
TORSDOF 12
