REMARK  10 active torsions:
REMARK  status: ('A' for Active; 'I' for Inactive)
REMARK    1  A    between atoms: C3_3  and  C4_4 
REMARK    2  A    between atoms: C5_5  and  C6_6 
REMARK    3  A    between atoms: C8_9  and  O2_10 
REMARK    4  A    between atoms: O2_10  and  C9_11 
REMARK    5  A    between atoms: C10_13  and  O4_14 
REMARK    6  A    between atoms: C13_19  and  O5_20 
REMARK    7  A    between atoms: C14_22  and  O6_23 
REMARK    8  A    between atoms: C17_28  and  C18_29 
REMARK    9  A    between atoms: C19_32  and  O10_33 
REMARK   10  A    between atoms: C19_32  and  C20_35 
ROOT
HETATM    1  C6  UNL     1       1.590  -0.751   0.561  1.00  0.00     0.157 C 
HETATM    2  O1  UNL     1       0.752   0.354   0.615  1.00  0.00    -0.358 OA
HETATM    3  C7  UNL     1      -0.359  -0.394   0.305  1.00  0.00     0.193 C 
HETATM    4  C8  UNL     1      -1.382   0.152  -0.612  1.00  0.00     0.188 C 
HETATM    5  C13 UNL     1      -0.816   0.462  -1.943  1.00  0.00     0.178 C 
HETATM    6  C14 UNL     1      -0.030  -0.625  -2.566  1.00  0.00     0.152 C 
HETATM    7  C15 UNL     1       0.682  -1.566  -1.691  1.00  0.00     0.079 C 
HETATM    8  C16 UNL     1       0.530  -1.444  -0.241  1.00  0.00     0.131 C 
HETATM    9  O7  UNL     1       0.304  -2.681   0.360  1.00  0.00    -0.354 OA
HETATM   10  C17 UNL     1       0.527  -2.566   1.708  1.00  0.00     0.272 C 
HETATM   11  C19 UNL     1       1.666  -1.602   1.811  1.00  0.00     0.220 C 
ENDROOT
BRANCH   4  12
HETATM   12  O2  UNL     1      -1.976   1.282  -0.047  1.00  0.00    -0.348 OA
BRANCH  12  13
HETATM   13  C9  UNL     1      -3.325   1.123   0.158  1.00  0.00     0.297 C 
HETATM   14  O3  UNL     1      -3.639   1.182   1.509  1.00  0.00    -0.329 OA
HETATM   15  C10 UNL     1      -4.966   1.580   1.593  1.00  0.00     0.263 C 
HETATM   16  C11 UNL     1      -5.250   2.455   0.421  1.00  0.00     0.103 C 
HETATM   17  C12 UNL     1      -4.182   2.100  -0.559  1.00  0.00     0.230 C 
HETATM   18  F1  UNL     1      -3.510   3.244  -0.949  1.00  0.00    -0.244 F 
BRANCH  15  19
HETATM   19  O4  UNL     1      -5.282   2.200   2.780  1.00  0.00    -0.371 OA
ATOM     20  H4  UNL     1      -6.190   2.472   2.837  1.00  0.00     0.212 HD
ENDBRANCH  15  19
ENDBRANCH  12  13
ENDBRANCH   4  12
BRANCH   5  21
HETATM   21  O5  UNL     1      -0.142   1.709  -1.959  1.00  0.00    -0.390 OA
ATOM     22  H5  UNL     1       0.222   1.908  -2.814  1.00  0.00     0.210 HD
ENDBRANCH   5  21
BRANCH   6  23
HETATM   23  O6  UNL     1       0.828  -0.029  -3.525  1.00  0.00    -0.393 OA
ATOM     24  H6  UNL     1       1.333  -0.727  -3.925  1.00  0.00     0.210 HD
ENDBRANCH   6  23
BRANCH   1  25
HETATM   25  C5  UNL     1       2.902  -0.565  -0.044  1.00  0.00     0.018 C 
HETATM   26  C4  UNL     1       3.231   0.433  -0.819  1.00  0.00    -0.001 C 
BRANCH  26  27
HETATM   27  C3  UNL     1       4.570   0.556  -1.390  1.00  0.00    -0.005 C 
HETATM   28  C2  UNL     1       4.915   1.547  -2.179  1.00  0.00    -0.031 C 
HETATM   29  C1  UNL     1       3.944   2.617  -2.544  1.00  0.00     0.036 C 
ENDBRANCH  26  27
ENDBRANCH   1  25
BRANCH  11  30
HETATM   30  O10 UNL     1       2.834  -2.402   1.638  1.00  0.00    -0.373 OA
ATOM     31  H10 UNL     1       2.882  -2.936   2.422  1.00  0.00     0.211 HD
ENDBRANCH  11  30
BRANCH  11  32
HETATM   32  C20 UNL     1       1.787  -0.871   3.058  1.00  0.00     0.216 C 
HETATM   33  O11 UNL     1       2.792  -0.964   3.807  1.00  0.00    -0.646 OA
HETATM   34  O12 UNL     1       0.782  -0.013   3.503  1.00  0.00    -0.646 OA
ENDBRANCH  11  32
BRANCH  10  35
HETATM   35  C18 UNL     1       0.962  -3.892   2.246  1.00  0.00     0.207 C 
HETATM   36  O8  UNL     1       1.209  -4.110   3.462  1.00  0.00    -0.646 OA
HETATM   37  O9  UNL     1       1.102  -4.938   1.362  1.00  0.00    -0.646 OA
ENDBRANCH  10  35
TORSDOF 10
