REMARK  8 active torsions:
REMARK  status: ('A' for Active; 'I' for Inactive)
REMARK       I    between atoms: N1_2  and  C2_4 
REMARK    1  A    between atoms: C2_4  and  C3_6 
REMARK    2  A    between atoms: C4_7  and  C5_8 
REMARK    3  A    between atoms: C6_9  and  C7_10 
REMARK       I    between atoms: C7_10  and  N2_12 
REMARK    4  A    between atoms: C11_16  and  C12_17 
REMARK    5  A    between atoms: C12_17  and  C13_18 
REMARK    6  A    between atoms: C12_17  and  N4_21 
REMARK    7  A    between atoms: N4_21  and  C14_22 
REMARK       I    between atoms: N4_21  and  C20_33 
REMARK    8  A    between atoms: N6_29  and  C19_31 
ROOT
HETATM    1  C12 UNL     1      -0.869   0.134  -0.197  1.00  0.00     0.186 C 
ENDROOT
BRANCH   1   2
HETATM    2  C11 UNL     1      -0.206   0.365   1.102  1.00  0.00     0.036 C 
HETATM    3  C10 UNL     1      -1.088   0.004   2.278  1.00  0.00     0.010 C 
HETATM    4  C9  UNL     1      -0.782  -1.368   2.857  1.00  0.00     0.020 C 
HETATM    5  C8  UNL     1      -0.021  -2.267   1.934  1.00  0.00     0.127 C 
HETATM    6  N2  UNL     1       1.191  -1.619   1.443  1.00  0.00    -0.341 N 
HETATM    7  C7  UNL     1       2.355  -2.359   1.153  1.00  0.00     0.299 C 
HETATM    8  C21 UNL     1       1.184  -0.192   1.267  1.00  0.00     0.134 C 
HETATM    9  O2  UNL     1       2.335  -3.610   1.316  1.00  0.00    -0.258 OA
BRANCH   7  10
HETATM   10  C6  UNL     1       3.521  -1.678   0.687  1.00  0.00     0.009 C 
HETATM   11  C5  UNL     1       4.506  -1.091   0.310  1.00  0.00    -0.004 C 
BRANCH  11  12
HETATM   12  C4  UNL     1       5.657  -0.389  -0.115  1.00  0.00    -0.004 C 
HETATM   13  C3  UNL     1       6.639   0.220  -0.461  1.00  0.00     0.009 C 
BRANCH  13  14
HETATM   14  C2  UNL     1       7.812   0.971  -0.868  1.00  0.00     0.296 C 
HETATM   15  N1  UNL     1       8.797   0.325  -1.655  1.00  0.00    -0.355 N 
HETATM   16  C1  UNL     1       9.961   1.066  -2.061  1.00  0.00     0.150 C 
ATOM     17  H1  UNL     1       8.683  -0.651  -1.930  1.00  0.00     0.162 HD
HETATM   18  O1  UNL     1       7.954   2.172  -0.531  1.00  0.00    -0.258 OA
ENDBRANCH  13  14
ENDBRANCH  11  12
ENDBRANCH   7  10
ENDBRANCH   1   2
BRANCH   1  19
HETATM   19  C13 UNL     1       0.082   0.426  -1.352  1.00  0.00     0.255 C 
HETATM   20  N3  UNL     1      -0.063   1.561  -2.180  1.00  0.00    -0.060 NA
HETATM   21  O3  UNL     1       1.022  -0.358  -1.579  1.00  0.00    -0.275 OA
ENDBRANCH   1  19
BRANCH   1  22
HETATM   22  N4  UNL     1      -2.016   1.004  -0.468  1.00  0.00    -0.317 N 
HETATM   23  C20 UNL     1      -2.371   2.240   0.047  1.00  0.00     0.188 C 
HETATM   24  N7  UNL     1      -2.988   3.063  -0.810  1.00  0.00    -0.373 N 
HETATM   25  N8  UNL     1      -2.193   2.807   1.314  1.00  0.00    -0.064 NA
ATOM     26  H72 UNL     1      -3.118   2.650  -1.733  1.00  0.00     0.158 HD
ATOM     27  H71 UNL     1      -3.249   3.973  -0.431  1.00  0.00     0.158 HD
BRANCH  22  28
HETATM   28  C14 UNL     1      -2.839   0.495  -1.546  1.00  0.00     0.105 C 
HETATM   29  C15 UNL     1      -3.975  -0.061  -1.372  1.00  0.00     0.003 C 
HETATM   30  C16 UNL     1      -4.805  -0.583  -2.531  1.00  0.00     0.063 C 
HETATM   31  C18 UNL     1      -4.784  -0.355  -0.200  1.00  0.00     0.110 C 
HETATM   32  C17 UNL     1      -5.334  -1.867  -1.906  1.00  0.00     0.126 C 
HETATM   33  N5  UNL     1      -5.449  -1.597  -0.484  1.00  0.00    -0.376 N 
ATOM     34  H5  UNL     1      -5.922  -2.189   0.199  1.00  0.00     0.161 HD
HETATM   35  N6  UNL     1      -4.869   0.372   0.845  1.00  0.00    -0.320 N 
ATOM     36  H6  UNL     1      -4.348   1.246   0.923  1.00  0.00     0.169 HD
BRANCH  35  37
HETATM   37  C19 UNL     1      -5.712  -0.075   1.896  1.00  0.00     0.354 C 
HETATM   38  O4  UNL     1      -6.881  -0.446   1.671  1.00  0.00    -0.283 OA
ENDBRANCH  35  37
ENDBRANCH  22  28
ENDBRANCH   1  22
TORSDOF 8
