REMARK  10 active torsions:
REMARK  status: ('A' for Active; 'I' for Inactive)
REMARK    1  A    between atoms: N1_2  and  C2_4 
REMARK    2  A    between atoms: C3_7  and  C4_8 
REMARK    3  A    between atoms: C5_9  and  C6_10 
REMARK       I    between atoms: C6_10  and  N3_12 
REMARK    4  A    between atoms: C9_15  and  S1_16 
REMARK    5  A    between atoms: S1_16  and  N4_17 
REMARK    6  A    between atoms: C10_22  and  C11_23 
REMARK    7  A    between atoms: C11_23  and  N5_25 
REMARK    8  A    between atoms: N5_25  and  C13_27 
REMARK    9  A    between atoms: C13_27  and  O4_28 
REMARK   10  A    between atoms: C14_30  and  N6_31 
ROOT
HETATM    1  C6  UNL     1       1.732  -0.601  -0.604  1.00  0.00     0.299 C 
HETATM    2  O1  UNL     1       1.745   0.222  -1.540  1.00  0.00    -0.258 OA
HETATM    3  N3  UNL     1       0.899  -1.693  -0.561  1.00  0.00    -0.333 N 
HETATM    4  C7  UNL     1       0.945  -2.681   0.554  1.00  0.00     0.129 C 
HETATM    5  C8  UNL     1       1.225  -3.910  -0.325  1.00  0.00     0.044 C 
HETATM    6  C9  UNL     1       0.485  -3.595  -1.679  1.00  0.00     0.155 C 
HETATM    7  C10 UNL     1      -0.125  -2.289  -1.378  1.00  0.00     0.130 C 
ENDROOT
BRANCH   1   8
HETATM    8  C5  UNL     1       2.698  -0.290   0.459  1.00  0.00     0.003 C 
HETATM    9  C4  UNL     1       3.507  -0.050   1.323  1.00  0.00    -0.018 C 
BRANCH   9  10
HETATM   10  C3  UNL     1       4.483   0.249   2.333  1.00  0.00     0.192 A 
HETATM   11  N2  UNL     1       4.798   1.469   2.769  1.00  0.00    -0.166 N 
HETATM   12  C2  UNL     1       5.751   1.387   3.717  1.00  0.00     0.694 A 
ATOM     13  H2  UNL     1       4.379   2.336   2.434  1.00  0.00     0.186 HD
HETATM   14  N8  UNL     1       6.035   0.069   3.873  1.00  0.00    -0.130 N 
HETATM   15  N7  UNL     1       5.265  -0.599   3.035  1.00  0.00    -0.263 N 
ATOM     16  H8  UNL     1       6.717  -0.331   4.518  1.00  0.00     0.205 HD
ATOM     17  H7  UNL     1       5.261  -1.614   2.932  1.00  0.00     0.189 HD
BRANCH  12  18
HETATM   18  N1  UNL     1       6.327   2.323   4.387  1.00  0.00    -0.229 N 
HETATM   19  C1  UNL     1       5.959   3.706   4.153  1.00  0.00     0.165 C 
ATOM     20  H1  UNL     1       7.039   2.093   5.080  1.00  0.00     0.177 HD
ENDBRANCH  12  18
ENDBRANCH   9  10
ENDBRANCH   1   8
BRANCH   7  21
HETATM   21  C11 UNL     1      -0.614  -1.408  -2.434  1.00  0.00     0.104 C 
HETATM   22  C12 UNL     1      -1.688  -2.084  -3.328  1.00  0.00     0.034 C 
BRANCH  21  23
HETATM   23  N5  UNL     1      -1.359  -0.252  -1.910  1.00  0.00    -0.364 N 
ATOM     24  H5  UNL     1      -1.837  -0.370  -1.017  1.00  0.00     0.162 HD
BRANCH  23  25
HETATM   25  C13 UNL     1      -1.466   0.984  -2.529  1.00  0.00     0.160 C 
HETATM   26  C14 UNL     1      -2.175   2.152  -2.071  1.00  0.00     0.257 C 
BRANCH  25  27
HETATM   27  O4  UNL     1      -0.859   1.140  -3.670  1.00  0.00    -0.345 OA
ATOM     28  H4  UNL     1      -0.932   1.987  -4.094  1.00  0.00     0.219 HD
ENDBRANCH  25  27
BRANCH  26  29
HETATM   29  N6  UNL     1      -2.881   2.122  -0.840  1.00  0.00    -0.047 N 
HETATM   30  C15 UNL     1      -2.156   1.751   0.324  1.00  0.00     0.278 C 
HETATM   31  C16 UNL     1      -4.123   1.395  -0.908  1.00  0.00     0.243 C 
HETATM   32  C17 UNL     1      -4.958   1.896   0.267  1.00  0.00     0.030 C 
HETATM   33  C18 UNL     1      -4.499   3.304   0.444  1.00  0.00     0.030 C 
HETATM   34  C19 UNL     1      -3.418   3.489  -0.574  1.00  0.00     0.243 C 
ENDBRANCH  26  29
ENDBRANCH  23  25
ENDBRANCH  21  23
ENDBRANCH   7  21
BRANCH   6  35
HETATM   35  S1  UNL     1      -0.570  -4.980  -1.892  1.00  0.00     0.230 S 
HETATM   36  O2  UNL     1      -1.706  -5.031  -0.927  1.00  0.00    -0.206 OA
HETATM   37  O3  UNL     1      -1.023  -5.138  -3.336  1.00  0.00    -0.206 OA
BRANCH  35  38
HETATM   38  N4  UNL     1       0.361  -6.459  -1.626  1.00  0.00    -0.328 N 
ATOM     39  H42 UNL     1       1.352  -6.486  -1.387  1.00  0.00     0.168 HD
ATOM     40  H41 UNL     1      -0.253  -7.264  -1.750  1.00  0.00     0.168 HD
ENDBRANCH  35  38
ENDBRANCH   6  35
TORSDOF 10
