REMARK  6 active torsions:
REMARK  status: ('A' for Active; 'I' for Inactive)
REMARK       I    between atoms: C1_4  and  N3_6 
REMARK    1  A    between atoms: N4_9  and  S1_10 
REMARK    2  A    between atoms: S1_10  and  N5_13 
REMARK       I    between atoms: N5_13  and  C4_15 
REMARK       I    between atoms: C4_15  and  N6_17 
REMARK    3  A    between atoms: N7_20  and  C7_21 
REMARK    4  A    between atoms: C7_21  and  O4_22 
REMARK    5  A    between atoms: C7_21  and  N8_24 
REMARK    6  A    between atoms: N9_29  and  C12_31 
ROOT
HETATM    1  N5  UNL     1       1.834   1.822   0.139  1.00  0.00    -0.223 N 
ATOM      2  H5  UNL     1       1.760   0.879   0.521  1.00  0.00     0.184 HD
HETATM    3  C4  UNL     1       0.651   2.535  -0.154  1.00  0.00     0.332 C 
HETATM    4  O3  UNL     1       0.820   3.710  -0.630  1.00  0.00    -0.246 OA
HETATM    5  N6  UNL     1      -0.655   2.081   0.025  1.00  0.00    -0.330 N 
HETATM    6  C5  UNL     1      -1.774   2.942  -0.327  1.00  0.00     0.147 C 
HETATM    7  C6  UNL     1      -3.058   2.432   0.186  1.00  0.00     0.146 C 
HETATM    8  N7  UNL     1      -3.260   0.982   0.067  1.00  0.00    -0.344 N 
HETATM    9  C13 UNL     1      -2.132   0.164  -0.185  1.00  0.00     0.146 C 
HETATM   10  C14 UNL     1      -0.916   0.762   0.564  1.00  0.00     0.147 C 
ENDROOT
BRANCH   1  11
HETATM   11  S1  UNL     1       3.401   2.494  -0.129  1.00  0.00     0.306 S 
HETATM   12  O1  UNL     1       3.691   3.496   0.963  1.00  0.00    -0.188 OA
HETATM   13  O2  UNL     1       3.485   3.240  -1.429  1.00  0.00    -0.188 OA
BRANCH  11  14
HETATM   14  N4  UNL     1       4.651   1.325  -0.100  1.00  0.00    -0.190 NA
HETATM   15  C3  UNL     1       4.776   0.649   1.143  1.00  0.00     0.129 C 
HETATM   16  C2  UNL     1       5.078  -0.813   0.960  1.00  0.00     0.141 C 
HETATM   17  N3  UNL     1       6.178  -0.936   0.027  1.00  0.00    -0.354 N 
HETATM   18  C1  UNL     1       7.400  -1.560   0.377  1.00  0.00     0.184 C 
HETATM   19  C16 UNL     1       5.939  -0.371  -1.305  1.00  0.00     0.141 C 
HETATM   20  N1  UNL     1       8.476  -0.892   0.597  1.00  0.00    -0.374 N 
HETATM   21  N2  UNL     1       7.412  -2.977   0.481  1.00  0.00    -0.064 NA
ATOM     22  H12 UNL     1       9.356  -1.341   0.849  1.00  0.00     0.158 HD
ATOM     23  H11 UNL     1       8.467   0.125   0.522  1.00  0.00     0.158 HD
HETATM   24  C15 UNL     1       4.682   0.496  -1.274  1.00  0.00     0.129 C 
ENDBRANCH  11  14
ENDBRANCH   1  11
BRANCH   8  25
HETATM   25  C7  UNL     1      -4.603   0.551   0.181  1.00  0.00     0.223 C 
BRANCH  25  26
HETATM   26  O4  UNL     1      -5.470   1.514   0.329  1.00  0.00    -0.332 OA
ATOM     27  H4  UNL     1      -6.372   1.225   0.406  1.00  0.00     0.221 HD
ENDBRANCH  25  26
BRANCH  25  28
HETATM   28  N8  UNL     1      -5.125  -0.764   0.153  1.00  0.00    -0.302 N 
HETATM   29  C8  UNL     1      -4.479  -2.049   0.071  1.00  0.00     0.134 C 
HETATM   30  C9  UNL     1      -5.571  -3.105   0.067  1.00  0.00     0.028 C 
HETATM   31  C10 UNL     1      -6.766  -2.397   0.694  1.00  0.00     0.078 C 
HETATM   32  C11 UNL     1      -6.567  -1.004   0.175  1.00  0.00     0.088 C 
HETATM   33  N9  UNL     1      -7.465  -0.163  -0.197  1.00  0.00    -0.324 N 
ATOM     34  H9  UNL     1      -7.167   0.751  -0.538  1.00  0.00     0.169 HD
BRANCH  33  35
HETATM   35  C12 UNL     1      -8.846  -0.451  -0.153  1.00  0.00     0.354 C 
HETATM   36  O5  UNL     1      -9.426  -1.123  -1.045  1.00  0.00    -0.283 OA
ENDBRANCH  33  35
ENDBRANCH  25  28
ENDBRANCH   8  25
TORSDOF 6
