REMARK  9 active torsions:
REMARK  status: ('A' for Active; 'I' for Inactive)
REMARK    1  A    between atoms: O1_2  and  N1_3 
REMARK    2  A    between atoms: N1_3  and  C2_5 
REMARK    3  A    between atoms: C3_8  and  N3_9 
REMARK    4  A    between atoms: C5_17  and  N6_18 
REMARK    5  A    between atoms: N6_18  and  C6_20 
REMARK    6  A    between atoms: C6_20  and  C7_21 
REMARK    7  A    between atoms: C7_21  and  C8_22 
REMARK    8  A    between atoms: C8_22  and  C9_23 
REMARK    9  A    between atoms: C9_23  and  O2_24 
ROOT
HETATM    1  C2  UNL     1       3.266  -0.254   0.084  1.00  0.00     0.160 A 
HETATM    2  N2  UNL     1       3.852  -1.387   0.517  1.00  0.00    -0.174 N 
ATOM      3  H2  UNL     1       4.870  -1.444   0.558  1.00  0.00     0.186 HD
HETATM    4  C3  UNL     1       3.113  -2.444   0.896  1.00  0.00     0.679 A 
HETATM    5  N4  UNL     1       1.776  -2.317   0.822  1.00  0.00    -0.175 N 
ATOM      6  H4  UNL     1       1.208  -3.115   1.107  1.00  0.00     0.186 HD
HETATM    7  C4  UNL     1       1.142  -1.225   0.404  1.00  0.00     0.156 A 
HETATM    8  N5  UNL     1      -0.194  -1.106   0.333  1.00  0.00    -0.175 N 
ATOM      9  H5  UNL     1      -0.768  -1.900   0.617  1.00  0.00     0.186 HD
HETATM   10  C5  UNL     1      -0.815   0.015  -0.096  1.00  0.00     0.682 A 
HETATM   11  N7  UNL     1      -0.062   1.063  -0.472  1.00  0.00    -0.155 N 
ATOM     12  H7  UNL     1      -0.527   1.911  -0.797  1.00  0.00     0.187 HD
HETATM   13  C10 UNL     1       1.290   1.035  -0.435  1.00  0.00     0.277 A 
HETATM   14  O3  UNL     1       2.010   2.000  -0.780  1.00  0.00    -0.266 OA
HETATM   15  C11 UNL     1       1.888  -0.134   0.012  1.00  0.00     0.124 A 
ENDROOT
BRANCH  10  16
HETATM   16  N6  UNL     1      -2.092   0.117  -0.160  1.00  0.00    -0.226 N 
ATOM     17  H6  UNL     1      -2.467   1.003  -0.498  1.00  0.00     0.177 HD
BRANCH  16  18
HETATM   18  C6  UNL     1      -3.029  -0.880   0.193  1.00  0.00     0.138 C 
BRANCH  18  19
HETATM   19  C7  UNL     1      -4.395  -0.600  -0.310  1.00  0.00     0.022 C 
BRANCH  19  20
HETATM   20  C8  UNL     1      -5.039   0.614   0.213  1.00  0.00     0.028 C 
BRANCH  20  21
HETATM   21  C9  UNL     1      -4.389   1.936  -0.038  1.00  0.00     0.164 C 
BRANCH  21  22
HETATM   22  O2  UNL     1      -5.257   2.918   0.528  1.00  0.00    -0.401 OA
ATOM     23  H2  UNL     1      -4.844   3.758   0.368  1.00  0.00     0.209 HD
ENDBRANCH  21  22
ENDBRANCH  20  21
ENDBRANCH  19  20
ENDBRANCH  18  19
ENDBRANCH  16  18
ENDBRANCH  10  16
BRANCH   4  24
HETATM   24  N3  UNL     1       3.685  -3.545   1.317  1.00  0.00    -0.234 N 
ATOM     25  H32 UNL     1       4.699  -3.641   1.373  1.00  0.00     0.174 HD
ATOM     26  H31 UNL     1       3.124  -4.347   1.605  1.00  0.00     0.174 HD
ENDBRANCH   4  24
BRANCH   1  27
HETATM   27  N1  UNL     1       3.955   0.781  -0.288  1.00  0.00    -0.249 N 
ATOM     28  H1  UNL     1       3.496   1.632  -0.614  1.00  0.00     0.196 HD
BRANCH  27  29
HETATM   29  O1  UNL     1       5.320   0.691  -0.228  1.00  0.00    -0.284 OA
HETATM   30  C1  UNL     1       6.179   1.808  -0.355  1.00  0.00     0.237 C 
ENDBRANCH  27  29
ENDBRANCH   1  27
TORSDOF 9
