REMARK  8 active torsions:
REMARK  status: ('A' for Active; 'I' for Inactive)
REMARK    1  A    between atoms: C5_10  and  N3_11 
REMARK    2  A    between atoms: N3_11  and  C6_13 
REMARK    3  A    between atoms: C6_13  and  C7_14 
REMARK    4  A    between atoms: C7_14  and  N4_15 
REMARK    5  A    between atoms: N4_15  and  C8_17 
REMARK    6  A    between atoms: C8_17  and  C9_18 
REMARK    7  A    between atoms: C9_18  and  N5_19 
REMARK    8  A    between atoms: C10_25  and  N7_26 
ROOT
HETATM    1  C1  UNL     1      -5.606   0.096  -0.582  1.00  0.00     0.163 C 
HETATM    2  N1  UNL     1      -4.383   0.658  -0.044  1.00  0.00    -0.288 N 
HETATM    3  C2  UNL     1      -4.349   1.883   0.502  1.00  0.00     0.330 A 
HETATM    4  O1  UNL     1      -5.420   2.567   0.548  1.00  0.00    -0.246 OA
HETATM    5  N2  UNL     1      -3.251   2.452   1.013  1.00  0.00    -0.274 N 
ATOM      6  H2  UNL     1      -3.298   3.389   1.413  1.00  0.00     0.173 HD
HETATM    7  C3  UNL     1      -2.086   1.783   0.997  1.00  0.00     0.267 A 
HETATM    8  O2  UNL     1      -1.018   2.293   1.474  1.00  0.00    -0.267 OA
HETATM    9  C4  UNL     1      -2.075   0.520   0.444  1.00  0.00     0.121 A 
HETATM   10  C5  UNL     1      -0.856  -0.171   0.430  1.00  0.00     0.136 A 
HETATM   11  N6  UNL     1      -0.882  -1.397  -0.115  1.00  0.00    -0.176 N 
ATOM     12  H6  UNL     1      -0.022  -1.944  -0.151  1.00  0.00     0.186 HD
HETATM   13  C10 UNL     1      -2.027  -1.927  -0.620  1.00  0.00     0.679 A 
HETATM   14  N8  UNL     1      -3.191  -1.272  -0.608  1.00  0.00    -0.175 N 
ATOM     15  H8  UNL     1      -4.034  -1.697  -0.994  1.00  0.00     0.186 HD
HETATM   16  C11 UNL     1      -3.223  -0.039  -0.074  1.00  0.00     0.146 A 
ENDROOT
BRANCH  10  17
HETATM   17  N3  UNL     1       0.165   0.394   0.922  1.00  0.00    -0.373 N 
ATOM     18  H3  UNL     1       0.011   1.330   1.298  1.00  0.00     0.161 HD
BRANCH  17  19
HETATM   19  C6  UNL     1       1.499  -0.095   1.024  1.00  0.00     0.140 C 
BRANCH  19  20
HETATM   20  C7  UNL     1       2.398   0.873   0.267  1.00  0.00     0.133 C 
BRANCH  20  21
HETATM   21  N4  UNL     1       3.776   0.524   0.277  1.00  0.00    -0.418 N 
ATOM     22  H4  UNL     1       4.478   1.074   0.773  1.00  0.00     0.153 HD
BRANCH  21  23
HETATM   23  C8  UNL     1       4.102  -0.652  -0.458  1.00  0.00     0.141 C 
BRANCH  23  24
HETATM   24  C9  UNL     1       5.613  -0.862  -0.340  1.00  0.00     0.248 C 
BRANCH  24  25
HETATM   25  N5  UNL     1       6.225   0.340  -0.917  1.00  0.00    -0.078 N 
ATOM     26  H53 UNL     1       5.913   0.543  -1.867  1.00  0.00     0.274 HD
ATOM     27  H52 UNL     1       5.898   1.209  -0.494  1.00  0.00     0.274 HD
ATOM     28  H51 UNL     1       7.232   0.200  -0.838  1.00  0.00     0.274 HD
ENDBRANCH  24  25
ENDBRANCH  23  24
ENDBRANCH  21  23
ENDBRANCH  20  21
ENDBRANCH  19  20
ENDBRANCH  17  19
ENDBRANCH  10  17
BRANCH  13  29
HETATM   29  N7  UNL     1      -2.016  -3.112  -1.137  1.00  0.00    -0.234 N 
ATOM     30  H72 UNL     1      -1.127  -3.612  -1.146  1.00  0.00     0.174 HD
ATOM     31  H71 UNL     1      -2.875  -3.510  -1.516  1.00  0.00     0.174 HD
ENDBRANCH  13  29
TORSDOF 8
