REMARK  12 active torsions:
REMARK  status: ('A' for Active; 'I' for Inactive)
REMARK    1  A    between atoms: N1_2  and  C3_4 
REMARK    2  A    between atoms: N1_2  and  C14_22 
REMARK    3  A    between atoms: C3_4  and  C4_5 
REMARK    4  A    between atoms: C5_6  and  C6_7 
REMARK    5  A    between atoms: C6_7  and  C7_8 
REMARK    6  A    between atoms: C9_10  and  C10_11 
REMARK    7  A    between atoms: C10_11  and  O1_12 
REMARK       I    between atoms: N2_15  and  C12_16 
REMARK    8  A    between atoms: C14_22  and  C15_23 
REMARK       I    between atoms: C15_23  and  N6_25 
REMARK    9  A    between atoms: N6_25  and  C16_27 
REMARK   10  A    between atoms: C16_27  and  C17_28 
REMARK   11  A    between atoms: C17_28  and  C18_29 
REMARK   12  A    between atoms: C18_29  and  N7_30 
ROOT
HETATM    1  C7  UNL     1      -4.178   1.043   0.942  1.00  0.00     0.090 C 
HETATM    2  C8  UNL     1      -4.734   1.196  -0.433  1.00  0.00     0.034 C 
HETATM    3  C9  UNL     1      -6.041   0.406  -0.432  1.00  0.00     0.029 C 
HETATM    4  C11 UNL     1      -5.823  -0.562   0.714  1.00  0.00     0.132 C 
HETATM    5  N2  UNL     1      -5.018   0.161   1.666  1.00  0.00    -0.349 N 
HETATM    6  C12 UNL     1      -5.080  -0.005   3.076  1.00  0.00     0.199 C 
HETATM    7  N3  UNL     1      -6.000   0.764   3.875  1.00  0.00    -0.063 NA
HETATM    8  N4  UNL     1      -4.328  -0.840   3.700  1.00  0.00    -0.267 N 
ATOM      9  H4  UNL     1      -3.659  -1.410   3.182  1.00  0.00     0.180 HD
HETATM   10  C13 UNL     1      -4.425  -0.966   5.073  1.00  0.00     0.184 C 
HETATM   11  N5  UNL     1      -4.502  -1.082   6.227  1.00  0.00    -0.172 NA
ENDROOT
BRANCH   1  12
HETATM   12  C6  UNL     1      -2.716   0.647   0.926  1.00  0.00     0.052 C 
BRANCH  12  13
HETATM   13  C5  UNL     1      -2.476  -0.623   0.245  1.00  0.00    -0.027 C 
HETATM   14  C4  UNL     1      -1.732  -0.812  -0.791  1.00  0.00    -0.003 C 
BRANCH  14  15
HETATM   15  C3  UNL     1      -0.979   0.205  -1.493  1.00  0.00     0.264 C 
BRANCH  15  16
HETATM   16  N1  UNL     1       0.465  -0.051  -1.512  1.00  0.00    -0.063 N 
HETATM   17  C1  UNL     1       0.786  -1.059  -2.494  1.00  0.00     0.272 C 
HETATM   18  C2  UNL     1       1.065   1.210  -1.876  1.00  0.00     0.272 C 
BRANCH  16  19
HETATM   19  C14 UNL     1       0.847  -0.468  -0.195  1.00  0.00     0.339 C 
BRANCH  19  20
HETATM   20  C15 UNL     1       2.258  -0.708   0.066  1.00  0.00     0.243 C 
HETATM   21  O2  UNL     1       2.557  -1.082   1.263  1.00  0.00    -0.272 OA
HETATM   22  N6  UNL     1       3.334  -0.581  -0.826  1.00  0.00    -0.360 N 
ATOM     23  H6  UNL     1       3.142  -0.293  -1.786  1.00  0.00     0.162 HD
BRANCH  22  24
HETATM   24  C16 UNL     1       4.705  -0.842  -0.440  1.00  0.00     0.124 C 
BRANCH  24  25
HETATM   25  C17 UNL     1       5.232   0.053   0.624  1.00  0.00     0.039 C 
BRANCH  25  26
HETATM   26  C18 UNL     1       6.675  -0.352   0.894  1.00  0.00     0.123 C 
BRANCH  26  27
HETATM   27  N7  UNL     1       7.445  -0.204  -0.321  1.00  0.00    -0.367 N 
HETATM   28  C19 UNL     1       8.675   0.161  -0.294  1.00  0.00     0.196 C 
HETATM   29  N8  UNL     1       9.384   0.291  -1.511  1.00  0.00    -0.067 NA
HETATM   30  N9  UNL     1       9.332   0.435   0.929  1.00  0.00    -0.067 NA
ATOM     31  H7  UNL     1       7.001  -0.394  -1.219  1.00  0.00     0.161 HD
ENDBRANCH  26  27
ENDBRANCH  25  26
ENDBRANCH  24  25
ENDBRANCH  22  24
ENDBRANCH  19  20
ENDBRANCH  16  19
ENDBRANCH  15  16
ENDBRANCH  14  15
ENDBRANCH  12  13
ENDBRANCH   1  12
BRANCH   3  32
HETATM   32  C10 UNL     1      -6.162  -0.294  -1.753  1.00  0.00     0.170 C 
BRANCH  32  33
HETATM   33  O1  UNL     1      -6.166   0.687  -2.749  1.00  0.00    -0.400 OA
ATOM     34  H1  UNL     1      -6.243   0.244  -3.586  1.00  0.00     0.209 HD
ENDBRANCH  32  33
ENDBRANCH   3  32
TORSDOF 12
