REMARK  14 active torsions:
REMARK  status: ('A' for Active; 'I' for Inactive)
REMARK    1  A    between atoms: C2_2  and  C3_3 
REMARK    2  A    between atoms: C5_9  and  N3_10 
REMARK    3  A    between atoms: C8_18  and  C9_19 
REMARK    4  A    between atoms: C9_19  and  O2_20 
REMARK    5  A    between atoms: O2_20  and  C10_21 
REMARK    6  A    between atoms: C10_21  and  C11_22 
REMARK    7  A    between atoms: C11_22  and  C12_23 
REMARK    8  A    between atoms: C12_23  and  C13_24 
REMARK    9  A    between atoms: C13_24  and  C14_25 
REMARK   10  A    between atoms: C14_25  and  N5_26 
REMARK   11  A    between atoms: C15_30  and  C16_31 
REMARK       I    between atoms: C16_31  and  N6_33 
REMARK   12  A    between atoms: N6_33  and  C17_35 
REMARK   13  A    between atoms: C17_35  and  C18_36 
REMARK   14  A    between atoms: C18_36  and  N7_37 
ROOT
HETATM    1  C3  UNL     1      -2.213  -2.341  -0.162  1.00  0.00     0.122 A 
HETATM    2  N1  UNL     1      -1.627  -3.376   0.634  1.00  0.00    -0.366 N 
ATOM      3  H1  UNL     1      -2.249  -3.894   1.255  1.00  0.00     0.161 HD
HETATM    4  C4  UNL     1      -0.407  -3.705   0.636  1.00  0.00     0.133 A 
HETATM    5  N2  UNL     1       0.053  -4.708   1.434  1.00  0.00    -0.176 N 
ATOM      6  H2  UNL     1      -0.620  -5.193   2.027  1.00  0.00     0.186 HD
HETATM    7  C5  UNL     1       1.329  -5.098   1.490  1.00  0.00     0.680 A 
HETATM    8  N4  UNL     1       2.231  -4.481   0.726  1.00  0.00    -0.155 N 
ATOM      9  H4  UNL     1       3.210  -4.766   0.757  1.00  0.00     0.187 HD
HETATM   10  C6  UNL     1       1.842  -3.476  -0.090  1.00  0.00     0.274 A 
HETATM   11  O1  UNL     1       2.650  -2.879  -0.809  1.00  0.00    -0.267 OA
HETATM   12  C7  UNL     1       0.507  -3.048  -0.169  1.00  0.00     0.082 A 
HETATM   13  C8  UNL     1       0.188  -2.054  -0.979  1.00  0.00    -0.022 A 
HETATM   14  C15 UNL     1      -1.226  -1.597  -0.963  1.00  0.00     0.136 A 
ENDROOT
BRANCH  13  15
HETATM   15  C9  UNL     1       1.155  -1.337  -1.859  1.00  0.00     0.204 C 
BRANCH  15  16
HETATM   16  O2  UNL     1       1.635  -0.158  -1.348  1.00  0.00    -0.387 OA
BRANCH  16  17
HETATM   17  C10 UNL     1       2.506   0.438  -2.226  1.00  0.00     0.168 C 
BRANCH  17  18
HETATM   18  C11 UNL     1       3.069   1.731  -1.730  1.00  0.00     0.026 C 
BRANCH  18  19
HETATM   19  C12 UNL     1       3.831   1.577  -0.451  1.00  0.00     0.004 C 
BRANCH  19  20
HETATM   20  C13 UNL     1       4.385   2.882   0.030  1.00  0.00     0.027 C 
BRANCH  20  21
HETATM   21  C14 UNL     1       5.332   3.511  -0.962  1.00  0.00     0.229 C 
BRANCH  21  22
HETATM   22  N5  UNL     1       5.826   4.779  -0.424  1.00  0.00    -0.079 N 
ATOM     23  H53 UNL     1       5.068   5.409  -0.161  1.00  0.00     0.274 HD
ATOM     24  H52 UNL     1       6.249   4.669   0.498  1.00  0.00     0.274 HD
ATOM     25  H51 UNL     1       6.466   5.204  -1.095  1.00  0.00     0.274 HD
ENDBRANCH  21  22
ENDBRANCH  20  21
ENDBRANCH  19  20
ENDBRANCH  18  19
ENDBRANCH  17  18
ENDBRANCH  16  17
ENDBRANCH  15  16
ENDBRANCH  13  15
BRANCH  14  26
HETATM   26  C16 UNL     1      -1.284  -0.119  -0.702  1.00  0.00     0.228 C 
HETATM   27  O3  UNL     1      -1.436   0.650  -1.682  1.00  0.00    -0.273 OA
HETATM   28  N6  UNL     1      -1.174   0.443   0.580  1.00  0.00    -0.359 N 
ATOM     29  H6  UNL     1      -1.055  -0.203   1.360  1.00  0.00     0.162 HD
BRANCH  28  30
HETATM   30  C17 UNL     1      -1.214   1.841   0.893  1.00  0.00     0.150 C 
BRANCH  30  31
HETATM   31  C18 UNL     1      -2.469   2.547   0.533  1.00  0.00     0.255 C 
BRANCH  31  32
HETATM   32  N7  UNL     1      -3.668   2.116   1.168  1.00  0.00    -0.077 N 
HETATM   33  C19 UNL     1      -4.554   3.300   1.241  1.00  0.00     0.271 C 
HETATM   34  C20 UNL     1      -3.467   1.708   2.565  1.00  0.00     0.271 C 
HETATM   35  C21 UNL     1      -4.401   1.087   0.495  1.00  0.00     0.271 C 
ENDBRANCH  31  32
ENDBRANCH  30  31
ENDBRANCH  28  30
ENDBRANCH  14  26
BRANCH   1  36
HETATM   36  C2  UNL     1      -3.171  -3.020  -1.082  1.00  0.00    -0.011 C 
HETATM   37  C1  UNL     1      -2.980  -4.275  -1.398  1.00  0.00     0.009 C 
ENDBRANCH   1  36
BRANCH   7  38
HETATM   38  N3  UNL     1       1.693  -6.079   2.289  1.00  0.00    -0.234 N 
ATOM     39  H32 UNL     1       1.003  -6.551   2.873  1.00  0.00     0.174 HD
ATOM     40  H31 UNL     1       2.668  -6.377   2.332  1.00  0.00     0.174 HD
ENDBRANCH   7  38
TORSDOF 14
