REMARK  11 active torsions:
REMARK  status: ('A' for Active; 'I' for Inactive)
REMARK    1  A    between atoms: C2_2  and  C3_3 
REMARK    2  A    between atoms: C3_3  and  C4_5 
REMARK    3  A    between atoms: C4_5  and  N1_6 
REMARK    4  A    between atoms: C6_11  and  C7_12 
REMARK    5  A    between atoms: C7_12  and  C8_13 
REMARK    6  A    between atoms: C8_13  and  C9_14 
REMARK    7  A    between atoms: C9_14  and  N3_15 
REMARK    8  A    between atoms: C12_24  and  C13_25 
REMARK    9  A    between atoms: C13_25  and  C14_26 
REMARK   10  A    between atoms: C14_26  and  C15_27 
REMARK   11  A    between atoms: C15_27  and  N7_28 
ROOT
HETATM    1  N1  UNL     1       0.129   1.874   0.205  1.00  0.00    -0.261 N 
HETATM    2  C5  UNL     1      -1.266   1.659   0.063  1.00  0.00     0.326 C 
HETATM    3  O2  UNL     1      -1.939   2.607   0.497  1.00  0.00    -0.247 OA
HETATM    4  N2  UNL     1      -2.104   0.620  -0.457  1.00  0.00    -0.329 N 
ATOM      5  H2  UNL     1      -3.015   0.954  -0.771  1.00  0.00     0.165 HD
HETATM    6  C6  UNL     1      -1.927  -0.784  -0.626  1.00  0.00     0.178 C 
HETATM    7  C11 UNL     1      -0.786  -1.338   0.158  1.00  0.00     0.241 C 
HETATM    8  O3  UNL     1      -1.120  -2.082   1.124  1.00  0.00    -0.271 OA
HETATM    9  N6  UNL     1       0.636  -1.250   0.107  1.00  0.00    -0.346 N 
ATOM     10  H6  UNL     1       1.077  -2.061   0.540  1.00  0.00     0.163 HD
HETATM   11  C12 UNL     1       1.605  -0.331  -0.388  1.00  0.00     0.177 C 
HETATM   12  C17 UNL     1       1.254   1.092  -0.094  1.00  0.00     0.251 C 
HETATM   13  O4  UNL     1       2.293   1.798  -0.126  1.00  0.00    -0.271 OA
ENDROOT
BRANCH   6  14
HETATM   14  C7  UNL     1      -3.157  -1.541  -0.194  1.00  0.00     0.036 C 
BRANCH  14  15
HETATM   15  C8  UNL     1      -4.399  -1.180  -0.967  1.00  0.00     0.022 C 
BRANCH  15  16
HETATM   16  C9  UNL     1      -5.568  -2.027  -0.439  1.00  0.00     0.122 C 
BRANCH  16  17
HETATM   17  N3  UNL     1      -5.796  -1.785   0.951  1.00  0.00    -0.367 N 
HETATM   18  C10 UNL     1      -6.891  -1.310   1.408  1.00  0.00     0.196 C 
HETATM   19  N4  UNL     1      -7.064  -1.089   2.800  1.00  0.00    -0.067 NA
HETATM   20  N5  UNL     1      -7.931  -1.011   0.471  1.00  0.00    -0.067 NA
ATOM     21  H3  UNL     1      -5.049  -2.002   1.610  1.00  0.00     0.161 HD
ENDBRANCH  16  17
ENDBRANCH  15  16
ENDBRANCH  14  15
ENDBRANCH   6  14
BRANCH   1  22
HETATM   22  C4  UNL     1       0.446   3.142   0.764  1.00  0.00     0.215 C 
BRANCH  22  23
HETATM   23  C3  UNL     1       0.629   4.225  -0.192  1.00  0.00     0.144 C 
HETATM   24  O1  UNL     1       0.514   4.039  -1.380  1.00  0.00    -0.296 OA
BRANCH  23  25
HETATM   25  C2  UNL     1       0.962   5.577   0.307  1.00  0.00     0.075 C 
HETATM   26  C1  UNL     1       1.117   6.580  -0.813  1.00  0.00     0.013 C 
ENDBRANCH  23  25
ENDBRANCH  22  23
ENDBRANCH   1  22
BRANCH  11  27
HETATM   27  C13 UNL     1       2.972  -0.563   0.203  1.00  0.00     0.036 C 
BRANCH  27  28
HETATM   28  C14 UNL     1       3.558  -1.907  -0.059  1.00  0.00     0.022 C 
BRANCH  28  29
HETATM   29  C15 UNL     1       4.934  -1.910   0.626  1.00  0.00     0.122 C 
BRANCH  29  30
HETATM   30  N7  UNL     1       5.575  -3.194   0.417  1.00  0.00    -0.367 N 
HETATM   31  C16 UNL     1       6.839  -3.327   0.305  1.00  0.00     0.196 C 
HETATM   32  N8  UNL     1       7.676  -2.192   0.383  1.00  0.00    -0.067 NA
HETATM   33  N9  UNL     1       7.397  -4.608   0.102  1.00  0.00    -0.067 NA
ATOM     34  H7  UNL     1       4.990  -4.027   0.357  1.00  0.00     0.161 HD
ENDBRANCH  29  30
ENDBRANCH  28  29
ENDBRANCH  27  28
ENDBRANCH  11  27
TORSDOF 11
