REMARK  13 active torsions:
REMARK  status: ('A' for Active; 'I' for Inactive)
REMARK    1  A    between atoms: C2_2  and  C3_3 
REMARK    2  A    between atoms: C3_3  and  N1_4 
REMARK    3  A    between atoms: N1_4  and  C4_7 
REMARK    4  A    between atoms: C4_7  and  C5_8 
REMARK    5  A    between atoms: C5_8  and  O1_9 
REMARK    6  A    between atoms: C5_8  and  N2_11 
REMARK    7  A    between atoms: C6_12  and  C7_13 
REMARK    8  A    between atoms: C7_13  and  C8_14 
REMARK       I    between atoms: C8_14  and  N3_16 
REMARK    9  A    between atoms: N3_16  and  C9_18 
REMARK   10  A    between atoms: C9_18  and  C10_19 
REMARK   11  A    between atoms: C9_18  and  C13_24 
REMARK   12  A    between atoms: C10_19  and  C11_20 
REMARK   13  A    between atoms: C11_20  and  C12_21 
REMARK       I    between atoms: N6_29  and  C16_30 
ROOT
HETATM    1  N2  UNL     1      -2.131  -2.144   0.478  1.00  0.00    -0.263 N 
HETATM    2  C6  UNL     1      -0.766  -1.764   0.374  1.00  0.00     0.121 C 
HETATM    3  C14 UNL     1       0.018  -3.096   0.318  1.00  0.00     0.049 C 
HETATM    4  C15 UNL     1      -1.018  -4.071  -0.226  1.00  0.00     0.154 C 
HETATM    5  N6  UNL     1      -2.270  -3.533   0.193  1.00  0.00    -0.261 N 
HETATM    6  C16 UNL     1      -3.442  -4.340   0.306  1.00  0.00     0.203 C 
HETATM    7  N7  UNL     1      -4.080  -4.633  -0.751  1.00  0.00    -0.372 N 
ATOM      8  H71 UNL     1      -4.917  -5.210  -0.670  1.00  0.00     0.158 HD
ATOM      9  H72 UNL     1      -3.828  -4.337  -1.694  1.00  0.00     0.158 HD
HETATM   10  N8  UNL     1      -3.793  -4.751   1.617  1.00  0.00    -0.062 NA
ENDROOT
BRANCH   2  11
HETATM   11  C7  UNL     1      -0.359  -1.049  -0.893  1.00  0.00     0.130 C 
BRANCH  11  12
HETATM   12  C8  UNL     1       1.057  -0.661  -0.798  1.00  0.00     0.220 C 
HETATM   13  O2  UNL     1       1.791  -1.085   0.105  1.00  0.00    -0.274 OA
HETATM   14  N3  UNL     1       1.666   0.238  -1.740  1.00  0.00    -0.348 N 
ATOM     15  H3  UNL     1       1.108   0.635  -2.496  1.00  0.00     0.163 HD
BRANCH  14  16
HETATM   16  C9  UNL     1       3.090   0.590  -1.621  1.00  0.00     0.174 C 
BRANCH  16  17
HETATM   17  C10 UNL     1       3.181   1.750  -0.649  1.00  0.00     0.043 C 
BRANCH  17  18
HETATM   18  C11 UNL     1       4.550   2.253  -0.365  1.00  0.00     0.102 C 
BRANCH  18  19
HETATM   19  C12 UNL     1       4.438   3.356   0.658  1.00  0.00     0.231 C 
HETATM   20  N4  UNL     1       5.605   3.943   1.196  1.00  0.00    -0.062 NA
HETATM   21  O3  UNL     1       3.310   3.727   1.011  1.00  0.00    -0.277 OA
ENDBRANCH  18  19
ENDBRANCH  17  18
ENDBRANCH  16  17
BRANCH  16  22
HETATM   22  C13 UNL     1       3.649   0.816  -2.932  1.00  0.00     0.254 C 
HETATM   23  N5  UNL     1       5.024   1.112  -3.129  1.00  0.00    -0.060 NA
HETATM   24  O4  UNL     1       2.865   0.741  -3.949  1.00  0.00    -0.275 OA
ENDBRANCH  16  22
ENDBRANCH  14  16
ENDBRANCH  11  12
ENDBRANCH   2  11
BRANCH   1  25
HETATM   25  C5  UNL     1      -3.230  -1.372   0.853  1.00  0.00     0.170 C 
BRANCH  25  26
HETATM   26  C4  UNL     1      -3.308   0.019   1.329  1.00  0.00     0.191 A 
HETATM   27  C17 UNL     1      -4.373   0.499   2.220  1.00  0.00     0.050 A 
HETATM   28  C18 UNL     1      -4.455   0.790   0.754  1.00  0.00     0.050 A 
BRANCH  26  29
HETATM   29  N1  UNL     1      -2.033   0.714   1.470  1.00  0.00    -0.056 N 
ATOM     30  H12 UNL     1      -1.247   0.124   1.198  1.00  0.00     0.279 HD
ATOM     31  H11 UNL     1      -1.784   0.856   2.449  1.00  0.00     0.279 HD
BRANCH  29  32
HETATM   32  C3  UNL     1      -2.054   1.968   0.727  1.00  0.00     0.260 C 
BRANCH  32  33
HETATM   33  C2  UNL     1      -0.716   2.604   0.877  1.00  0.00    -0.010 C 
HETATM   34  C1  UNL     1      -0.542   3.793   1.418  1.00  0.00     0.008 C 
ENDBRANCH  32  33
ENDBRANCH  29  32
ENDBRANCH  26  29
ENDBRANCH  25  26
BRANCH  25  35
HETATM   35  O1  UNL     1      -4.419  -1.924   0.801  1.00  0.00    -0.346 OA
ATOM     36  H1  UNL     1      -4.369  -2.822   0.494  1.00  0.00     0.219 HD
ENDBRANCH  25  35
ENDBRANCH   1  25
TORSDOF 13
