REMARK  12 active torsions:
REMARK  status: ('A' for Active; 'I' for Inactive)
REMARK       I    between atoms: C2_5  and  N3_6 
REMARK       I    between atoms: C2_5  and  N12_33 
REMARK       I    between atoms: C3_8  and  N5_10 
REMARK    1  A    between atoms: N5_10  and  C4_12 
REMARK    2  A    between atoms: C4_12  and  C5_13 
REMARK    3  A    between atoms: C5_13  and  C6_14 
REMARK    4  A    between atoms: C6_14  and  C7_15 
REMARK    5  A    between atoms: C7_15  and  N6_16 
REMARK       I    between atoms: N6_16  and  C8_18 
REMARK       I    between atoms: C8_18  and  N9_23 
REMARK    6  A    between atoms: N9_23  and  N10_25 
REMARK    7  A    between atoms: N12_33  and  C16_35 
REMARK    8  A    between atoms: C16_35  and  C17_36 
REMARK    9  A    between atoms: C17_36  and  C18_37 
REMARK   10  A    between atoms: C18_37  and  C19_38 
REMARK   11  A    between atoms: C19_38  and  C20_39 
REMARK   12  A    between atoms: C20_39  and  N13_40 
ROOT
HETATM    1  N1  UNL     1       3.391  -0.460   3.225  1.00  0.00    -0.171 NA
HETATM    2  C1  UNL     1       4.027  -1.022   2.419  1.00  0.00     0.196 C 
HETATM    3  N2  UNL     1       4.776  -1.674   1.441  1.00  0.00    -0.126 N 
ATOM      4  H2  UNL     1       5.428  -2.409   1.713  1.00  0.00     0.197 HD
HETATM    5  C2  UNL     1       4.655  -1.360   0.200  1.00  0.00     0.689 C 
HETATM    6  N3  UNL     1       3.717  -0.313  -0.113  1.00  0.00    -0.163 N 
ATOM      7  H3  UNL     1       4.014   0.659  -0.199  1.00  0.00     0.187 HD
HETATM    8  C3  UNL     1       2.497  -0.653  -0.278  1.00  0.00     0.202 C 
HETATM    9  N4  UNL     1       2.113  -2.004  -0.156  1.00  0.00    -0.063 NA
HETATM   10  N5  UNL     1       1.522   0.333  -0.571  1.00  0.00    -0.364 N 
ATOM     11  H5  UNL     1       1.263   0.510  -1.542  1.00  0.00     0.162 HD
HETATM   12  N12 UNL     1       5.358  -1.988  -0.839  1.00  0.00    -0.225 N 
ATOM     13  H12 UNL     1       4.827  -2.147  -1.695  1.00  0.00     0.177 HD
ENDROOT
BRANCH  12  14
HETATM   14  C16 UNL     1       6.701  -2.431  -0.865  1.00  0.00     0.138 C 
BRANCH  14  15
HETATM   15  C17 UNL     1       7.794  -1.418  -0.911  1.00  0.00     0.020 C 
BRANCH  15  16
HETATM   16  C18 UNL     1       7.768  -0.504   0.251  1.00  0.00     0.003 C 
BRANCH  16  17
HETATM   17  C19 UNL     1       8.923   0.483   0.251  1.00  0.00     0.027 C 
BRANCH  17  18
HETATM   18  C20 UNL     1       8.974   1.369  -0.940  1.00  0.00     0.229 C 
BRANCH  18  19
HETATM   19  N13 UNL     1       7.828   2.198  -1.132  1.00  0.00    -0.079 N 
ATOM     20 3H13 UNL     1       6.983   1.628  -1.155  1.00  0.00     0.274 HD
ATOM     21 2H13 UNL     1       7.649   2.749  -0.292  1.00  0.00     0.274 HD
ATOM     22 1H13 UNL     1       7.863   2.806  -1.950  1.00  0.00     0.274 HD
ENDBRANCH  18  19
ENDBRANCH  17  18
ENDBRANCH  16  17
ENDBRANCH  15  16
ENDBRANCH  14  15
ENDBRANCH  12  14
BRANCH  10  23
HETATM   23  C4  UNL     1       0.883   1.099   0.492  1.00  0.00     0.122 C 
BRANCH  23  24
HETATM   24  C5  UNL     1      -0.004   0.232   1.319  1.00  0.00     0.021 C 
BRANCH  24  25
HETATM   25  C6  UNL     1      -1.106  -0.355   0.516  1.00  0.00     0.022 C 
BRANCH  25  26
HETATM   26  C7  UNL     1      -1.979   0.753  -0.040  1.00  0.00     0.138 C 
BRANCH  26  27
HETATM   27  N6  UNL     1      -3.066   0.175  -0.833  1.00  0.00    -0.224 N 
HETATM   28  C8  UNL     1      -4.025  -0.583  -0.073  1.00  0.00     0.707 C 
HETATM   29  N7  UNL     1      -3.888  -1.858  -0.157  1.00  0.00    -0.125 N 
HETATM   30  N9  UNL     1      -4.996   0.093   0.675  1.00  0.00    -0.047 N 
HETATM   31  C9  UNL     1      -4.709  -2.771   0.500  1.00  0.00     0.196 C 
ATOM     32  H7  UNL     1      -3.134  -2.223  -0.739  1.00  0.00     0.197 HD
HETATM   33  N8  UNL     1      -5.412  -3.522   1.043  1.00  0.00    -0.171 NA
ATOM     34  H9  UNL     1      -4.776   0.252   1.658  1.00  0.00     0.213 HD
ATOM     35  H6  UNL     1      -3.138   0.300  -1.843  1.00  0.00     0.177 HD
BRANCH  30  36
HETATM   36  N10 UNL     1      -6.214   0.569   0.241  1.00  0.00     0.031 N 
HETATM   37  C10 UNL     1      -6.427   0.270  -1.144  1.00  0.00     0.295 C 
HETATM   38  C11 UNL     1      -7.893   0.479  -1.538  1.00  0.00     0.302 C 
HETATM   39  N11 UNL     1      -8.498   1.354  -0.547  1.00  0.00     0.093 N 
HETATM   40  C12 UNL     1      -8.603   0.580   0.680  1.00  0.00     0.302 C 
HETATM   41  C14 UNL     1      -7.563   2.465  -0.349  1.00  0.00     0.302 C 
HETATM   42  C13 UNL     1      -7.266   0.011   1.083  1.00  0.00     0.295 C 
HETATM   43  C15 UNL     1      -6.323   2.014   0.384  1.00  0.00     0.295 C 
ENDBRANCH  30  36
ENDBRANCH  26  27
ENDBRANCH  25  26
ENDBRANCH  24  25
ENDBRANCH  23  24
ENDBRANCH  10  23
TORSDOF 12
