REMARK  12 active torsions:
REMARK  status: ('A' for Active; 'I' for Inactive)
REMARK       I    between atoms: C1_4  and  N3_6 
REMARK    1  A    between atoms: N3_6  and  C2_8 
REMARK    2  A    between atoms: C2_8  and  C3_9 
REMARK    3  A    between atoms: C3_9  and  C4_10 
REMARK       I    between atoms: C4_10  and  N4_12 
REMARK    4  A    between atoms: C5_13  and  C6_14 
REMARK    5  A    between atoms: C6_14  and  C7_15 
REMARK    6  A    between atoms: C7_15  and  C8_16 
REMARK    7  A    between atoms: C8_16  and  N5_17 
REMARK    8  A    between atoms: C11_23  and  C12_24 
REMARK       I    between atoms: C12_24  and  N6_26 
REMARK       I    between atoms: N7_29  and  C15_30 
REMARK    9  A    between atoms: C15_30  and  C16_32 
REMARK   10  A    between atoms: C16_32  and  C17_33 
REMARK   11  A    between atoms: C17_33  and  C18_34 
REMARK   12  A    between atoms: C18_34  and  C19_35 
ROOT
HETATM    1  C4  UNL     1      -2.929   0.784  -0.854  1.00  0.00     0.222 C 
HETATM    2  O1  UNL     1      -2.168   1.783  -0.596  1.00  0.00    -0.273 OA
HETATM    3  N4  UNL     1      -2.518  -0.467  -0.309  1.00  0.00    -0.334 N 
HETATM    4  C5  UNL     1      -3.024  -1.772  -0.276  1.00  0.00     0.088 C 
HETATM    5  C9  UNL     1      -2.425  -2.325   1.037  1.00  0.00     0.028 C 
HETATM    6  C10 UNL     1      -0.957  -1.994   0.664  1.00  0.00     0.037 C 
HETATM    7  C11 UNL     1      -1.181  -0.515   0.367  1.00  0.00     0.180 C 
ENDROOT
BRANCH   7   8
HETATM    8  C12 UNL     1      -0.141  -0.116  -0.582  1.00  0.00     0.242 C 
HETATM    9  O2  UNL     1      -0.367  -0.046  -1.822  1.00  0.00    -0.271 OA
HETATM   10  N6  UNL     1       1.154   0.206  -0.146  1.00  0.00    -0.347 N 
HETATM   11  C13 UNL     1       1.478   0.179   1.260  1.00  0.00     0.145 C 
HETATM   12  C21 UNL     1       2.222   0.569  -1.084  1.00  0.00     0.145 C 
HETATM   13  C14 UNL     1       2.636  -0.776   1.481  1.00  0.00     0.145 C 
HETATM   14  N7  UNL     1       3.723  -0.417   0.608  1.00  0.00    -0.349 N 
HETATM   15  C15 UNL     1       5.023  -0.238   1.134  1.00  0.00     0.219 C 
HETATM   16  C20 UNL     1       3.470  -0.245  -0.800  1.00  0.00     0.145 C 
HETATM   17  O3  UNL     1       5.284  -0.381   2.367  1.00  0.00    -0.273 OA
BRANCH  15  18
HETATM   18  C16 UNL     1       6.125   0.136   0.191  1.00  0.00     0.103 C 
BRANCH  18  19
HETATM   19  C17 UNL     1       7.428   0.285   0.894  1.00  0.00     0.018 C 
BRANCH  19  20
HETATM   20  C18 UNL     1       8.585   0.662   0.025  1.00  0.00     0.100 C 
BRANCH  20  21
HETATM   21  C19 UNL     1       8.920  -0.294  -1.028  1.00  0.00     0.231 C 
HETATM   22  N8  UNL     1       9.925   0.042  -2.003  1.00  0.00    -0.062 NA
HETATM   23  O4  UNL     1       8.359  -1.401  -1.108  1.00  0.00    -0.277 OA
ENDBRANCH  20  21
ENDBRANCH  19  20
ENDBRANCH  18  19
ENDBRANCH  15  18
ENDBRANCH   7   8
BRANCH   1  24
HETATM   24  C3  UNL     1      -4.124   1.017  -1.672  1.00  0.00     0.122 C 
BRANCH  24  25
HETATM   25  C2  UNL     1      -4.064   2.431  -2.253  1.00  0.00     0.131 C 
BRANCH  25  26
HETATM   26  N3  UNL     1      -4.027   3.393  -1.162  1.00  0.00    -0.364 N 
HETATM   27  C1  UNL     1      -5.139   3.599  -0.301  1.00  0.00     0.181 C 
HETATM   28  N1  UNL     1      -6.292   3.845  -0.819  1.00  0.00    -0.374 N 
HETATM   29  N2  UNL     1      -4.978   3.533   1.102  1.00  0.00    -0.064 NA
ATOM     30  H12 UNL     1      -7.090   3.993  -0.201  1.00  0.00     0.158 HD
ATOM     31  H11 UNL     1      -6.408   3.893  -1.831  1.00  0.00     0.158 HD
ATOM     32  H3  UNL     1      -3.177   3.936  -1.010  1.00  0.00     0.162 HD
ENDBRANCH  25  26
ENDBRANCH  24  25
ENDBRANCH   1  24
BRANCH   4  33
HETATM   33  C6  UNL     1      -4.385  -2.156  -0.507  1.00  0.00     0.027 C 
BRANCH  33  34
HETATM   34  C7  UNL     1      -5.551  -1.763   0.262  1.00  0.00     0.029 C 
BRANCH  34  35
HETATM   35  C8  UNL     1      -5.618  -2.161   1.716  1.00  0.00     0.230 C 
BRANCH  35  36
HETATM   36  N5  UNL     1      -6.911  -1.664   2.259  1.00  0.00    -0.079 N 
ATOM     37  H53 UNL     1      -7.044  -0.663   2.115  1.00  0.00     0.274 HD
ATOM     38  H52 UNL     1      -7.717  -1.985   1.722  1.00  0.00     0.274 HD
ATOM     39  H51 UNL     1      -6.956  -1.933   3.242  1.00  0.00     0.274 HD
ENDBRANCH  35  36
ENDBRANCH  34  35
ENDBRANCH  33  34
ENDBRANCH   4  33
TORSDOF 12
