REMARK  12 active torsions:
REMARK  status: ('A' for Active; 'I' for Inactive)
REMARK    1  A    between atoms: C3_3  and  C4_4 
REMARK    2  A    between atoms: C4_4  and  C5_5 
REMARK    3  A    between atoms: C5_5  and  C6_6 
REMARK    4  A    between atoms: C11_19  and  C12_20 
REMARK    5  A    between atoms: C12_20  and  C13_21 
REMARK    6  A    between atoms: C13_21  and  C14_22 
REMARK    7  A    between atoms: C14_22  and  N4_23 
REMARK    8  A    between atoms: C16_28  and  O3_29 
REMARK    9  A    between atoms: N7_31  and  C17_32 
REMARK   10  A    between atoms: C17_32  and  C18_33 
REMARK   11  A    between atoms: C17_32  and  C21_36 
REMARK   12  A    between atoms: C18_33  and  C19_34 
ROOT
HETATM    1  C1  UNL     1      -5.783  -3.031  -2.441  1.00  0.00     0.012 C 
HETATM    2  C2  UNL     1      -5.149  -2.247  -1.785  1.00  0.00    -0.117 C 
HETATM    3  C3  UNL     1      -4.357  -1.245  -0.980  1.00  0.00     0.093 C 
ENDROOT
BRANCH   3   4
HETATM    4  C4  UNL     1      -3.174  -0.808  -1.769  1.00  0.00     0.016 C 
BRANCH   4   5
HETATM    5  C5  UNL     1      -2.263   0.223  -1.244  1.00  0.00     0.048 C 
BRANCH   5   6
HETATM    6  C6  UNL     1      -1.578  -0.137   0.024  1.00  0.00     0.191 C 
HETATM    7  N1  UNL     1      -2.527  -0.305   1.090  1.00  0.00    -0.322 N 
HETATM    8  C7  UNL     1      -2.401  -1.046   2.283  1.00  0.00     0.317 C 
ATOM      9  H1  UNL     1      -3.416   0.180   0.966  1.00  0.00     0.166 HD
HETATM   10  O1  UNL     1      -2.972  -0.451   3.285  1.00  0.00    -0.247 OA
HETATM   11  N2  UNL     1      -1.805  -2.255   2.591  1.00  0.00    -0.343 N 
HETATM   12  C8  UNL     1      -0.677  -2.909   1.984  1.00  0.00     0.133 C 
ATOM     13  H2  UNL     1      -2.231  -2.761   3.368  1.00  0.00     0.164 HD
HETATM   14  C9  UNL     1       0.647  -2.175   2.201  1.00  0.00     0.122 C 
HETATM   15  C10 UNL     1       1.429  -2.434   0.965  1.00  0.00     0.219 C 
HETATM   16  O2  UNL     1       2.171  -3.454   0.966  1.00  0.00    -0.274 OA
HETATM   17  N3  UNL     1       1.401  -1.638  -0.201  1.00  0.00    -0.349 N 
HETATM   18  C11 UNL     1       1.658  -0.240  -0.343  1.00  0.00     0.159 C 
ATOM     19  H3  UNL     1       1.164  -2.130  -1.062  1.00  0.00     0.163 HD
HETATM   20  C16 UNL     1       0.792   0.666   0.447  1.00  0.00     0.139 C 
HETATM   21  N7  UNL     1      -0.577   0.907   0.400  1.00  0.00    -0.329 N 
BRANCH  18  22
HETATM   22  C12 UNL     1       1.732   0.154  -1.800  1.00  0.00     0.035 C 
BRANCH  22  23
HETATM   23  C13 UNL     1       2.738  -0.524  -2.627  1.00  0.00     0.022 C 
BRANCH  23  24
HETATM   24  C14 UNL     1       4.168  -0.409  -2.311  1.00  0.00     0.122 C 
BRANCH  24  25
HETATM   25  N4  UNL     1       4.622  -0.924  -1.071  1.00  0.00    -0.367 N 
HETATM   26  C15 UNL     1       5.835  -0.877  -0.725  1.00  0.00     0.196 C 
HETATM   27  N5  UNL     1       6.794  -0.295  -1.588  1.00  0.00    -0.067 NA
HETATM   28  N6  UNL     1       6.267  -1.397   0.515  1.00  0.00    -0.067 NA
ATOM     29  H4  UNL     1       3.945  -1.347  -0.436  1.00  0.00     0.161 HD
ENDBRANCH  24  25
ENDBRANCH  23  24
ENDBRANCH  22  23
ENDBRANCH  18  22
BRANCH  20  30
HETATM   30  O3  UNL     1       1.448   1.354   1.344  1.00  0.00    -0.348 OA
ATOM     31  H3  UNL     1       0.893   1.935   1.851  1.00  0.00     0.219 HD
ENDBRANCH  20  30
BRANCH  21  32
HETATM   32  C17 UNL     1      -1.240   2.185   0.720  1.00  0.00     0.180 C 
BRANCH  32  33
HETATM   33  C18 UNL     1      -1.043   2.592   2.151  1.00  0.00     0.061 C 
BRANCH  33  34
HETATM   34  C19 UNL     1      -1.759   3.869   2.431  1.00  0.00    -0.034 C 
HETATM   35  C20 UNL     1      -2.777   3.926   3.300  1.00  0.00     0.007 C 
ENDBRANCH  33  34
ENDBRANCH  32  33
BRANCH  32  36
HETATM   36  C21 UNL     1      -0.751   3.302  -0.113  1.00  0.00     0.254 C 
HETATM   37  N8  UNL     1      -1.512   4.458  -0.459  1.00  0.00    -0.060 NA
HETATM   38  O4  UNL     1       0.409   3.268  -0.571  1.00  0.00    -0.275 OA
ENDBRANCH  32  36
ENDBRANCH  21  32
ENDBRANCH   5   6
ENDBRANCH   4   5
ENDBRANCH   3   4
TORSDOF 12
