REMARK  11 active torsions:
REMARK  status: ('A' for Active; 'I' for Inactive)
REMARK    1  A    between atoms: C2_2  and  C3_3 
REMARK    2  A    between atoms: C3_3  and  C4_4 
REMARK    3  A    between atoms: C4_4  and  N1_5 
REMARK    4  A    between atoms: C9_16  and  C10_17 
REMARK    5  A    between atoms: C10_17  and  C11_18 
REMARK    6  A    between atoms: C11_18  and  C12_19 
REMARK    7  A    between atoms: C12_19  and  N4_20 
REMARK    8  A    between atoms: C15_29  and  C16_30 
REMARK    9  A    between atoms: C16_30  and  C17_31 
REMARK   10  A    between atoms: C17_31  and  C18_32 
REMARK   11  A    between atoms: C18_32  and  N8_33 
ROOT
HETATM    1  N1  UNL     1      -2.455  -1.365   0.400  1.00  0.00    -0.268 N 
HETATM    2  C5  UNL     1      -1.881  -1.937   1.565  1.00  0.00     0.325 C 
HETATM    3  O1  UNL     1      -2.662  -2.107   2.566  1.00  0.00    -0.247 OA
HETATM    4  N2  UNL     1      -0.542  -2.335   1.724  1.00  0.00    -0.342 N 
ATOM      5  H2  UNL     1      -0.101  -2.143   2.623  1.00  0.00     0.164 HD
HETATM    6  C6  UNL     1       0.264  -2.996   0.716  1.00  0.00     0.133 C 
HETATM    7  C7  UNL     1       1.668  -3.188   1.205  1.00  0.00     0.122 C 
HETATM    8  C8  UNL     1       2.702  -2.746   0.247  1.00  0.00     0.219 C 
HETATM    9  O2  UNL     1       3.717  -3.488   0.164  1.00  0.00    -0.274 OA
HETATM   10  N3  UNL     1       2.646  -1.601  -0.554  1.00  0.00    -0.348 N 
ATOM     11  H3  UNL     1       2.974  -1.681  -1.516  1.00  0.00     0.163 HD
HETATM   12  C9  UNL     1       2.152  -0.299  -0.113  1.00  0.00     0.176 C 
HETATM   13  C14 UNL     1       1.292   0.256  -1.168  1.00  0.00     0.241 C 
HETATM   14  O3  UNL     1       1.633   0.071  -2.371  1.00  0.00    -0.271 OA
HETATM   15  N7  UNL     1       0.103   0.988  -0.931  1.00  0.00    -0.346 N 
ATOM     16  H7  UNL     1      -0.109   1.791  -1.523  1.00  0.00     0.163 HD
HETATM   17  C15 UNL     1      -0.836   0.627   0.143  1.00  0.00     0.177 C 
HETATM   18  C20 UNL     1      -1.799  -0.363  -0.389  1.00  0.00     0.250 C 
HETATM   19  O4  UNL     1      -2.070  -0.338  -1.607  1.00  0.00    -0.271 OA
ENDROOT
BRANCH  12  20
HETATM   20  C10 UNL     1       3.296   0.665   0.119  1.00  0.00     0.036 C 
BRANCH  20  21
HETATM   21  C11 UNL     1       4.136   0.928  -1.084  1.00  0.00     0.022 C 
BRANCH  21  22
HETATM   22  C12 UNL     1       5.225   1.912  -0.633  1.00  0.00     0.122 C 
BRANCH  22  23
HETATM   23  N4  UNL     1       6.034   1.379   0.418  1.00  0.00    -0.367 N 
HETATM   24  C13 UNL     1       7.234   0.947   0.201  1.00  0.00     0.196 C 
HETATM   25  N5  UNL     1       7.778   0.998  -1.115  1.00  0.00    -0.067 NA
HETATM   26  N6  UNL     1       8.037   0.419   1.237  1.00  0.00    -0.067 NA
ATOM     27  H4  UNL     1       5.655   1.338   1.364  1.00  0.00     0.161 HD
ENDBRANCH  22  23
ENDBRANCH  21  22
ENDBRANCH  20  21
ENDBRANCH  12  20
BRANCH  17  28
HETATM   28  C16 UNL     1      -1.605   1.890   0.470  1.00  0.00     0.036 C 
BRANCH  28  29
HETATM   29  C17 UNL     1      -2.615   1.718   1.549  1.00  0.00     0.022 C 
BRANCH  29  30
HETATM   30  C18 UNL     1      -3.288   3.082   1.745  1.00  0.00     0.122 C 
BRANCH  30  31
HETATM   31  N8  UNL     1      -3.915   3.478   0.510  1.00  0.00    -0.367 N 
HETATM   32  C19 UNL     1      -3.718   4.636  -0.021  1.00  0.00     0.196 C 
HETATM   33  N9  UNL     1      -2.872   5.609   0.568  1.00  0.00    -0.067 NA
HETATM   34  N10 UNL     1      -4.362   4.975  -1.241  1.00  0.00    -0.067 NA
ATOM     35  H8  UNL     1      -4.536   2.820   0.040  1.00  0.00     0.161 HD
ENDBRANCH  30  31
ENDBRANCH  29  30
ENDBRANCH  28  29
ENDBRANCH  17  28
BRANCH   1  36
HETATM   36  C4  UNL     1      -3.782  -1.835   0.005  1.00  0.00     0.137 C 
BRANCH  36  37
HETATM   37  C3  UNL     1      -3.722  -3.008  -0.915  1.00  0.00     0.020 C 
BRANCH  37  38
HETATM   38  C2  UNL     1      -5.138  -3.408  -1.256  1.00  0.00    -0.003 C 
HETATM   39  C1  UNL     1      -5.192  -4.588  -2.185  1.00  0.00     0.005 C 
ENDBRANCH  37  38
ENDBRANCH  36  37
ENDBRANCH   1  36
TORSDOF 11
