REMARK  11 active torsions:
REMARK  status: ('A' for Active; 'I' for Inactive)
REMARK       I    between atoms: C1_4  and  N3_6 
REMARK    1  A    between atoms: C5_10  and  N4_11 
REMARK       I    between atoms: N4_11  and  C6_13 
REMARK    2  A    between atoms: C6_13  and  C7_15 
REMARK    3  A    between atoms: C7_15  and  C8_16 
REMARK    4  A    between atoms: C7_15  and  N8_24 
REMARK    5  A    between atoms: C8_16  and  C9_17 
REMARK    6  A    between atoms: C9_17  and  C10_18 
REMARK    7  A    between atoms: C10_18  and  N5_19 
REMARK    8  A    between atoms: C15_28  and  C16_29 
REMARK    9  A    between atoms: C16_29  and  C17_30 
REMARK   10  A    between atoms: C17_30  and  C18_31 
REMARK   11  A    between atoms: C18_31  and  N9_32 
ROOT
HETATM    1  C7  UNL     1      -0.612   1.210  -0.282  1.00  0.00     0.179 C 
ENDROOT
BRANCH   1   2
HETATM    2  C6  UNL     1      -1.831   0.617   0.154  1.00  0.00     0.241 C 
HETATM    3  N4  UNL     1      -2.368  -0.668  -0.009  1.00  0.00    -0.353 N 
ATOM      4  H4  UNL     1      -1.813  -1.343  -0.535  1.00  0.00     0.163 HD
HETATM    5  O1  UNL     1      -2.626   1.373   0.833  1.00  0.00    -0.271 OA
BRANCH   3   6
HETATM    6  C5  UNL     1      -3.647  -1.118   0.508  1.00  0.00     0.102 C 
HETATM    7  C4  UNL     1      -4.560  -1.561  -0.636  1.00  0.00     0.028 C 
HETATM    8  C3  UNL     1      -5.946  -1.793  -0.076  1.00  0.00     0.022 C 
HETATM    9  C2  UNL     1      -5.930  -2.699   1.124  1.00  0.00     0.125 C 
HETATM   10  N3  UNL     1      -4.606  -3.198   1.396  1.00  0.00    -0.354 N 
HETATM   11  C1  UNL     1      -4.433  -4.574   1.679  1.00  0.00     0.184 C 
HETATM   12  C21 UNL     1      -3.458  -2.334   1.387  1.00  0.00     0.150 C 
HETATM   13  N1  UNL     1      -5.139  -5.096   2.622  1.00  0.00    -0.374 N 
HETATM   14  N2  UNL     1      -3.499  -5.365   0.938  1.00  0.00    -0.064 NA
ATOM     15  H12 UNL     1      -5.014  -6.088   2.826  1.00  0.00     0.158 HD
ATOM     16  H11 UNL     1      -5.805  -4.532   3.150  1.00  0.00     0.158 HD
ENDBRANCH   3   6
ENDBRANCH   1   2
BRANCH   1  17
HETATM   17  C8  UNL     1      -0.864   2.218  -1.386  1.00  0.00     0.037 C 
BRANCH  17  18
HETATM   18  C9  UNL     1      -1.761   3.348  -0.977  1.00  0.00     0.022 C 
BRANCH  18  19
HETATM   19  C10 UNL     1      -1.925   4.347  -2.127  1.00  0.00     0.122 C 
BRANCH  19  20
HETATM   20  N5  UNL     1      -0.637   4.898  -2.505  1.00  0.00    -0.367 N 
HETATM   21  C11 UNL     1      -0.109   5.886  -1.864  1.00  0.00     0.196 C 
HETATM   22  N6  UNL     1      -0.688   6.532  -0.761  1.00  0.00    -0.067 NA
HETATM   23  N7  UNL     1       1.162   6.336  -2.336  1.00  0.00    -0.067 NA
ATOM     24  H5  UNL     1      -0.136   4.495  -3.297  1.00  0.00     0.161 HD
ENDBRANCH  19  20
ENDBRANCH  18  19
ENDBRANCH  17  18
ENDBRANCH   1  17
BRANCH   1  25
HETATM   25  N8  UNL     1       0.458   0.391  -0.750  1.00  0.00    -0.338 N 
HETATM   26  C12 UNL     1       0.502  -0.535  -1.816  1.00  0.00     0.127 C 
HETATM   27  C13 UNL     1       1.106  -1.862  -1.446  1.00  0.00     0.021 C 
HETATM   28  C14 UNL     1       2.173  -1.791  -0.386  1.00  0.00     0.015 C 
HETATM   29  C15 UNL     1       2.794  -0.410  -0.403  1.00  0.00     0.078 C 
HETATM   30  C20 UNL     1       1.704   0.534  -0.063  1.00  0.00     0.224 C 
HETATM   31  O2  UNL     1       1.935   1.405   0.808  1.00  0.00    -0.273 OA
BRANCH  29  32
HETATM   32  C16 UNL     1       4.008  -0.304   0.447  1.00  0.00     0.015 C 
BRANCH  32  33
HETATM   33  C17 UNL     1       3.849  -0.602   1.891  1.00  0.00     0.020 C 
BRANCH  33  34
HETATM   34  C18 UNL     1       5.193  -0.443   2.608  1.00  0.00     0.122 C 
BRANCH  34  35
HETATM   35  N9  UNL     1       6.203  -1.319   2.097  1.00  0.00    -0.367 N 
HETATM   36  C19 UNL     1       7.207  -0.970   1.377  1.00  0.00     0.196 C 
HETATM   37  N10 UNL     1       8.111  -1.983   0.959  1.00  0.00    -0.067 NA
HETATM   38  N11 UNL     1       7.438   0.370   0.993  1.00  0.00    -0.067 NA
ATOM     39  H9  UNL     1       6.117  -2.309   2.325  1.00  0.00     0.161 HD
ENDBRANCH  34  35
ENDBRANCH  33  34
ENDBRANCH  32  33
ENDBRANCH  29  32
ENDBRANCH   1  25
TORSDOF 11
