REMARK  10 active torsions:
REMARK  status: ('A' for Active; 'I' for Inactive)
REMARK       I    between atoms: N1_2  and  C2_4 
REMARK    1  A    between atoms: N3_6  and  C3_8 
REMARK    2  A    between atoms: C3_8  and  C4_9 
REMARK    3  A    between atoms: C4_9  and  C5_10 
REMARK    4  A    between atoms: C5_10  and  C6_11 
REMARK    5  A    between atoms: C7_12  and  N4_13 
REMARK       I    between atoms: N4_13  and  C8_14 
REMARK    6  A    between atoms: C9_17  and  N7_18 
REMARK       I    between atoms: N7_18  and  C10_20 
REMARK    7  A    between atoms: C10_20  and  C11_22 
REMARK    8  A    between atoms: C11_22  and  C12_23 
REMARK    9  A    between atoms: N9_35  and  C21_36 
REMARK   10  A    between atoms: C21_36  and  C22_37 
ROOT
HETATM    1  C6  UNL     1      -1.910  -0.971   0.739  1.00  0.00     0.043 C 
HETATM    2  C7  UNL     1      -0.503  -0.640   0.468  1.00  0.00     0.138 C 
HETATM    3  C9  UNL     1       0.639  -1.244   1.237  1.00  0.00     0.243 C 
HETATM    4  C18 UNL     1       0.767  -2.739   1.268  1.00  0.00     0.248 C 
HETATM    5  O2  UNL     1       1.439  -3.093   2.305  1.00  0.00    -0.271 OA
HETATM    6  N8  UNL     1       0.401  -3.913   0.560  1.00  0.00    -0.348 N 
ATOM      7  H8  UNL     1       1.126  -4.628   0.503  1.00  0.00     0.163 HD
HETATM    8  C19 UNL     1      -0.889  -4.262  -0.117  1.00  0.00     0.222 C 
HETATM    9  C20 UNL     1      -1.738  -3.132   0.055  1.00  0.00    -0.068 C 
HETATM   10  N9  UNL     1      -2.570  -2.130   0.063  1.00  0.00    -0.195 NA
ENDROOT
BRANCH   3  11
HETATM   11  N7  UNL     1       1.861  -0.629   0.814  1.00  0.00    -0.342 N 
HETATM   12  C10 UNL     1       3.193  -0.958   0.911  1.00  0.00     0.218 C 
HETATM   13  O1  UNL     1       3.732  -1.976   1.403  1.00  0.00    -0.274 OA
ATOM     14  H7  UNL     1       1.709   0.256   0.330  1.00  0.00     0.163 HD
BRANCH  12  15
HETATM   15  C11 UNL     1       4.202   0.028   0.357  1.00  0.00     0.107 C 
BRANCH  15  16
HETATM   16  C12 UNL     1       5.475  -0.588  -0.102  1.00  0.00    -0.006 C 
HETATM   17  C13 UNL     1       6.384   0.540  -0.561  1.00  0.00     0.005 C 
HETATM   18  C14 UNL     1       5.917   1.230  -1.816  1.00  0.00     0.000 C 
HETATM   19  C15 UNL     1       6.005   0.163  -2.914  1.00  0.00     0.000 C 
HETATM   20  C16 UNL     1       4.973  -0.894  -2.550  1.00  0.00     0.000 C 
HETATM   21  C17 UNL     1       5.255  -1.580  -1.236  1.00  0.00     0.005 C 
ENDBRANCH  15  16
ENDBRANCH  12  15
ENDBRANCH   3  11
BRANCH   2  22
HETATM   22  N4  UNL     1      -0.172  -0.236  -0.824  1.00  0.00    -0.377 NA
HETATM   23  C8  UNL     1       0.068   0.328  -1.820  1.00  0.00     0.275 C 
HETATM   24  N5  UNL     1       0.059   1.747  -2.104  1.00  0.00    -0.052 NA
HETATM   25  N6  UNL     1       0.434  -0.445  -3.013  1.00  0.00    -0.052 NA
ENDBRANCH   2  22
BRANCH   1  26
HETATM   26  C5  UNL     1      -2.865   0.181   0.716  1.00  0.00     0.057 C 
BRANCH  26  27
HETATM   27  C4  UNL     1      -2.662   1.279   1.721  1.00  0.00     0.025 C 
BRANCH  27  28
HETATM   28  C3  UNL     1      -3.724   2.352   1.548  1.00  0.00     0.122 C 
BRANCH  28  29
HETATM   29  N3  UNL     1      -3.481   3.371   2.569  1.00  0.00    -0.365 N 
HETATM   30  C2  UNL     1      -4.381   4.309   2.696  1.00  0.00     0.183 C 
HETATM   31  N1  UNL     1      -4.255   5.335   3.638  1.00  0.00    -0.369 N 
HETATM   32  N2  UNL     1      -5.539   4.318   1.869  1.00  0.00    -0.064 NA
HETATM   33  C1  UNL     1      -3.865   6.672   3.188  1.00  0.00     0.148 C 
ATOM     34  H1  UNL     1      -4.433   5.154   4.626  1.00  0.00     0.161 HD
ATOM     35  H3  UNL     1      -2.647   3.350   3.155  1.00  0.00     0.162 HD
ENDBRANCH  28  29
ENDBRANCH  27  28
ENDBRANCH  26  27
ENDBRANCH   1  26
BRANCH  10  36
HETATM   36  C21 UNL     1      -3.257  -1.764  -1.104  1.00  0.00     0.093 C 
BRANCH  36  37
HETATM   37  C22 UNL     1      -4.099  -2.887  -1.649  1.00  0.00     0.113 C 
HETATM   38  N10 UNL     1      -3.444  -4.079  -2.020  1.00  0.00    -0.114 NA
ENDBRANCH  36  37
ENDBRANCH  10  36
TORSDOF 10
