REMARK  4 active torsions:
REMARK  status: ('A' for Active; 'I' for Inactive)
REMARK    1  A    between atoms: C3_3  and  C4_4 
REMARK    2  A    between atoms: C4_4  and  C5_5 
REMARK       I    between atoms: C5_5  and  N1_7 
REMARK    3  A    between atoms: N1_7  and  N2_9 
REMARK    4  A    between atoms: N2_9  and  C6_11 
ROOT
HETATM    1  C1  UNL     1       6.145  -0.200   0.105  1.00  0.00     0.112 C 
HETATM    2  C2  UNL     1       4.773  -0.095  -0.439  1.00  0.00    -0.111 C 
HETATM    3  C3  UNL     1       3.655   0.009  -0.871  1.00  0.00    -0.098 C 
ENDROOT
BRANCH   3   4
HETATM    4  C4  UNL     1       2.278   0.155  -1.383  1.00  0.00     0.198 C 
BRANCH   4   5
HETATM    5  C5  UNL     1       1.295  -0.129  -0.314  1.00  0.00     0.247 C 
HETATM    6  O1  UNL     1       1.773  -0.494   0.819  1.00  0.00    -0.271 OA
HETATM    7  N1  UNL     1      -0.096  -0.020  -0.472  1.00  0.00    -0.267 N 
ATOM      8  H1  UNL     1      -0.482   0.273  -1.369  1.00  0.00     0.190 HD
BRANCH   7   9
HETATM    9  N2  UNL     1      -0.951  -0.309   0.586  1.00  0.00    -0.272 N 
ATOM     10  H2  UNL     1      -0.536  -0.640   1.457  1.00  0.00     0.189 HD
BRANCH   9  11
HETATM   11  C6  UNL     1      -2.342  -0.176   0.536  1.00  0.00     0.241 A 
HETATM   12  N3  UNL     1      -3.020   0.815   0.157  1.00  0.00    -0.304 N 
HETATM   13  C7  UNL     1      -4.397   0.713   0.197  1.00  0.00     0.204 A 
ATOM     14  H3  UNL     1      -2.566   1.668  -0.170  1.00  0.00     0.171 HD
HETATM   15  N4  UNL     1      -5.266   1.793  -0.214  1.00  0.00    -0.062 NA
HETATM   16  N5  UNL     1      -4.899  -0.390   0.618  1.00  0.00    -0.251 N 
HETATM   17  S1  UNL     1      -3.512  -1.374   0.994  1.00  0.00     0.298 S 
ATOM     18  H5  UNL     1      -5.885  -0.635   0.711  1.00  0.00     0.181 HD
HETATM   19  O2  UNL     1      -3.467  -2.607   0.154  1.00  0.00    -0.197 OA
HETATM   20  O3  UNL     1      -3.466  -1.686   2.460  1.00  0.00    -0.197 OA
ENDBRANCH   9  11
ENDBRANCH   7   9
ENDBRANCH   4   5
ENDBRANCH   3   4
TORSDOF 4
