REMARK  2 active torsions:
REMARK  status: ('A' for Active; 'I' for Inactive)
REMARK    1  A    between atoms: N1_1  and  C1_5 
REMARK    2  A    between atoms: C1_5  and  C2_6 
ROOT
HETATM    1  C1  UNL     1       0.520   0.129   0.113  1.00  0.00     0.333 C 
HETATM    2  N2  UNL     1      -0.418  -0.976   0.395  1.00  0.00    -0.296 N 
ATOM      3  H2  UNL     1      -0.276  -1.791   0.991  1.00  0.00     0.167 HD
HETATM    4  C3  UNL     1      -1.637  -0.608  -0.412  1.00  0.00     0.325 C 
HETATM    5  O2  UNL     1      -2.553  -1.391  -0.666  1.00  0.00    -0.247 OA
HETATM    6  N3  UNL     1      -1.541   0.730  -0.806  1.00  0.00    -0.275 N 
ATOM      7  H3  UNL     1      -2.218   1.244  -1.369  1.00  0.00     0.173 HD
HETATM    8  C4  UNL     1      -0.288   1.256  -0.261  1.00  0.00     0.290 C 
HETATM    9  O3  UNL     1      -0.085   2.476  -0.167  1.00  0.00    -0.268 OA
ENDROOT
BRANCH   1  10
HETATM   10  N1  UNL     1       1.132   0.363   1.453  1.00  0.00    -0.036 N 
ATOM     11  H13 UNL     1       1.587  -0.469   1.829  1.00  0.00     0.278 HD
ATOM     12  H12 UNL     1       1.956   0.963   1.410  1.00  0.00     0.278 HD
ATOM     13  H11 UNL     1       0.409   0.730   2.072  1.00  0.00     0.278 HD
ENDBRANCH   1  10
BRANCH   1  14
HETATM   14  C2  UNL     1       1.543  -0.391  -0.763  1.00  0.00     0.302 C 
HETATM   15  O1  UNL     1       2.781  -0.132  -0.597  1.00  0.00    -0.302 OA
ENDBRANCH   1  14
TORSDOF 2
