REMARK  1 active torsions:
REMARK  status: ('A' for Active; 'I' for Inactive)
REMARK    1  A    between atoms: C1_4  and  C2_6 
ROOT
HETATM    1  C2  UNL     1       0.316   0.259   0.067  1.00  0.00     0.157 A 
HETATM    2  N3  UNL     1      -0.468   1.336   0.251  1.00  0.00    -0.289 N 
ATOM      3  H3  UNL     1      -0.031   2.233   0.461  1.00  0.00     0.187 HD
HETATM    4  N4  UNL     1      -1.790   1.272   0.169  1.00  0.00    -0.251 N 
ATOM      5  H4  UNL     1      -2.343   2.116   0.317  1.00  0.00     0.191 HD
HETATM    6  C3  UNL     1      -2.416   0.108  -0.107  1.00  0.00     0.341 A 
HETATM    7  O1  UNL     1      -3.692   0.098  -0.176  1.00  0.00    -0.245 OA
HETATM    8  N5  UNL     1      -1.688  -1.007  -0.303  1.00  0.00    -0.272 N 
ATOM      9  H5  UNL     1      -2.145  -1.894  -0.513  1.00  0.00     0.174 HD
HETATM   10  C4  UNL     1      -0.347  -0.932  -0.217  1.00  0.00     0.281 A 
HETATM   11  O2  UNL     1       0.370  -1.956  -0.395  1.00  0.00    -0.265 OA
ENDROOT
BRANCH   1  12
HETATM   12  C1  UNL     1       1.766   0.306   0.152  1.00  0.00     0.144 C 
HETATM   13  N1  UNL     1       2.338   1.415   0.414  1.00  0.00    -0.386 N 
ATOM     14  H12 UNL     1       3.356   1.448   0.474  1.00  0.00     0.157 HD
ATOM     15  H11 UNL     1       1.759   2.243   0.557  1.00  0.00     0.157 HD
HETATM   16  N2  UNL     1       2.565  -0.837  -0.046  1.00  0.00    -0.081 NA
ENDBRANCH   1  12
TORSDOF 1
