REMARK  4 active torsions:
REMARK  status: ('A' for Active; 'I' for Inactive)
REMARK    1  A    between atoms: C2_2  and  N1_3 
REMARK    2  A    between atoms: C2_2  and  C3_7 
REMARK    3  A    between atoms: C2_2  and  C4_10 
REMARK       I    between atoms: C4_10  and  N3_12 
REMARK    4  A    between atoms: N3_12  and  N4_14 
ROOT
HETATM    1  C1  UNL     1      -0.732   1.238   1.078  1.00  0.00     0.067 C 
HETATM    2  C2  UNL     1      -0.511   0.551  -0.265  1.00  0.00     0.277 C 
ENDROOT
BRANCH   2   3
HETATM    3  N1  UNL     1      -0.760   1.465  -1.363  1.00  0.00    -0.053 N 
ATOM      4  H13 UNL     1      -1.689   1.882  -1.302  1.00  0.00     0.276 HD
ATOM      5  H12 UNL     1      -0.203   2.315  -1.279  1.00  0.00     0.276 HD
ATOM      6  H11 UNL     1      -0.612   1.005  -2.261  1.00  0.00     0.276 HD
ENDBRANCH   2   3
BRANCH   2   7
HETATM    7  C3  UNL     1      -1.469  -0.571  -0.380  1.00  0.00     0.276 C 
HETATM    8  N2  UNL     1      -1.464  -1.601   0.567  1.00  0.00    -0.059 NA
HETATM    9  O1  UNL     1      -2.294  -0.615  -1.325  1.00  0.00    -0.274 OA
ENDBRANCH   2   7
BRANCH   2  10
HETATM   10  C4  UNL     1       0.889   0.070  -0.390  1.00  0.00     0.280 C 
HETATM   11  O2  UNL     1       1.564   0.455  -1.373  1.00  0.00    -0.268 OA
HETATM   12  N3  UNL     1       1.488  -0.798   0.545  1.00  0.00    -0.274 N 
ATOM     13  H3  UNL     1       0.962  -1.128   1.355  1.00  0.00     0.189 HD
BRANCH  12  14
HETATM   14  N4  UNL     1       2.805  -1.199   0.349  1.00  0.00    -0.343 N 
ATOM     15  H42 UNL     1       3.317  -0.860  -0.466  1.00  0.00     0.176 HD
ATOM     16  H41 UNL     1       3.238  -1.827   1.026  1.00  0.00     0.176 HD
ENDBRANCH  12  14
ENDBRANCH   2  10
TORSDOF 4
