REMARK  1 active torsions:
REMARK  status: ('A' for Active; 'I' for Inactive)
REMARK       I    between atoms: C1_2  and  N2_4 
REMARK    1  A    between atoms: N2_4  and  N3_6 
ROOT
HETATM    1  N3  UNL     1      -0.193   0.947   0.144  1.00  0.00    -0.276 N 
ATOM      2  H3  UNL     1      -0.124   1.964   0.179  1.00  0.00     0.189 HD
HETATM    3  C2  UNL     1      -1.330   0.400  -0.169  1.00  0.00     0.205 A 
HETATM    4  N4  UNL     1      -1.742  -0.939  -0.301  1.00  0.00    -0.277 N 
ATOM      5  H4  UNL     1      -1.272  -1.838  -0.190  1.00  0.00     0.189 HD
HETATM    6  N5  UNL     1      -3.034  -0.564  -0.640  1.00  0.00    -0.262 N 
ATOM      7  H5  UNL     1      -3.892  -1.062  -0.877  1.00  0.00     0.190 HD
HETATM    8  C3  UNL     1      -2.672   0.780  -0.521  1.00  0.00     0.306 A 
HETATM    9  O2  UNL     1      -3.267   1.880  -0.662  1.00  0.00    -0.262 OA
ENDROOT
BRANCH   1  10
HETATM   10  N2  UNL     1       0.935   0.180   0.433  1.00  0.00    -0.252 N 
HETATM   11  C1  UNL     1       2.251   0.588   0.113  1.00  0.00     0.347 C 
HETATM   12  N1  UNL     1       3.390  -0.190   0.406  1.00  0.00    -0.038 NA
HETATM   13  O1  UNL     1       2.393   1.692  -0.455  1.00  0.00    -0.249 OA
ATOM     14  H2  UNL     1       0.805  -0.719   0.898  1.00  0.00     0.191 HD
ENDBRANCH   1  10
TORSDOF 1
