REMARK  3 active torsions:
REMARK  status: ('A' for Active; 'I' for Inactive)
REMARK    1  A    between atoms: N1_1  and  N2_4 
REMARK    2  A    between atoms: C2_11  and  N5_12 
REMARK    3  A    between atoms: N5_12  and  C3_14 
ROOT
HETATM    1  N2  UNL     1      -0.950   0.479  -0.105  1.00  0.00    -0.035 N 
HETATM    2  C1  UNL     1      -1.665  -0.685  -0.166  1.00  0.00     0.375 A 
HETATM    3  O1  UNL     1      -2.916  -0.720  -0.308  1.00  0.00    -0.243 OA
HETATM    4  N3  UNL     1      -0.827  -1.728  -0.052  1.00  0.00    -0.235 N 
ATOM      5  H3  UNL     1      -1.074  -2.717  -0.063  1.00  0.00     0.192 HD
HETATM    6  N4  UNL     1       0.385  -1.212   0.077  1.00  0.00    -0.126 N 
ATOM      7  H4  UNL     1       1.238  -1.760   0.184  1.00  0.00     0.206 HD
HETATM    8  C2  UNL     1       0.341   0.132   0.048  1.00  0.00     0.724 A 
ENDROOT
BRANCH   8   9
HETATM    9  N5  UNL     1       1.327   0.945   0.147  1.00  0.00    -0.164 N 
ATOM     10  H5  UNL     1       1.137   1.946   0.109  1.00  0.00     0.186 HD
BRANCH   9  11
HETATM   11  C3  UNL     1       2.669   0.519   0.307  1.00  0.00     0.368 C 
HETATM   12  O2  UNL     1       3.215  -0.161  -0.619  1.00  0.00    -0.283 OA
ENDBRANCH   9  11
ENDBRANCH   8   9
BRANCH   1  13
HETATM   13  N1  UNL     1      -1.511   1.755  -0.191  1.00  0.00    -0.320 N 
ATOM     14  H12 UNL     1      -2.490   2.018  -0.307  1.00  0.00     0.178 HD
ATOM     15  H11 UNL     1      -0.978   2.623  -0.145  1.00  0.00     0.178 HD
ENDBRANCH   1  13
TORSDOF 3
