REMARK  9 active torsions:
REMARK  status: ('A' for Active; 'I' for Inactive)
REMARK       I    between atoms: C2_2  and  N1_4 
REMARK    1  A    between atoms: N1_4  and  C3_6 
REMARK    2  A    between atoms: C4_9  and  C5_10 
REMARK    3  A    between atoms: C5_10  and  N3_11 
REMARK    4  A    between atoms: C5_10  and  N4_15 
REMARK       I    between atoms: N4_15  and  C6_17 
REMARK    5  A    between atoms: C6_17  and  C7_19 
REMARK    6  A    between atoms: C7_19  and  O3_20 
REMARK    7  A    between atoms: C7_19  and  C8_22 
REMARK    8  A    between atoms: C8_22  and  O4_24 
REMARK    9  A    between atoms: N5_27  and  N6_28 
ROOT
HETATM    1  C3  UNL     1       2.649   0.162  -0.250  1.00  0.00     0.280 C 
HETATM    2  N2  UNL     1       1.244  -0.169  -0.106  1.00  0.00    -0.363 N 
ATOM      3  H2  UNL     1       0.571   0.584   0.038  1.00  0.00     0.161 HD
HETATM    4  C4  UNL     1       0.824  -1.375  -0.154  1.00  0.00     0.054 C 
HETATM    5  C10 UNL     1       1.831  -2.452  -0.364  1.00  0.00     0.207 C 
HETATM    6  N5  UNL     1       3.050  -2.205   0.381  1.00  0.00    -0.259 N 
HETATM    7  C11 UNL     1       3.473  -0.850   0.485  1.00  0.00     0.280 C 
HETATM    8  O5  UNL     1       4.480  -0.529   1.158  1.00  0.00    -0.267 OA
ENDROOT
BRANCH   4   9
HETATM    9  C5  UNL     1      -0.637  -1.722  -0.005  1.00  0.00     0.332 C 
BRANCH   9  10
HETATM   10  N3  UNL     1      -0.764  -2.565   1.120  1.00  0.00    -0.053 N 
ATOM     11  H33 UNL     1      -0.164  -3.388   1.069  1.00  0.00     0.277 HD
ATOM     12  H32 UNL     1      -0.364  -2.160   1.966  1.00  0.00     0.277 HD
ATOM     13  H31 UNL     1      -1.752  -2.800   1.221  1.00  0.00     0.277 HD
ENDBRANCH   9  10
BRANCH   9  14
HETATM   14  N4  UNL     1      -1.456  -0.551  -0.009  1.00  0.00    -0.327 N 
HETATM   15  C6  UNL     1      -2.425  -0.253  -1.000  1.00  0.00     0.250 C 
HETATM   16  O2  UNL     1      -2.531  -1.119  -1.930  1.00  0.00    -0.271 OA
ATOM     17  H4  UNL     1      -1.335   0.116   0.753  1.00  0.00     0.165 HD
BRANCH  15  18
HETATM   18  C7  UNL     1      -3.276   0.931  -1.031  1.00  0.00     0.238 C 
BRANCH  18  19
HETATM   19  O3  UNL     1      -4.055   0.877  -2.214  1.00  0.00    -0.384 OA
ATOM     20  H3  UNL     1      -4.609   1.648  -2.234  1.00  0.00     0.210 HD
ENDBRANCH  18  19
BRANCH  18  21
HETATM   21  C8  UNL     1      -4.296   0.999   0.091  1.00  0.00     0.152 C 
HETATM   22  C9  UNL     1      -3.692   1.114   1.454  1.00  0.00     0.042 C 
BRANCH  21  23
HETATM   23  O4  UNL     1      -5.065   2.168  -0.130  1.00  0.00    -0.393 OA
ATOM     24  H4  UNL     1      -5.703   2.211   0.572  1.00  0.00     0.210 HD
ENDBRANCH  21  23
ENDBRANCH  18  21
ENDBRANCH  15  18
ENDBRANCH   9  14
ENDBRANCH   4   9
BRANCH   1  25
HETATM   25  N1  UNL     1       2.847   1.472   0.312  1.00  0.00    -0.332 N 
HETATM   26  C2  UNL     1       3.337   2.517  -0.499  1.00  0.00     0.215 C 
HETATM   27  C1  UNL     1       3.541   3.876   0.084  1.00  0.00     0.117 C 
HETATM   28  O1  UNL     1       3.607   2.320  -1.719  1.00  0.00    -0.274 OA
ATOM     29  H1  UNL     1       2.634   1.644   1.294  1.00  0.00     0.165 HD
ENDBRANCH   1  25
BRANCH   6  30
HETATM   30  N6  UNL     1       3.796  -3.236   0.979  1.00  0.00    -0.340 N 
ATOM     31  H62 UNL     1       3.493  -4.207   0.904  1.00  0.00     0.177 HD
ATOM     32  H61 UNL     1       4.654  -3.062   1.503  1.00  0.00     0.177 HD
ENDBRANCH   6  30
TORSDOF 9
