REMARK  14 active torsions:
REMARK  status: ('A' for Active; 'I' for Inactive)
REMARK    1  A    between atoms: N1_2  and  C2_3 
REMARK    2  A    between atoms: N1_2  and  C5_10 
REMARK    3  A    between atoms: C2_3  and  C3_4 
REMARK    4  A    between atoms: C3_4  and  O1_5 
REMARK    5  A    between atoms: C3_4  and  C4_7 
REMARK    6  A    between atoms: C4_7  and  O2_8 
REMARK    7  A    between atoms: C5_10  and  C6_11 
REMARK    8  A    between atoms: C6_11  and  N2_12 
REMARK    9  A    between atoms: C9_20  and  O5_21 
REMARK   10  A    between atoms: C10_23  and  O6_24 
REMARK   11  A    between atoms: C10_23  and  O7_26 
REMARK   12  A    between atoms: C14_34  and  O10_35 
REMARK   13  A    between atoms: C15_37  and  O11_38 
REMARK   14  A    between atoms: C16_40  and  O12_41 
ROOT
HETATM    1  C6  UNL     1       0.506  -0.677  -0.047  1.00  0.00     0.211 C 
HETATM    2  O3  UNL     1      -0.523  -1.317   0.694  1.00  0.00    -0.278 OA
HETATM    3  C8  UNL     1      -1.783  -1.334   1.162  1.00  0.00     0.309 C 
HETATM    4  O4  UNL     1      -1.955  -1.807   2.332  1.00  0.00    -0.261 OA
HETATM    5  C9  UNL     1      -3.100  -0.919   0.635  1.00  0.00     0.276 C 
HETATM    6  C10 UNL     1      -2.974  -0.962  -0.897  1.00  0.00     0.298 C 
HETATM    7  N5  UNL     1      -2.428   0.281  -0.777  1.00  0.00    -0.266 N 
HETATM    8  C11 UNL     1      -1.267   0.785  -1.205  1.00  0.00     0.159 C 
HETATM    9  O8  UNL     1      -1.103   2.081  -0.693  1.00  0.00    -0.311 OA
HETATM   10  C12 UNL     1      -2.236   2.882  -0.995  1.00  0.00     0.346 C 
HETATM   11  O9  UNL     1      -2.789   3.201   0.220  1.00  0.00    -0.364 OA
HETATM   12  C13 UNL     1      -4.072   2.800   0.445  1.00  0.00     0.207 C 
HETATM   13  C14 UNL     1      -4.321   1.311   0.235  1.00  0.00     0.201 C 
HETATM   14  C15 UNL     1      -3.036   0.602   0.450  1.00  0.00     0.217 C 
HETATM   15  C16 UNL     1       0.037   0.080  -1.200  1.00  0.00     0.254 C 
ENDROOT
BRANCH   1  16
HETATM   16  C5  UNL     1       1.325   0.055   0.975  1.00  0.00     0.122 C 
BRANCH  16  17
HETATM   17  N1  UNL     1       2.496   0.727   0.626  1.00  0.00    -0.391 N 
HETATM   18  C1  UNL     1       2.569   1.903  -0.085  1.00  0.00     0.148 C 
BRANCH  17  19
HETATM   19  C2  UNL     1       3.589   0.269   1.405  1.00  0.00     0.155 C 
BRANCH  19  20
HETATM   20  C3  UNL     1       4.815  -0.197   0.718  1.00  0.00     0.159 C 
BRANCH  20  21
HETATM   21  O1  UNL     1       5.750  -0.678   1.699  1.00  0.00    -0.392 OA
ATOM     22  H1  UNL     1       6.537  -0.977   1.258  1.00  0.00     0.210 HD
ENDBRANCH  20  21
BRANCH  20  23
HETATM   23  C4  UNL     1       5.597   0.887   0.009  1.00  0.00     0.197 C 
BRANCH  23  24
HETATM   24  O2  UNL     1       6.022   1.903   0.843  1.00  0.00    -0.398 OA
ATOM     25  H2  UNL     1       6.513   2.584   0.398  1.00  0.00     0.209 HD
ENDBRANCH  23  24
ENDBRANCH  20  23
ENDBRANCH  19  20
ENDBRANCH  17  19
ENDBRANCH  16  17
ENDBRANCH   1  16
BRANCH   1  26
HETATM   26  N2  UNL     1       1.377  -1.733  -0.527  1.00  0.00    -0.328 N 
HETATM   27  C7  UNL     1       1.354  -2.966  -0.295  1.00  0.00     0.199 C 
HETATM   28  N3  UNL     1       2.370  -3.794  -0.924  1.00  0.00    -0.067 NA
HETATM   29  N4  UNL     1       0.413  -3.613   0.532  1.00  0.00    -0.067 NA
ATOM     30  H2  UNL     1       2.124  -1.426  -1.150  1.00  0.00     0.165 HD
ENDBRANCH   1  26
BRANCH  15  31
HETATM   31  O12 UNL     1       0.089  -0.798  -2.355  1.00  0.00    -0.382 OA
ATOM     32  H12 UNL     1      -0.217  -0.304  -3.107  1.00  0.00     0.210 HD
ENDBRANCH  15  31
BRANCH   5  33
HETATM   33  O5  UNL     1      -4.222  -1.425   1.175  1.00  0.00    -0.370 OA
ATOM     34  H5  UNL     1      -5.069  -1.158   0.836  1.00  0.00     0.211 HD
ENDBRANCH   5  33
BRANCH   6  35
HETATM   35  O6  UNL     1      -2.236  -2.072  -1.236  1.00  0.00    -0.346 OA
ATOM     36  H6  UNL     1      -2.158  -2.099  -2.182  1.00  0.00     0.215 HD
ENDBRANCH   6  35
BRANCH   6  37
HETATM   37  O7  UNL     1      -4.222  -1.045  -1.510  1.00  0.00    -0.346 OA
ATOM     38  H7  UNL     1      -4.144  -1.072  -2.456  1.00  0.00     0.215 HD
ENDBRANCH   6  37
BRANCH  14  39
HETATM   39  O11 UNL     1      -2.269   1.104   1.496  1.00  0.00    -0.365 OA
ATOM     40  H11 UNL     1      -2.229   2.046   1.381  1.00  0.00     0.212 HD
ENDBRANCH  14  39
BRANCH  13  41
HETATM   41  O10 UNL     1      -5.380   0.843   0.986  1.00  0.00    -0.388 OA
ATOM     42  H10 UNL     1      -5.535  -0.085   0.855  1.00  0.00     0.210 HD
ENDBRANCH  13  41
TORSDOF 14
