REMARK  13 active torsions:
REMARK  status: ('A' for Active; 'I' for Inactive)
REMARK    1  A    between atoms: N1_1  and  O1_4 
REMARK    2  A    between atoms: O1_4  and  C1_5 
REMARK    3  A    between atoms: C1_5  and  O2_6 
REMARK    4  A    between atoms: C1_5  and  C2_8 
REMARK    5  A    between atoms: C2_8  and  O3_9 
REMARK    6  A    between atoms: C2_8  and  C3_11 
REMARK    7  A    between atoms: C5_14  and  C6_15 
REMARK    8  A    between atoms: C7_18  and  N3_19 
REMARK       I    between atoms: N3_19  and  C8_21 
REMARK    9  A    between atoms: C8_21  and  C9_23 
REMARK   10  A    between atoms: C9_23  and  C10_24 
REMARK   11  A    between atoms: C11_27  and  O9_28 
REMARK   12  A    between atoms: C12_31  and  O11_32 
REMARK   13  A    between atoms: C13_34  and  N4_35 
ROOT
HETATM    1  C3  UNL     1       2.895   0.075   0.644  1.00  0.00     0.247 C 
HETATM    2  O4  UNL     1       1.630   0.276   0.101  1.00  0.00    -0.363 OA
HETATM    3  C4  UNL     1       0.616  -0.273   0.905  1.00  0.00     0.198 C 
HETATM    4  C5  UNL     1      -0.661   0.297   0.425  1.00  0.00     0.136 C 
HETATM    5  C7  UNL     1      -1.920  -0.434   0.519  1.00  0.00     0.154 C 
HETATM    6  C11 UNL     1      -2.026  -1.488   1.588  1.00  0.00     0.283 C 
HETATM    7  O10 UNL     1      -1.334  -2.627   1.307  1.00  0.00    -0.325 OA
HETATM    8  C12 UNL     1      -0.340  -2.544   0.379  1.00  0.00     0.318 C 
HETATM    9  C13 UNL     1       0.778  -1.728   0.967  1.00  0.00     0.247 C 
HETATM   10  N5  UNL     1       2.004  -2.182   0.336  1.00  0.00    -0.321 N 
ATOM     11  H5  UNL     1       2.032  -3.030  -0.231  1.00  0.00     0.165 HD
HETATM   12  C14 UNL     1       3.174  -1.381   0.548  1.00  0.00     0.251 C 
HETATM   13  O14 UNL     1       4.316  -1.898   0.641  1.00  0.00    -0.270 OA
ENDROOT
BRANCH   1  14
HETATM   14  C2  UNL     1       3.920   0.867  -0.087  1.00  0.00     0.213 C 
BRANCH  14  15
HETATM   15  C1  UNL     1       4.006   0.592  -1.567  1.00  0.00     0.317 C 
BRANCH  15  16
HETATM   16  O1  UNL     1       5.012   1.460  -2.055  1.00  0.00    -0.252 OA
BRANCH  16  17
HETATM   17  N1  UNL     1       4.454   2.282  -2.959  1.00  0.00    -0.308 N 
ATOM     18  H12 UNL     1       3.472   2.270  -3.236  1.00  0.00     0.184 HD
ATOM     19  H11 UNL     1       5.179   2.907  -3.311  1.00  0.00     0.184 HD
ENDBRANCH  16  17
ENDBRANCH  15  16
BRANCH  15  20
HETATM   20  O2  UNL     1       4.398  -0.671  -1.910  1.00  0.00    -0.367 OA
ATOM     21  H2  UNL     1       3.723  -1.254  -1.582  1.00  0.00     0.212 HD
ENDBRANCH  15  20
ENDBRANCH  14  15
BRANCH  14  22
HETATM   22  O3  UNL     1       3.584   2.222   0.058  1.00  0.00    -0.387 OA
ATOM     23  H3  UNL     1       3.530   2.395   0.990  1.00  0.00     0.210 HD
ENDBRANCH  14  22
ENDBRANCH   1  14
BRANCH   4  24
HETATM   24  C6  UNL     1      -0.513   0.797  -0.977  1.00  0.00     0.240 C 
HETATM   25  N2  UNL     1       0.326   1.909  -1.288  1.00  0.00    -0.062 NA
HETATM   26  O5  UNL     1      -1.106   0.277  -1.950  1.00  0.00    -0.276 OA
ENDBRANCH   4  24
BRANCH   9  27
HETATM   27  N4  UNL     1       0.928  -2.214   2.351  1.00  0.00    -0.116 N 
HETATM   28  O12 UNL     1       0.947  -1.356   3.244  1.00  0.00    -0.534 OA
HETATM   29  O13 UNL     1       1.050  -3.550   2.634  1.00  0.00    -0.534 OA
ENDBRANCH   9  27
BRANCH   5  30
HETATM   30  N3  UNL     1      -3.006   0.550   0.650  1.00  0.00    -0.350 N 
HETATM   31  C8  UNL     1      -4.140   0.616  -0.148  1.00  0.00     0.228 C 
HETATM   32  O6  UNL     1      -4.302  -0.218  -1.077  1.00  0.00    -0.273 OA
ATOM     33  H3  UNL     1      -2.918   1.244   1.392  1.00  0.00     0.163 HD
BRANCH  31  34
HETATM   34  C9  UNL     1      -5.197   1.634   0.031  1.00  0.00     0.215 C 
BRANCH  34  35
HETATM   35  C10 UNL     1      -6.313   1.523  -0.922  1.00  0.00     0.181 C 
HETATM   36  O7  UNL     1      -6.361   0.639  -1.812  1.00  0.00    -0.648 OA
HETATM   37  O8  UNL     1      -7.353   2.410  -0.855  1.00  0.00    -0.648 OA
ENDBRANCH  34  35
ENDBRANCH  31  34
ENDBRANCH   5  30
BRANCH   8  38
HETATM   38  O11 UNL     1       0.181  -3.861   0.253  1.00  0.00    -0.367 OA
ATOM     39  H11 UNL     1       0.874  -3.803  -0.394  1.00  0.00     0.212 HD
ENDBRANCH   8  38
BRANCH   6  40
HETATM   40  O9  UNL     1      -3.380  -1.898   1.718  1.00  0.00    -0.369 OA
ATOM     41  H9  UNL     1      -3.447  -2.563   2.393  1.00  0.00     0.212 HD
ENDBRANCH   6  40
TORSDOF 13
