REMARK  12 active torsions:
REMARK  status: ('A' for Active; 'I' for Inactive)
REMARK    1  A    between atoms: C1_4  and  C2_6 
REMARK    2  A    between atoms: N3_8  and  C4_9 
REMARK    3  A    between atoms: C7_14  and  C8_15 
REMARK    4  A    between atoms: C8_15  and  O3_16 
REMARK    5  A    between atoms: C8_15  and  C9_18 
REMARK    6  A    between atoms: C9_18  and  O4_19 
REMARK    7  A    between atoms: C9_18  and  C10_21 
REMARK    8  A    between atoms: C10_21  and  O5_22 
REMARK    9  A    between atoms: C10_21  and  C11_24 
REMARK   10  A    between atoms: C11_24  and  O6_25 
REMARK   11  A    between atoms: C14_32  and  C15_33 
REMARK   12  A    between atoms: C16_38  and  O9_39 
ROOT
HETATM    1  C4  UNL     1       1.944   0.919  -0.420  1.00  0.00     0.166 C 
HETATM    2  C5  UNL     1       1.226   1.303   0.849  1.00  0.00     0.142 C 
HETATM    3  C6  UNL     1      -0.051   2.029   0.586  1.00  0.00     0.261 C 
HETATM    4  O1  UNL     1       0.122   3.232   0.242  1.00  0.00    -0.265 OA
HETATM    5  O2  UNL     1      -1.190   1.386   0.731  1.00  0.00    -0.312 OA
HETATM    6  C7  UNL     1      -2.184   0.723   0.065  1.00  0.00     0.181 C 
HETATM    7  C12 UNL     1      -1.628  -0.469  -0.654  1.00  0.00     0.157 C 
HETATM    8  N4  UNL     1      -0.992  -1.388   0.248  1.00  0.00    -0.356 N 
ATOM      9  H4  UNL     1      -1.239  -1.321   1.235  1.00  0.00     0.162 HD
HETATM   10  C13 UNL     1      -0.052  -2.377  -0.120  1.00  0.00     0.249 C 
HETATM   11  O7  UNL     1       0.206  -3.351   0.649  1.00  0.00    -0.271 OA
HETATM   12  C14 UNL     1       0.690  -2.350  -1.407  1.00  0.00     0.262 C 
HETATM   13  N6  UNL     1       1.478  -1.179  -1.605  1.00  0.00    -0.376 N 
ATOM     14  H6  UNL     1       1.611  -0.772  -2.531  1.00  0.00     0.157 HD
HETATM   15  C16 UNL     1       2.070  -0.607  -0.442  1.00  0.00     0.240 C 
ENDROOT
BRANCH   1  16
HETATM   16  N3  UNL     1       3.257   1.535  -0.501  1.00  0.00    -0.277 N 
HETATM   17  C3  UNL     1       4.274   1.320   0.360  1.00  0.00     0.146 A 
HETATM   18  C2  UNL     1       5.374   2.066  -0.013  1.00  0.00     0.107 A 
HETATM   19  N8  UNL     1       4.978   2.727  -1.116  1.00  0.00    -0.282 N 
HETATM   20  N7  UNL     1       3.716   2.395  -1.385  1.00  0.00    -0.240 N 
ATOM     21  H8  UNL     1       5.550   3.376  -1.657  1.00  0.00     0.188 HD
ATOM     22  H7  UNL     1       3.178   2.759  -2.171  1.00  0.00     0.208 HD
BRANCH  18  23
HETATM   23  C1  UNL     1       6.670   2.110   0.658  1.00  0.00     0.139 C 
HETATM   24  N1  UNL     1       7.628   2.848   0.216  1.00  0.00    -0.386 N 
ATOM     25  H12 UNL     1       8.533   2.879   0.685  1.00  0.00     0.157 HD
ATOM     26  H11 UNL     1       7.449   3.402  -0.622  1.00  0.00     0.157 HD
HETATM   27  N2  UNL     1       6.919   1.339   1.824  1.00  0.00    -0.081 NA
ENDBRANCH  18  23
ENDBRANCH   1  16
BRANCH  15  28
HETATM   28  O9  UNL     1       3.432  -0.955  -0.446  1.00  0.00    -0.375 OA
ATOM     29  H9  UNL     1       3.510  -1.902  -0.460  1.00  0.00     0.212 HD
ENDBRANCH  15  28
BRANCH  12  30
HETATM   30  C15 UNL     1       1.441  -3.605  -1.640  1.00  0.00     0.263 C 
HETATM   31  N5  UNL     1       0.864  -4.889  -1.504  1.00  0.00    -0.060 NA
HETATM   32  O8  UNL     1       2.664  -3.479  -1.979  1.00  0.00    -0.274 OA
ENDBRANCH  12  30
BRANCH   6  33
HETATM   33  C8  UNL     1      -3.211   0.400   1.132  1.00  0.00     0.180 C 
BRANCH  33  34
HETATM   34  O3  UNL     1      -3.578   1.664   1.651  1.00  0.00    -0.390 OA
ATOM     35  H3  UNL     1      -4.222   1.462   2.320  1.00  0.00     0.210 HD
ENDBRANCH  33  34
BRANCH  33  36
HETATM   36  C9  UNL     1      -4.381  -0.384   0.747  1.00  0.00     0.180 C 
BRANCH  36  37
HETATM   37  O4  UNL     1      -3.951  -1.670   0.310  1.00  0.00    -0.390 OA
ATOM     38  H4  UNL     1      -4.712  -2.180   0.059  1.00  0.00     0.210 HD
ENDBRANCH  36  37
BRANCH  36  39
HETATM   39  C10 UNL     1      -5.331   0.193  -0.266  1.00  0.00     0.173 C 
BRANCH  39  40
HETATM   40  O5  UNL     1      -6.392  -0.767  -0.314  1.00  0.00    -0.391 OA
ATOM     41  H5  UNL     1      -6.992  -0.403  -0.954  1.00  0.00     0.210 HD
ENDBRANCH  39  40
BRANCH  39  42
HETATM   42  C11 UNL     1      -6.006   1.454   0.213  1.00  0.00     0.198 C 
BRANCH  42  43
HETATM   43  O6  UNL     1      -7.037   1.728  -0.736  1.00  0.00    -0.398 OA
ATOM     44  H6  UNL     1      -7.462   2.522  -0.434  1.00  0.00     0.209 HD
ENDBRANCH  42  43
ENDBRANCH  39  42
ENDBRANCH  36  39
ENDBRANCH  33  36
ENDBRANCH   6  33
TORSDOF 12
