REMARK  15 active torsions:
REMARK  status: ('A' for Active; 'I' for Inactive)
REMARK    1  A    between atoms: N1_1  and  N2_4 
REMARK       I    between atoms: N2_4  and  C1_6 
REMARK    2  A    between atoms: C1_6  and  C2_8 
REMARK    3  A    between atoms: C2_8  and  N3_9 
REMARK    4  A    between atoms: N3_9  and  C3_11 
REMARK    5  A    between atoms: C5_15  and  C6_16 
REMARK    6  A    between atoms: C6_16  and  O3_17 
REMARK    7  A    between atoms: C6_16  and  O4_19 
REMARK    8  A    between atoms: C7_21  and  C8_22 
REMARK    9  A    between atoms: C9_25  and  O7_26 
REMARK   10  A    between atoms: C9_25  and  C10_28 
REMARK   11  A    between atoms: C10_28  and  O8_29 
REMARK   12  A    between atoms: C11_31  and  O9_32 
REMARK   13  A    between atoms: C12_34  and  O10_35 
REMARK   14  A    between atoms: C13_37  and  O11_38 
REMARK   15  A    between atoms: O11_38  and  S1_39 
ROOT
HETATM    1  C3  UNL     1       1.527   0.644   0.428  1.00  0.00     0.207 C 
HETATM    2  C4  UNL     1       0.463   0.107   1.317  1.00  0.00     0.252 C 
HETATM    3  O2  UNL     1       0.640  -0.079   2.567  1.00  0.00    -0.270 OA
HETATM    4  N4  UNL     1      -0.816  -0.225   0.794  1.00  0.00    -0.275 N 
HETATM    5  C5  UNL     1      -1.821  -1.231   1.092  1.00  0.00     0.088 C 
HETATM    6  C7  UNL     1      -2.819  -1.193   0.229  1.00  0.00     0.087 C 
HETATM    7  C9  UNL     1      -2.477  -0.177  -0.793  1.00  0.00     0.167 C 
HETATM    8  C11 UNL     1      -1.317   0.606  -0.258  1.00  0.00     0.208 C 
HETATM    9  C12 UNL     1      -0.231   0.917  -1.238  1.00  0.00     0.210 C 
HETATM   10  C13 UNL     1       0.881   1.664  -0.474  1.00  0.00     0.210 C 
ENDROOT
BRANCH   1  11
HETATM   11  N3  UNL     1       2.698   1.095   1.083  1.00  0.00    -0.379 N 
ATOM     12  H3  UNL     1       2.702   1.587   1.977  1.00  0.00     0.160 HD
BRANCH  11  13
HETATM   13  C2  UNL     1       3.879   0.775   0.334  1.00  0.00     0.160 C 
BRANCH  13  14
HETATM   14  C1  UNL     1       4.313  -0.603   0.270  1.00  0.00     0.274 C 
HETATM   15  N2  UNL     1       3.690  -1.671   0.940  1.00  0.00    -0.272 N 
ATOM     16  H2  UNL     1       2.872  -1.490   1.521  1.00  0.00     0.189 HD
HETATM   17  O1  UNL     1       5.317  -0.892  -0.424  1.00  0.00    -0.265 OA
BRANCH  15  18
HETATM   18  N1  UNL     1       4.184  -3.005   0.820  1.00  0.00    -0.342 N 
ATOM     19  H12 UNL     1       5.003  -3.169   0.235  1.00  0.00     0.176 HD
ATOM     20  H11 UNL     1       3.732  -3.780   1.306  1.00  0.00     0.176 HD
ENDBRANCH  15  18
ENDBRANCH  13  14
ENDBRANCH  11  13
ENDBRANCH   1  11
BRANCH  10  21
HETATM   21  O11 UNL     1       0.432   2.726   0.247  1.00  0.00    -0.246 OA
BRANCH  21  22
HETATM   22  S1  UNL     1       1.111   4.148  -0.354  1.00  0.00     0.252 S 
HETATM   23  O12 UNL     1       1.344   5.109   0.794  1.00  0.00    -0.572 OA
HETATM   24  O13 UNL     1       0.151   4.727  -1.341  1.00  0.00    -0.572 OA
HETATM   25  O14 UNL     1       2.574   3.892  -1.120  1.00  0.00    -0.572 OA
ENDBRANCH  21  22
ENDBRANCH  10  21
BRANCH   9  26
HETATM   26  O10 UNL     1       0.431  -0.199  -1.749  1.00  0.00    -0.388 OA
ATOM     27  H10 UNL     1       1.121  -0.001  -2.372  1.00  0.00     0.210 HD
ENDBRANCH   9  26
BRANCH   5  28
HETATM   28  C6  UNL     1      -1.589  -2.103   2.277  1.00  0.00     0.306 C 
BRANCH  28  29
HETATM   29  O3  UNL     1      -2.171  -3.337   2.246  1.00  0.00    -0.366 OA
ATOM     30  H3  UNL     1      -2.023  -3.893   3.002  1.00  0.00     0.213 HD
ENDBRANCH  28  29
BRANCH  28  31
HETATM   31  O4  UNL     1      -2.054  -1.456   3.450  1.00  0.00    -0.366 OA
ATOM     32  H4  UNL     1      -1.906  -2.012   4.206  1.00  0.00     0.213 HD
ENDBRANCH  28  31
ENDBRANCH   5  28
BRANCH   8  33
HETATM   33  O9  UNL     1      -1.760   1.837   0.264  1.00  0.00    -0.365 OA
ATOM     34  H9  UNL     1      -2.093   2.389  -0.434  1.00  0.00     0.212 HD
ENDBRANCH   8  33
BRANCH   6  35
HETATM   35  C8  UNL     1      -4.015  -2.048   0.229  1.00  0.00     0.210 C 
HETATM   36  O5  UNL     1      -4.297  -2.964   0.991  1.00  0.00    -0.644 OA
HETATM   37  O6  UNL     1      -4.987  -1.797  -0.764  1.00  0.00    -0.644 OA
ENDBRANCH   6  35
BRANCH   7  38
HETATM   38  O7  UNL     1      -3.566   0.726  -0.846  1.00  0.00    -0.377 OA
ATOM     39  H7  UNL     1      -3.347   1.378  -1.502  1.00  0.00     0.211 HD
ENDBRANCH   7  38
BRANCH   7  40
HETATM   40  C10 UNL     1      -2.251  -0.652  -2.179  1.00  0.00     0.212 C 
BRANCH  40  41
HETATM   41  O8  UNL     1      -3.385  -1.202  -2.728  1.00  0.00    -0.397 OA
ATOM     42  H8  UNL     1      -3.240  -1.506  -3.616  1.00  0.00     0.209 HD
ENDBRANCH  40  41
ENDBRANCH   7  40
TORSDOF 15
