REMARK  13 active torsions:
REMARK  status: ('A' for Active; 'I' for Inactive)
REMARK    1  A    between atoms: N1_1  and  N2_4 
REMARK    2  A    between atoms: N2_4  and  C1_6 
REMARK    3  A    between atoms: C2_8  and  C3_9 
REMARK    4  A    between atoms: C3_9  and  O2_10 
REMARK    5  A    between atoms: C4_12  and  N3_13 
REMARK       I    between atoms: N3_13  and  C5_15 
REMARK    6  A    between atoms: C5_15  and  C6_17 
REMARK    7  A    between atoms: C8_22  and  O5_23 
REMARK    8  A    between atoms: C8_22  and  N5_25 
REMARK       I    between atoms: N5_25  and  C9_27 
REMARK    9  A    between atoms: C9_27  and  C10_29 
REMARK   10  A    between atoms: C10_29  and  C11_30 
REMARK   11  A    between atoms: C11_30  and  N6_31 
REMARK   12  A    between atoms: C15_42  and  O8_43 
REMARK   13  A    between atoms: C16_45  and  N10_46 
ROOT
HETATM    1  C6  UNL     1       0.708  -0.880  -0.836  1.00  0.00     0.269 C 
HETATM    2  N4  UNL     1       1.635   0.084  -1.373  1.00  0.00    -0.334 N 
ATOM      3  H4  UNL     1       1.871   0.088  -2.365  1.00  0.00     0.164 HD
HETATM    4  C7  UNL     1       2.224   1.051  -0.460  1.00  0.00     0.297 C 
HETATM    5  O4  UNL     1       2.676   2.086  -0.970  1.00  0.00    -0.266 OA
HETATM    6  C8  UNL     1       2.280   0.813   0.976  1.00  0.00     0.303 C 
HETATM    7  N9  UNL     1       1.758  -0.480   1.381  1.00  0.00    -0.301 N 
ATOM      8  H9  UNL     1       1.926  -0.783   2.340  1.00  0.00     0.167 HD
HETATM    9  C14 UNL     1       1.039  -1.337   0.539  1.00  0.00     0.254 C 
HETATM   10  O7  UNL     1       0.679  -2.487   0.947  1.00  0.00    -0.271 OA
ENDROOT
BRANCH   1  11
HETATM   11  C5  UNL     1      -0.679  -0.402  -0.983  1.00  0.00     0.250 C 
HETATM   12  N3  UNL     1      -1.743  -0.779  -0.144  1.00  0.00    -0.349 N 
ATOM     13  H3  UNL     1      -1.562  -1.423   0.626  1.00  0.00     0.163 HD
HETATM   14  O3  UNL     1      -0.931   0.414  -1.939  1.00  0.00    -0.271 OA
BRANCH  12  15
HETATM   15  C4  UNL     1      -3.104  -0.274  -0.342  1.00  0.00     0.146 C 
HETATM   16  C2  UNL     1      -4.092  -1.363  -0.172  1.00  0.00     0.173 C 
HETATM   17  O1  UNL     1      -5.389  -0.963   0.130  1.00  0.00    -0.354 OA
HETATM   18  C1  UNL     1      -5.372  -0.248   1.324  1.00  0.00     0.269 C 
HETATM   19  C16 UNL     1      -4.761   1.104   0.973  1.00  0.00     0.263 C 
HETATM   20  C15 UNL     1      -3.332   0.948   0.525  1.00  0.00     0.178 C 
BRANCH  16  21
HETATM   21  C3  UNL     1      -4.206  -2.254  -1.416  1.00  0.00     0.198 C 
BRANCH  21  22
HETATM   22  O2  UNL     1      -4.769  -1.515  -2.454  1.00  0.00    -0.398 OA
ATOM     23  H2  UNL     1      -4.840  -2.067  -3.224  1.00  0.00     0.209 HD
ENDBRANCH  21  22
ENDBRANCH  16  21
BRANCH  18  24
HETATM   24  N2  UNL     1      -6.647  -0.101   1.947  1.00  0.00    -0.312 N 
ATOM     25  H2  UNL     1      -6.828  -0.431   2.895  1.00  0.00     0.182 HD
BRANCH  24  26
HETATM   26  N1  UNL     1      -7.617   0.514   1.190  1.00  0.00    -0.347 N 
ATOM     27  H12 UNL     1      -7.421   0.839   0.243  1.00  0.00     0.176 HD
ATOM     28  H11 UNL     1      -8.529   0.619   1.635  1.00  0.00     0.176 HD
ENDBRANCH  24  26
ENDBRANCH  18  24
BRANCH  19  29
HETATM   29  N10 UNL     1      -5.543   1.608  -0.167  1.00  0.00    -0.068 N 
ATOM     30 3H10 UNL     1      -5.583   0.960  -0.954  1.00  0.00     0.275 HD
ATOM     31 2H10 UNL     1      -6.547   1.646   0.010  1.00  0.00     0.275 HD
ATOM     32 1H10 UNL     1      -5.134   2.513  -0.402  1.00  0.00     0.275 HD
ENDBRANCH  19  29
BRANCH  20  33
HETATM   33  O8  UNL     1      -2.518   0.812   1.660  1.00  0.00    -0.391 OA
ATOM     34  H8  UNL     1      -2.661   1.578   2.203  1.00  0.00     0.210 HD
ENDBRANCH  20  33
ENDBRANCH  12  15
ENDBRANCH   1  11
BRANCH   6  35
HETATM   35  O5  UNL     1       1.478   1.750   1.682  1.00  0.00    -0.346 OA
ATOM     36  H5  UNL     1       1.515   1.595   2.619  1.00  0.00     0.215 HD
ENDBRANCH   6  35
BRANCH   6  37
HETATM   37  N5  UNL     1       3.650   0.889   1.490  1.00  0.00    -0.304 N 
HETATM   38  C9  UNL     1       4.650   0.001   0.937  1.00  0.00     0.223 C 
HETATM   39  O6  UNL     1       4.322  -0.804   0.028  1.00  0.00    -0.273 OA
ATOM     40  H5  UNL     1       3.894   1.555   2.223  1.00  0.00     0.167 HD
BRANCH  38  41
HETATM   41  C10 UNL     1       6.040   0.017   1.411  1.00  0.00     0.124 C 
BRANCH  41  42
HETATM   42  C11 UNL     1       7.041  -0.653   0.553  1.00  0.00     0.159 C 
BRANCH  42  43
HETATM   43  N6  UNL     1       7.224  -0.060  -0.741  1.00  0.00    -0.286 N 
HETATM   44  C12 UNL     1       6.665  -0.326  -1.913  1.00  0.00     0.201 A 
HETATM   45  N7  UNL     1       7.163   0.556  -2.806  1.00  0.00    -0.346 N 
HETATM   46  C13 UNL     1       8.039   1.380  -2.193  1.00  0.00     0.198 A 
ATOM     47  H7  UNL     1       6.915   0.594  -3.795  1.00  0.00     0.167 HD
HETATM   48  N8  UNL     1       8.062   0.983  -0.919  1.00  0.00    -0.293 N 
ATOM     49  H8  UNL     1       8.631   1.407  -0.186  1.00  0.00     0.188 HD
ENDBRANCH  42  43
ENDBRANCH  41  42
ENDBRANCH  38  41
ENDBRANCH   6  37
TORSDOF 13
