REMARK  8 active torsions:
REMARK  status: ('A' for Active; 'I' for Inactive)
REMARK    1  A    between atoms: C3_5  and  O1_6 
REMARK    2  A    between atoms: O1_6  and  C4_7 
REMARK    3  A    between atoms: C5_10  and  N3_11 
REMARK    4  A    between atoms: N5_16  and  N6_17 
REMARK    5  A    between atoms: C6_20  and  C7_21 
REMARK    6  A    between atoms: C7_21  and  O2_22 
REMARK    7  A    between atoms: C7_21  and  O3_24 
REMARK    8  A    between atoms: C10_29  and  C11_30 
ROOT
HETATM    1  C1  UNL     1       3.117  -3.299  -1.606  1.00  0.00     0.089 C 
HETATM    2  C2  UNL     1       2.539  -2.046  -1.000  1.00  0.00     0.079 A 
HETATM    3  N1  UNL     1       1.298  -1.661  -1.189  1.00  0.00    -0.325 N 
ATOM      4  H1  UNL     1       0.708  -2.250  -1.777  1.00  0.00     0.169 HD
HETATM    5  C3  UNL     1       0.731  -0.526  -0.657  1.00  0.00     0.174 A 
HETATM    6  C8  UNL     1       1.587   0.232   0.135  1.00  0.00     0.127 A 
HETATM    7  C9  UNL     1       1.067   1.437   0.750  1.00  0.00     0.106 C 
HETATM    8  N7  UNL     1       0.634   2.395   1.264  1.00  0.00    -0.191 NA
HETATM    9  C10 UNL     1       2.890  -0.165   0.337  1.00  0.00     0.124 A 
HETATM   10  N9  UNL     1       3.360  -1.316  -0.240  1.00  0.00    -0.341 N 
ATOM     11  H9  UNL     1       4.325  -1.612  -0.091  1.00  0.00     0.167 HD
ENDROOT
BRANCH   5  12
HETATM   12  O1  UNL     1      -0.540  -0.280  -0.950  1.00  0.00    -0.272 OA
BRANCH  12  13
HETATM   13  C4  UNL     1      -1.519   0.589  -0.731  1.00  0.00     0.196 A 
HETATM   14  N2  UNL     1      -1.640   1.754  -1.447  1.00  0.00    -0.167 N 
HETATM   15  C5  UNL     1      -2.610   2.647  -1.249  1.00  0.00     0.694 A 
ATOM     16  H2  UNL     1      -0.949   1.947  -2.172  1.00  0.00     0.186 HD
HETATM   17  N4  UNL     1      -3.523   2.397  -0.298  1.00  0.00    -0.111 N 
HETATM   18  N5  UNL     1      -3.460   1.298   0.420  1.00  0.00    -0.184 N 
ATOM     19  H4  UNL     1      -4.274   3.067  -0.131  1.00  0.00     0.207 HD
HETATM   20  C6  UNL     1      -2.485   0.383   0.233  1.00  0.00     0.158 A 
BRANCH  15  21
HETATM   21  N3  UNL     1      -2.685   3.749  -1.959  1.00  0.00    -0.233 N 
ATOM     22  H32 UNL     1      -1.991   3.939  -2.682  1.00  0.00     0.174 HD
ATOM     23  H31 UNL     1      -3.427   4.432  -1.808  1.00  0.00     0.174 HD
ENDBRANCH  15  21
BRANCH  18  24
HETATM   24  N6  UNL     1      -4.459   1.095   1.412  1.00  0.00    -0.323 N 
ATOM     25  H62 UNL     1      -5.196   1.786   1.553  1.00  0.00     0.179 HD
ATOM     26  H61 UNL     1      -4.410   0.242   1.969  1.00  0.00     0.179 HD
ENDBRANCH  18  24
BRANCH  20  27
HETATM   27  C7  UNL     1      -2.568  -0.823   1.083  1.00  0.00     0.313 C 
BRANCH  27  28
HETATM   28  O2  UNL     1      -1.330  -1.155   1.574  1.00  0.00    -0.366 OA
ATOM     29  H2  UNL     1      -1.383  -1.930   2.120  1.00  0.00     0.213 HD
ENDBRANCH  27  28
BRANCH  27  30
HETATM   30  O3  UNL     1      -2.937  -1.884   0.218  1.00  0.00    -0.366 OA
ATOM     31  H3  UNL     1      -2.990  -2.659   0.764  1.00  0.00     0.213 HD
ENDBRANCH  27  30
ENDBRANCH  20  27
ENDBRANCH  12  13
ENDBRANCH   5  12
BRANCH   9  32
HETATM   32  C11 UNL     1       3.803   0.615   1.161  1.00  0.00     0.283 C 
HETATM   33  N8  UNL     1       5.141   0.193   1.363  1.00  0.00    -0.056 NA
HETATM   34  O4  UNL     1       3.439   1.665   1.707  1.00  0.00    -0.269 OA
ENDBRANCH   9  32
TORSDOF 8
