REMARK  5 active torsions:
REMARK  status: ('A' for Active; 'I' for Inactive)
REMARK    1  A    between atoms: N1_1  and  C1_4 
REMARK    2  A    between atoms: C2_7  and  N3_8 
REMARK    3  A    between atoms: C4_10  and  C5_11 
REMARK    4  A    between atoms: C6_12  and  C7_13 
REMARK    5  A    between atoms: C9_25  and  N9_26 
REMARK       I    between atoms: N10_29  and  C10_30 
ROOT
HETATM    1  C1  UNL     1      -1.902   0.080   1.215  1.00  0.00     0.146 A 
HETATM    2  N2  UNL     1      -0.645  -0.395   1.049  1.00  0.00    -0.173 N 
ATOM      3  H2  UNL     1      -0.019  -0.377   1.854  1.00  0.00     0.186 HD
HETATM    4  C2  UNL     1      -0.169  -0.887  -0.104  1.00  0.00     0.707 A 
HETATM    5  N7  UNL     1      -1.018  -0.895  -1.139  1.00  0.00    -0.172 N 
ATOM      6  H7  UNL     1      -0.692  -1.262  -2.033  1.00  0.00     0.186 HD
HETATM    7  C8  UNL     1      -2.275  -0.444  -1.055  1.00  0.00     0.168 A 
HETATM    8  N8  UNL     1      -3.285  -0.351  -1.931  1.00  0.00    -0.173 N 
ATOM      9  H8  UNL     1      -3.240  -0.645  -2.907  1.00  0.00     0.186 HD
HETATM   10  C9  UNL     1      -4.353   0.180  -1.345  1.00  0.00     0.688 A 
HETATM   11  N10 UNL     1      -4.054   0.455  -0.029  1.00  0.00    -0.091 N 
HETATM   12  C10 UNL     1      -4.943   1.022   0.899  1.00  0.00     0.354 C 
HETATM   13  N11 UNL     1      -6.277   1.339   0.424  1.00  0.00    -0.039 NA
HETATM   14  O2  UNL     1      -4.738   1.294   2.092  1.00  0.00    -0.249 OA
HETATM   15  C11 UNL     1      -2.784   0.073   0.147  1.00  0.00     0.150 A 
ENDROOT
BRANCH   4  16
HETATM   16  N3  UNL     1       1.162  -1.369  -0.208  1.00  0.00    -0.081 N 
HETATM   17  C3  UNL     1       2.302  -0.688  -0.074  1.00  0.00     0.167 A 
HETATM   18  C4  UNL     1       3.354  -1.559  -0.257  1.00  0.00     0.067 A 
HETATM   19  N5  UNL     1       2.792  -2.764  -0.500  1.00  0.00    -0.284 N 
HETATM   20  N6  UNL     1       1.476  -2.620  -0.465  1.00  0.00    -0.222 N 
ATOM     21  H5  UNL     1       3.294  -3.633  -0.679  1.00  0.00     0.188 HD
ATOM     22  H6  UNL     1       0.803  -3.371  -0.616  1.00  0.00     0.209 HD
BRANCH  18  23
HETATM   23  C5  UNL     1       4.773  -1.229  -0.196  1.00  0.00     0.037 C 
HETATM   24  C6  UNL     1       5.125   0.014   0.056  1.00  0.00     0.073 C 
BRANCH  24  25
HETATM   25  C7  UNL     1       6.540   0.381   0.125  1.00  0.00     0.254 C 
HETATM   26  N4  UNL     1       6.932   1.720   0.396  1.00  0.00    -0.058 NA
HETATM   27  O1  UNL     1       7.414  -0.498  -0.058  1.00  0.00    -0.272 OA
ENDBRANCH  24  25
ENDBRANCH  18  23
ENDBRANCH   4  16
BRANCH   1  28
HETATM   28  N1  UNL     1      -2.250   0.527   2.366  1.00  0.00    -0.383 N 
ATOM     29  H12 UNL     1      -1.601   0.532   3.152  1.00  0.00     0.157 HD
ATOM     30  H11 UNL     1      -3.197   0.885   2.491  1.00  0.00     0.157 HD
ENDBRANCH   1  28
BRANCH  10  31
HETATM   31  N9  UNL     1      -5.509   0.422  -1.869  1.00  0.00    -0.234 N 
ATOM     32  H92 UNL     1      -5.730   0.218  -2.844  1.00  0.00     0.174 HD
ATOM     33  H91 UNL     1      -6.329   0.830  -1.419  1.00  0.00     0.174 HD
ENDBRANCH  10  31
TORSDOF 5
