REMARK  7 active torsions:
REMARK  status: ('A' for Active; 'I' for Inactive)
REMARK    1  A    between atoms: C3_3  and  N1_4 
REMARK    2  A    between atoms: N1_4  and  C4_6 
REMARK    3  A    between atoms: C5_9  and  O1_10 
REMARK    4  A    between atoms: C6_12  and  C7_13 
REMARK    5  A    between atoms: N3_14  and  N4_16 
REMARK    6  A    between atoms: N4_16  and  C8_18 
REMARK    7  A    between atoms: N8_23  and  N9_24 
ROOT
HETATM    1  C1  UNL     1       6.316   0.679  -1.939  1.00  0.00     0.014 C 
HETATM    2  C2  UNL     1       6.238   0.029  -0.924  1.00  0.00    -0.097 C 
HETATM    3  C3  UNL     1       6.124  -0.766   0.312  1.00  0.00     0.231 C 
ENDROOT
BRANCH   3   4
HETATM    4  N1  UNL     1       4.861  -1.469   0.384  1.00  0.00    -0.215 N 
ATOM      5  H1  UNL     1       4.859  -2.487   0.328  1.00  0.00     0.178 HD
BRANCH   4   6
HETATM    6  C4  UNL     1       3.734  -0.848   0.517  1.00  0.00     0.683 A 
HETATM    7  N2  UNL     1       3.631   0.491   0.601  1.00  0.00    -0.168 N 
HETATM    8  C5  UNL     1       2.319   0.782   0.732  1.00  0.00     0.184 A 
ATOM      9  H2  UNL     1       4.400   1.161   0.571  1.00  0.00     0.186 HD
HETATM   10  C6  UNL     1       1.625  -0.409   0.727  1.00  0.00     0.119 A 
HETATM   11  N10 UNL     1       2.523  -1.416   0.592  1.00  0.00    -0.182 N 
HETATM   12  C11 UNL     1       2.219  -2.835   0.539  1.00  0.00     0.176 C 
BRANCH   8  13
HETATM   13  O1  UNL     1       1.737   2.038   0.854  1.00  0.00    -0.344 OA
ATOM     14  H1  UNL     1       0.814   2.243   0.946  1.00  0.00     0.219 HD
ENDBRANCH   8  13
BRANCH  10  15
HETATM   15  C7  UNL     1       0.185  -0.596   0.843  1.00  0.00     0.142 C 
HETATM   16  N3  UNL     1      -0.588   0.427   0.968  1.00  0.00    -0.295 N 
ATOM     17  H3  UNL     1      -0.154   1.350   0.981  1.00  0.00     0.186 HD
BRANCH  16  18
HETATM   18  N4  UNL     1      -1.959   0.362   1.085  1.00  0.00    -0.129 N 
ATOM     19  H4  UNL     1      -2.429   0.727   1.913  1.00  0.00     0.205 HD
BRANCH  18  20
HETATM   20  C8  UNL     1      -2.703  -0.225   0.027  1.00  0.00     0.744 C 
HETATM   21  N5  UNL     1      -2.434  -1.334  -0.573  1.00  0.00    -0.114 N 
HETATM   22  N6  UNL     1      -3.422  -1.520  -1.534  1.00  0.00     0.008 NA
ATOM     23  H5  UNL     1      -1.648  -1.955  -0.380  1.00  0.00     0.203 HD
HETATM   24  N7  UNL     1      -4.020  -0.282  -1.766  1.00  0.00     0.031 NA
HETATM   25  N8  UNL     1      -3.876   0.352  -0.528  1.00  0.00    -0.007 N 
BRANCH  25  26
HETATM   26  N9  UNL     1      -4.713   1.306  -0.027  1.00  0.00    -0.302 N 
HETATM   27  C9  UNL     1      -5.583   0.892   1.022  1.00  0.00     0.173 C 
HETATM   28  C10 UNL     1      -4.186   2.618   0.086  1.00  0.00     0.173 C 
ENDBRANCH  25  26
ENDBRANCH  18  20
ENDBRANCH  16  18
ENDBRANCH  10  15
ENDBRANCH   4   6
ENDBRANCH   3   4
TORSDOF 7
