REMARK  6 active torsions:
REMARK  status: ('A' for Active; 'I' for Inactive)
REMARK    1  A    between atoms: N1_2  and  C2_4 
REMARK    2  A    between atoms: C3_7  and  N3_8 
REMARK    3  A    between atoms: C8_16  and  N5_17 
REMARK    4  A    between atoms: N5_17  and  C9_19 
REMARK    5  A    between atoms: C9_19  and  N6_20 
REMARK    6  A    between atoms: C9_19  and  C10_24 
ROOT
HETATM    1  C2  UNL     1      -1.333   2.461  -0.637  1.00  0.00     0.706 A 
HETATM    2  N2  UNL     1      -2.206   1.550  -0.171  1.00  0.00    -0.021 N 
ATOM      3  H2  UNL     1      -3.164   1.842   0.024  1.00  0.00     0.203 HD
HETATM    4  C3  UNL     1      -1.863   0.269   0.047  1.00  0.00     0.709 A 
HETATM    5  N4  UNL     1      -0.591  -0.069  -0.225  1.00  0.00    -0.021 N 
ATOM      6  H4  UNL     1      -0.291  -1.032  -0.074  1.00  0.00     0.203 HD
HETATM    7  C8  UNL     1       0.301   0.830  -0.693  1.00  0.00     0.709 A 
HETATM    8  N9  UNL     1      -0.062   2.117  -0.907  1.00  0.00    -0.021 N 
ATOM      9  H9  UNL     1       0.606   2.802  -1.261  1.00  0.00     0.203 HD
ENDROOT
BRANCH   7  10
HETATM   10  N5  UNL     1       1.527   0.489  -0.951  1.00  0.00    -0.194 N 
ATOM     11  H5  UNL     1       2.199   1.170  -1.305  1.00  0.00     0.180 HD
BRANCH  10  12
HETATM   12  C9  UNL     1       1.910  -0.891  -0.720  1.00  0.00     0.317 C 
BRANCH  12  13
HETATM   13  N6  UNL     1       1.611  -1.183   0.662  1.00  0.00    -0.056 N 
ATOM     14  H63 UNL     1       2.047  -0.531   1.314  1.00  0.00     0.276 HD
ATOM     15  H62 UNL     1       0.642  -0.988   0.913  1.00  0.00     0.276 HD
ATOM     16  H61 UNL     1       1.880  -2.153   0.824  1.00  0.00     0.276 HD
ENDBRANCH  12  13
BRANCH  12  17
HETATM   17  C10 UNL     1       3.399  -0.977  -0.956  1.00  0.00     0.146 C 
HETATM   18  C11 UNL     1       4.188  -0.093  -0.048  1.00  0.00     0.044 C 
HETATM   19  C12 UNL     1       5.537  -0.826  -0.013  1.00  0.00     0.132 C 
HETATM   20  N7  UNL     1       5.328  -2.031  -0.823  1.00  0.00    -0.148 NA
HETATM   21  N8  UNL     1       3.940  -2.290  -0.658  1.00  0.00    -0.140 NA
ENDBRANCH  12  17
ENDBRANCH  10  12
ENDBRANCH   7  10
BRANCH   4  22
HETATM   22  N3  UNL     1      -2.825  -0.663   0.543  1.00  0.00    -0.213 N 
HETATM   23  C4  UNL     1      -4.164  -0.232   0.811  1.00  0.00     0.167 C 
HETATM   24  C5  UNL     1      -4.748  -0.864   2.054  1.00  0.00     0.188 C 
HETATM   25  O1  UNL     1      -4.323  -2.172   2.237  1.00  0.00    -0.388 OA
HETATM   26  C6  UNL     1      -3.809  -2.757   1.104  1.00  0.00     0.188 C 
HETATM   27  C7  UNL     1      -2.484  -2.051   0.788  1.00  0.00     0.167 C 
ENDBRANCH   4  22
BRANCH   1  28
HETATM   28  N1  UNL     1      -1.746   3.803  -0.851  1.00  0.00    -0.229 N 
HETATM   29  C1  UNL     1      -0.845   4.811  -1.349  1.00  0.00     0.165 C 
ATOM     30  H1  UNL     1      -2.711   4.061  -0.646  1.00  0.00     0.177 HD
ENDBRANCH   1  28
TORSDOF 6
