REMARK  9 active torsions:
REMARK  status: ('A' for Active; 'I' for Inactive)
REMARK    1  A    between atoms: C2_2  and  N1_3 
REMARK    2  A    between atoms: N1_3  and  C3_5 
REMARK    3  A    between atoms: C6_13  and  C7_14 
REMARK    4  A    between atoms: C7_14  and  N9_27 
REMARK    5  A    between atoms: N4_15  and  N5_17 
REMARK    6  A    between atoms: N5_17  and  C8_19 
REMARK    7  A    between atoms: C8_19  and  N6_20 
REMARK    8  A    between atoms: N6_20  and  N7_22 
REMARK    9  A    between atoms: N9_27  and  N10_29 
ROOT
HETATM    1  C3  UNL     1       3.035   0.391  -0.090  1.00  0.00     0.682 A 
HETATM    2  N2  UNL     1       2.426   1.128   0.860  1.00  0.00    -0.154 N 
ATOM      3  H2  UNL     1       2.929   1.854   1.370  1.00  0.00     0.187 HD
HETATM    4  C4  UNL     1       1.129   0.870   1.111  1.00  0.00     0.290 A 
HETATM    5  O1  UNL     1       0.549   1.562   2.006  1.00  0.00    -0.265 OA
HETATM    6  C5  UNL     1       0.408  -0.094   0.455  1.00  0.00     0.147 A 
HETATM    7  N3  UNL     1      -0.889  -0.361   0.697  1.00  0.00    -0.344 N 
ATOM      8  H3  UNL     1      -1.379   0.179   1.411  1.00  0.00     0.166 HD
HETATM    9  C6  UNL     1      -1.566  -1.323   0.024  1.00  0.00     0.095 A 
HETATM   10  C9  UNL     1      -0.897  -2.060  -0.948  1.00  0.00     0.123 A 
HETATM   11  N11 UNL     1       0.398  -1.805  -1.201  1.00  0.00    -0.348 N 
ATOM     12  H11 UNL     1       0.891  -2.344  -1.913  1.00  0.00     0.167 HD
HETATM   13  C10 UNL     1       1.053  -0.836  -0.515  1.00  0.00     0.153 A 
HETATM   14  N12 UNL     1       2.347  -0.566  -0.753  1.00  0.00    -0.174 N 
ATOM     15  H12 UNL     1       2.833  -1.108  -1.467  1.00  0.00     0.186 HD
ENDROOT
BRANCH   9  16
HETATM   16  C7  UNL     1      -2.950  -1.533   0.356  1.00  0.00     0.163 C 
HETATM   17  N4  UNL     1      -3.722  -0.592   0.785  1.00  0.00    -0.274 N 
ATOM     18  H4  UNL     1      -4.691  -0.829   0.996  1.00  0.00     0.189 HD
BRANCH  17  19
HETATM   19  N5  UNL     1      -3.317   0.722   0.977  1.00  0.00    -0.248 N 
ATOM     20  H5  UNL     1      -2.476   0.942   1.510  1.00  0.00     0.198 HD
BRANCH  19  21
HETATM   21  C8  UNL     1      -4.032   1.642   0.465  1.00  0.00     0.085 C 
BRANCH  21  22
HETATM   22  N6  UNL     1      -4.716   2.536  -0.100  1.00  0.00    -0.235 N 
ATOM     23  H6  UNL     1      -4.389   3.502  -0.097  1.00  0.00     0.200 HD
BRANCH  22  24
HETATM   24  N7  UNL     1      -5.902   2.218  -0.722  1.00  0.00    -0.241 N 
HETATM   25  N8  UNL     1      -6.728   1.402  -0.230  1.00  0.00    -0.330 N 
ATOM     26  H82 UNL     1      -6.493   0.970   0.664  1.00  0.00     0.178 HD
ATOM     27  H81 UNL     1      -7.607   1.166  -0.691  1.00  0.00     0.178 HD
ATOM     28  H7  UNL     1      -6.121   2.659  -1.615  1.00  0.00     0.208 HD
ENDBRANCH  22  24
ENDBRANCH  21  22
ENDBRANCH  19  21
ENDBRANCH  17  19
BRANCH  16  29
HETATM   29  N9  UNL     1      -3.515  -2.825   0.212  1.00  0.00    -0.289 N 
ATOM     30  H9  UNL     1      -3.196  -3.594   0.802  1.00  0.00     0.188 HD
BRANCH  29  31
HETATM   31  N10 UNL     1      -4.497  -3.034  -0.730  1.00  0.00    -0.344 N 
ATOM     32 2H10 UNL     1      -4.804  -2.255  -1.312  1.00  0.00     0.176 HD
ATOM     33 1H10 UNL     1      -4.904  -3.964  -0.834  1.00  0.00     0.176 HD
ENDBRANCH  29  31
ENDBRANCH  16  29
ENDBRANCH   9  16
BRANCH   1  34
HETATM   34  N1  UNL     1       4.262   0.594  -0.366  1.00  0.00    -0.226 N 
ATOM     35  H1  UNL     1       4.708   0.026  -1.087  1.00  0.00     0.177 HD
BRANCH  34  36
HETATM   36  C2  UNL     1       5.039   1.603   0.311  1.00  0.00     0.133 C 
HETATM   37  C1  UNL     1       6.456   1.623  -0.211  1.00  0.00     0.027 C 
ENDBRANCH  34  36
ENDBRANCH   1  34
TORSDOF 9
