REMARK  8 active torsions:
REMARK  status: ('A' for Active; 'I' for Inactive)
REMARK    1  A    between atoms: O1_2  and  C2_3 
REMARK    2  A    between atoms: C3_6  and  N2_7 
REMARK    3  A    between atoms: N2_7  and  N3_9 
REMARK    4  A    between atoms: C4_10  and  N4_11 
REMARK    5  A    between atoms: C6_15  and  N5_16 
REMARK    6  A    between atoms: N5_16  and  O4_17 
REMARK    7  A    between atoms: N5_16  and  O5_19 
REMARK    8  A    between atoms: C7_21  and  C8_22 
ROOT
HETATM    1  N3  UNL     1      -1.031  -0.720  -0.041  1.00  0.00    -0.213 N 
HETATM    2  C4  UNL     1      -1.558  -1.269  -1.167  1.00  0.00     0.198 A 
HETATM    3  C5  UNL     1      -2.751  -0.608  -1.363  1.00  0.00     0.087 A 
HETATM    4  C6  UNL     1      -2.932   0.327  -0.361  1.00  0.00     0.103 A 
HETATM    5  C7  UNL     1      -1.827   0.228   0.454  1.00  0.00     0.150 A 
ENDROOT
BRANCH   1   6
HETATM    6  N2  UNL     1       0.191  -1.098   0.521  1.00  0.00    -0.121 N 
ATOM      7  H2  UNL     1       0.209  -1.801   1.260  1.00  0.00     0.206 HD
BRANCH   6   8
HETATM    8  C3  UNL     1       1.295  -0.571   0.119  1.00  0.00     0.715 A 
HETATM    9  N1  UNL     1       2.535  -0.846   0.576  1.00  0.00    -0.151 N 
HETATM   10  C2  UNL     1       3.368  -0.060  -0.129  1.00  0.00     0.253 A 
ATOM     11  H1  UNL     1       2.788  -1.512   1.306  1.00  0.00     0.188 HD
HETATM   12  N8  UNL     1       2.660   0.682  -0.999  1.00  0.00    -0.250 N 
HETATM   13  N7  UNL     1       1.394   0.361  -0.838  1.00  0.00    -0.128 N 
ATOM     14  H8  UNL     1       3.034   1.364  -1.659  1.00  0.00     0.191 HD
ATOM     15  H7  UNL     1       0.612   0.759  -1.359  1.00  0.00     0.205 HD
BRANCH  10  16
HETATM   16  O1  UNL     1       4.756  -0.015   0.013  1.00  0.00    -0.326 OA
HETATM   17  C1  UNL     1       5.404  -0.839   0.962  1.00  0.00     0.213 C 
ENDBRANCH  10  16
ENDBRANCH   6   8
ENDBRANCH   1   6
BRANCH   2  18
HETATM   18  N4  UNL     1      -0.998  -2.305  -1.963  1.00  0.00    -0.096 N 
HETATM   19  O2  UNL     1       0.091  -2.822  -1.662  1.00  0.00    -0.530 OA
HETATM   20  O3  UNL     1      -1.635  -2.772  -3.084  1.00  0.00    -0.530 OA
ENDBRANCH   2  18
BRANCH   5  21
HETATM   21  C8  UNL     1      -1.575   1.015   1.645  1.00  0.00     0.285 C 
HETATM   22  N6  UNL     1      -0.409   0.848   2.435  1.00  0.00    -0.056 NA
HETATM   23  O6  UNL     1      -2.425   1.872   1.979  1.00  0.00    -0.269 OA
ENDBRANCH   5  21
BRANCH   4  24
HETATM   24  N5  UNL     1      -4.043   1.223  -0.197  1.00  0.00    -0.034 NA
BRANCH  24  25
HETATM   25  O4  UNL     1      -5.059   0.815  -1.026  1.00  0.00    -0.284 OA
ATOM     26  H4  UNL     1      -5.794   1.407  -0.918  1.00  0.00     0.240 HD
ENDBRANCH  24  25
BRANCH  24  27
HETATM   27  O5  UNL     1      -3.749   2.483  -0.513  1.00  0.00    -0.284 OA
ATOM     28  H5  UNL     1      -4.484   3.075  -0.405  1.00  0.00     0.240 HD
ENDBRANCH  24  27
ENDBRANCH   4  24
TORSDOF 8
