REMARK  5 active torsions:
REMARK  status: ('A' for Active; 'I' for Inactive)
REMARK    1  A    between atoms: N1_1  and  C1_4 
REMARK    2  A    between atoms: C4_11  and  C5_12 
REMARK    3  A    between atoms: C5_12  and  N4_13 
REMARK       I    between atoms: N4_13  and  C6_15 
REMARK    4  A    between atoms: C6_15  and  C7_17 
REMARK    5  A    between atoms: C9_26  and  C10_27 
ROOT
HETATM    1  C1  UNL     1      -2.329  -0.467  -1.269  1.00  0.00     0.130 A 
HETATM    2  N2  UNL     1      -2.171  -1.086  -2.488  1.00  0.00    -0.337 N 
ATOM      3  H2  UNL     1      -2.983  -1.224  -3.090  1.00  0.00     0.168 HD
HETATM    4  C2  UNL     1      -0.974  -1.507  -2.893  1.00  0.00     0.182 A 
HETATM    5  N3  UNL     1       0.123  -1.355  -2.150  1.00  0.00    -0.349 N 
ATOM      6  H3  UNL     1       1.024  -1.690  -2.491  1.00  0.00     0.167 HD
HETATM    7  C3  UNL     1       0.036  -0.763  -0.959  1.00  0.00     0.090 A 
HETATM    8  C4  UNL     1       1.165  -0.599  -0.183  1.00  0.00     0.073 A 
HETATM    9  N5  UNL     1       1.020  -0.005   0.987  1.00  0.00    -0.190 N 
ATOM     10  H5  UNL     1       1.846   0.123   1.572  1.00  0.00     0.184 HD
HETATM   11  C8  UNL     1      -0.155   0.437   1.443  1.00  0.00     0.706 A 
HETATM   12  N6  UNL     1      -0.507   1.054   2.582  1.00  0.00    -0.130 N 
ATOM     13  H6  UNL     1       0.124   1.304   3.344  1.00  0.00     0.205 HD
HETATM   14  N7  UNL     1      -1.768   1.276   2.552  1.00  0.00    -0.266 N 
ATOM     15  H7  UNL     1      -2.297   1.735   3.294  1.00  0.00     0.189 HD
HETATM   16  C9  UNL     1      -2.325   0.791   1.335  1.00  0.00     0.210 A 
HETATM   17  N9  UNL     1      -1.292   0.292   0.703  1.00  0.00    -0.118 N 
HETATM   18  C11 UNL     1      -1.221  -0.312  -0.515  1.00  0.00     0.131 A 
ENDROOT
BRANCH   8  19
HETATM   19  C5  UNL     1       2.454  -1.098  -0.684  1.00  0.00     0.182 C 
BRANCH  19  20
HETATM   20  N4  UNL     1       3.546  -0.856   0.207  1.00  0.00    -0.353 N 
HETATM   21  C6  UNL     1       4.020   0.413   0.601  1.00  0.00     0.246 C 
HETATM   22  O1  UNL     1       3.467   1.443   0.152  1.00  0.00    -0.271 OA
ATOM     23  H4  UNL     1       4.024  -1.671   0.591  1.00  0.00     0.162 HD
BRANCH  21  24
HETATM   24  C7  UNL     1       5.156   0.552   1.536  1.00  0.00     0.324 C 
HETATM   25  F1  UNL     1       5.649  -0.671   1.935  1.00  0.00    -0.246 F 
ENDBRANCH  21  24
ENDBRANCH  19  20
ENDBRANCH   8  19
BRANCH   1  26
HETATM   26  N1  UNL     1      -3.503  -0.152  -1.080  1.00  0.00    -0.384 N 
ATOM     27  H12 UNL     1      -4.341  -0.269  -1.650  1.00  0.00     0.157 HD
ATOM     28  H11 UNL     1      -3.620   0.307  -0.177  1.00  0.00     0.157 HD
ENDBRANCH   1  26
BRANCH  16  29
HETATM   29  C10 UNL     1      -3.722   1.027   1.285  1.00  0.00     0.301 C 
HETATM   30  N8  UNL     1      -4.426   2.172   0.809  1.00  0.00    -0.054 NA
HETATM   31  O2  UNL     1      -4.500   0.106   1.739  1.00  0.00    -0.268 OA
ENDBRANCH  16  29
TORSDOF 5
