REMARK  7 active torsions:
REMARK  status: ('A' for Active; 'I' for Inactive)
REMARK    1  A    between atoms: C2_7  and  C3_8 
REMARK    2  A    between atoms: C3_8  and  C4_9 
REMARK    3  A    between atoms: C5_10  and  C6_12 
REMARK    4  A    between atoms: C7_15  and  C8_16 
REMARK    5  A    between atoms: C8_16  and  O1_18 
REMARK    6  A    between atoms: C10_21  and  N6_22 
REMARK    7  A    between atoms: C11_27  and  N8_28 
ROOT
HETATM    1  C6  UNL     1      -0.578   0.071  -0.697  1.00  0.00     0.167 A 
HETATM    2  N4  UNL     1      -0.763   1.371  -0.462  1.00  0.00    -0.333 N 
ATOM      3  H4  UNL     1      -0.036   2.082  -0.542  1.00  0.00     0.168 HD
HETATM    4  C7  UNL     1      -2.071   1.626  -0.095  1.00  0.00     0.115 A 
HETATM    5  C9  UNL     1      -2.657   0.397  -0.126  1.00  0.00     0.133 A 
HETATM    6  C10 UNL     1      -3.944  -0.015   0.129  1.00  0.00     0.146 A 
HETATM    7  N7  UNL     1      -4.254  -1.335   0.009  1.00  0.00    -0.174 N 
ATOM      8  H7  UNL     1      -5.212  -1.630   0.200  1.00  0.00     0.186 HD
HETATM    9  C11 UNL     1      -3.366  -2.256  -0.346  1.00  0.00     0.692 A 
HETATM   10  N9  UNL     1      -2.113  -1.837  -0.593  1.00  0.00    -0.123 N 
ATOM     11  H9  UNL     1      -1.416  -2.529  -0.867  1.00  0.00     0.206 HD
HETATM   12  N10 UNL     1      -1.737  -0.570  -0.498  1.00  0.00    -0.217 N 
ENDROOT
BRANCH   1  13
HETATM   13  C5  UNL     1       0.677  -0.559  -1.105  1.00  0.00     0.158 C 
HETATM   14  C4  UNL     1       1.762   0.209  -1.267  1.00  0.00     0.027 C 
HETATM   15  F1  UNL     1       0.759  -1.878  -1.316  1.00  0.00    -0.202 F 
BRANCH  14  16
HETATM   16  C3  UNL     1       3.079  -0.313  -1.675  1.00  0.00     0.109 C 
BRANCH  16  17
HETATM   17  C2  UNL     1       4.103  -0.024  -0.639  1.00  0.00     0.116 A 
HETATM   18  N3  UNL     1       4.875   1.072  -0.566  1.00  0.00    -0.272 N 
HETATM   19  N2  UNL     1       5.664   0.945   0.513  1.00  0.00    -0.225 N 
ATOM     20  H3  UNL     1       4.864   1.860  -1.214  1.00  0.00     0.190 HD
HETATM   21  N1  UNL     1       5.403  -0.197   1.111  1.00  0.00    -0.223 N 
ATOM     22  H2  UNL     1       6.357   1.627   0.821  1.00  0.00     0.210 HD
HETATM   23  C1  UNL     1       6.042  -0.697   2.306  1.00  0.00     0.202 C 
HETATM   24  N11 UNL     1       4.453  -0.782   0.406  1.00  0.00    -0.270 N 
ATOM     25  H11 UNL     1       4.042  -1.689   0.628  1.00  0.00     0.190 HD
ENDBRANCH  16  17
ENDBRANCH  14  16
ENDBRANCH   1  13
BRANCH   4  26
HETATM   26  C8  UNL     1      -2.537   2.953   0.200  1.00  0.00     0.179 C 
HETATM   27  N5  UNL     1      -3.721   3.345   0.798  1.00  0.00    -0.073 NA
BRANCH  26  28
HETATM   28  O1  UNL     1      -1.757   3.945  -0.126  1.00  0.00    -0.347 OA
ATOM     29  H1  UNL     1      -2.065   4.822   0.069  1.00  0.00     0.219 HD
ENDBRANCH  26  28
ENDBRANCH   4  26
BRANCH   6  30
HETATM   30  N6  UNL     1      -4.840   0.823   0.458  1.00  0.00    -0.383 N 
ATOM     31  H62 UNL     1      -4.608   1.812   0.548  1.00  0.00     0.157 HD
ATOM     32  H61 UNL     1      -5.795   0.517   0.647  1.00  0.00     0.157 HD
ENDBRANCH   6  30
BRANCH   9  33
HETATM   33  N8  UNL     1      -3.686  -3.521  -0.455  1.00  0.00    -0.233 N 
ATOM     34  H82 UNL     1      -4.637  -3.839  -0.268  1.00  0.00     0.174 HD
ATOM     35  H81 UNL     1      -3.004  -4.229  -0.728  1.00  0.00     0.174 HD
ENDBRANCH   9  33
TORSDOF 7
