REMARK  5 active torsions:
REMARK  status: ('A' for Active; 'I' for Inactive)
REMARK    1  A    between atoms: C2_2  and  O1_3 
REMARK    2  A    between atoms: O1_3  and  C3_4 
REMARK    3  A    between atoms: C3_4  and  C4_5 
REMARK       I    between atoms: C4_5  and  N1_7 
REMARK    4  A    between atoms: N1_7  and  C5_9 
REMARK    5  A    between atoms: C8_19  and  N5_20 
REMARK       I    between atoms: N5_20  and  C9_22 
ROOT
HETATM    1  C5  UNL     1      -0.148  -0.621   1.073  1.00  0.00     0.408 C 
HETATM    2  N2  UNL     1       0.238   0.587   1.768  1.00  0.00    -0.289 N 
ATOM      3  H2  UNL     1      -0.452   1.158   2.257  1.00  0.00     0.184 HD
HETATM    4  N3  UNL     1       1.579   0.943   1.746  1.00  0.00    -0.299 N 
ATOM      5  H3  UNL     1       2.079   1.242   2.583  1.00  0.00     0.186 HD
HETATM    6  C6  UNL     1       2.155   0.868   0.576  1.00  0.00     0.115 A 
HETATM    7  C7  UNL     1       3.549   1.191   0.331  1.00  0.00     0.147 A 
HETATM    8 CL1  UNL     1       4.562   1.783   1.623  1.00  0.00    -0.062 Cl
HETATM    9  N4  UNL     1       4.074   1.045  -0.860  1.00  0.00    -0.179 N 
ATOM     10  H4  UNL     1       5.055   1.267  -1.027  1.00  0.00     0.185 HD
HETATM   11  C8  UNL     1       3.251   0.573  -1.910  1.00  0.00     0.685 A 
HETATM   12  N7  UNL     1       1.990   0.283  -1.759  1.00  0.00    -0.190 N 
ATOM     13  H7  UNL     1       1.476  -0.057  -2.572  1.00  0.00     0.180 HD
HETATM   14  C10 UNL     1       1.288   0.412  -0.530  1.00  0.00     0.358 A 
HETATM   15  N8  UNL     1       0.646  -0.803  -0.143  1.00  0.00    -0.008 N 
ATOM     16  H81 UNL     1       0.085  -1.188  -0.903  1.00  0.00     0.284 HD
ATOM     17  H82 UNL     1       1.317  -1.565  -0.042  1.00  0.00     0.284 HD
ENDROOT
BRANCH   1  18
HETATM   18  N1  UNL     1      -1.567  -0.687   0.805  1.00  0.00    -0.314 N 
HETATM   19  C4  UNL     1      -2.374  -1.691   1.364  1.00  0.00     0.244 C 
HETATM   20  O2  UNL     1      -1.761  -2.544   2.115  1.00  0.00    -0.271 OA
ATOM     21  H1  UNL     1      -1.992   0.012   0.196  1.00  0.00     0.166 HD
BRANCH  19  22
HETATM   22  C3  UNL     1      -3.826  -1.846   1.163  1.00  0.00     0.270 C 
BRANCH  22  23
HETATM   23  O1  UNL     1      -4.488  -0.823   0.571  1.00  0.00    -0.382 OA
BRANCH  23  24
HETATM   24  C2  UNL     1      -4.557   0.350   1.276  1.00  0.00     0.163 C 
HETATM   25  C1  UNL     1      -5.273   0.158   2.607  1.00  0.00     0.033 C 
ENDBRANCH  23  24
ENDBRANCH  22  23
ENDBRANCH  19  22
ENDBRANCH   1  18
BRANCH  11  26
HETATM   26  N5  UNL     1       3.808   0.399  -3.197  1.00  0.00    -0.144 N 
HETATM   27  C9  UNL     1       5.183   0.708  -3.391  1.00  0.00     0.346 C 
HETATM   28  N6  UNL     1       5.764   0.536  -4.699  1.00  0.00    -0.039 NA
HETATM   29  O3  UNL     1       5.929   1.123  -2.493  1.00  0.00    -0.250 OA
ATOM     30  H5  UNL     1       3.236   0.059  -3.970  1.00  0.00     0.188 HD
ENDBRANCH  11  26
TORSDOF 5
