REMARK  2 active torsions:
REMARK  status: ('A' for Active; 'I' for Inactive)
REMARK    1  A    between atoms: C4_5  and  C5_6 
REMARK    2  A    between atoms: C5_6  and  N2_7 
ROOT
HETATM    1  C1  UNL     1      -1.521  -0.050  -1.381  1.00  0.00     0.311 C 
HETATM    2  N1  UNL     1      -0.926  -0.078  -0.063  1.00  0.00     0.042 N 
HETATM    3  C2  UNL     1      -1.949  -0.320   0.960  1.00  0.00     0.311 C 
HETATM    4  C3  UNL     1      -0.046   1.021   0.239  1.00  0.00     0.308 C 
HETATM    5  C4  UNL     1       0.740  -0.084   0.854  1.00  0.00     0.213 C 
HETATM    6  O1  UNL     1       0.040  -1.020   0.073  1.00  0.00    -0.194 OA
ENDROOT
BRANCH   5   7
HETATM    7  C5  UNL     1       2.206  -0.145   0.516  1.00  0.00     0.265 C 
BRANCH   7   8
HETATM    8  N2  UNL     1       2.462   0.152  -0.868  1.00  0.00    -0.077 N 
ATOM      9  H23 UNL     1       1.918  -0.455  -1.481  1.00  0.00     0.274 HD
ATOM     10  H22 UNL     1       2.061   1.052  -1.131  1.00  0.00     0.274 HD
ATOM     11  H21 UNL     1       3.455   0.111  -1.097  1.00  0.00     0.274 HD
ENDBRANCH   7   8
ENDBRANCH   5   7
TORSDOF 2
