REMARK  2 active torsions:
REMARK  status: ('A' for Active; 'I' for Inactive)
REMARK    1  A    between atoms: C4_5  and  C5_6 
REMARK    2  A    between atoms: C5_6  and  N2_7 
ROOT
HETATM    1  C1  UNL     1      -2.672   0.894   0.011  1.00  0.00     0.309 C 
HETATM    2  N1  UNL     1      -1.406   0.528  -0.546  1.00  0.00     0.084 N 
HETATM    3  C2  UNL     1      -1.251  -0.901  -0.720  1.00  0.00     0.272 C 
HETATM    4  C3  UNL     1       0.239  -1.128  -0.558  1.00  0.00     0.038 C 
HETATM    5  C4  UNL     1       0.842   0.206  -0.244  1.00  0.00     0.041 C 
HETATM    6  C6  UNL     1      -0.352   0.947   0.362  1.00  0.00     0.278 C 
ENDROOT
BRANCH   5   7
HETATM    7  C5  UNL     1       1.898   0.132   0.834  1.00  0.00     0.236 C 
BRANCH   7   8
HETATM    8  N2  UNL     1       2.933  -0.766   0.328  1.00  0.00    -0.079 N 
ATOM      9  H23 UNL     1       2.576  -1.679   0.046  1.00  0.00     0.274 HD
ATOM     10  H22 UNL     1       3.301  -0.490  -0.582  1.00  0.00     0.274 HD
ATOM     11  H21 UNL     1       3.646  -0.816   1.056  1.00  0.00     0.274 HD
ENDBRANCH   7   8
ENDBRANCH   5   7
TORSDOF 2
