REMARK  11 active torsions:
REMARK  status: ('A' for Active; 'I' for Inactive)
REMARK    1  A    between atoms: N1_1  and  N2_4 
REMARK    2  A    between atoms: C2_9  and  N4_10 
REMARK    3  A    between atoms: N4_10  and  C3_12 
REMARK    4  A    between atoms: C3_12  and  C4_13 
REMARK    5  A    between atoms: C3_12  and  C5_18 
REMARK    6  A    between atoms: C4_13  and  O2_14 
REMARK    7  A    between atoms: C4_13  and  O3_16 
REMARK    8  A    between atoms: C5_18  and  O4_19 
REMARK    9  A    between atoms: C5_18  and  O5_21 
REMARK   10  A    between atoms: N6_30  and  C9_31 
REMARK   11  A    between atoms: C9_31  and  O8_32 
ROOT
HETATM    1  N2  UNL     1       2.095  -0.949   1.110  1.00  0.00    -0.194 N 
HETATM    2  C1  UNL     1       0.969  -1.367   1.770  1.00  0.00     0.348 A 
HETATM    3  O1  UNL     1       1.056  -2.179   2.740  1.00  0.00    -0.245 OA
HETATM    4  N3  UNL     1      -0.240  -0.927   1.402  1.00  0.00    -0.292 N 
ATOM      5  H3  UNL     1      -1.066  -1.251   1.906  1.00  0.00     0.172 HD
HETATM    6  C2  UNL     1      -0.386  -0.068   0.382  1.00  0.00     0.125 A 
HETATM    7  C6  UNL     1       0.768   0.342  -0.270  1.00  0.00     0.122 A 
HETATM    8  C7  UNL     1       0.609   1.217  -1.309  1.00  0.00     0.267 A 
HETATM    9  O6  UNL     1      -0.502   1.634  -1.663  1.00  0.00    -0.267 OA
HETATM   10  N5  UNL     1       1.719   1.618  -1.946  1.00  0.00    -0.274 N 
ATOM     11  H5  UNL     1       1.636   2.271  -2.726  1.00  0.00     0.173 HD
HETATM   12  C8  UNL     1       2.927   1.186  -1.587  1.00  0.00     0.332 A 
HETATM   13  O7  UNL     1       3.915   1.592  -2.213  1.00  0.00    -0.246 OA
HETATM   14  N6  UNL     1       3.145   0.300  -0.543  1.00  0.00    -0.261 N 
HETATM   15  C10 UNL     1       2.041  -0.099   0.091  1.00  0.00     0.159 A 
ENDROOT
BRANCH   6  16
HETATM   16  N4  UNL     1      -1.531   0.380  -0.003  1.00  0.00    -0.361 N 
ATOM     17  H4  UNL     1      -1.547   1.032  -0.788  1.00  0.00     0.161 HD
BRANCH  16  18
HETATM   18  C3  UNL     1      -2.778   0.027   0.593  1.00  0.00     0.192 C 
BRANCH  18  19
HETATM   19  C4  UNL     1      -3.284  -1.228  -0.098  1.00  0.00     0.281 C 
BRANCH  19  20
HETATM   20  O2  UNL     1      -4.513  -1.633   0.441  1.00  0.00    -0.369 OA
ATOM     21  H2  UNL     1      -4.829  -2.418   0.009  1.00  0.00     0.212 HD
ENDBRANCH  19  20
BRANCH  19  22
HETATM   22  O3  UNL     1      -3.481  -0.998  -1.460  1.00  0.00    -0.369 OA
ATOM     23  H3  UNL     1      -3.797  -1.783  -1.892  1.00  0.00     0.212 HD
ENDBRANCH  19  22
ENDBRANCH  18  19
BRANCH  18  24
HETATM   24  C5  UNL     1      -3.812   1.123   0.319  1.00  0.00     0.281 C 
BRANCH  24  25
HETATM   25  O4  UNL     1      -5.009   0.756   0.907  1.00  0.00    -0.369 OA
ATOM     26  H4  UNL     1      -5.650   1.436   0.737  1.00  0.00     0.212 HD
ENDBRANCH  24  25
BRANCH  24  27
HETATM   27  O5  UNL     1      -3.313   2.291   0.921  1.00  0.00    -0.369 OA
ATOM     28  H5  UNL     1      -3.954   2.971   0.751  1.00  0.00     0.212 HD
ENDBRANCH  24  27
ENDBRANCH  18  24
ENDBRANCH  16  18
ENDBRANCH   6  16
BRANCH   1  29
HETATM   29  N1  UNL     1       3.254  -1.493   1.590  1.00  0.00    -0.333 N 
ATOM     30  H12 UNL     1       3.295  -2.146   2.373  1.00  0.00     0.177 HD
ATOM     31  H11 UNL     1       4.092  -1.182   1.099  1.00  0.00     0.177 HD
ENDBRANCH   1  29
BRANCH  14  32
HETATM   32  C9  UNL     1       4.485  -0.081  -0.249  1.00  0.00     0.302 C 
BRANCH  32  33
HETATM   33  O8  UNL     1       4.969   0.848   0.680  1.00  0.00    -0.382 OA
ATOM     34  H8  UNL     1       5.863   0.594   0.876  1.00  0.00     0.211 HD
ENDBRANCH  32  33
ENDBRANCH  14  32
TORSDOF 11
