REMARK  8 active torsions:
REMARK  status: ('A' for Active; 'I' for Inactive)
REMARK    1  A    between atoms: N1_1  and  C1_4 
REMARK    2  A    between atoms: N6_16  and  C5_17 
REMARK    3  A    between atoms: C6_21  and  O1_22 
REMARK    4  A    between atoms: C7_24  and  O2_25 
REMARK    5  A    between atoms: O2_25  and  N8_26 
REMARK    6  A    between atoms: N8_26  and  O3_27 
REMARK    7  A    between atoms: N8_26  and  N9_29 
REMARK    8  A    between atoms: C9_34  and  O4_35 
ROOT
HETATM    1  C5  UNL     1      -0.901   0.365  -0.726  1.00  0.00     0.344 C 
HETATM    2  N7  UNL     1      -1.077  -0.983  -1.235  1.00  0.00    -0.021 N 
ATOM      3  H71 UNL     1      -1.945  -1.160  -1.741  1.00  0.00     0.283 HD
ATOM      4  H72 UNL     1      -1.245  -1.707  -0.536  1.00  0.00     0.283 HD
HETATM    5  C6  UNL     1       0.165  -1.114  -2.016  1.00  0.00     0.355 C 
HETATM    6  C7  UNL     1       1.185  -0.679  -0.994  1.00  0.00     0.238 C 
HETATM    7  C9  UNL     1       0.449   0.279  -0.073  1.00  0.00     0.205 C 
ENDROOT
BRANCH   1   8
HETATM    8  N6  UNL     1      -1.951   0.763   0.169  1.00  0.00    -0.225 N 
HETATM    9  C3  UNL     1      -3.025   0.085   0.576  1.00  0.00     0.159 A 
HETATM   10  N3  UNL     1      -3.482  -1.134   0.313  1.00  0.00    -0.335 N 
HETATM   11  C4  UNL     1      -3.748   0.898   1.445  1.00  0.00     0.139 A 
HETATM   12  C2  UNL     1      -4.636  -1.556   0.894  1.00  0.00     0.183 A 
ATOM     13  H3  UNL     1      -2.971  -1.749  -0.320  1.00  0.00     0.168 HD
HETATM   14  N2  UNL     1      -5.339  -0.771   1.737  1.00  0.00    -0.337 N 
HETATM   15  C1  UNL     1      -4.921   0.461   2.033  1.00  0.00     0.132 A 
ATOM     16  H2  UNL     1      -6.201  -1.124   2.153  1.00  0.00     0.168 HD
HETATM   17  N4  UNL     1      -3.072   2.036   1.522  1.00  0.00    -0.279 N 
HETATM   18  N5  UNL     1      -2.001   1.944   0.756  1.00  0.00    -0.236 N 
ATOM     19  H4  UNL     1      -3.336   2.848   2.080  1.00  0.00     0.189 HD
ATOM     20  H5  UNL     1      -1.308   2.683   0.635  1.00  0.00     0.208 HD
BRANCH  15  21
HETATM   21  N1  UNL     1      -5.578   1.229   2.836  1.00  0.00    -0.383 N 
ATOM     22  H12 UNL     1      -6.443   0.907   3.270  1.00  0.00     0.157 HD
ATOM     23  H11 UNL     1      -5.258   2.171   3.062  1.00  0.00     0.157 HD
ENDBRANCH  15  21
ENDBRANCH   1   8
BRANCH   7  24
HETATM   24  O4  UNL     1       1.056   1.529  -0.045  1.00  0.00    -0.389 OA
ATOM     25  H4  UNL     1       1.910   1.475   0.368  1.00  0.00     0.210 HD
ENDBRANCH   7  24
BRANCH   5  26
HETATM   26  O1  UNL     1       0.349  -2.424  -2.392  1.00  0.00    -0.368 OA
ATOM     27  H1  UNL     1       1.150  -2.508  -2.896  1.00  0.00     0.212 HD
ENDBRANCH   5  26
BRANCH   6  28
HETATM   28  O2  UNL     1       2.330  -0.171  -1.512  1.00  0.00    -0.248 OA
BRANCH  28  29
HETATM   29  N8  UNL     1       3.456  -0.835  -1.186  1.00  0.00     0.038 NA
BRANCH  29  30
HETATM   30  O3  UNL     1       3.233  -2.187  -1.072  1.00  0.00    -0.270 OA
ATOM     31  H3  UNL     1       4.027  -2.655  -0.842  1.00  0.00     0.241 HD
ENDBRANCH  29  30
BRANCH  29  32
HETATM   32  N9  UNL     1       3.821  -0.410   0.097  1.00  0.00    -0.247 N 
HETATM   33  C8  UNL     1       4.571   0.610   0.309  1.00  0.00     0.215 C 
HETATM   34  N10 UNL     1       5.062   1.354  -0.792  1.00  0.00    -0.065 NA
HETATM   35  N11 UNL     1       4.932   1.029   1.613  1.00  0.00    -0.065 NA
ATOM     36  H9  UNL     1       3.475  -0.935   0.900  1.00  0.00     0.188 HD
ENDBRANCH  29  32
ENDBRANCH  28  29
ENDBRANCH   6  28
TORSDOF 8
