REMARK  11 active torsions:
REMARK  status: ('A' for Active; 'I' for Inactive)
REMARK    1  A    between atoms: C2_2  and  N1_3 
REMARK    2  A    between atoms: N1_3  and  C3_6 
REMARK    3  A    between atoms: C3_6  and  C4_7 
REMARK    4  A    between atoms: C3_6  and  C26_39 
REMARK    5  A    between atoms: C4_7  and  N2_8 
REMARK    6  A    between atoms: N2_8  and  C5_10 
REMARK    7  A    between atoms: C5_10  and  O1_11 
REMARK    8  A    between atoms: C5_10  and  C6_13 
REMARK    9  A    between atoms: C11_20  and  C12_21 
REMARK       I    between atoms: C12_21  and  N4_23 
REMARK   10  A    between atoms: N4_23  and  C13_25 
REMARK   11  A    between atoms: C23_35  and  C24_36 
ROOT
HETATM    1  C6  UNL     1      -0.591   2.419   2.084  1.00  0.00     0.027 A 
HETATM    2  C7  UNL     1      -0.628   3.186   3.261  1.00  0.00     0.033 A 
HETATM    3  C8  UNL     1       0.042   4.362   3.337  1.00  0.00     0.091 A 
HETATM    4  N3  UNL     1       0.743   4.802   2.298  1.00  0.00    -0.346 N 
ATOM      5  H3  UNL     1       1.243   5.688   2.366  1.00  0.00     0.167 HD
HETATM    6  C9  UNL     1       0.801   4.080   1.139  1.00  0.00     0.156 A 
HETATM    7  C10 UNL     1       0.148   2.883   0.989  1.00  0.00     0.025 A 
HETATM    8  C11 UNL     1       0.230   2.067  -0.253  1.00  0.00     0.147 A 
HETATM    9  C21 UNL     1       1.051   2.746  -1.280  1.00  0.00    -0.036 A 
HETATM   10  C22 UNL     1       1.180   2.126  -2.653  1.00  0.00     0.047 C 
HETATM   11  C23 UNL     1       1.642   3.887  -1.082  1.00  0.00     0.058 A 
HETATM   12  O3  UNL     1       1.560   4.601   0.097  1.00  0.00    -0.297 OA
ENDROOT
BRANCH   1  13
HETATM   13  C5  UNL     1      -1.368   1.222   2.103  1.00  0.00     0.147 C 
BRANCH  13  14
HETATM   14  N2  UNL     1      -2.155   0.608   1.144  1.00  0.00    -0.368 N 
ATOM     15  H2  UNL     1      -2.254   1.036   0.223  1.00  0.00     0.161 HD
BRANCH  14  16
HETATM   16  C4  UNL     1      -2.852  -0.657   1.438  1.00  0.00     0.155 C 
BRANCH  16  17
HETATM   17  C3  UNL     1      -3.648  -1.148   0.270  1.00  0.00     0.207 C 
BRANCH  17  18
HETATM   18  N1  UNL     1      -2.852  -1.406  -0.914  1.00  0.00    -0.069 N 
ATOM     19  H12 UNL     1      -1.925  -0.986  -0.849  1.00  0.00     0.277 HD
ATOM     20  H11 UNL     1      -3.194  -0.889  -1.724  1.00  0.00     0.277 HD
BRANCH  18  21
HETATM   21  C2  UNL     1      -2.786  -2.835  -1.169  1.00  0.00     0.228 C 
HETATM   22  C1  UNL     1      -2.553  -3.169  -2.611  1.00  0.00     0.034 C 
ENDBRANCH  18  21
ENDBRANCH  17  18
BRANCH  17  23
HETATM   23  C26 UNL     1      -4.836  -0.260  -0.047  1.00  0.00     0.018 A 
HETATM   24  C27 UNL     1      -5.778  -0.836  -1.058  1.00  0.00     0.007 A 
HETATM   25  C28 UNL     1      -6.211  -0.658   0.381  1.00  0.00     0.007 A 
ENDBRANCH  17  23
ENDBRANCH  16  17
ENDBRANCH  14  16
ENDBRANCH  13  14
BRANCH  13  26
HETATM   26  O1  UNL     1      -1.333   0.588   3.249  1.00  0.00    -0.346 OA
ATOM     27  H1  UNL     1      -0.793   1.009   3.907  1.00  0.00     0.219 HD
ENDBRANCH  13  26
ENDBRANCH   1  13
BRANCH   8  28
HETATM   28  C12 UNL     1       0.958   0.788   0.054  1.00  0.00     0.231 C 
HETATM   29  O2  UNL     1       1.532   0.724   1.197  1.00  0.00    -0.272 OA
HETATM   30  N4  UNL     1       1.068  -0.325  -0.769  1.00  0.00    -0.356 N 
ATOM     31  H4  UNL     1       0.610  -0.292  -1.680  1.00  0.00     0.162 HD
BRANCH  30  32
HETATM   32  C13 UNL     1       1.795  -1.538  -0.416  1.00  0.00     0.084 C 
HETATM   33  C14 UNL     1       1.039  -2.283   0.638  1.00  0.00     0.025 C 
HETATM   34  C15 UNL     1       1.601  -3.586   1.061  1.00  0.00     0.002 C 
HETATM   35  C16 UNL     1       2.702  -4.126   0.194  1.00  0.00     0.000 C 
HETATM   36  C17 UNL     1       4.000  -3.499   0.637  1.00  0.00     0.004 C 
HETATM   37  C18 UNL     1       3.744  -2.072   1.081  1.00  0.00    -0.017 C 
HETATM   38  C19 UNL     1       5.092  -1.489   1.481  1.00  0.00     0.010 C 
HETATM   39  C20 UNL     1       3.239  -1.329  -0.134  1.00  0.00     0.029 C 
ENDBRANCH  30  32
ENDBRANCH   8  28
BRANCH  11  40
HETATM   40  C24 UNL     1       2.486   4.566  -2.134  1.00  0.00     0.061 C 
HETATM   41  C25 UNL     1       1.823   5.868  -2.465  1.00  0.00     0.012 C 
ENDBRANCH  11  40
TORSDOF 11
