REMARK  5 active torsions:
REMARK  status: ('A' for Active; 'I' for Inactive)
REMARK    1  A    between atoms: C2_2  and  N1_4 
REMARK    2  A    between atoms: C6_11  and  C7_12 
REMARK    3  A    between atoms: C17_24  and  C18_25 
REMARK    4  A    between atoms: C18_25  and  N4_26 
REMARK       I    between atoms: N4_26  and  C19_28 
REMARK    5  A    between atoms: C19_28  and  C20_30 
ROOT
HETATM    1  N1  UNL     1       1.533  -2.177  -0.676  1.00  0.00    -0.289 N 
HETATM    2  C4  UNL     1       0.285  -1.662  -1.189  1.00  0.00     0.254 C 
HETATM    3  O1  UNL     1       0.347  -1.185  -2.356  1.00  0.00    -0.271 OA
HETATM    4  C5  UNL     1      -1.014  -1.657  -0.472  1.00  0.00     0.336 C 
HETATM    5  N2  UNL     1      -1.892  -0.745  -1.130  1.00  0.00    -0.060 N 
ATOM      6  H21 UNL     1      -2.724  -1.229  -1.467  1.00  0.00     0.278 HD
ATOM      7  H22 UNL     1      -1.495  -0.444  -2.020  1.00  0.00     0.278 HD
HETATM    8  C6  UNL     1      -2.266   0.419  -0.311  1.00  0.00     0.220 C 
HETATM    9  C13 UNL     1      -1.503   1.620  -0.742  1.00  0.00     0.062 C 
HETATM   10  C14 UNL     1      -1.038   2.530   0.308  1.00  0.00    -0.028 C 
HETATM   11  C15 UNL     1      -0.241   2.339   1.319  1.00  0.00    -0.030 C 
HETATM   12  C16 UNL     1       0.472   1.123   1.754  1.00  0.00     0.038 C 
HETATM   13  C17 UNL     1       1.521   0.615   0.793  1.00  0.00     0.042 C 
HETATM   14  C23 UNL     1       2.012  -0.691   1.301  1.00  0.00    -0.025 A 
HETATM   15  C24 UNL     1       2.548  -0.599   2.589  1.00  0.00     0.010 A 
HETATM   16  C25 UNL     1       3.074  -1.690   3.262  1.00  0.00     0.001 A 
HETATM   17  C26 UNL     1       3.061  -2.904   2.621  1.00  0.00     0.002 A 
HETATM   18  C27 UNL     1       2.526  -2.984   1.336  1.00  0.00     0.030 A 
HETATM   19  C28 UNL     1       1.999  -1.899   0.660  1.00  0.00     0.048 A 
ENDROOT
BRANCH   8  20
HETATM   20  C7  UNL     1      -3.770   0.614  -0.598  1.00  0.00     0.169 C 
HETATM   21  C8  UNL     1      -4.315   1.822   0.061  1.00  0.00     0.150 C 
HETATM   22  N3  UNL     1      -5.672   1.774   0.464  1.00  0.00    -0.408 N 
HETATM   23  C9  UNL     1      -5.944   2.186   1.801  1.00  0.00     0.143 C 
HETATM   24  C10 UNL     1      -6.471   0.724  -0.035  1.00  0.00     0.098 C 
HETATM   25  C11 UNL     1      -7.616   1.341  -0.841  1.00  0.00     0.034 C 
HETATM   26  C12 UNL     1      -5.773  -0.352  -0.786  1.00  0.00     0.192 C 
HETATM   27  O2  UNL     1      -4.481  -0.515  -0.237  1.00  0.00    -0.380 OA
ENDBRANCH   8  20
BRANCH   1  28
HETATM   28  C2  UNL     1       2.376  -2.937  -1.602  1.00  0.00    -0.010 C 
HETATM   29  C1  UNL     1       3.749  -2.434  -1.799  1.00  0.00     0.063 C 
HETATM   30  C3  UNL     1       2.258  -4.448  -1.474  1.00  0.00     0.063 C 
ENDBRANCH   1  28
BRANCH  13  31
HETATM   31  C18 UNL     1       2.638   1.674   0.879  1.00  0.00     0.132 C 
BRANCH  31  32
HETATM   32  N4  UNL     1       3.748   1.384   0.037  1.00  0.00    -0.360 N 
HETATM   33  C19 UNL     1       4.841   2.266   0.004  1.00  0.00     0.221 C 
HETATM   34  O3  UNL     1       4.869   3.309   0.696  1.00  0.00    -0.273 OA
ATOM     35  H4  UNL     1       3.750   0.542  -0.538  1.00  0.00     0.162 HD
BRANCH  33  36
HETATM   36  C20 UNL     1       5.998   1.968  -0.869  1.00  0.00     0.078 A 
HETATM   37  C21 UNL     1       6.407   0.518  -0.859  1.00  0.00     0.015 A 
HETATM   38  C22 UNL     1       5.873   1.127  -2.077  1.00  0.00     0.015 A 
ENDBRANCH  33  36
ENDBRANCH  31  32
ENDBRANCH  13  31
TORSDOF 5
