REMARK  6 active torsions:
REMARK  status: ('A' for Active; 'I' for Inactive)
REMARK    1  A    between atoms: N1_10  and  O1_11 
REMARK    2  A    between atoms: C12_18  and  N3_19 
REMARK    3  A    between atoms: N3_19  and  C13_20 
REMARK    4  A    between atoms: C16_23  and  S2_24 
REMARK    5  A    between atoms: S2_24  and  N4_25 
REMARK    6  A    between atoms: C19_32  and  N5_33 
ROOT
HETATM    1  C1  UNL     1      -6.834  -1.069   0.824  1.00  0.00     0.057 C 
HETATM    2  C2  UNL     1      -5.335  -1.113   0.715  1.00  0.00    -0.014 A 
HETATM    3  S1  UNL     1      -4.348  -2.443   1.050  1.00  0.00    -0.091 SA
HETATM    4  C3  UNL     1      -2.828  -1.738   0.712  1.00  0.00     0.044 A 
HETATM    5  C4  UNL     1      -3.135  -0.446   0.337  1.00  0.00     0.003 A 
HETATM    6  C5  UNL     1      -2.032   0.348  -0.009  1.00  0.00     0.004 A 
HETATM    7  C6  UNL     1      -2.036   1.730  -0.426  1.00  0.00     0.045 A 
HETATM    8  C7  UNL     1      -2.288   2.752   0.437  1.00  0.00     0.050 A 
HETATM    9  C8  UNL     1      -2.159   4.049   0.023  1.00  0.00     0.126 A 
HETATM   10  N1  UNL     1      -1.787   4.357  -1.219  1.00  0.00    -0.232 N 
HETATM   11  C9  UNL     1      -1.540   3.350  -2.064  1.00  0.00     0.213 A 
HETATM   12  N2  UNL     1      -1.658   2.076  -1.687  1.00  0.00    -0.350 N 
ATOM     13  H2  UNL     1      -1.459   1.339  -2.364  1.00  0.00     0.166 HD
HETATM   14  C10 UNL     1      -0.746  -0.211   0.043  1.00  0.00     0.032 A 
HETATM   15  C11 UNL     1      -0.470  -1.489   0.413  1.00  0.00     0.036 A 
HETATM   16  C12 UNL     1       0.867  -1.968   0.437  1.00  0.00     0.154 A 
HETATM   17  C19 UNL     1       1.009  -3.291   0.835  1.00  0.00     0.159 A 
HETATM   18  C20 UNL     1      -0.135  -4.035   1.174  1.00  0.00     0.128 A 
HETATM   19  N6  UNL     1      -1.369  -3.522   1.130  1.00  0.00    -0.361 N 
ATOM     20  H6  UNL     1      -2.174  -4.095   1.383  1.00  0.00     0.165 HD
HETATM   21  C21 UNL     1      -1.535  -2.265   0.755  1.00  0.00     0.064 A 
HETATM   22  C22 UNL     1      -4.450  -0.130   0.339  1.00  0.00    -0.037 A 
HETATM   23  C23 UNL     1      -5.063   1.192  -0.099  1.00  0.00     0.050 C 
ENDROOT
BRANCH  16  24
HETATM   24  N3  UNL     1       1.753  -1.190   0.139  1.00  0.00    -0.402 NA
BRANCH  24  25
HETATM   25  C13 UNL     1       2.959  -0.719  -0.098  1.00  0.00     0.107 A 
HETATM   26  C14 UNL     1       3.799  -0.339   0.961  1.00  0.00     0.046 A 
HETATM   27  C15 UNL     1       5.042   0.161   0.723  1.00  0.00     0.028 A 
HETATM   28  C16 UNL     1       5.484   0.299  -0.570  1.00  0.00     0.079 A 
HETATM   29  C17 UNL     1       4.690  -0.062  -1.634  1.00  0.00     0.028 A 
HETATM   30  C18 UNL     1       3.444  -0.563  -1.384  1.00  0.00     0.046 A 
BRANCH  28  31
HETATM   31  S2  UNL     1       7.078   0.934  -0.897  1.00  0.00     0.256 S 
HETATM   32  O2  UNL     1       7.959   0.597   0.280  1.00  0.00    -0.201 OA
HETATM   33  O3  UNL     1       7.618   0.320  -2.150  1.00  0.00    -0.201 OA
BRANCH  31  34
HETATM   34  N4  UNL     1       7.034   2.646  -1.076  1.00  0.00    -0.324 N 
ATOM     35  H42 UNL     1       6.182   3.201  -0.998  1.00  0.00     0.169 HD
ATOM     36  H41 UNL     1       7.965   3.017  -1.267  1.00  0.00     0.169 HD
ENDBRANCH  31  34
ENDBRANCH  28  31
ENDBRANCH  24  25
ENDBRANCH  16  24
BRANCH  17  37
HETATM   37  N5  UNL     1       2.244  -3.957   0.933  1.00  0.00    -0.111 N 
HETATM   38  O4  UNL     1       3.166  -3.757   0.163  1.00  0.00    -0.532 OA
HETATM   39  O5  UNL     1       2.408  -4.901   1.915  1.00  0.00    -0.532 OA
ENDBRANCH  17  37
BRANCH  10  40
HETATM   40  O1  UNL     1      -1.656   5.676  -1.635  1.00  0.00    -0.282 OA
ATOM     41  H1  UNL     1      -1.391   5.896  -2.520  1.00  0.00     0.245 HD
ENDBRANCH  10  40
TORSDOF 6
