REMARK  6 active torsions:
REMARK  status: ('A' for Active; 'I' for Inactive)
REMARK    1  A    between atoms: C4_4  and  N1_5 
REMARK    2  A    between atoms: N1_5  and  C5_7 
REMARK    3  A    between atoms: C6_10  and  N3_11 
REMARK    4  A    between atoms: N3_11  and  C7_13 
REMARK    5  A    between atoms: C21_35  and  C22_36 
REMARK    6  A    between atoms: N9_40  and  S1_41 
ROOT
HETATM    1  C5  UNL     1       0.102  -1.572  -0.653  1.00  0.00     0.684 A 
HETATM    2  N2  UNL     1      -1.076  -1.582  -1.270  1.00  0.00    -0.174 N 
ATOM      3  H2  UNL     1      -1.120  -1.976  -2.210  1.00  0.00     0.186 HD
HETATM    4  C6  UNL     1      -2.234  -1.096  -0.722  1.00  0.00     0.150 A 
HETATM    5  C15 UNL     1      -2.145  -0.568   0.550  1.00  0.00     0.104 A 
HETATM    6  N6  UNL     1      -3.232  -0.062   1.180  1.00  0.00    -0.361 N 
ATOM      7  H6  UNL     1      -4.140  -0.066   0.714  1.00  0.00     0.165 HD
HETATM    8  C16 UNL     1      -3.115   0.441   2.409  1.00  0.00     0.088 A 
HETATM    9  C17 UNL     1      -1.927   0.481   3.100  1.00  0.00     0.019 A 
HETATM   10  C18 UNL     1      -0.808  -0.021   2.494  1.00  0.00     0.034 A 
HETATM   11  C19 UNL     1      -0.937  -0.544   1.213  1.00  0.00     0.079 A 
HETATM   12  N7  UNL     1       0.144  -1.051   0.577  1.00  0.00    -0.189 N 
ATOM     13  H7  UNL     1       1.041  -1.035   1.063  1.00  0.00     0.184 HD
ENDROOT
BRANCH   1  14
HETATM   14  N1  UNL     1       1.185  -2.048  -1.216  1.00  0.00    -0.192 N 
ATOM     15  H1  UNL     1       1.138  -2.441  -2.156  1.00  0.00     0.184 HD
BRANCH  14  16
HETATM   16  C4  UNL     1       2.419  -2.019  -0.527  1.00  0.00     0.050 A 
HETATM   17  C3  UNL     1       2.682  -3.016   0.411  1.00  0.00     0.036 A 
HETATM   18  C2  UNL     1       3.877  -3.012   1.099  1.00  0.00    -0.059 A 
HETATM   19  C1  UNL     1       4.172  -4.068   2.102  1.00  0.00     0.048 C 
HETATM   20  C26 UNL     1       4.810  -2.012   0.848  1.00  0.00     0.019 A 
HETATM   21  C21 UNL     1       4.575  -1.007  -0.080  1.00  0.00    -0.020 A 
HETATM   22  C20 UNL     1       3.378  -1.042  -0.744  1.00  0.00     0.042 A 
BRANCH  21  23
HETATM   23  C22 UNL     1       5.579   0.025  -0.315  1.00  0.00     0.009 A 
HETATM   24  C23 UNL     1       6.477   0.532   0.598  1.00  0.00     0.122 A 
HETATM   25  N8  UNL     1       7.221   1.460  -0.012  1.00  0.00    -0.295 N 
HETATM   26  N9  UNL     1       6.849   1.574  -1.265  1.00  0.00    -0.192 N 
ATOM     27  H8  UNL     1       7.966   1.999   0.430  1.00  0.00     0.187 HD
HETATM   28  C25 UNL     1       5.846   0.707  -1.474  1.00  0.00     0.142 A 
BRANCH  26  29
HETATM   29  S1  UNL     1       7.547   2.666  -2.436  1.00  0.00     0.245 S 
HETATM   30  C24 UNL     1       7.316   4.337  -1.897  1.00  0.00     0.188 C 
HETATM   31  O1  UNL     1       6.948   2.393  -3.766  1.00  0.00    -0.204 OA
HETATM   32  O2  UNL     1       9.013   2.344  -2.516  1.00  0.00    -0.204 OA
ENDBRANCH  26  29
ENDBRANCH  21  23
ENDBRANCH  14  16
ENDBRANCH   1  14
BRANCH   4  33
HETATM   33  N3  UNL     1      -3.307  -1.141  -1.367  1.00  0.00    -0.340 N 
ATOM     34  H3  UNL     1      -3.226  -1.557  -2.295  1.00  0.00     0.167 HD
BRANCH  33  35
HETATM   35  C7  UNL     1      -4.591  -0.720  -1.033  1.00  0.00     0.035 A 
HETATM   36  C8  UNL     1      -5.514  -1.561  -0.398  1.00  0.00     0.032 A 
HETATM   37  C9  UNL     1      -6.769  -1.095  -0.114  1.00  0.00     0.034 A 
HETATM   38  C10 UNL     1      -7.171   0.183  -0.429  1.00  0.00     0.060 A 
HETATM   39  N4  UNL     1      -8.314   0.885  -0.270  1.00  0.00    -0.344 N 
HETATM   40  C13 UNL     1      -6.273   1.019  -1.053  1.00  0.00     0.062 A 
HETATM   41  C11 UNL     1      -8.159   2.123  -0.770  1.00  0.00     0.078 A 
ATOM     42  H4  UNL     1      -9.166   0.529   0.164  1.00  0.00     0.167 HD
HETATM   43  C12 UNL     1      -9.242   3.159  -0.754  1.00  0.00     0.089 C 
HETATM   44  N5  UNL     1      -6.912   2.214  -1.252  1.00  0.00    -0.344 N 
ATOM     45  H5  UNL     1      -6.505   3.038  -1.695  1.00  0.00     0.167 HD
HETATM   46  C14 UNL     1      -5.013   0.572  -1.346  1.00  0.00     0.061 A 
ENDBRANCH  33  35
ENDBRANCH   4  33
TORSDOF 6
