REMARK  5 active torsions:
REMARK  status: ('A' for Active; 'I' for Inactive)
REMARK    1  A    between atoms: C4_5  and  C5_6 
REMARK       I    between atoms: C5_6  and  N2_8 
REMARK    2  A    between atoms: N2_8  and  C6_10 
REMARK    3  A    between atoms: C8_12  and  C9_13 
REMARK    4  A    between atoms: C12_17  and  C13_18 
REMARK    5  A    between atoms: C17_22  and  C18_23 
ROOT
HETATM    1  N1  UNL     1     -12.623  -0.151   0.181  1.00  0.00    -0.190 NA
HETATM    2  C1  UNL     1     -11.485  -0.317   0.321  1.00  0.00     0.117 C 
HETATM    3  C2  UNL     1     -10.058  -0.525   0.474  1.00  0.00     0.114 A 
HETATM    4  C3  UNL     1      -9.185   0.514   0.589  1.00  0.00     0.058 A 
HETATM    5  C4  UNL     1      -7.834   0.304   0.733  1.00  0.00     0.036 A 
HETATM    6  C26 UNL     1      -7.380  -1.004   0.756  1.00  0.00     0.034 A 
HETATM    7  C27 UNL     1      -8.296  -2.020   0.637  1.00  0.00     0.090 A 
HETATM    8  N8  UNL     1      -9.608  -1.796   0.498  1.00  0.00    -0.357 N 
ATOM      9  H8  UNL     1     -10.259  -2.576   0.411  1.00  0.00     0.166 HD
ENDROOT
BRANCH   5  10
HETATM   10  C5  UNL     1      -6.929   1.434   0.853  1.00  0.00     0.257 C 
HETATM   11  O1  UNL     1      -7.403   2.591   0.823  1.00  0.00    -0.267 OA
HETATM   12  N2  UNL     1      -5.528   1.283   1.002  1.00  0.00    -0.309 N 
ATOM     13  H2  UNL     1      -5.112   1.372   1.929  1.00  0.00     0.170 HD
BRANCH  12  14
HETATM   14  C6  UNL     1      -4.766   1.034  -0.014  1.00  0.00     0.108 A 
HETATM   15  C7  UNL     1      -3.391   0.903   0.245  1.00  0.00     0.061 A 
HETATM   16  C8  UNL     1      -2.568   0.643  -0.816  1.00  0.00    -0.013 A 
HETATM   17  C24 UNL     1      -3.109   0.524  -2.065  1.00  0.00     0.030 A 
HETATM   18  C25 UNL     1      -4.470   0.658  -2.293  1.00  0.00     0.090 A 
HETATM   19  N7  UNL     1      -5.266   0.911  -1.255  1.00  0.00    -0.352 N 
ATOM     20  H7  UNL     1      -6.270   1.013  -1.405  1.00  0.00     0.166 HD
BRANCH  16  21
HETATM   21  C9  UNL     1      -1.133   0.498  -0.578  1.00  0.00     0.035 A 
HETATM   22  C10 UNL     1      -0.138   0.251  -1.497  1.00  0.00     0.118 A 
HETATM   23  N3  UNL     1       1.095   0.159  -1.067  1.00  0.00    -0.309 N 
HETATM   24  C11 UNL     1       2.342  -0.069  -1.618  1.00  0.00     0.129 A 
HETATM   25  C23 UNL     1       1.318   0.310   0.239  1.00  0.00     0.156 A 
HETATM   26  C12 UNL     1       3.307  -0.053  -0.640  1.00  0.00     0.060 A 
HETATM   27  N6  UNL     1       2.656   0.183   0.505  1.00  0.00    -0.334 N 
ATOM     28  H6  UNL     1       3.086   0.256   1.427  1.00  0.00     0.168 HD
HETATM   29  S1  UNL     1      -0.239   0.588   0.876  1.00  0.00    -0.051 SA
BRANCH  26  30
HETATM   30  C13 UNL     1       4.740  -0.259  -0.852  1.00  0.00    -0.007 A 
HETATM   31  C14 UNL     1       5.276  -0.486  -2.098  1.00  0.00     0.014 A 
HETATM   32  C15 UNL     1       6.621  -0.682  -2.314  1.00  0.00     0.002 A 
HETATM   33  C16 UNL     1       7.461  -0.648  -1.227  1.00  0.00     0.012 A 
HETATM   34  C17 UNL     1       6.993  -0.424   0.059  1.00  0.00    -0.022 A 
HETATM   35  C22 UNL     1       5.621  -0.233   0.206  1.00  0.00     0.026 A 
BRANCH  34  36
HETATM   36  C18 UNL     1       7.881  -0.389   1.207  1.00  0.00     0.005 A 
HETATM   37  C19 UNL     1       9.166   0.066   1.082  1.00  0.00     0.106 A 
HETATM   38  N4  UNL     1      10.018   0.109   2.136  1.00  0.00    -0.318 N 
HETATM   39  C20 UNL     1       9.619  -0.297   3.345  1.00  0.00     0.324 A 
ATOM     40  H4  UNL     1      10.969   0.453   2.005  1.00  0.00     0.170 HD
HETATM   41  O2  UNL     1      10.410  -0.263   4.351  1.00  0.00    -0.247 OA
HETATM   42  N5  UNL     1       8.362  -0.748   3.493  1.00  0.00    -0.318 N 
HETATM   43  C21 UNL     1       7.478  -0.805   2.454  1.00  0.00     0.106 A 
ATOM     44  H5  UNL     1       8.057  -1.059   4.415  1.00  0.00     0.170 HD
ENDBRANCH  34  36
ENDBRANCH  26  30
ENDBRANCH  16  21
ENDBRANCH  12  14
ENDBRANCH   5  10
TORSDOF 5
