REMARK  14 active torsions:
REMARK  status: ('A' for Active; 'I' for Inactive)
REMARK    1  A    between atoms: O1_2  and  C2_3 
REMARK    2  A    between atoms: C2_3  and  C3_4 
REMARK    3  A    between atoms: C3_4  and  C4_5 
REMARK    4  A    between atoms: C4_5  and  C5_6 
REMARK    5  A    between atoms: C5_6  and  C6_7 
REMARK    6  A    between atoms: C6_7  and  N1_8 
REMARK    7  A    between atoms: N1_8  and  C7_10 
REMARK    8  A    between atoms: C7_10  and  C8_11 
REMARK    9  A    between atoms: C10_16  and  C11_17 
REMARK   10  A    between atoms: C11_17  and  C12_18 
REMARK   11  A    between atoms: C13_19  and  C14_20 
REMARK   12  A    between atoms: C14_20  and  C15_21 
REMARK   13  A    between atoms: C18_26  and  O2_27 
REMARK   14  A    between atoms: C19_29  and  O3_30 
ROOT
HETATM    1  C8  UNL     1      -1.254  -0.387   0.144  1.00  0.00     0.188 C 
HETATM    2  C9  UNL     1      -2.086  -0.670  -1.043  1.00  0.00     0.272 C 
HETATM    3  N2  UNL     1      -1.085  -0.912  -2.098  1.00  0.00    -0.046 N 
ATOM      4  H21 UNL     1      -1.356  -0.559  -3.016  1.00  0.00     0.280 HD
ATOM      5  H22 UNL     1      -1.000  -1.891  -2.372  1.00  0.00     0.280 HD
HETATM    6  C10 UNL     1       0.112  -0.349  -1.595  1.00  0.00     0.325 C 
HETATM    7  O4  UNL     1      -0.149   0.327  -0.406  1.00  0.00    -0.346 OA
ENDROOT
BRANCH   6   8
HETATM    8  C11 UNL     1       1.148  -1.451  -1.357  1.00  0.00     0.088 C 
BRANCH   8   9
HETATM    9  C12 UNL     1       2.377  -0.754  -0.822  1.00  0.00    -0.026 C 
HETATM   10  C13 UNL     1       2.873  -1.022   0.358  1.00  0.00    -0.029 C 
BRANCH  10  11
HETATM   11  C14 UNL     1       4.062  -0.401   0.959  1.00  0.00     0.052 C 
BRANCH  11  12
HETATM   12  C15 UNL     1       4.730   0.553   0.057  1.00  0.00     0.130 C 
HETATM   13  N3  UNL     1       5.221  -0.068  -1.150  1.00  0.00    -0.140 NA
HETATM   14  N4  UNL     1       6.389  -0.783  -0.991  1.00  0.00    -0.141 NA
HETATM   15  C16 UNL     1       7.448  -0.053  -0.370  1.00  0.00     0.122 C 
HETATM   16  C17 UNL     1       8.568  -1.038  -0.063  1.00  0.00     0.032 C 
HETATM   17  C18 UNL     1       7.053   0.588   0.932  1.00  0.00     0.168 C 
HETATM   18  C19 UNL     1       5.797   1.387   0.729  1.00  0.00     0.169 C 
BRANCH  17  19
HETATM   19  O2  UNL     1       8.113   1.416   1.302  1.00  0.00    -0.391 OA
ATOM     20  H2  UNL     1       7.864   1.821   2.124  1.00  0.00     0.210 HD
ENDBRANCH  17  19
BRANCH  18  21
HETATM   21  O3  UNL     1       6.108   2.434  -0.128  1.00  0.00    -0.391 OA
ATOM     22  H3  UNL     1       6.778   2.958   0.294  1.00  0.00     0.210 HD
ENDBRANCH  18  21
ENDBRANCH  11  12
ENDBRANCH  10  11
ENDBRANCH   8   9
ENDBRANCH   6   8
BRANCH   1  23
HETATM   23  C7  UNL     1      -1.880   0.392   1.237  1.00  0.00     0.093 C 
BRANCH  23  24
HETATM   24  N1  UNL     1      -2.946  -0.157   1.917  1.00  0.00    -0.380 N 
ATOM     25  H1  UNL     1      -2.780  -0.470   2.873  1.00  0.00     0.164 HD
BRANCH  24  26
HETATM   26  C6  UNL     1      -4.240  -0.320   1.401  1.00  0.00     0.060 C 
BRANCH  26  27
HETATM   27  C5  UNL     1      -4.871   1.057   1.226  1.00  0.00     0.044 C 
BRANCH  27  28
HETATM   28  C4  UNL     1      -6.260   0.991   0.704  1.00  0.00     0.007 C 
BRANCH  28  29
HETATM   29  C3  UNL     1      -6.431   0.350  -0.630  1.00  0.00     0.027 C 
BRANCH  29  30
HETATM   30  C2  UNL     1      -7.918   0.362  -1.006  1.00  0.00     0.167 C 
BRANCH  30  31
HETATM   31  O1  UNL     1      -8.654  -0.347  -0.052  1.00  0.00    -0.396 OA
HETATM   32  C1  UNL     1     -10.002  -0.348  -0.367  1.00  0.00     0.201 C 
ENDBRANCH  30  31
ENDBRANCH  29  30
ENDBRANCH  28  29
ENDBRANCH  27  28
ENDBRANCH  26  27
ENDBRANCH  24  26
ENDBRANCH  23  24
ENDBRANCH   1  23
TORSDOF 14
