REMARK  17 active torsions:
REMARK  status: ('A' for Active; 'I' for Inactive)
REMARK    1  A    between atoms: C2_2  and  C15_25 
REMARK    2  A    between atoms: C3_3  and  C4_4 
REMARK    3  A    between atoms: C4_4  and  C5_5 
REMARK    4  A    between atoms: C5_5  and  O1_6 
REMARK    5  A    between atoms: C5_5  and  C6_8 
REMARK    6  A    between atoms: C6_8  and  O2_9 
REMARK    7  A    between atoms: C6_8  and  C7_11 
REMARK    8  A    between atoms: C7_11  and  O3_12 
REMARK    9  A    between atoms: C7_11  and  C8_14 
REMARK   10  A    between atoms: C8_14  and  O4_15 
REMARK   11  A    between atoms: C8_14  and  C9_17 
REMARK   12  A    between atoms: C9_17  and  O5_18 
REMARK   13  A    between atoms: C9_17  and  C10_20 
REMARK   14  A    between atoms: C10_20  and  C11_21 
REMARK   15  A    between atoms: C11_21  and  C12_22 
REMARK   16  A    between atoms: C16_27  and  C18_29 
REMARK   17  A    between atoms: C18_29  and  O7_31 
ROOT
HETATM    1  C6  UNL     1       0.885   0.899  -0.974  1.00  0.00     0.178 C 
ENDROOT
BRANCH   1   2
HETATM    2  C5  UNL     1       0.282   1.834   0.005  1.00  0.00     0.152 C 
BRANCH   2   3
HETATM    3  C4  UNL     1      -1.193   1.987   0.043  1.00  0.00     0.061 C 
BRANCH   3   4
HETATM    4  C3  UNL     1      -2.039   0.885   0.449  1.00  0.00    -0.019 C 
HETATM    5  C2  UNL     1      -3.079   0.433  -0.276  1.00  0.00    -0.056 C 
HETATM    6  C1  UNL     1      -3.401   1.077  -1.566  1.00  0.00     0.046 C 
BRANCH   5   7
HETATM    7  C15 UNL     1      -3.905  -0.700   0.195  1.00  0.00     0.188 A 
HETATM    8  O6  UNL     1      -4.445  -0.681   1.464  1.00  0.00    -0.362 OA
HETATM    9  C16 UNL     1      -5.348  -0.544   0.436  1.00  0.00     0.113 A 
HETATM   10  C17 UNL     1      -6.013   0.812   0.354  1.00  0.00     0.052 C 
BRANCH   9  11
HETATM   11  C18 UNL     1      -6.242  -1.684   0.051  1.00  0.00     0.151 C 
HETATM   12  C19 UNL     1      -7.144  -2.106   1.194  1.00  0.00     0.042 C 
BRANCH  11  13
HETATM   13  O7  UNL     1      -7.069  -1.318  -1.010  1.00  0.00    -0.393 OA
ATOM     14  H7  UNL     1      -7.636  -2.040  -1.254  1.00  0.00     0.210 HD
ENDBRANCH  11  13
ENDBRANCH   9  11
ENDBRANCH   5   7
ENDBRANCH   3   4
ENDBRANCH   2   3
BRANCH   2  15
HETATM   15  O1  UNL     1       0.770   3.144  -0.444  1.00  0.00    -0.393 OA
ATOM     16  H1  UNL     1       1.715   3.046  -0.468  1.00  0.00     0.210 HD
ENDBRANCH   2  15
ENDBRANCH   1   2
BRANCH   1  17
HETATM   17  O2  UNL     1       0.384   1.051  -2.229  1.00  0.00    -0.390 OA
ATOM     18  H2  UNL     1       0.771   0.452  -2.857  1.00  0.00     0.210 HD
ENDBRANCH   1  17
BRANCH   1  19
HETATM   19  C7  UNL     1       1.118  -0.461  -0.453  1.00  0.00     0.180 C 
BRANCH  19  20
HETATM   20  O3  UNL     1      -0.033  -1.219  -0.468  1.00  0.00    -0.390 OA
ATOM     21  H3  UNL     1       0.117  -2.095  -0.132  1.00  0.00     0.210 HD
ENDBRANCH  19  20
BRANCH  19  22
HETATM   22  C8  UNL     1       2.144  -1.247  -1.237  1.00  0.00     0.178 C 
BRANCH  22  23
HETATM   23  O4  UNL     1       1.659  -1.416  -2.528  1.00  0.00    -0.390 OA
ATOM     24  H4  UNL     1       2.304  -1.910  -3.021  1.00  0.00     0.210 HD
ENDBRANCH  22  23
BRANCH  22  25
HETATM   25  C9  UNL     1       3.502  -0.663  -1.292  1.00  0.00     0.149 C 
BRANCH  25  26
HETATM   26  O5  UNL     1       4.307  -1.583  -2.011  1.00  0.00    -0.393 OA
ATOM     27  H5  UNL     1       5.179  -1.208  -2.046  1.00  0.00     0.210 HD
ENDBRANCH  25  26
BRANCH  25  28
HETATM   28  C10 UNL     1       4.159  -0.490   0.047  1.00  0.00     0.035 C 
BRANCH  28  29
HETATM   29  C11 UNL     1       5.525   0.111  -0.186  1.00  0.00     0.006 C 
BRANCH  29  30
HETATM   30  C12 UNL     1       6.278   0.329   1.102  1.00  0.00    -0.023 C 
HETATM   31  C13 UNL     1       6.480  -0.991   1.838  1.00  0.00     0.009 C 
HETATM   32  C14 UNL     1       5.616   1.282   2.036  1.00  0.00     0.009 C 
ENDBRANCH  29  30
ENDBRANCH  28  29
ENDBRANCH  25  28
ENDBRANCH  22  25
ENDBRANCH  19  22
ENDBRANCH   1  19
TORSDOF 17
