REMARK  9 active torsions:
REMARK  status: ('A' for Active; 'I' for Inactive)
REMARK    1  A    between atoms: C1_4  and  C2_6 
REMARK    2  A    between atoms: C2_6  and  C3_7 
REMARK    3  A    between atoms: C3_7  and  N3_8 
REMARK    4  A    between atoms: N3_8  and  C4_10 
REMARK    5  A    between atoms: C5_13  and  N5_14 
REMARK    6  A    between atoms: N6_17  and  C6_18 
REMARK    7  A    between atoms: C6_18  and  C7_19 
REMARK    8  A    between atoms: C7_19  and  S1_20 
REMARK    9  A    between atoms: S1_20  and  N7_21 
ROOT
HETATM    1  C4  UNL     1       1.126  -0.491  -0.631  1.00  0.00     0.696 A 
HETATM    2  N4  UNL     1       0.356  -1.537  -0.279  1.00  0.00    -0.022 N 
ATOM      3  H4  UNL     1       0.796  -2.427  -0.046  1.00  0.00     0.203 HD
HETATM    4  C5  UNL     1      -0.989  -1.428  -0.229  1.00  0.00     0.696 A 
HETATM    5  N6  UNL     1      -1.620  -0.274  -0.527  1.00  0.00    -0.131 N 
HETATM    6  C8  UNL     1      -0.833   0.760  -0.877  1.00  0.00     0.355 A 
HETATM    7  O3  UNL     1      -1.369   1.884  -1.172  1.00  0.00    -0.245 OA
HETATM    8  N8  UNL     1       0.501   0.657  -0.928  1.00  0.00    -0.140 N 
ATOM      9  H8  UNL     1       1.054   1.470  -1.199  1.00  0.00     0.189 HD
ENDROOT
BRANCH   1  10
HETATM   10  N3  UNL     1       2.425  -0.603  -0.678  1.00  0.00    -0.225 N 
ATOM     11  H3  UNL     1       2.887  -1.483  -0.450  1.00  0.00     0.177 HD
BRANCH  10  12
HETATM   12  C3  UNL     1       3.180   0.550  -1.060  1.00  0.00     0.145 C 
BRANCH  12  13
HETATM   13  C2  UNL     1       4.649   0.279  -1.221  1.00  0.00     0.092 C 
BRANCH  13  14
HETATM   14  C1  UNL     1       5.286  -0.211   0.011  1.00  0.00     0.088 C 
HETATM   15  N1  UNL     1       5.847  -1.364   0.000  1.00  0.00    -0.391 N 
ATOM     16  H12 UNL     1       6.289  -1.704   0.854  1.00  0.00     0.157 HD
ATOM     17  H11 UNL     1       5.830  -1.902  -0.867  1.00  0.00     0.157 HD
HETATM   18  N2  UNL     1       5.309   0.535   1.213  1.00  0.00    -0.088 NA
ENDBRANCH  13  14
ENDBRANCH  12  13
ENDBRANCH  10  12
ENDBRANCH   1  10
BRANCH   4  19
HETATM   19  N5  UNL     1      -1.681  -2.433   0.107  1.00  0.00    -0.234 N 
ATOM     20  H52 UNL     1      -1.204  -3.306   0.332  1.00  0.00     0.174 HD
ATOM     21  H51 UNL     1      -2.697  -2.351   0.145  1.00  0.00     0.174 HD
ENDBRANCH   4  19
BRANCH   5  22
HETATM   22  C6  UNL     1      -3.031  -0.080  -0.498  1.00  0.00     0.169 C 
BRANCH  22  23
HETATM   23  C7  UNL     1      -3.568   0.388   0.824  1.00  0.00     0.183 C 
BRANCH  23  24
HETATM   24  S1  UNL     1      -5.332   0.568   0.650  1.00  0.00     0.226 S 
HETATM   25  O1  UNL     1      -5.684   1.475  -0.474  1.00  0.00    -0.206 OA
HETATM   26  O2  UNL     1      -5.890  -0.808   0.386  1.00  0.00    -0.206 OA
BRANCH  24  27
HETATM   27  N7  UNL     1      -6.022   1.107   2.146  1.00  0.00    -0.328 N 
ATOM     28  H72 UNL     1      -5.484   1.290   2.993  1.00  0.00     0.168 HD
ATOM     29  H71 UNL     1      -7.032   1.210   2.046  1.00  0.00     0.168 HD
ENDBRANCH  24  27
ENDBRANCH  23  24
ENDBRANCH  22  23
ENDBRANCH   5  22
TORSDOF 9
