REMARK  9 active torsions:
REMARK  status: ('A' for Active; 'I' for Inactive)
REMARK       I    between atoms: C1_4  and  N3_6 
REMARK    1  A    between atoms: C5_10  and  N4_11 
REMARK       I    between atoms: N4_11  and  C6_13 
REMARK    2  A    between atoms: C6_13  and  C7_15 
REMARK    3  A    between atoms: C7_15  and  C8_17 
REMARK    4  A    between atoms: C8_17  and  C9_18 
REMARK    5  A    between atoms: C9_18  and  C10_19 
REMARK    6  A    between atoms: C10_19  and  N5_20 
REMARK    7  A    between atoms: C10_19  and  C11_24 
REMARK    8  A    between atoms: C11_24  and  N6_25 
REMARK    9  A    between atoms: N6_25  and  N7_26 
ROOT
HETATM    1  N4  UNL     1      -0.972  -0.999  -0.947  1.00  0.00    -0.332 N 
ATOM      2  H4  UNL     1      -0.973  -1.933  -1.358  1.00  0.00     0.165 HD
HETATM    3  C6  UNL     1       0.257  -0.309  -0.847  1.00  0.00     0.288 C 
HETATM    4  O1  UNL     1       0.224   0.832  -0.339  1.00  0.00    -0.264 OA
ENDROOT
BRANCH   3   5
HETATM    5  C7  UNL     1       1.524  -0.846  -1.294  1.00  0.00     0.216 C 
HETATM    6  O2  UNL     1       1.451  -2.031  -1.796  1.00  0.00    -0.287 OA
BRANCH   5   7
HETATM    7  C8  UNL     1       2.830  -0.185  -1.226  1.00  0.00     0.091 C 
BRANCH   7   8
HETATM    8  C9  UNL     1       2.848   1.196  -0.689  1.00  0.00     0.042 C 
BRANCH   8   9
HETATM    9  C10 UNL     1       4.254   1.758  -0.684  1.00  0.00     0.200 C 
BRANCH   9  10
HETATM   10  N5  UNL     1       4.216   3.122  -0.155  1.00  0.00    -0.074 N 
ATOM     11  H53 UNL     1       3.560   3.718  -0.661  1.00  0.00     0.274 HD
ATOM     12  H52 UNL     1       3.774   3.172   0.763  1.00  0.00     0.274 HD
ATOM     13  H51 UNL     1       5.163   3.501  -0.152  1.00  0.00     0.274 HD
ENDBRANCH   9  10
BRANCH   9  14
HETATM   14  C11 UNL     1       5.106   0.953   0.249  1.00  0.00     0.167 C 
BRANCH  14  15
HETATM   15  N6  UNL     1       4.573   0.990   1.608  1.00  0.00    -0.146 NA
BRANCH  15  16
HETATM   16  N7  UNL     1       5.442   0.210   2.387  1.00  0.00    -0.348 N 
ATOM     17  H72 UNL     1       6.274  -0.278   2.056  1.00  0.00     0.172 HD
ATOM     18  H71 UNL     1       5.070   0.236   3.336  1.00  0.00     0.172 HD
ENDBRANCH  15  16
ENDBRANCH  14  15
ENDBRANCH   9  14
ENDBRANCH   8   9
ENDBRANCH   7   8
ENDBRANCH   5   7
ENDBRANCH   3   5
BRANCH   1  19
HETATM   19  C5  UNL     1      -2.232  -0.444  -0.494  1.00  0.00     0.200 C 
HETATM   20  C4  UNL     1      -3.129  -0.293  -1.664  1.00  0.00     0.050 C 
HETATM   21  C3  UNL     1      -4.602  -0.150  -1.308  1.00  0.00     0.026 C 
HETATM   22  C2  UNL     1      -4.926  -1.457  -0.565  1.00  0.00     0.152 C 
HETATM   23  N3  UNL     1      -4.093  -1.414   0.620  1.00  0.00    -0.268 N 
HETATM   24  C1  UNL     1      -4.727  -1.584   1.874  1.00  0.00     0.202 C 
HETATM   25  N8  UNL     1      -2.743  -1.218   0.588  1.00  0.00    -0.309 N 
HETATM   26  N1  UNL     1      -4.558  -2.606   2.635  1.00  0.00    -0.372 N 
HETATM   27  N2  UNL     1      -5.601  -0.557   2.311  1.00  0.00    -0.062 NA
ATOM     28  H12 UNL     1      -5.015  -2.729   3.539  1.00  0.00     0.158 HD
ATOM     29  H11 UNL     1      -3.929  -3.345   2.321  1.00  0.00     0.158 HD
ATOM     30  H8  UNL     1      -2.129  -1.607   1.304  1.00  0.00     0.182 HD
ENDBRANCH   1  19
TORSDOF 9
