REMARK  7 active torsions:
REMARK  status: ('A' for Active; 'I' for Inactive)
REMARK    1  A    between atoms: N1_1  and  C1_4 
REMARK       I    between atoms: N4_12  and  C4_13 
REMARK    2  A    between atoms: C4_13  and  C5_15 
REMARK    3  A    between atoms: C5_15  and  N5_16 
REMARK    4  A    between atoms: N5_16  and  C6_18 
REMARK    5  A    between atoms: C6_18  and  C7_19 
REMARK    6  A    between atoms: C7_19  and  O3_20 
REMARK    7  A    between atoms: O3_20  and  N6_21 
ROOT
HETATM    1  C1  UNL     1      -5.541  -1.266   0.054  1.00  0.00     0.680 A 
HETATM    2  N2  UNL     1      -6.241  -0.108  -0.080  1.00  0.00    -0.154 N 
ATOM      3  H2  UNL     1      -7.260  -0.141  -0.059  1.00  0.00     0.187 HD
HETATM    4  C2  UNL     1      -5.633   1.074  -0.239  1.00  0.00     0.291 A 
HETATM    5  O1  UNL     1      -6.322   2.121  -0.360  1.00  0.00    -0.265 OA
HETATM    6  C3  UNL     1      -4.261   1.151  -0.271  1.00  0.00     0.164 A 
HETATM    7  N3  UNL     1      -3.095   1.782  -0.369  1.00  0.00    -0.281 N 
ATOM      8  H3  UNL     1      -2.852   2.764  -0.497  1.00  0.00     0.188 HD
HETATM    9  N4  UNL     1      -2.366   0.696  -0.243  1.00  0.00    -0.202 N 
HETATM   10  C4  UNL     1      -0.981   0.309  -0.215  1.00  0.00     0.261 C 
HETATM   11  O2  UNL     1      -0.668  -0.897  -0.065  1.00  0.00    -0.269 OA
HETATM   12  C9  UNL     1      -3.517  -0.013  -0.136  1.00  0.00     0.179 A 
HETATM   13  N9  UNL     1      -4.201  -1.160   0.019  1.00  0.00    -0.172 N 
ATOM     14  H9  UNL     1      -3.660  -2.019   0.118  1.00  0.00     0.186 HD
ENDROOT
BRANCH  10  15
HETATM   15  C5  UNL     1      -0.010   1.392  -0.368  1.00  0.00     0.219 C 
BRANCH  15  16
HETATM   16  N5  UNL     1       1.327   0.935  -0.252  1.00  0.00    -0.411 N 
ATOM     17  H5  UNL     1       1.956   0.901  -1.054  1.00  0.00     0.153 HD
BRANCH  16  18
HETATM   18  C6  UNL     1       1.742   0.526   1.048  1.00  0.00     0.143 C 
BRANCH  18  19
HETATM   19  C7  UNL     1       3.199   0.057   1.057  1.00  0.00     0.220 C 
BRANCH  19  20
HETATM   20  O3  UNL     1       3.354  -1.013   0.196  1.00  0.00    -0.277 OA
BRANCH  20  21
HETATM   21  N6  UNL     1       4.416  -1.752  -0.117  1.00  0.00    -0.241 N 
HETATM   22  C8  UNL     1       5.561  -1.298  -0.387  1.00  0.00     0.221 C 
HETATM   23  N7  UNL     1       6.672  -2.157  -0.718  1.00  0.00    -0.065 NA
HETATM   24  N8  UNL     1       5.871   0.086  -0.398  1.00  0.00    -0.065 NA
ATOM     25  H6  UNL     1       4.294  -2.764  -0.140  1.00  0.00     0.196 HD
ENDBRANCH  20  21
ENDBRANCH  19  20
ENDBRANCH  18  19
ENDBRANCH  16  18
ENDBRANCH  15  16
ENDBRANCH  10  15
BRANCH   1  26
HETATM   26  N1  UNL     1      -6.136  -2.400   0.212  1.00  0.00    -0.234 N 
ATOM     27  H12 UNL     1      -7.152  -2.480   0.239  1.00  0.00     0.174 HD
ATOM     28  H11 UNL     1      -5.611  -3.269   0.313  1.00  0.00     0.174 HD
ENDBRANCH   1  26
TORSDOF 7
