REMARK  7 active torsions:
REMARK  status: ('A' for Active; 'I' for Inactive)
REMARK       I    between atoms: C1_4  and  N3_6 
REMARK    1  A    between atoms: N3_6  and  C2_8 
REMARK    2  A    between atoms: C2_8  and  C3_9 
REMARK    3  A    between atoms: C3_9  and  C4_10 
REMARK    4  A    between atoms: C4_10  and  N4_11 
REMARK    5  A    between atoms: C4_10  and  C5_15 
REMARK       I    between atoms: C5_15  and  N5_17 
REMARK    6  A    between atoms: N5_17  and  C6_19 
REMARK    7  A    between atoms: C6_19  and  C7_20 
ROOT
HETATM    1  C5  UNL     1      -0.614   0.151   0.488  1.00  0.00     0.249 C 
HETATM    2  O1  UNL     1      -0.767   1.370   0.882  1.00  0.00    -0.271 OA
HETATM    3  N5  UNL     1      -1.681  -0.514  -0.063  1.00  0.00    -0.335 N 
ATOM      4  H5  UNL     1      -1.494  -1.478  -0.340  1.00  0.00     0.164 HD
ENDROOT
BRANCH   1   5
HETATM    5  C4  UNL     1       0.707  -0.488   0.646  1.00  0.00     0.276 C 
BRANCH   5   6
HETATM    6  C3  UNL     1       1.831   0.518   0.372  1.00  0.00     0.062 C 
BRANCH   6   7
HETATM    7  C2  UNL     1       3.171  -0.162   0.442  1.00  0.00     0.125 C 
BRANCH   7   8
HETATM    8  N3  UNL     1       4.251   0.728   0.133  1.00  0.00    -0.365 N 
HETATM    9  C1  UNL     1       5.603   0.270   0.064  1.00  0.00     0.181 C 
HETATM   10  N1  UNL     1       5.885  -0.789  -0.627  1.00  0.00    -0.374 N 
HETATM   11  N2  UNL     1       6.606   0.977   0.740  1.00  0.00    -0.064 NA
ATOM     12  H12 UNL     1       6.850  -1.116  -0.676  1.00  0.00     0.158 HD
ATOM     13  H11 UNL     1       5.155  -1.304  -1.119  1.00  0.00     0.158 HD
ATOM     14  H3  UNL     1       4.050   1.713  -0.042  1.00  0.00     0.162 HD
ENDBRANCH   7   8
ENDBRANCH   6   7
ENDBRANCH   5   6
BRANCH   5  15
HETATM   15  N4  UNL     1       0.816  -1.556  -0.355  1.00  0.00    -0.066 N 
ATOM     16  H43 UNL     1       0.811  -1.205  -1.313  1.00  0.00     0.275 HD
ATOM     17  H42 UNL     1       1.740  -1.988  -0.376  1.00  0.00     0.275 HD
ATOM     18  H41 UNL     1       0.068  -2.225  -0.173  1.00  0.00     0.275 HD
ENDBRANCH   5  15
ENDBRANCH   1   5
BRANCH   3  19
HETATM   19  C6  UNL     1      -3.031  -0.056  -0.311  1.00  0.00     0.176 C 
HETATM   20  C8  UNL     1      -2.829   0.732  -1.719  1.00  0.00     0.151 C 
HETATM   21  C9  UNL     1      -4.084   1.495  -1.701  1.00  0.00     0.226 C 
HETATM   22  O3  UNL     1      -4.836   1.805  -2.663  1.00  0.00    -0.273 OA
HETATM   23  N7  UNL     1      -4.289   1.825  -0.347  1.00  0.00    -0.316 N 
HETATM   24  C10 UNL     1      -3.682   0.930   0.439  1.00  0.00     0.134 C 
ATOM     25  H7  UNL     1      -4.822   2.629  -0.015  1.00  0.00     0.169 HD
HETATM   26  N8  UNL     1      -3.868   1.197   1.862  1.00  0.00    -0.084 NA
BRANCH  19  27
HETATM   27  C7  UNL     1      -3.823  -1.212  -0.766  1.00  0.00     0.267 C 
HETATM   28  N6  UNL     1      -4.082  -2.273   0.176  1.00  0.00    -0.059 NA
HETATM   29  O2  UNL     1      -4.260  -1.308  -1.921  1.00  0.00    -0.274 OA
ENDBRANCH  19  27
ENDBRANCH   3  19
TORSDOF 7
