REMARK  2 active torsions:
REMARK  status: ('A' for Active; 'I' for Inactive)
REMARK    1  A    between atoms: O1_1  and  C1_3 
REMARK    2  A    between atoms: C6_9  and  O3_10 
ROOT
HETATM    1  C1  UNL     1       1.203  -0.340  -0.267  1.00  0.00     0.173 C 
HETATM    2  C2  UNL     1       0.922   1.029   0.302  1.00  0.00     0.036 C 
HETATM    3  C3  UNL     1      -0.372   1.608  -0.154  1.00  0.00     0.005 C 
HETATM    4  C4  UNL     1      -1.400   0.590  -0.545  1.00  0.00     0.026 C 
HETATM    5  C5  UNL     1      -1.705  -0.416   0.509  1.00  0.00     0.171 C 
HETATM    6  O2  UNL     1      -0.615  -0.863   1.217  1.00  0.00    -0.359 OA
HETATM    7  C6  UNL     1       0.397  -1.382   0.451  1.00  0.00     0.285 C 
ENDROOT
BRANCH   1   8
HETATM    8  O1  UNL     1       2.583  -0.555  -0.128  1.00  0.00    -0.391 OA
ATOM      9  H1  UNL     1       2.760  -1.417  -0.486  1.00  0.00     0.210 HD
ENDBRANCH   1   8
BRANCH   7  10
HETATM   10  O3  UNL     1      -0.018  -2.344  -0.460  1.00  0.00    -0.369 OA
ATOM     11  H3  UNL     1      -0.528  -3.004  -0.005  1.00  0.00     0.212 HD
ENDBRANCH   7  10
TORSDOF 2
