REMARK  5 active torsions:
REMARK  status: ('A' for Active; 'I' for Inactive)
REMARK    1  A    between atoms: N1_2  and  C3_4 
REMARK    2  A    between atoms: C3_4  and  C4_5 
REMARK    3  A    between atoms: C4_5  and  N2_6 
REMARK    4  A    between atoms: N2_6  and  C5_9 
REMARK    5  A    between atoms: C5_9  and  C6_10 
ROOT
HETATM    1  C6  UNL     1       1.644  -0.434   1.076  1.00  0.00     0.023 C 
HETATM    2  C7  UNL     1       2.252   0.801   0.458  1.00  0.00     0.024 C 
HETATM    3  C8  UNL     1       3.742   0.943   0.826  1.00  0.00     0.040 C 
HETATM    4  C9  UNL     1       4.371  -0.056  -0.088  1.00  0.00     0.187 C 
HETATM    5  C10 UNL     1       3.831  -1.425   0.283  1.00  0.00     0.040 C 
HETATM    6  C11 UNL     1       2.344  -1.219  -0.048  1.00  0.00     0.024 C 
HETATM    7  C12 UNL     1       2.293   0.049  -0.852  1.00  0.00     0.195 C 
HETATM    8  N3  UNL     1       3.647   0.177  -1.326  1.00  0.00    -0.066 N 
ATOM      9  H31 UNL     1       3.902  -0.423  -2.110  1.00  0.00     0.278 HD
ATOM     10  H32 UNL     1       3.867   1.046  -1.813  1.00  0.00     0.278 HD
ENDROOT
BRANCH   1  11
HETATM   11  C5  UNL     1       0.173  -0.557   0.922  1.00  0.00     0.237 C 
BRANCH  11  12
HETATM   12  N2  UNL     1      -0.604   0.517   1.499  1.00  0.00    -0.073 N 
ATOM     13  H22 UNL     1      -0.376   1.426   1.096  1.00  0.00     0.277 HD
ATOM     14  H21 UNL     1      -0.337   0.721   2.462  1.00  0.00     0.277 HD
BRANCH  12  15
HETATM   15  C4  UNL     1      -1.994   0.190   1.370  1.00  0.00     0.262 C 
BRANCH  15  16
HETATM   16  C3  UNL     1      -2.534   0.198  -0.031  1.00  0.00     0.298 C 
BRANCH  16  17
HETATM   17  N1  UNL     1      -3.959  -0.158   0.043  1.00  0.00     0.081 N 
HETATM   18  C1  UNL     1      -4.688   0.892   0.682  1.00  0.00     0.309 C 
HETATM   19  C2  UNL     1      -4.492  -0.554  -1.229  1.00  0.00     0.309 C 
ENDBRANCH  16  17
ENDBRANCH  15  16
ENDBRANCH  12  15
ENDBRANCH  11  12
ENDBRANCH   1  11
TORSDOF 5
