REMARK  5 active torsions:
REMARK  status: ('A' for Active; 'I' for Inactive)
REMARK    1  A    between atoms: N1_2  and  C2_5 
REMARK    2  A    between atoms: C2_5  and  C3_6 
REMARK    3  A    between atoms: C3_6  and  C4_7 
REMARK    4  A    between atoms: C4_7  and  C5_8 
REMARK    5  A    between atoms: C5_8  and  C6_9 
ROOT
HETATM    1  C6  UNL     1      -0.718  -0.073  -0.291  1.00  0.00    -0.006 C 
HETATM    2  C7  UNL     1      -1.102   0.936   0.770  1.00  0.00     0.038 C 
HETATM    3  C8  UNL     1      -2.563   1.293   0.522  1.00  0.00     0.191 C 
HETATM    4  N2  UNL     1      -2.646   1.438  -0.935  1.00  0.00    -0.066 N 
ATOM      5  H21 UNL     1      -1.838   1.859  -1.393  1.00  0.00     0.278 HD
ATOM      6  H22 UNL     1      -3.301   2.138  -1.282  1.00  0.00     0.278 HD
HETATM    7  C9  UNL     1      -2.939   0.043  -1.289  1.00  0.00     0.191 C 
HETATM    8  C10 UNL     1      -4.218  -0.092  -0.442  1.00  0.00     0.040 C 
HETATM    9  C11 UNL     1      -3.477   0.152   0.884  1.00  0.00     0.018 C 
HETATM   10  C12 UNL     1      -2.602  -1.106   0.830  1.00  0.00     0.013 C 
HETATM   11  C13 UNL     1      -1.994  -0.883  -0.554  1.00  0.00     0.021 C 
ENDROOT
BRANCH   1  12
HETATM   12  C5  UNL     1       0.326  -1.040   0.181  1.00  0.00     0.005 C 
BRANCH  12  13
HETATM   13  C4  UNL     1       1.606  -0.357   0.599  1.00  0.00     0.002 C 
BRANCH  13  14
HETATM   14  C3  UNL     1       2.243   0.425  -0.512  1.00  0.00     0.027 C 
BRANCH  14  15
HETATM   15  C2  UNL     1       3.497   1.057   0.047  1.00  0.00     0.231 C 
BRANCH  15  16
HETATM   16  N1  UNL     1       4.425   0.109   0.554  1.00  0.00    -0.079 N 
HETATM   17  C1  UNL     1       4.998  -0.669  -0.509  1.00  0.00     0.266 C 
ATOM     18  H12 UNL     1       4.004  -0.484   1.270  1.00  0.00     0.276 HD
ATOM     19  H11 UNL     1       5.144   0.554   1.124  1.00  0.00     0.276 HD
ENDBRANCH  15  16
ENDBRANCH  14  15
ENDBRANCH  13  14
ENDBRANCH  12  13
ENDBRANCH   1  12
TORSDOF 5
