REMARK  5 active torsions:
REMARK  status: ('A' for Active; 'I' for Inactive)
REMARK    1  A    between atoms: N1_2  and  C3_4 
REMARK    2  A    between atoms: C3_4  and  C4_5 
REMARK    3  A    between atoms: C4_5  and  N2_6 
REMARK    4  A    between atoms: N2_6  and  C5_8 
REMARK    5  A    between atoms: C5_8  and  C6_9 
ROOT
HETATM    1  C6  UNL     1      -0.608  -0.809   0.553  1.00  0.00     0.119 C 
HETATM    2  C7  UNL     1      -1.017   0.602   0.303  1.00  0.00     0.031 C 
HETATM    3  C8  UNL     1      -2.285   0.857   1.150  1.00  0.00     0.016 C 
HETATM    4  C9  UNL     1      -3.383   0.051   0.508  1.00  0.00    -0.016 C 
HETATM    5  C10 UNL     1      -3.763   0.695  -0.802  1.00  0.00     0.020 C 
HETATM    6  C11 UNL     1      -4.588   0.125   1.424  1.00  0.00     0.020 C 
HETATM    7  C12 UNL     1      -2.958  -1.376   0.272  1.00  0.00     0.065 C 
HETATM    8  N3  UNL     1      -1.704  -1.709   0.798  1.00  0.00    -0.392 N 
ATOM      9  H3  UNL     1      -1.571  -2.564   1.339  1.00  0.00     0.159 HD
ENDROOT
BRANCH   1  10
HETATM   10  C5  UNL     1       0.325  -1.334  -0.485  1.00  0.00     0.080 C 
BRANCH  10  11
HETATM   11  N2  UNL     1       1.569  -0.789  -0.715  1.00  0.00    -0.399 N 
ATOM     12  H2  UNL     1       2.371  -1.353  -0.434  1.00  0.00     0.158 HD
BRANCH  11  13
HETATM   13  C4  UNL     1       1.852   0.443  -1.287  1.00  0.00     0.138 C 
BRANCH  13  14
HETATM   14  C3  UNL     1       3.388   0.570  -1.534  1.00  0.00     0.135 C 
BRANCH  14  15
HETATM   15  N1  UNL     1       4.016   0.455  -0.271  1.00  0.00    -0.419 N 
HETATM   16  C1  UNL     1       3.791   1.569   0.611  1.00  0.00     0.142 C 
HETATM   17  C2  UNL     1       5.351  -0.027  -0.238  1.00  0.00     0.142 C 
ENDBRANCH  14  15
ENDBRANCH  13  14
ENDBRANCH  11  13
ENDBRANCH  10  11
ENDBRANCH   1  10
TORSDOF 5
