REMARK  5 active torsions:
REMARK  status: ('A' for Active; 'I' for Inactive)
REMARK    1  A    between atoms: C4_4  and  N1_5 
REMARK    2  A    between atoms: N1_5  and  C5_7 
REMARK    3  A    between atoms: C5_7  and  C6_8 
REMARK    4  A    between atoms: C6_8  and  C7_9 
REMARK    5  A    between atoms: C7_9  and  N2_10 
ROOT
HETATM    1  N1  UNL     1      -1.667  -1.212   0.248  1.00  0.00    -0.395 N 
ATOM      2  H1  UNL     1      -2.111  -2.129   0.293  1.00  0.00     0.155 HD
ENDROOT
BRANCH   1   3
HETATM    3  C4  UNL     1      -2.194  -0.169  -0.581  1.00  0.00     0.279 C 
HETATM    4  C3  UNL     1      -2.709   0.987   0.193  1.00  0.00     0.054 C 
HETATM    5  C2  UNL     1      -4.187   1.106   0.283  1.00  0.00     0.005 C 
HETATM    6  C1  UNL     1      -5.010   0.076  -0.377  1.00  0.00     0.028 C 
HETATM    7  C12 UNL     1      -4.256  -1.206  -0.613  1.00  0.00     0.235 C 
HETATM    8  N3  UNL     1      -3.140  -0.797  -1.481  1.00  0.00    -0.055 N 
ATOM      9  H32 UNL     1      -3.418  -0.211  -2.269  1.00  0.00     0.279 HD
ATOM     10  H31 UNL     1      -2.745  -1.555  -2.038  1.00  0.00     0.279 HD
ENDBRANCH   1   3
BRANCH   1  11
HETATM   11  C5  UNL     1      -0.502  -0.918   1.005  1.00  0.00     0.117 C 
BRANCH  11  12
HETATM   12  C6  UNL     1       0.733  -0.751   0.134  1.00  0.00     0.049 C 
BRANCH  12  13
HETATM   13  C7  UNL     1       1.948  -0.479   1.012  1.00  0.00     0.274 C 
BRANCH  13  14
HETATM   14  N2  UNL     1       3.154  -0.350   0.266  1.00  0.00     0.088 N 
HETATM   15  C8  UNL     1       3.286   0.790  -0.557  1.00  0.00     0.272 C 
HETATM   16  C9  UNL     1       4.455   1.576   0.012  1.00  0.00     0.032 C 
HETATM   17  C10 UNL     1       5.345   0.490   0.555  1.00  0.00     0.032 C 
HETATM   18  C11 UNL     1       4.365  -0.577   0.973  1.00  0.00     0.272 C 
ENDBRANCH  13  14
ENDBRANCH  12  13
ENDBRANCH  11  12
ENDBRANCH   1  11
TORSDOF 5
