REMARK  6 active torsions:
REMARK  status: ('A' for Active; 'I' for Inactive)
REMARK    1  A    between atoms: S1_2  and  C2_4 
REMARK    2  A    between atoms: C2_4  and  C3_5 
REMARK    3  A    between atoms: C3_5  and  C4_6 
REMARK    4  A    between atoms: C4_6  and  C5_7 
REMARK    5  A    between atoms: C8_10  and  C9_11 
REMARK    6  A    between atoms: C9_11  and  N1_12 
ROOT
HETATM    1  C5  UNL     1      -0.516  -0.758   0.427  1.00  0.00     0.186 C 
HETATM    2  C6  UNL     1      -0.451  -0.630  -1.072  1.00  0.00     0.035 C 
HETATM    3  C7  UNL     1      -1.590   0.320  -1.386  1.00  0.00     0.037 C 
HETATM    4  C8  UNL     1      -2.538  -0.021  -0.264  1.00  0.00     0.211 C 
HETATM    5  N2  UNL     1      -1.629   0.056   0.870  1.00  0.00    -0.065 N 
ATOM      6  H21 UNL     1      -1.382   1.002   1.160  1.00  0.00     0.278 HD
ATOM      7  H22 UNL     1      -2.033  -0.218   1.765  1.00  0.00     0.278 HD
ENDROOT
BRANCH   1   8
HETATM    8  C4  UNL     1       0.796  -0.366   1.017  1.00  0.00     0.034 C 
BRANCH   8   9
HETATM    9  C3  UNL     1       1.888  -1.269   0.506  1.00  0.00     0.014 C 
BRANCH   9  10
HETATM   10  C2  UNL     1       3.250  -0.958   1.059  1.00  0.00     0.108 C 
BRANCH  10  11
HETATM   11  S1  UNL     1       3.793   0.669   0.683  1.00  0.00     0.010 S 
HETATM   12  C1  UNL     1       3.907   1.015  -1.032  1.00  0.00     0.127 C 
HETATM   13  O1  UNL     1       2.971   1.875   1.467  1.00  0.00    -0.258 OA
ENDBRANCH  10  11
ENDBRANCH   9  10
ENDBRANCH   8   9
ENDBRANCH   1   8
BRANCH   4  14
HETATM   14  C9  UNL     1      -3.684   0.944  -0.135  1.00  0.00     0.262 C 
BRANCH  14  15
HETATM   15  N1  UNL     1      -4.493   0.465   0.991  1.00  0.00    -0.077 N 
ATOM     16  H13 UNL     1      -4.788  -0.507   0.895  1.00  0.00     0.274 HD
ATOM     17  H12 UNL     1      -3.961   0.348   1.853  1.00  0.00     0.274 HD
ATOM     18  H11 UNL     1      -5.270   1.120   1.079  1.00  0.00     0.274 HD
ENDBRANCH  14  15
ENDBRANCH   4  14
TORSDOF 6
