REMARK  2 active torsions:
REMARK  status: ('A' for Active; 'I' for Inactive)
REMARK    1  A    between atoms: C1_2  and  C2_3 
REMARK    2  A    between atoms: C2_3  and  N1_4 
ROOT
HETATM    1  N1  UNL     1       1.560  -0.839   0.522  1.00  0.00    -0.369 N 
ATOM      2  H1  UNL     1       1.270  -1.795   0.316  1.00  0.00     0.161 HD
HETATM    3  C3  UNL     1       0.747   0.074   0.183  1.00  0.00     0.115 A 
HETATM    4  N2  UNL     1       0.978   1.464   0.388  1.00  0.00    -0.306 N 
ATOM      5  H2  UNL     1       1.848   1.754   0.834  1.00  0.00     0.170 HD
HETATM    6  C4  UNL     1       0.053   2.457  -0.001  1.00  0.00     0.298 A 
HETATM    7  O2  UNL     1       0.285   3.674   0.193  1.00  0.00    -0.264 OA
HETATM    8  C5  UNL     1      -1.197   2.031  -0.644  1.00  0.00     0.250 A 
HETATM    9  O3  UNL     1      -2.044   2.904  -1.003  1.00  0.00    -0.281 OA
HETATM   10  C6  UNL     1      -1.454   0.620  -0.863  1.00  0.00     0.034 A 
HETATM   11  C7  UNL     1      -2.636   0.258  -1.468  1.00  0.00     0.017 A 
HETATM   12  C8  UNL     1      -2.883  -1.080  -1.677  1.00  0.00     0.001 A 
HETATM   13  C9  UNL     1      -1.968  -2.062  -1.292  1.00  0.00     0.001 A 
HETATM   14  C10 UNL     1      -0.803  -1.633  -0.691  1.00  0.00     0.016 A 
HETATM   15  C11 UNL     1      -0.510  -0.306  -0.460  1.00  0.00     0.022 A 
ENDROOT
BRANCH   1  16
HETATM   16  C2  UNL     1       2.821  -0.695   1.151  1.00  0.00     0.190 C 
BRANCH  16  17
HETATM   17  C1  UNL     1       2.648  -0.402   2.590  1.00  0.00     0.250 C 
HETATM   18  O1  UNL     1       1.521  -0.323   3.040  1.00  0.00    -0.305 OA
ENDBRANCH  16  17
ENDBRANCH   1  16
TORSDOF 2
