REMARK  2 active torsions:
REMARK  status: ('A' for Active; 'I' for Inactive)
REMARK    1  A    between atoms: N2_5  and  C4_6 
REMARK    2  A    between atoms: C4_6  and  C5_7 
ROOT
HETATM    1  N1  UNL     1      -4.117  -3.195   0.014  1.00  0.00    -0.190 NA
HETATM    2  C1  UNL     1      -3.573  -2.177   0.084  1.00  0.00     0.119 C 
HETATM    3  C2  UNL     1      -2.880  -0.910   0.152  1.00  0.00     0.132 A 
HETATM    4  C3  UNL     1      -1.661  -0.712  -0.454  1.00  0.00     0.136 A 
HETATM    5  N2  UNL     1      -1.001   0.481  -0.395  1.00  0.00    -0.313 N 
HETATM    6  C11 UNL     1      -1.613   1.456   0.294  1.00  0.00     0.316 A 
HETATM    7  O1  UNL     1      -1.027   2.568   0.366  1.00  0.00    -0.262 OA
HETATM    8  C12 UNL     1      -2.846   1.269   0.912  1.00  0.00     0.315 A 
HETATM    9  O2  UNL     1      -3.362   2.224   1.540  1.00  0.00    -0.262 OA
HETATM   10  N3  UNL     1      -3.476   0.083   0.838  1.00  0.00    -0.309 N 
ATOM     11  H3  UNL     1      -4.380  -0.060   1.289  1.00  0.00     0.170 HD
ENDROOT
BRANCH   5  12
HETATM   12  C4  UNL     1       0.271   0.615  -1.049  1.00  0.00     0.170 C 
BRANCH  12  13
HETATM   13  C5  UNL     1       1.438   0.267  -0.240  1.00  0.00    -0.040 A 
HETATM   14  C6  UNL     1       1.903  -1.045  -0.177  1.00  0.00     0.009 A 
HETATM   15  C7  UNL     1       2.986  -1.418   0.558  1.00  0.00     0.001 A 
HETATM   16  C8  UNL     1       3.678  -0.483   1.284  1.00  0.00     0.000 A 
HETATM   17  C9  UNL     1       3.258   0.825   1.253  1.00  0.00     0.001 A 
HETATM   18  C10 UNL     1       2.140   1.198   0.492  1.00  0.00     0.009 A 
ENDBRANCH  12  13
ENDBRANCH   5  12
TORSDOF 2
