REMARK  10 active torsions:
REMARK  status: ('A' for Active; 'I' for Inactive)
REMARK    1  A    between atoms: C5_7  and  N2_8 
REMARK       I    between atoms: N2_8  and  C6_10 
REMARK       I    between atoms: C6_10  and  N3_11 
REMARK    2  A    between atoms: C7_13  and  C8_14 
REMARK    3  A    between atoms: C7_13  and  N9_32 
REMARK    4  A    between atoms: C8_14  and  C9_15 
REMARK    5  A    between atoms: C9_15  and  C10_16 
REMARK    6  A    between atoms: C10_16  and  S1_17 
REMARK    7  A    between atoms: S1_17  and  N4_18 
REMARK    8  A    between atoms: S1_17  and  N5_22 
REMARK    9  A    between atoms: N5_22  and  C11_24 
REMARK   10  A    between atoms: C11_24  and  C12_25 
REMARK       I    between atoms: C12_25  and  N6_27 
ROOT
HETATM    1  C1  UNL     1      -9.671  -0.269  -2.316  1.00  0.00     0.019 C 
HETATM    2  C2  UNL     1      -8.624  -0.573  -1.799  1.00  0.00    -0.058 C 
HETATM    3  C3  UNL     1      -7.380  -0.948  -1.192  1.00  0.00     0.118 A 
HETATM    4  C4  UNL     1      -7.276  -1.379   0.109  1.00  0.00     0.145 A 
HETATM    5  N1  UNL     1      -5.975  -1.653   0.372  1.00  0.00    -0.198 N 
ATOM      6  H1  UNL     1      -5.592  -1.991   1.255  1.00  0.00     0.183 HD
HETATM    7  C5  UNL     1      -5.291  -1.396  -0.743  1.00  0.00     0.697 A 
HETATM    8  N14 UNL     1      -6.139  -0.969  -1.695  1.00  0.00    -0.182 N 
ATOM      9  H14 UNL     1      -5.879  -0.704  -2.645  1.00  0.00     0.185 HD
ENDROOT
BRANCH   7  10
HETATM   10  N2  UNL     1      -4.030  -1.530  -0.905  1.00  0.00    -0.021 N 
HETATM   11  C6  UNL     1      -3.123  -1.978   0.082  1.00  0.00     0.707 C 
HETATM   12  N3  UNL     1      -1.957  -1.255   0.360  1.00  0.00    -0.179 N 
HETATM   13  N12 UNL     1      -3.396  -3.078   0.718  1.00  0.00    -0.125 N 
HETATM   14  C7  UNL     1      -1.797   0.013   0.314  1.00  0.00     0.099 C 
ATOM     15  H3  UNL     1      -1.140  -1.803   0.631  1.00  0.00     0.185 HD
HETATM   16  C15 UNL     1      -2.542  -3.583   1.710  1.00  0.00     0.196 C 
ATOM     17  H12 UNL     1      -4.251  -3.586   0.491  1.00  0.00     0.197 HD
HETATM   18  N13 UNL     1      -1.821  -4.010   2.518  1.00  0.00    -0.171 NA
ATOM     19  H2  UNL     1      -3.647  -1.295  -1.821  1.00  0.00     0.203 HD
BRANCH  14  20
HETATM   20  C8  UNL     1      -0.488   0.634   0.640  1.00  0.00     0.078 C 
BRANCH  20  21
HETATM   21  C9  UNL     1       0.462  -0.454   1.001  1.00  0.00     0.023 C 
BRANCH  21  22
HETATM   22  C10 UNL     1       1.857   0.009   1.361  1.00  0.00     0.139 C 
BRANCH  22  23
HETATM   23  S1  UNL     1       2.759   0.866   0.015  1.00  0.00     0.100 S 
HETATM   24  O1  UNL     1       1.719   1.088  -1.692  1.00  0.00    -0.229 OA
BRANCH  23  25
HETATM   25  N4  UNL     1       2.084   2.515   0.330  1.00  0.00    -0.345 N 
ATOM     26  H42 UNL     1       1.420   2.845   1.031  1.00  0.00     0.167 HD
ATOM     27  H41 UNL     1       2.586   2.992  -0.419  1.00  0.00     0.167 HD
ENDBRANCH  23  25
BRANCH  23  28
HETATM   28  N5  UNL     1       4.454   1.363  -0.049  1.00  0.00    -0.328 N 
ATOM     29  H5  UNL     1       4.666   2.334  -0.278  1.00  0.00     0.171 HD
BRANCH  28  30
HETATM   30  C11 UNL     1       5.545   0.470   0.204  1.00  0.00     0.233 C 
BRANCH  30  31
HETATM   31  C12 UNL     1       6.851   1.137   0.085  1.00  0.00     0.241 C 
HETATM   32  O2  UNL     1       6.944   2.352  -0.209  1.00  0.00    -0.271 OA
HETATM   33  N6  UNL     1       8.044   0.408   0.302  1.00  0.00    -0.302 N 
HETATM   34  C13 UNL     1       8.447  -0.557  -0.442  1.00  0.00     0.203 C 
ATOM     35  H6  UNL     1       8.622   0.666   1.102  1.00  0.00     0.171 HD
HETATM   36  N7  UNL     1       9.678  -1.188  -0.079  1.00  0.00    -0.066 NA
HETATM   37  N8  UNL     1       7.744  -1.018  -1.584  1.00  0.00    -0.066 NA
ENDBRANCH  30  31
ENDBRANCH  28  30
ENDBRANCH  23  28
ENDBRANCH  22  23
ENDBRANCH  21  22
ENDBRANCH  20  21
ENDBRANCH  14  20
BRANCH  14  38
HETATM   38  N9  UNL     1      -2.870   0.845  -0.051  1.00  0.00    -0.322 N 
HETATM   39  C14 UNL     1      -3.448   1.718   0.677  1.00  0.00     0.202 C 
HETATM   40  N10 UNL     1      -4.521   2.465   0.123  1.00  0.00    -0.066 NA
HETATM   41  N11 UNL     1      -3.031   1.938   2.011  1.00  0.00    -0.066 NA
ATOM     42  H9  UNL     1      -3.225   0.739  -1.001  1.00  0.00     0.169 HD
ENDBRANCH  14  38
ENDBRANCH   7  10
TORSDOF 10
