REMARK  11 active torsions:
REMARK  status: ('A' for Active; 'I' for Inactive)
REMARK    1  A    between atoms: C6_9  and  C7_10 
REMARK    2  A    between atoms: C7_10  and  C12_16 
REMARK    3  A    between atoms: C8_11  and  N2_12 
REMARK    4  A    between atoms: C12_16  and  C13_17 
REMARK    5  A    between atoms: C12_16  and  N4_22 
REMARK    6  A    between atoms: C13_17  and  S1_18 
REMARK    7  A    between atoms: S1_18  and  N3_19 
REMARK       I    between atoms: C14_24  and  N6_26 
REMARK    8  A    between atoms: N6_26  and  C15_28 
REMARK    9  A    between atoms: C15_28  and  C16_29 
REMARK   10  A    between atoms: C17_30  and  C18_31 
REMARK   11  A    between atoms: C18_31  and  N7_32 
REMARK       I    between atoms: N7_32  and  C19_34 
ROOT
HETATM    1  C12 UNL     1      -1.484  -0.078  -1.036  1.00  0.00     0.130 C 
ENDROOT
BRANCH   1   2
HETATM    2  C7  UNL     1      -2.290  -0.085   0.261  1.00  0.00     0.004 C 
HETATM    3  C8  UNL     1      -1.836   0.889   1.217  1.00  0.00     0.211 C 
BRANCH   2   4
HETATM    4  C6  UNL     1      -3.262  -0.972   0.281  1.00  0.00     0.038 A 
HETATM    5  C5  UNL     1      -3.479  -1.820  -0.828  1.00  0.00     0.209 A 
HETATM    6  C3  UNL     1      -4.482  -2.772  -0.843  1.00  0.00     0.074 A 
HETATM    7  O1  UNL     1      -2.832  -1.820  -1.881  1.00  0.00    -0.285 OA
HETATM    8  N1  UNL     1      -5.297  -2.955   0.166  1.00  0.00    -0.354 N 
HETATM    9  C4  UNL     1      -4.632  -3.547  -1.936  1.00  0.00     0.047 C 
HETATM   10  C2  UNL     1      -5.164  -2.196   1.259  1.00  0.00     0.033 A 
ATOM     11  H1  UNL     1      -6.025  -3.668   0.119  1.00  0.00     0.166 HD
HETATM   12  C1  UNL     1      -6.008  -2.432   2.247  1.00  0.00     0.044 C 
HETATM   13  C20 UNL     1      -4.160  -1.217   1.313  1.00  0.00    -0.005 A 
HETATM   14  C21 UNL     1      -4.169  -0.532   2.406  1.00  0.00     0.026 C 
ENDBRANCH   2   4
BRANCH   3  15
HETATM   15  N2  UNL     1      -2.083   2.270   1.197  1.00  0.00    -0.058 N 
HETATM   16  C9  UNL     1      -3.298   2.745   0.626  1.00  0.00     0.277 C 
HETATM   17  C10 UNL     1      -0.949   3.121   0.804  1.00  0.00     0.277 C 
HETATM   18  C11 UNL     1      -2.207   2.714   2.642  1.00  0.00     0.277 C 
ENDBRANCH   3  15
ENDBRANCH   1   2
BRANCH   1  19
HETATM   19  C13 UNL     1      -1.864   0.916  -2.045  1.00  0.00     0.127 C 
BRANCH  19  20
HETATM   20  S1  UNL     1      -0.778   0.676  -3.535  1.00  0.00    -0.060 SA
BRANCH  20  21
HETATM   21  N3  UNL     1       0.875   1.073  -3.176  1.00  0.00    -0.374 N 
ATOM     22  H32 UNL     1       1.193   1.395  -2.262  1.00  0.00     0.164 HD
ATOM     23  H31 UNL     1       1.471   0.941  -3.993  1.00  0.00     0.164 HD
ENDBRANCH  20  21
ENDBRANCH  19  20
ENDBRANCH   1  19
BRANCH   1  24
HETATM   24  N4  UNL     1      -0.049   0.304  -0.649  1.00  0.00    -0.355 N 
HETATM   25  C14 UNL     1       0.798  -0.660  -0.423  1.00  0.00     0.185 C 
HETATM   26  N5  UNL     1       0.440  -2.034  -0.524  1.00  0.00    -0.064 NA
HETATM   27  N6  UNL     1       2.136  -0.378  -0.050  1.00  0.00    -0.354 N 
ATOM     28  H6  UNL     1       2.339   0.234   0.741  1.00  0.00     0.163 HD
ATOM     29  H4  UNL     1       0.233   1.281  -0.571  1.00  0.00     0.162 HD
BRANCH  27  30
HETATM   30  C15 UNL     1       3.198  -0.971  -0.808  1.00  0.00     0.216 C 
BRANCH  30  31
HETATM   31  C16 UNL     1       4.518  -0.599  -0.303  1.00  0.00    -0.085 C 
HETATM   32  C17 UNL     1       5.604  -0.305   0.131  1.00  0.00    -0.085 C 
BRANCH  32  33
HETATM   33  C18 UNL     1       6.916   0.038   0.681  1.00  0.00     0.216 C 
BRANCH  33  34
HETATM   34  N7  UNL     1       7.977  -0.159  -0.297  1.00  0.00    -0.354 N 
HETATM   35  C19 UNL     1       9.291   0.137   0.120  1.00  0.00     0.182 C 
HETATM   36  N8  UNL     1       9.890  -0.643   0.934  1.00  0.00    -0.374 N 
HETATM   37  N9  UNL     1       9.945   1.291  -0.358  1.00  0.00    -0.064 NA
ATOM     38  H82 UNL     1       9.417  -1.478   1.280  1.00  0.00     0.158 HD
ATOM     39  H81 UNL     1      10.841  -0.429   1.236  1.00  0.00     0.158 HD
ATOM     40  H7  UNL     1       7.779  -0.495  -1.239  1.00  0.00     0.163 HD
ENDBRANCH  33  34
ENDBRANCH  32  33
ENDBRANCH  30  31
ENDBRANCH  27  30
ENDBRANCH   1  24
TORSDOF 11
