REMARK  14 active torsions:
REMARK  status: ('A' for Active; 'I' for Inactive)
REMARK    1  A    between atoms: N1_1  and  O1_4 
REMARK    2  A    between atoms: O1_4  and  C1_5 
REMARK    3  A    between atoms: C1_5  and  C2_6 
REMARK    4  A    between atoms: C2_6  and  C3_7 
REMARK    5  A    between atoms: C3_7  and  N2_8 
REMARK    6  A    between atoms: C3_7  and  C4_12 
REMARK    7  A    between atoms: C4_12  and  N3_13 
REMARK    8  A    between atoms: C4_12  and  C6_17 
REMARK       I    between atoms: N3_13  and  C5_14 
REMARK    9  A    between atoms: C6_17  and  C7_18 
REMARK   10  A    between atoms: C6_17  and  C14_25 
REMARK   11  A    between atoms: C7_18  and  C8_19 
REMARK   12  A    between atoms: C14_25  and  O3_27 
REMARK   13  A    between atoms: O3_27  and  C15_28 
REMARK   14  A    between atoms: C15_28  and  C16_29 
ROOT
HETATM    1  C6  UNL     1      -0.261  -0.527  -0.578  1.00  0.00     0.147 C 
ENDROOT
BRANCH   1   2
HETATM    2  C4  UNL     1      -1.274   0.550  -0.546  1.00  0.00     0.213 C 
BRANCH   2   3
HETATM    3  C3  UNL     1      -0.974   1.588   0.571  1.00  0.00     0.222 C 
BRANCH   3   4
HETATM    4  C2  UNL     1      -1.917   2.748   0.465  1.00  0.00     0.065 C 
BRANCH   4   5
HETATM    5  C1  UNL     1      -1.764   3.602   1.697  1.00  0.00     0.202 C 
BRANCH   5   6
HETATM    6  O1  UNL     1      -0.498   4.101   1.844  1.00  0.00    -0.287 OA
BRANCH   6   7
HETATM    7  N1  UNL     1      -0.498   4.850   2.995  1.00  0.00    -0.311 N 
ATOM      8  H12 UNL     1      -1.297   4.997   3.612  1.00  0.00     0.184 HD
ATOM      9  H11 UNL     1       0.445   5.222   3.105  1.00  0.00     0.184 HD
ENDBRANCH   6   7
ENDBRANCH   5   6
ENDBRANCH   4   5
ENDBRANCH   3   4
BRANCH   3  10
HETATM   10  N2  UNL     1       0.340   2.044   0.648  1.00  0.00    -0.072 N 
ATOM     11  H23 UNL     1       0.577   2.658  -0.131  1.00  0.00     0.274 HD
ATOM     12  H22 UNL     1       0.468   2.711   1.409  1.00  0.00     0.274 HD
ATOM     13  H21 UNL     1       0.982   1.255   0.720  1.00  0.00     0.274 HD
ENDBRANCH   3  10
ENDBRANCH   2   3
BRANCH   2  14
HETATM   14  N3  UNL     1      -2.582   0.121  -0.398  1.00  0.00    -0.412 NA
HETATM   15  C5  UNL     1      -3.590  -0.300  -0.007  1.00  0.00     0.270 C 
HETATM   16  N4  UNL     1      -4.759  -0.356  -0.876  1.00  0.00    -0.053 NA
HETATM   17  N5  UNL     1      -3.847  -0.799   1.305  1.00  0.00    -0.053 NA
ENDBRANCH   2  14
ENDBRANCH   1   2
BRANCH   1  18
HETATM   18  C7  UNL     1      -0.348  -1.643  -1.534  1.00  0.00     0.002 C 
BRANCH  18  19
HETATM   19  C8  UNL     1      -1.455  -2.550  -1.628  1.00  0.00    -0.039 A 
HETATM   20  C9  UNL     1      -1.650  -3.566  -0.733  1.00  0.00     0.011 A 
HETATM   21  C10 UNL     1      -2.636  -4.517  -0.824  1.00  0.00     0.001 A 
HETATM   22  C11 UNL     1      -3.517  -4.469  -1.897  1.00  0.00     0.000 A 
HETATM   23  C12 UNL     1      -3.351  -3.461  -2.816  1.00  0.00     0.001 A 
HETATM   24  C13 UNL     1      -2.360  -2.516  -2.714  1.00  0.00     0.011 A 
ENDBRANCH  18  19
ENDBRANCH   1  18
BRANCH   1  25
HETATM   25  C14 UNL     1       1.062   0.187  -1.000  1.00  0.00     0.270 C 
HETATM   26  O2  UNL     1       0.935   0.973  -1.956  1.00  0.00    -0.264 OA
BRANCH  25  27
HETATM   27  O3  UNL     1       2.243  -0.046  -0.377  1.00  0.00    -0.316 OA
BRANCH  27  28
HETATM   28  C15 UNL     1       3.454   0.604  -0.787  1.00  0.00     0.217 C 
BRANCH  28  29
HETATM   29  C16 UNL     1       4.595   0.190   0.044  1.00  0.00    -0.034 A 
HETATM   30  C17 UNL     1       5.383  -0.909  -0.249  1.00  0.00     0.009 A 
HETATM   31  C18 UNL     1       6.449  -1.287   0.536  1.00  0.00     0.001 A 
HETATM   32  C19 UNL     1       6.779  -0.572   1.666  1.00  0.00     0.000 A 
HETATM   33  C20 UNL     1       6.001   0.526   1.969  1.00  0.00     0.001 A 
HETATM   34  C21 UNL     1       4.938   0.906   1.189  1.00  0.00     0.009 A 
ENDBRANCH  28  29
ENDBRANCH  27  28
ENDBRANCH  25  27
ENDBRANCH   1  25
TORSDOF 14
