REMARK  3 active torsions:
REMARK  status: ('A' for Active; 'I' for Inactive)
REMARK    1  A    between atoms: N1_1  and  S1_4 
REMARK    2  A    between atoms: S1_4  and  N2_6 
REMARK    3  A    between atoms: S1_4  and  C2_11 
REMARK       I    between atoms: N2_6  and  C1_8 
ROOT
HETATM    1  S1  UNL     1       0.079  -1.250   0.230  1.00  0.00     0.175 S 
HETATM    2  O1  UNL     1      -0.217  -1.431   1.710  1.00  0.00    -0.220 OA
ENDROOT
BRANCH   1   3
HETATM    3  N1  UNL     1       0.420  -2.617  -0.401  1.00  0.00    -0.338 N 
ATOM      4  H12 UNL     1       0.440  -3.499   0.111  1.00  0.00     0.167 HD
ATOM      5  H11 UNL     1       0.619  -2.496  -1.394  1.00  0.00     0.167 HD
ENDBRANCH   1   3
BRANCH   1   6
HETATM    6  N2  UNL     1      -1.353  -0.577  -0.463  1.00  0.00    -0.249 N 
HETATM    7  C1  UNL     1      -1.870   0.634   0.046  1.00  0.00     0.341 C 
HETATM    8  N3  UNL     1      -3.045   1.240  -0.480  1.00  0.00    -0.039 NA
HETATM    9  O2  UNL     1      -1.300   1.227   0.997  1.00  0.00    -0.250 OA
ATOM     10  H2  UNL     1      -1.822  -1.051  -1.235  1.00  0.00     0.181 HD
ENDBRANCH   1   6
BRANCH   1  11
HETATM   11  C2  UNL     1       1.401  -0.130   0.068  1.00  0.00     0.228 A 
HETATM   12  N4  UNL     1       1.763   0.835   0.951  1.00  0.00    -0.261 N 
HETATM   13  N5  UNL     1       2.826   1.480   0.461  1.00  0.00    -0.007 NA
ATOM     14  H4  UNL     1       1.302   1.034   1.839  1.00  0.00     0.186 HD
HETATM   15  N6  UNL     1       3.149   0.952  -0.708  1.00  0.00    -0.007 NA
HETATM   16  N7  UNL     1       2.293  -0.025  -0.957  1.00  0.00    -0.261 N 
ATOM     17  H7  UNL     1       2.299  -0.612  -1.791  1.00  0.00     0.186 HD
ENDBRANCH   1  11
TORSDOF 3
