REMARK  2 active torsions:
REMARK  status: ('A' for Active; 'I' for Inactive)
REMARK    1  A    between atoms: C1_2  and  C2_4 
REMARK    2  A    between atoms: N2_5  and  C3_7 
ROOT
HETATM    1  C3  UNL     1      -0.272   0.471   0.314  1.00  0.00     0.142 A 
HETATM    2  C4  UNL     1      -1.308  -0.443   0.364  1.00  0.00     0.152 A 
HETATM    3  N3  UNL     1      -1.013  -1.816   0.195  1.00  0.00    -0.080 NA
HETATM    4  N4  UNL     1      -2.590  -0.036   0.571  1.00  0.00    -0.295 N 
ATOM      5  H4  UNL     1      -3.356  -0.709   0.608  1.00  0.00     0.172 HD
HETATM    6  C5  UNL     1      -2.816   1.283   0.725  1.00  0.00     0.328 A 
HETATM    7  O2  UNL     1      -4.018   1.671   0.920  1.00  0.00    -0.247 OA
HETATM    8  N5  UNL     1      -1.846   2.206   0.685  1.00  0.00    -0.273 N 
ATOM      9  H5  UNL     1      -2.069   3.194   0.807  1.00  0.00     0.173 HD
HETATM   10  C6  UNL     1      -0.570   1.814   0.481  1.00  0.00     0.279 A 
HETATM   11  O3  UNL     1       0.380   2.630   0.433  1.00  0.00    -0.265 OA
ENDROOT
BRANCH   1  12
HETATM   12  N2  UNL     1       1.078   0.082   0.100  1.00  0.00    -0.354 N 
HETATM   13  C2  UNL     1       1.427  -0.549  -0.978  1.00  0.00     0.159 C 
ATOM     14  H2  UNL     1       1.782   0.302   0.804  1.00  0.00     0.165 HD
BRANCH  13  15
HETATM   15  C1  UNL     1       2.793  -0.960  -1.229  1.00  0.00     0.270 C 
HETATM   16  N1  UNL     1       3.841  -0.690  -0.293  1.00  0.00    -0.057 NA
HETATM   17  O1  UNL     1       3.067  -1.567  -2.290  1.00  0.00    -0.270 OA
ENDBRANCH  13  15
ENDBRANCH   1  12
TORSDOF 2
