REMARK  3 active torsions:
REMARK  status: ('A' for Active; 'I' for Inactive)
REMARK    1  A    between atoms: C2_7  and  C3_8 
REMARK    2  A    between atoms: C3_8  and  C4_9 
REMARK    3  A    between atoms: C4_9  and  N3_10 
ROOT
HETATM    1  N1  UNL     1      -1.570  -2.271   0.417  1.00  0.00    -0.233 N 
ATOM      2  H11 UNL     1      -2.520  -2.517   0.139  1.00  0.00     0.174 HD
ATOM      3  H12 UNL     1      -0.952  -2.966   0.836  1.00  0.00     0.174 HD
HETATM    4  C1  UNL     1      -1.152  -1.084   0.240  1.00  0.00     0.702 A 
HETATM    5  N2  UNL     1       0.121  -0.754   0.613  1.00  0.00    -0.179 N 
ATOM      6  H2  UNL     1       0.716  -1.470   1.029  1.00  0.00     0.185 HD
HETATM    7  C2  UNL     1       0.611   0.487   0.447  1.00  0.00     0.115 A 
HETATM    8  N4  UNL     1      -0.216   1.391  -0.106  1.00  0.00    -0.177 N 
ATOM      9  H4  UNL     1       0.116   2.345  -0.249  1.00  0.00     0.185 HD
HETATM   10  C5  UNL     1      -1.483   1.070  -0.480  1.00  0.00     0.723 A 
HETATM   11  N5  UNL     1      -2.474   1.788  -1.041  1.00  0.00    -0.127 N 
ATOM     12  H5  UNL     1      -2.396   2.775  -1.287  1.00  0.00     0.205 HD
HETATM   13  N6  UNL     1      -3.539   1.074  -1.231  1.00  0.00    -0.236 N 
ATOM     14  H6  UNL     1      -4.422   1.382  -1.638  1.00  0.00     0.192 HD
HETATM   15  C6  UNL     1      -3.237  -0.168  -0.776  1.00  0.00     0.377 A 
HETATM   16  O1  UNL     1      -4.022  -1.137  -0.793  1.00  0.00    -0.243 OA
HETATM   17  N7  UNL     1      -1.966  -0.168  -0.312  1.00  0.00     0.079 N 
ENDROOT
BRANCH   7  18
HETATM   18  C3  UNL     1       2.001   0.808   0.865  1.00  0.00     0.104 C 
BRANCH  18  19
HETATM   19  C4  UNL     1       3.006   0.584  -0.228  1.00  0.00     0.237 C 
BRANCH  19  20
HETATM   20  N3  UNL     1       3.085  -0.733  -0.722  1.00  0.00    -0.079 N 
ATOM     21  H33 UNL     1       3.254  -1.383   0.045  1.00  0.00     0.274 HD
ATOM     22  H32 UNL     1       2.163  -1.047  -1.026  1.00  0.00     0.274 HD
ATOM     23  H31 UNL     1       3.768  -0.885  -1.464  1.00  0.00     0.274 HD
ENDBRANCH  19  20
ENDBRANCH  18  19
ENDBRANCH   7  18
TORSDOF 3
