REMARK  19 active torsions:
REMARK  status: ('A' for Active; 'I' for Inactive)
REMARK    1  A    between atoms: C3_3  and  O1_4 
REMARK    2  A    between atoms: C4_7  and  C5_8 
REMARK    3  A    between atoms: C5_8  and  S1_9 
REMARK    4  A    between atoms: S1_9  and  C6_10 
REMARK    5  A    between atoms: C6_10  and  C7_11 
REMARK    6  A    between atoms: C7_11  and  C8_12 
REMARK    7  A    between atoms: C8_12  and  O3_13 
REMARK    8  A    between atoms: C8_12  and  C9_15 
REMARK    9  A    between atoms: C10_17  and  C11_18 
REMARK   10  A    between atoms: C11_18  and  O5_19 
REMARK   11  A    between atoms: C12_21  and  O6_22 
REMARK   12  A    between atoms: C13_24  and  O7_25 
REMARK   13  A    between atoms: C14_27  and  O8_28 
REMARK   14  A    between atoms: C15_30  and  O9_31 
REMARK   15  A    between atoms: C16_34  and  C17_35 
REMARK   16  A    between atoms: C17_35  and  O11_36 
REMARK   17  A    between atoms: C18_38  and  O12_39 
REMARK   18  A    between atoms: C19_41  and  O13_42 
REMARK   19  A    between atoms: C20_44  and  O14_45 
ROOT
HETATM    1  C1  UNL     1      -4.226  -2.236   1.097  1.00  0.00     0.029 C 
HETATM    2  C2  UNL     1      -4.217  -1.006   0.174  1.00  0.00     0.093 C 
HETATM    3  C3  UNL     1      -4.141  -1.595  -1.224  1.00  0.00     0.273 C 
HETATM    4  O2  UNL     1      -2.829  -2.056  -1.258  1.00  0.00    -0.349 OA
HETATM    5  C4  UNL     1      -2.038  -1.152  -0.601  1.00  0.00     0.197 C 
HETATM    6  C15 UNL     1      -2.921  -0.349   0.334  1.00  0.00     0.204 C 
HETATM    7  O10 UNL     1      -2.750   0.942   0.090  1.00  0.00    -0.342 OA
HETATM    8  C16 UNL     1      -3.691   1.737  -0.438  1.00  0.00     0.180 C 
HETATM    9  C18 UNL     1      -4.665   2.153   0.647  1.00  0.00     0.180 C 
HETATM   10  C19 UNL     1      -5.320   0.975   1.301  1.00  0.00     0.179 C 
HETATM   11  C20 UNL     1      -5.446  -0.230   0.420  1.00  0.00     0.168 C 
ENDROOT
BRANCH   5  12
HETATM   12  C5  UNL     1      -0.872  -1.794   0.117  1.00  0.00     0.111 C 
BRANCH  12  13
HETATM   13  S1  UNL     1       0.147  -2.641  -1.112  1.00  0.00    -0.166 SA
BRANCH  13  14
HETATM   14  C6  UNL     1       0.939  -1.442  -2.219  1.00  0.00     0.076 C 
BRANCH  14  15
HETATM   15  C7  UNL     1       1.954  -0.599  -1.478  1.00  0.00     0.044 C 
BRANCH  15  16
HETATM   16  C8  UNL     1       3.054  -1.434  -0.876  1.00  0.00     0.150 C 
BRANCH  16  17
HETATM   17  O3  UNL     1       2.595  -2.377   0.035  1.00  0.00    -0.393 OA
ATOM     18  H3  UNL     1       3.289  -2.904   0.415  1.00  0.00     0.210 HD
ENDBRANCH  16  17
BRANCH  16  19
HETATM   19  C9  UNL     1       4.004  -0.536  -0.139  1.00  0.00     0.182 C 
HETATM   20  O4  UNL     1       4.496   0.438  -0.997  1.00  0.00    -0.370 OA
HETATM   21  C10 UNL     1       5.077   1.497  -0.311  1.00  0.00     0.177 C 
HETATM   22  C12 UNL     1       5.779   1.082   0.938  1.00  0.00     0.180 C 
HETATM   23  C13 UNL     1       6.177  -0.361   0.963  1.00  0.00     0.180 C 
HETATM   24  C14 UNL     1       5.185  -1.313   0.396  1.00  0.00     0.180 C 
BRANCH  21  25
HETATM   25  C11 UNL     1       5.961   2.332  -1.196  1.00  0.00     0.198 C 
BRANCH  25  26
HETATM   26  O5  UNL     1       5.272   2.893  -2.260  1.00  0.00    -0.398 OA
ATOM     27  H5  UNL     1       5.830   3.420  -2.819  1.00  0.00     0.209 HD
ENDBRANCH  25  26
ENDBRANCH  21  25
BRANCH  22  28
HETATM   28  O6  UNL     1       5.071   1.448   2.106  1.00  0.00    -0.390 OA
ATOM     29  H6  UNL     1       5.518   1.184   2.901  1.00  0.00     0.210 HD
ENDBRANCH  22  28
BRANCH  23  30
HETATM   30  O7  UNL     1       6.389  -0.685   2.325  1.00  0.00    -0.390 OA
ATOM     31  H7  UNL     1       6.642  -1.601   2.341  1.00  0.00     0.210 HD
ENDBRANCH  23  30
BRANCH  24  32
HETATM   32  O8  UNL     1       5.783  -2.007  -0.669  1.00  0.00    -0.390 OA
ATOM     33  H8  UNL     1       6.525  -2.495  -0.333  1.00  0.00     0.210 HD
ENDBRANCH  24  32
ENDBRANCH  16  19
ENDBRANCH  15  16
ENDBRANCH  14  15
ENDBRANCH  13  14
ENDBRANCH  12  13
ENDBRANCH   5  12
BRANCH   6  34
HETATM   34  O9  UNL     1      -2.425  -0.622   1.634  1.00  0.00    -0.362 OA
ATOM     35  H9  UNL     1      -1.583  -0.195   1.738  1.00  0.00     0.213 HD
ENDBRANCH   6  34
BRANCH   3  36
HETATM   36  O1  UNL     1      -5.042  -2.651  -1.365  1.00  0.00    -0.370 OA
ATOM     37  H1  UNL     1      -4.994  -3.019  -2.239  1.00  0.00     0.212 HD
ENDBRANCH   3  36
BRANCH  11  38
HETATM   38  O14 UNL     1      -6.416  -1.049   1.001  1.00  0.00    -0.392 OA
ATOM     39  H14 UNL     1      -7.208  -0.549   1.160  1.00  0.00     0.210 HD
ENDBRANCH  11  38
BRANCH   8  40
HETATM   40  C17 UNL     1      -3.004   3.041  -0.882  1.00  0.00     0.198 C 
BRANCH  40  41
HETATM   41  O11 UNL     1      -2.020   2.776  -1.831  1.00  0.00    -0.398 OA
ATOM     42  H11 UNL     1      -1.596   3.581  -2.105  1.00  0.00     0.209 HD
ENDBRANCH  40  41
ENDBRANCH   8  40
BRANCH  10  43
HETATM   43  O13 UNL     1      -4.812   0.681   2.564  1.00  0.00    -0.390 OA
ATOM     44  H13 UNL     1      -5.227  -0.066   2.979  1.00  0.00     0.210 HD
ENDBRANCH  10  43
BRANCH   9  45
HETATM   45  O12 UNL     1      -4.086   2.933   1.613  1.00  0.00    -0.390 OA
ATOM     46  H12 UNL     1      -4.696   3.194   2.293  1.00  0.00     0.210 HD
ENDBRANCH   9  45
TORSDOF 19
