REMARK  18 active torsions:
REMARK  status: ('A' for Active; 'I' for Inactive)
REMARK    1  A    between atoms: O1_2  and  C2_3 
REMARK    2  A    between atoms: C3_4  and  S1_5 
REMARK    3  A    between atoms: C5_8  and  O3_9 
REMARK    4  A    between atoms: O3_9  and  C6_10 
REMARK    5  A    between atoms: C7_12  and  C8_13 
REMARK    6  A    between atoms: C8_13  and  O5_14 
REMARK    7  A    between atoms: C9_16  and  N1_17 
REMARK    8  A    between atoms: C10_21  and  O6_22 
REMARK    9  A    between atoms: O6_22  and  C11_23 
REMARK   10  A    between atoms: C12_25  and  O8_26 
REMARK   11  A    between atoms: C13_28  and  N2_29 
REMARK   12  A    between atoms: C14_33  and  O9_34 
REMARK   13  A    between atoms: C15_36  and  C16_37 
REMARK   14  A    between atoms: C16_37  and  N3_38 
REMARK   15  A    between atoms: N3_38  and  C17_40 
REMARK   16  A    between atoms: C17_40  and  N4_42 
REMARK   17  A    between atoms: N4_42  and  N5_44 
REMARK   18  A    between atoms: C18_47  and  O10_48 
ROOT
HETATM    1  C6  UNL     1       0.716   0.440   1.478  1.00  0.00     0.298 C 
HETATM    2  O4  UNL     1       0.836  -0.407   2.604  1.00  0.00    -0.347 OA
HETATM    3  C7  UNL     1      -0.167  -1.303   2.783  1.00  0.00     0.181 C 
HETATM    4  C9  UNL     1      -1.548  -0.738   2.680  1.00  0.00     0.247 C 
HETATM    5  C10 UNL     1      -1.753   0.044   1.392  1.00  0.00     0.193 C 
HETATM    6  C15 UNL     1      -0.619   1.061   1.411  1.00  0.00     0.021 C 
ENDROOT
BRANCH   5   7
HETATM    7  O6  UNL     1      -1.802  -0.754   0.290  1.00  0.00    -0.346 OA
BRANCH   7   8
HETATM    8  C11 UNL     1      -2.965  -0.752  -0.417  1.00  0.00     0.294 C 
HETATM    9  O7  UNL     1      -2.851  -0.425  -1.751  1.00  0.00    -0.327 OA
HETATM   10  C12 UNL     1      -4.177  -0.588  -2.176  1.00  0.00     0.293 C 
HETATM   11  C13 UNL     1      -4.499  -1.980  -1.679  1.00  0.00     0.271 C 
HETATM   12  C14 UNL     1      -3.676  -2.094  -0.416  1.00  0.00     0.208 C 
BRANCH  10  13
HETATM   13  O8  UNL     1      -4.936   0.381  -1.530  1.00  0.00    -0.369 OA
ATOM     14  H8  UNL     1      -5.835   0.271  -1.818  1.00  0.00     0.212 HD
ENDBRANCH  10  13
BRANCH  11  15
HETATM   15  N2  UNL     1      -5.916  -2.118  -1.402  1.00  0.00    -0.068 N 
ATOM     16  H23 UNL     1      -6.244  -1.402  -0.754  1.00  0.00     0.275 HD
ATOM     17  H22 UNL     1      -6.484  -1.867  -2.211  1.00  0.00     0.275 HD
ATOM     18  H21 UNL     1      -6.133  -3.057  -1.067  1.00  0.00     0.275 HD
ENDBRANCH  11  15
BRANCH  12  19
HETATM   19  O9  UNL     1      -2.803  -3.157  -0.599  1.00  0.00    -0.388 OA
ATOM     20  H9  UNL     1      -3.248  -3.996  -0.598  1.00  0.00     0.210 HD
ENDBRANCH  12  19
ENDBRANCH   7   8
ENDBRANCH   5   7
BRANCH   4  21
HETATM   21  N1  UNL     1      -2.569  -1.683   2.950  1.00  0.00    -0.070 N 
ATOM     22  H13 UNL     1      -2.469  -2.503   2.351  1.00  0.00     0.274 HD
ATOM     23  H12 UNL     1      -2.425  -2.119   3.861  1.00  0.00     0.274 HD
ATOM     24  H11 UNL     1      -3.511  -1.298   2.880  1.00  0.00     0.274 HD
ENDBRANCH   4  21
BRANCH   6  25
HETATM   25  C16 UNL     1      -0.804   2.223   0.522  1.00  0.00     0.101 C 
BRANCH  25  26
HETATM   26  N3  UNL     1      -0.587   2.087  -0.850  1.00  0.00    -0.342 N 
ATOM     27  H3  UNL     1      -0.306   1.173  -1.206  1.00  0.00     0.167 HD
BRANCH  26  28
HETATM   28  C17 UNL     1      -0.735   3.144  -1.768  1.00  0.00     0.190 C 
HETATM   29  S2  UNL     1      -0.452   2.895  -3.384  1.00  0.00    -0.039 SA
BRANCH  28  30
HETATM   30  N4  UNL     1      -1.115   4.441  -1.420  1.00  0.00    -0.283 N 
ATOM     31  H4  UNL     1      -1.182   5.110  -2.187  1.00  0.00     0.188 HD
BRANCH  30  32
HETATM   32  N5  UNL     1      -1.414   4.931  -0.148  1.00  0.00    -0.343 N 
ATOM     33  H52 UNL     1      -1.341   4.247   0.605  1.00  0.00     0.176 HD
ATOM     34  H51 UNL     1      -1.692   5.879   0.106  1.00  0.00     0.176 HD
ENDBRANCH  30  32
ENDBRANCH  28  30
ENDBRANCH  26  28
ENDBRANCH  25  26
ENDBRANCH   6  25
BRANCH   3  35
HETATM   35  C8  UNL     1       0.030  -2.600   2.026  1.00  0.00     0.198 C 
BRANCH  35  36
HETATM   36  O5  UNL     1      -1.010  -3.461   2.261  1.00  0.00    -0.398 OA
ATOM     37  H5  UNL     1      -0.886  -4.275   1.786  1.00  0.00     0.209 HD
ENDBRANCH  35  36
ENDBRANCH   3  35
BRANCH   1  38
HETATM   38  O3  UNL     1       1.188  -0.257   0.387  1.00  0.00    -0.325 OA
BRANCH  38  39
HETATM   39  C5  UNL     1       2.436   0.175   0.070  1.00  0.00     0.296 C 
HETATM   40  O2  UNL     1       3.415  -0.823   0.296  1.00  0.00    -0.340 OA
HETATM   41  C3  UNL     1       4.582  -0.109  -0.024  1.00  0.00     0.217 C 
HETATM   42  C2  UNL     1       4.263   0.717  -1.231  1.00  0.00     0.193 C 
HETATM   43  C18 UNL     1       2.744   0.514  -1.341  1.00  0.00     0.205 C 
BRANCH  41  44
HETATM   44  S1  UNL     1       5.991  -1.211  -0.286  1.00  0.00    -0.139 SA
HETATM   45  C4  UNL     1       6.300  -2.161   1.211  1.00  0.00     0.092 C 
ENDBRANCH  41  44
BRANCH  42  46
HETATM   46  O1  UNL     1       4.924   0.353  -2.371  1.00  0.00    -0.385 OA
HETATM   47  C1  UNL     1       5.572   1.510  -2.864  1.00  0.00     0.202 C 
ENDBRANCH  42  46
BRANCH  43  48
HETATM   48  O10 UNL     1       2.560  -0.537  -2.218  1.00  0.00    -0.388 OA
ATOM     49  H10 UNL     1       1.621  -0.663  -2.286  1.00  0.00     0.210 HD
ENDBRANCH  43  48
ENDBRANCH  38  39
ENDBRANCH   1  38
TORSDOF 18
