REMARK  5 active torsions:
REMARK  status: ('A' for Active; 'I' for Inactive)
REMARK    1  A    between atoms: C2_2  and  C5_5 
REMARK       I    between atoms: C5_5  and  N1_7 
REMARK    2  A    between atoms: N1_7  and  C6_9 
REMARK    3  A    between atoms: C6_9  and  C7_10 
REMARK    4  A    between atoms: C7_10  and  N2_11 
REMARK    5  A    between atoms: C8_15  and  C9_16 
ROOT
HETATM    1  C7  UNL     1      -1.488  -0.503  -0.241  1.00  0.00     0.159 A 
HETATM    2  C8  UNL     1      -2.381   0.412   0.529  1.00  0.00     0.123 A 
HETATM    3  C10 UNL     1      -2.717  -1.028   0.494  1.00  0.00     0.002 A 
HETATM    4  C11 UNL     1      -2.485  -1.846   1.745  1.00  0.00     0.018 C 
HETATM    5  C12 UNL     1      -3.783  -1.572  -0.409  1.00  0.00     0.018 C 
ENDROOT
BRANCH   1   6
HETATM    6  C6  UNL     1      -0.183  -0.982   0.335  1.00  0.00     0.163 C 
BRANCH   6   7
HETATM    7  N1  UNL     1       0.924  -0.122   0.029  1.00  0.00    -0.358 N 
HETATM    8  C5  UNL     1       2.200  -0.457   0.508  1.00  0.00     0.225 C 
HETATM    9  O1  UNL     1       2.407  -1.503   1.208  1.00  0.00    -0.273 OA
ATOM     10  H1  UNL     1       0.786   0.721  -0.529  1.00  0.00     0.162 HD
BRANCH   8  11
HETATM   11  C2  UNL     1       3.352   0.407   0.209  1.00  0.00     0.030 C 
HETATM   12  C1  UNL     1       4.621  -0.120   0.809  1.00  0.00     0.024 C 
HETATM   13  C3  UNL     1       3.091   1.855   0.642  1.00  0.00     0.024 C 
HETATM   14  C4  UNL     1       3.575   0.473  -1.308  1.00  0.00     0.024 C 
ENDBRANCH   8  11
ENDBRANCH   6   7
ENDBRANCH   1   6
BRANCH   1  15
HETATM   15  N2  UNL     1      -1.572  -0.364  -1.681  1.00  0.00    -0.067 N 
ATOM     16  H23 UNL     1      -0.817   0.240  -2.006  1.00  0.00     0.275 HD
ATOM     17  H22 UNL     1      -1.313  -1.247  -2.121  1.00  0.00     0.275 HD
ATOM     18  H21 UNL     1      -2.457  -0.039  -2.071  1.00  0.00     0.275 HD
ENDBRANCH   1  15
BRANCH   2  19
HETATM   19  C9  UNL     1      -3.213   1.405  -0.189  1.00  0.00     0.238 C 
HETATM   20  N3  UNL     1      -3.410   2.709   0.327  1.00  0.00    -0.062 NA
HETATM   21  O2  UNL     1      -3.748   1.081  -1.268  1.00  0.00    -0.276 OA
ENDBRANCH   2  19
TORSDOF 5
