REMARK  5 active torsions:
REMARK  status: ('A' for Active; 'I' for Inactive)
REMARK    1  A    between atoms: N1_2  and  C2_5 
REMARK    2  A    between atoms: C2_5  and  C3_6 
REMARK    3  A    between atoms: C3_6  and  C4_7 
REMARK    4  A    between atoms: C4_7  and  C5_8 
REMARK    5  A    between atoms: C5_8  and  N2_10 
REMARK       I    between atoms: N3_13  and  C8_14 
ROOT
HETATM    1  N2  UNL     1      -0.481  -1.002  -0.084  1.00  0.00    -0.372 N 
HETATM    2  C6  UNL     1      -0.646  -0.090   1.022  1.00  0.00     0.143 C 
HETATM    3  C7  UNL     1      -1.420   1.124   0.501  1.00  0.00     0.145 C 
HETATM    4  N3  UNL     1      -2.783   0.616   0.284  1.00  0.00    -0.353 N 
HETATM    5  C8  UNL     1      -3.923   1.366   0.636  1.00  0.00     0.184 C 
HETATM    6  N4  UNL     1      -4.165   2.490   0.081  1.00  0.00    -0.374 N 
ATOM      7  H41 UNL     1      -4.990   3.033   0.336  1.00  0.00     0.158 HD
ATOM      8  H42 UNL     1      -3.526   2.854  -0.626  1.00  0.00     0.158 HD
HETATM    9  N5  UNL     1      -4.805   0.864   1.612  1.00  0.00    -0.064 NA
HETATM   10  C9  UNL     1      -2.907  -0.694  -0.308  1.00  0.00     0.145 C 
HETATM   11  C10 UNL     1      -1.609  -1.057  -1.015  1.00  0.00     0.143 C 
ENDROOT
BRANCH   1  12
HETATM   12  C5  UNL     1       0.644  -1.803  -0.313  1.00  0.00     0.075 C 
HETATM   13  S1  UNL     1       0.606  -2.780  -1.637  1.00  0.00    -0.066 SA
BRANCH  12  14
HETATM   14  C4  UNL     1       1.846  -1.863   0.498  1.00  0.00     0.071 C 
BRANCH  14  15
HETATM   15  C3  UNL     1       2.831  -0.771   0.385  1.00  0.00     0.034 C 
BRANCH  15  16
HETATM   16  C2  UNL     1       3.409  -0.584  -0.997  1.00  0.00     0.232 C 
BRANCH  16  17
HETATM   17  N1  UNL     1       4.358   0.512  -0.980  1.00  0.00    -0.079 N 
HETATM   18  C1  UNL     1       3.729   1.793  -0.764  1.00  0.00     0.266 C 
ATOM     19  H12 UNL     1       4.922   0.520  -1.830  1.00  0.00     0.276 HD
ATOM     20  H11 UNL     1       5.095   0.347  -0.294  1.00  0.00     0.276 HD
ENDBRANCH  16  17
ENDBRANCH  15  16
ENDBRANCH  14  15
ENDBRANCH  12  14
ENDBRANCH   1  12
TORSDOF 5
