REMARK  5 active torsions:
REMARK  status: ('A' for Active; 'I' for Inactive)
REMARK    1  A    between atoms: C2_2  and  C3_3 
REMARK    2  A    between atoms: C3_3  and  C4_4 
REMARK    3  A    between atoms: C4_4  and  N2_10 
REMARK       I    between atoms: N1_5  and  C5_7 
REMARK    4  A    between atoms: N2_10  and  N3_12 
REMARK       I    between atoms: N3_12  and  C7_14 
REMARK       I    between atoms: C7_14  and  N4_16 
REMARK       I    between atoms: N4_16  and  C8_18 
REMARK    5  A    between atoms: C8_18  and  C9_20 
ROOT
HETATM    1  N2  UNL     1      -0.760  -0.539   1.033  1.00  0.00    -0.285 N 
ATOM      2  H2  UNL     1      -0.896  -0.517   2.044  1.00  0.00     0.188 HD
ENDROOT
BRANCH   1   3
HETATM    3  C4  UNL     1      -1.821   0.036   0.289  1.00  0.00     0.098 C 
HETATM    4  N1  UNL     1      -1.915   1.319   0.355  1.00  0.00    -0.316 N 
HETATM    5  C5  UNL     1      -2.817   2.188  -0.206  1.00  0.00     0.218 C 
ATOM      6  H1  UNL     1      -1.195   1.766   0.922  1.00  0.00     0.170 HD
HETATM    7  C6  UNL     1      -2.361   3.528  -0.700  1.00  0.00     0.117 C 
HETATM    8  O1  UNL     1      -4.055   1.897  -0.325  1.00  0.00    -0.274 OA
BRANCH   3   9
HETATM    9  C3  UNL     1      -2.708  -0.883  -0.457  1.00  0.00     0.077 C 
BRANCH   9  10
HETATM   10  C2  UNL     1      -3.229  -1.947   0.521  1.00  0.00     0.003 C 
HETATM   11  C1  UNL     1      -4.145  -2.918  -0.195  1.00  0.00     0.005 C 
ENDBRANCH   9  10
ENDBRANCH   3   9
ENDBRANCH   1   3
BRANCH   1  12
HETATM   12  N3  UNL     1       0.409  -1.115   0.638  1.00  0.00    -0.250 N 
HETATM   13  C7  UNL     1       1.514  -0.328   0.079  1.00  0.00     0.341 C 
HETATM   14  O2  UNL     1       1.215   0.882  -0.021  1.00  0.00    -0.245 OA
HETATM   15  N4  UNL     1       2.685  -0.981  -0.251  1.00  0.00    -0.278 N 
HETATM   16  C8  UNL     1       3.663   0.417  -0.516  1.00  0.00     0.225 C 
ATOM     17  H4  UNL     1       2.903  -1.975  -0.317  1.00  0.00     0.173 HD
HETATM   18  O3  UNL     1       3.141   1.417  -0.389  1.00  0.00    -0.273 OA
ATOM     19  H3  UNL     1       0.520  -2.124   0.734  1.00  0.00     0.192 HD
BRANCH  16  20
HETATM   20  C9  UNL     1       5.027   0.047  -0.858  1.00  0.00     0.099 C 
HETATM   21  C10 UNL     1       5.911   1.250  -0.483  1.00  0.00     0.014 C 
ENDBRANCH  16  20
ENDBRANCH   1  12
TORSDOF 5
