REMARK  12 active torsions:
REMARK  status: ('A' for Active; 'I' for Inactive)
REMARK    1  A    between atoms: N1_1  and  C1_4 
REMARK    2  A    between atoms: N3_7  and  C2_8 
REMARK    3  A    between atoms: C2_8  and  O1_9 
REMARK    4  A    between atoms: O1_9  and  C3_10 
REMARK    5  A    between atoms: C3_10  and  O2_11 
REMARK    6  A    between atoms: C3_10  and  O3_13 
REMARK    7  A    between atoms: C3_10  and  C4_15 
REMARK    8  A    between atoms: C4_15  and  O4_16 
REMARK    9  A    between atoms: C4_15  and  C5_18 
REMARK   10  A    between atoms: C5_18  and  O5_19 
REMARK   11  A    between atoms: C8_27  and  N6_28 
REMARK   12  A    between atoms: N6_28  and  C9_29 
ROOT
HETATM    1  C1  UNL     1       1.188   0.691  -0.685  1.00  0.00     0.133 A 
HETATM    2  N2  UNL     1      -0.047   1.148  -1.027  1.00  0.00    -0.279 N 
ATOM      3  H2  UNL     1      -0.338   2.124  -0.980  1.00  0.00     0.189 HD
HETATM    4  N3  UNL     1      -0.812   0.159  -1.426  1.00  0.00    -0.250 N 
HETATM    5  C6  UNL     1      -0.075  -0.987  -1.351  1.00  0.00     0.144 A 
HETATM    6  N4  UNL     1      -0.398  -2.239  -1.642  1.00  0.00    -0.336 N 
ATOM      7  H4  UNL     1      -1.330  -2.473  -1.985  1.00  0.00     0.168 HD
HETATM    8  C7  UNL     1       0.532  -3.190  -1.474  1.00  0.00     0.184 A 
HETATM    9  N5  UNL     1       1.753  -2.924  -1.030  1.00  0.00    -0.326 N 
ATOM     10  H5  UNL     1       2.415  -3.693  -0.923  1.00  0.00     0.169 HD
HETATM   11  C8  UNL     1       2.166  -1.636  -0.704  1.00  0.00     0.201 A 
HETATM   12  C12 UNL     1       1.196  -0.656  -0.881  1.00  0.00     0.113 A 
ENDROOT
BRANCH   4  13
HETATM   13  C2  UNL     1      -2.161   0.272  -1.887  1.00  0.00     0.325 C 
BRANCH  13  14
HETATM   14  O1  UNL     1      -3.077   0.075  -0.928  1.00  0.00    -0.309 OA
BRANCH  14  15
HETATM   15  C3  UNL     1      -3.150   0.839   0.174  1.00  0.00     0.309 C 
BRANCH  15  16
HETATM   16  O2  UNL     1      -3.362   2.196  -0.066  1.00  0.00    -0.341 OA
ATOM     17  H2  UNL     1      -3.414   2.736   0.714  1.00  0.00     0.215 HD
ENDBRANCH  15  16
BRANCH  15  18
HETATM   18  O3  UNL     1      -2.069   0.702   1.012  1.00  0.00    -0.341 OA
ATOM     19  H3  UNL     1      -2.121   1.242   1.792  1.00  0.00     0.215 HD
ENDBRANCH  15  18
BRANCH  15  20
HETATM   20  C4  UNL     1      -4.378   0.312   0.970  1.00  0.00     0.234 C 
BRANCH  20  21
HETATM   21  O4  UNL     1      -4.497   1.076   2.127  1.00  0.00    -0.385 OA
ATOM     22  H4  UNL     1      -5.247   0.754   2.613  1.00  0.00     0.210 HD
ENDBRANCH  20  21
BRANCH  20  23
HETATM   23  C5  UNL     1      -5.625   0.466   0.138  1.00  0.00     0.204 C 
BRANCH  23  24
HETATM   24  O5  UNL     1      -5.573  -0.268  -1.028  1.00  0.00    -0.398 OA
ATOM     25  H5  UNL     1      -6.359  -0.171  -1.552  1.00  0.00     0.209 HD
ENDBRANCH  23  24
ENDBRANCH  20  23
ENDBRANCH  15  20
ENDBRANCH  14  15
ENDBRANCH  13  14
ENDBRANCH   4  13
BRANCH   1  26
HETATM   26  N1  UNL     1       2.164   1.403  -0.256  1.00  0.00    -0.384 N 
ATOM     27  H12 UNL     1       2.158   2.412  -0.109  1.00  0.00     0.157 HD
ATOM     28  H11 UNL     1       3.090   1.060   0.000  1.00  0.00     0.157 HD
ENDBRANCH   1  26
BRANCH  11  29
HETATM   29  N6  UNL     1       3.276  -1.430  -0.308  1.00  0.00    -0.352 NA
BRANCH  29  30
HETATM   30  C9  UNL     1       4.364  -0.795   0.143  1.00  0.00     0.253 C 
HETATM   31  N7  UNL     1       5.372  -0.289  -0.556  1.00  0.00    -0.349 N 
HETATM   32  C10 UNL     1       6.358   0.319   0.274  1.00  0.00     0.143 C 
ATOM     33  H7  UNL     1       5.434  -0.331  -1.573  1.00  0.00     0.163 HD
HETATM   34  C11 UNL     1       5.615   0.567   1.602  1.00  0.00     0.143 C 
HETATM   35  N8  UNL     1       4.693  -0.540   1.533  1.00  0.00    -0.349 N 
ATOM     36  H8  UNL     1       4.331  -1.060   2.332  1.00  0.00     0.163 HD
ENDBRANCH  29  30
ENDBRANCH  11  29
TORSDOF 12
