REMARK  5 active torsions:
REMARK  status: ('A' for Active; 'I' for Inactive)
REMARK    1  A    between atoms: O1_2  and  C2_3 
REMARK    2  A    between atoms: C2_3  and  C3_5 
REMARK    3  A    between atoms: C4_6  and  C5_7 
REMARK    4  A    between atoms: C5_7  and  N1_10 
REMARK    5  A    between atoms: C8_15  and  N2_16 
ROOT
HETATM    1  C3  UNL     1      -0.310   0.139  -0.146  1.00  0.00     0.084 A 
HETATM    2  C4  UNL     1       0.797  -0.506   0.321  1.00  0.00     0.038 A 
HETATM    3  S1  UNL     1       0.554  -2.124   0.874  1.00  0.00    -0.073 SA
HETATM    4  C8  UNL     1      -1.045  -2.671   0.748  1.00  0.00     0.086 A 
HETATM    5  C9  UNL     1      -1.899  -1.717   0.217  1.00  0.00     0.096 A 
HETATM    6  C10 UNL     1      -3.273  -1.900   0.000  1.00  0.00     0.275 A 
HETATM    7  O3  UNL     1      -3.975  -2.935   0.240  1.00  0.00    -0.266 OA
HETATM    8  N3  UNL     1      -3.734  -0.775  -0.515  1.00  0.00    -0.265 N 
ATOM      9  H3  UNL     1      -4.703  -0.600  -0.781  1.00  0.00     0.190 HD
HETATM   10  N4  UNL     1      -2.734   0.095  -0.632  1.00  0.00    -0.296 N 
ATOM     11  H4  UNL     1      -2.818   1.042  -1.002  1.00  0.00     0.187 HD
HETATM   12  C11 UNL     1      -1.595  -0.465  -0.187  1.00  0.00     0.084 A 
ENDROOT
BRANCH   2  13
HETATM   13  C5  UNL     1       2.190   0.035   0.394  1.00  0.00     0.150 C 
HETATM   14  C6  UNL     1       2.421   0.960   1.539  1.00  0.00     0.052 C 
HETATM   15  C7  UNL     1       3.058  -1.237   0.763  1.00  0.00     0.052 C 
BRANCH  13  16
HETATM   16  N1  UNL     1       2.763   0.418  -0.857  1.00  0.00    -0.066 N 
ATOM     17  H13 UNL     1       2.724  -0.362  -1.513  1.00  0.00     0.275 HD
ATOM     18  H12 UNL     1       2.153   1.083  -1.332  1.00  0.00     0.275 HD
ATOM     19  H11 UNL     1       3.713   0.787  -0.807  1.00  0.00     0.275 HD
ENDBRANCH  13  16
ENDBRANCH   2  13
BRANCH   1  20
HETATM   20  C2  UNL     1      -0.173   1.513  -0.599  1.00  0.00     0.296 C 
HETATM   21  O2  UNL     1       0.865   2.196  -0.599  1.00  0.00    -0.259 OA
BRANCH  20  22
HETATM   22  O1  UNL     1      -1.264   2.210  -1.099  1.00  0.00    -0.322 OA
HETATM   23  C1  UNL     1      -1.180   3.560  -1.556  1.00  0.00     0.213 C 
ENDBRANCH  20  22
ENDBRANCH   1  20
BRANCH   4  24
HETATM   24  N2  UNL     1      -1.410  -3.851   1.112  1.00  0.00    -0.393 N 
ATOM     25  H22 UNL     1      -0.782  -4.553   1.503  1.00  0.00     0.156 HD
ATOM     26  H21 UNL     1      -2.372  -4.180   1.036  1.00  0.00     0.156 HD
ENDBRANCH   4  24
TORSDOF 5
