REMARK  2 active torsions:
REMARK  status: ('A' for Active; 'I' for Inactive)
REMARK    1  A    between atoms: C4_7  and  N3_8 
REMARK       I    between atoms: C5_10  and  N5_12 
REMARK    2  A    between atoms: N5_12  and  C6_14 
ROOT
HETATM    1  N1  UNL     1       6.634  -0.397   1.012  1.00  0.00    -0.191 NA
HETATM    2  C1  UNL     1       5.581  -0.073   0.669  1.00  0.00     0.105 C 
HETATM    3  C2  UNL     1       4.271   0.356   0.244  1.00  0.00     0.117 A 
HETATM    4  C3  UNL     1       3.731   1.623   0.279  1.00  0.00     0.181 A 
HETATM    5  N2  UNL     1       4.430   2.768   0.769  1.00  0.00    -0.073 NA
HETATM    6  O1  UNL     1       2.525   1.547  -0.202  1.00  0.00    -0.276 OA
HETATM    7  C4  UNL     1       2.221   0.300  -0.559  1.00  0.00     0.174 A 
HETATM    8  C11 UNL     1       3.304  -0.505  -0.295  1.00  0.00     0.120 A 
HETATM    9  C12 UNL     1       3.473  -1.922  -0.521  1.00  0.00     0.105 C 
HETATM   10  N7  UNL     1       3.624  -3.051  -0.719  1.00  0.00    -0.191 NA
ENDROOT
BRANCH   7  11
HETATM   11  N3  UNL     1       0.988  -0.092  -1.108  1.00  0.00    -0.310 N 
HETATM   12  C5  UNL     1       0.172  -0.968  -0.757  1.00  0.00     0.190 C 
HETATM   13  N4  UNL     1       0.389  -1.783   0.368  1.00  0.00    -0.063 NA
HETATM   14  N5  UNL     1      -1.019  -1.158  -1.508  1.00  0.00    -0.358 N 
ATOM     15  H5  UNL     1      -1.005  -1.677  -2.386  1.00  0.00     0.162 HD
ATOM     16  H3  UNL     1       0.712   0.431  -1.939  1.00  0.00     0.170 HD
BRANCH  14  17
HETATM   17  C6  UNL     1      -2.248  -0.599  -1.000  1.00  0.00     0.109 C 
HETATM   18  C7  UNL     1      -2.610  -1.157   0.369  1.00  0.00     0.028 C 
HETATM   19  C8  UNL     1      -4.000  -0.588   0.687  1.00  0.00     0.029 C 
HETATM   20  C9  UNL     1      -3.934   0.910   0.746  1.00  0.00     0.232 C 
HETATM   21  N6  UNL     1      -3.329   1.507  -0.412  1.00  0.00    -0.073 N 
HETATM   22  C10 UNL     1      -2.091   0.907  -0.809  1.00  0.00     0.257 C 
ATOM     23  H62 UNL     1      -3.986   1.516  -1.192  1.00  0.00     0.277 HD
ATOM     24  H61 UNL     1      -3.209   2.510  -0.273  1.00  0.00     0.277 HD
ENDBRANCH  14  17
ENDBRANCH   7  11
TORSDOF 2
