REMARK  2 active torsions:
REMARK  status: ('A' for Active; 'I' for Inactive)
REMARK    1  A    between atoms: C5_5  and  C6_6 
REMARK    2  A    between atoms: C6_6  and  C7_7 
ROOT
HETATM    1  C6  UNL     1       1.476   0.705  -0.270  1.00  0.00     0.192 C 
HETATM    2  N2  UNL     1       1.745  -0.631  -0.835  1.00  0.00    -0.330 N 
ATOM      3  H2  UNL     1       1.068  -1.002  -1.501  1.00  0.00     0.165 HD
HETATM    4  C8  UNL     1       2.736  -1.347  -0.564  1.00  0.00     0.192 C 
HETATM    5  N3  UNL     1       2.839  -2.637  -1.215  1.00  0.00    -0.063 NA
HETATM    6  N4  UNL     1       3.682  -0.950   0.428  1.00  0.00    -0.305 N 
ATOM      7  H4  UNL     1       4.494  -1.534   0.627  1.00  0.00     0.171 HD
HETATM    8  C9  UNL     1       3.503   0.149   1.068  1.00  0.00     0.192 C 
HETATM    9  N5  UNL     1       4.430   0.610   2.043  1.00  0.00    -0.063 NA
HETATM   10  N6  UNL     1       2.255   0.839   0.911  1.00  0.00    -0.330 N 
ATOM     11  H6  UNL     1       1.919   1.439   1.664  1.00  0.00     0.165 HD
ENDROOT
BRANCH   1  12
HETATM   12  C5  UNL     1      -0.015   0.776  -0.178  1.00  0.00     0.046 C 
HETATM   13  C4  UNL     1      -0.552   0.294   1.128  1.00  0.00     0.019 C 
HETATM   14  C2  UNL     1      -1.927  -0.331   0.858  1.00  0.00    -0.040 C 
HETATM   15  C1  UNL     1      -1.876  -1.674   1.526  1.00  0.00     0.015 C 
HETATM   16  C3  UNL     1      -2.950   0.507   1.558  1.00  0.00     0.015 C 
HETATM   17  C11 UNL     1      -2.041  -0.339  -0.617  1.00  0.00    -0.040 C 
HETATM   18  C10 UNL     1      -0.603  -0.370  -1.074  1.00  0.00     0.019 C 
HETATM   19  C12 UNL     1      -2.732  -1.586  -1.150  1.00  0.00     0.015 C 
HETATM   20  C13 UNL     1      -2.701   0.835  -1.260  1.00  0.00     0.015 C 
ENDBRANCH   1  12
BRANCH   1  21
HETATM   21  C7  UNL     1       1.953   1.717  -1.247  1.00  0.00     0.280 C 
HETATM   22  N1  UNL     1       1.683   3.067  -0.788  1.00  0.00    -0.058 NA
HETATM   23  O1  UNL     1       2.505   1.509  -2.283  1.00  0.00    -0.272 OA
ENDBRANCH   1  21
TORSDOF 2
