REMARK  8 active torsions:
REMARK  status: ('A' for Active; 'I' for Inactive)
REMARK    1  A    between atoms: C2_2  and  C3_3 
REMARK    2  A    between atoms: C3_3  and  O1_4 
REMARK    3  A    between atoms: O1_4  and  C4_5 
REMARK       I    between atoms: C4_5  and  N1_7 
REMARK    4  A    between atoms: N1_7  and  N2_9 
REMARK    5  A    between atoms: N2_9  and  C5_11 
REMARK    6  A    between atoms: C5_11  and  O3_12 
REMARK    7  A    between atoms: C5_11  and  C6_14 
REMARK    8  A    between atoms: C8_18  and  C9_19 
ROOT
HETATM    1  C6  UNL     1      -2.051  -0.681  -0.087  1.00  0.00     0.069 A 
HETATM    2  C7  UNL     1      -2.707  -1.655  -0.844  1.00  0.00     0.104 A 
HETATM    3  N3  UNL     1      -2.164  -2.886  -1.383  1.00  0.00    -0.093 NA
HETATM    4  S1  UNL     1      -4.282  -1.101  -1.005  1.00  0.00    -0.070 SA
HETATM    5  C8  UNL     1      -4.145   0.379  -0.116  1.00  0.00     0.069 A 
HETATM    6  C10 UNL     1      -2.840   0.372   0.277  1.00  0.00     0.082 A 
HETATM    7  C11 UNL     1      -2.312   1.507   1.091  1.00  0.00     0.102 C 
HETATM    8  N6  UNL     1      -1.920   2.420   1.737  1.00  0.00    -0.191 NA
ENDROOT
BRANCH   1   9
HETATM    9  C5  UNL     1      -0.613  -0.923   0.197  1.00  0.00     0.169 C 
BRANCH   9  10
HETATM   10  N2  UNL     1       0.305  -0.165   0.900  1.00  0.00    -0.275 N 
ATOM     11  H2  UNL     1       0.006   0.715   1.321  1.00  0.00     0.189 HD
BRANCH  10  12
HETATM   12  N1  UNL     1       1.662  -0.585   1.050  1.00  0.00    -0.243 N 
HETATM   13  C4  UNL     1       2.665  -0.061   0.219  1.00  0.00     0.379 C 
HETATM   14  O2  UNL     1       2.334   0.794  -0.673  1.00  0.00    -0.237 OA
ATOM     15  H1  UNL     1       1.904  -1.270   1.766  1.00  0.00     0.192 HD
BRANCH  13  16
HETATM   16  O1  UNL     1       4.009  -0.382   0.268  1.00  0.00    -0.299 OA
BRANCH  16  17
HETATM   17  C3  UNL     1       4.926   0.234  -0.645  1.00  0.00     0.207 C 
BRANCH  17  18
HETATM   18  C2  UNL     1       6.303  -0.220  -0.427  1.00  0.00    -0.011 C 
HETATM   19  C1  UNL     1       7.250   0.649  -0.114  1.00  0.00     0.009 C 
ENDBRANCH  17  18
ENDBRANCH  16  17
ENDBRANCH  13  16
ENDBRANCH  10  12
ENDBRANCH   9  10
BRANCH   9  20
HETATM   20  O3  UNL     1      -0.088  -2.019  -0.277  1.00  0.00    -0.344 OA
ATOM     21  H3  UNL     1      -0.719  -2.540  -0.760  1.00  0.00     0.219 HD
ENDBRANCH   9  20
ENDBRANCH   1   9
BRANCH   5  22
HETATM   22  C9  UNL     1      -5.255   1.329   0.089  1.00  0.00     0.128 C 
HETATM   23  N4  UNL     1      -5.226   2.378   0.704  1.00  0.00    -0.387 N 
ATOM     24  H42 UNL     1      -4.335   2.630   1.131  1.00  0.00     0.157 HD
ATOM     25  H41 UNL     1      -5.993   3.035   0.846  1.00  0.00     0.157 HD
HETATM   26  N5  UNL     1      -6.538   0.967  -0.526  1.00  0.00    -0.082 NA
ENDBRANCH   5  22
TORSDOF 8
