REMARK  4 active torsions:
REMARK  status: ('A' for Active; 'I' for Inactive)
REMARK    1  A    between atoms: C6_9  and  N3_10 
REMARK    2  A    between atoms: N3_10  and  N4_12 
REMARK    3  A    between atoms: N4_12  and  C7_14 
REMARK    4  A    between atoms: C10_23  and  C11_24 
ROOT
HETATM    1  C7  UNL     1       1.626  -0.175   0.454  1.00  0.00     0.143 A 
HETATM    2  N5  UNL     1       1.526  -1.411  -0.114  1.00  0.00    -0.317 N 
ATOM      3  H5  UNL     1       0.607  -1.789  -0.345  1.00  0.00     0.170 HD
HETATM    4  C8  UNL     1       2.627  -2.133  -0.371  1.00  0.00     0.180 A 
HETATM    5  S1  UNL     1       2.498  -3.619  -1.056  1.00  0.00    -0.040 SA
HETATM    6  N6  UNL     1       3.858  -1.674  -0.083  1.00  0.00    -0.299 N 
ATOM      7  H6  UNL     1       4.681  -2.241  -0.287  1.00  0.00     0.171 HD
HETATM    8  C9  UNL     1       3.987  -0.480   0.467  1.00  0.00     0.266 A 
HETATM    9  O1  UNL     1       5.138  -0.025   0.748  1.00  0.00    -0.267 OA
HETATM   10  C10 UNL     1       2.876   0.322   0.760  1.00  0.00     0.142 A 
ENDROOT
BRANCH   1  11
HETATM   11  N4  UNL     1       0.469   0.592   0.738  1.00  0.00    -0.284 N 
ATOM     12  H4  UNL     1       0.245   0.824   1.706  1.00  0.00     0.188 HD
BRANCH  11  13
HETATM   13  N3  UNL     1      -0.367   1.033  -0.284  1.00  0.00    -0.295 N 
ATOM     14  H3  UNL     1      -0.001   1.770  -0.887  1.00  0.00     0.187 HD
BRANCH  13  15
HETATM   15  C6  UNL     1      -1.660   0.570  -0.571  1.00  0.00     0.095 A 
HETATM   16  C2  UNL     1      -2.436   1.008  -1.623  1.00  0.00     0.052 A 
HETATM   17  C1  UNL     1      -2.016   2.036  -2.611  1.00  0.00     0.072 C 
HETATM   18  N1  UNL     1      -3.626   0.347  -1.600  1.00  0.00    -0.301 N 
HETATM   19  N2  UNL     1      -3.607  -0.483  -0.568  1.00  0.00    -0.299 N 
ATOM     20  H1  UNL     1      -4.395   0.469  -2.259  1.00  0.00     0.187 HD
HETATM   21  C3  UNL     1      -4.669  -1.376  -0.174  1.00  0.00     0.177 C 
HETATM   22  C4  UNL     1      -2.400  -0.361   0.082  1.00  0.00     0.054 A 
HETATM   23  C5  UNL     1      -2.052  -1.144   1.272  1.00  0.00     0.072 C 
ENDBRANCH  13  15
ENDBRANCH  11  13
ENDBRANCH   1  11
BRANCH  10  24
HETATM   24  C11 UNL     1       3.070   1.627   1.360  1.00  0.00     0.274 C 
HETATM   25  N7  UNL     1       4.389   2.063   1.661  1.00  0.00    -0.057 NA
HETATM   26  O2  UNL     1       2.117   2.366   1.616  1.00  0.00    -0.271 OA
ENDBRANCH  10  24
TORSDOF 4
