REMARK  1 active torsions:
REMARK  status: ('A' for Active; 'I' for Inactive)
REMARK    1  A    between atoms: N4_11  and  N5_12 
ROOT
HETATM    1  N1  UNL     1       2.778   0.909  -0.825  1.00  0.00    -0.082 NA
HETATM    2  C1  UNL     1       1.800   0.209  -0.067  1.00  0.00     0.129 C 
HETATM    3  N2  UNL     1       1.770  -1.048  -0.090  1.00  0.00    -0.376 N 
ATOM      4  H2  UNL     1       2.479  -1.491  -0.675  1.00  0.00     0.160 HD
HETATM    5  C2  UNL     1       0.889  -1.943   0.583  1.00  0.00     0.140 C 
HETATM    6  C3  UNL     1      -0.429  -2.163  -0.086  1.00  0.00     0.138 C 
HETATM    7  N3  UNL     1      -1.450  -1.393   0.508  1.00  0.00    -0.396 N 
ATOM      8  H3  UNL     1      -1.892  -1.715   1.369  1.00  0.00     0.158 HD
HETATM    9  C4  UNL     1      -1.861  -0.188  -0.078  1.00  0.00     0.102 C 
HETATM   10  C5  UNL     1      -0.903   0.582  -0.885  1.00  0.00     0.132 C 
HETATM   11  N4  UNL     1      -0.182   1.500  -0.103  1.00  0.00    -0.281 N 
HETATM   12  C6  UNL     1       0.850   1.025   0.724  1.00  0.00     0.159 C 
ENDROOT
BRANCH  11  13
HETATM   13  N5  UNL     1      -0.783   2.675   0.225  1.00  0.00    -0.339 N 
ATOM     14  H52 UNL     1      -1.532   3.020  -0.375  1.00  0.00     0.177 HD
ATOM     15  H51 UNL     1      -0.260   3.341   0.793  1.00  0.00     0.177 HD
ENDBRANCH  11  13
TORSDOF 1
