REMARK  0 active torsions:
REMARK  status: ('A' for Active; 'I' for Inactive)
ROOT
HETATM    1  N1  UNL     1       3.012   0.300  -1.072  1.00  0.00    -0.088 NA
HETATM    2  C1  UNL     1       1.921   0.338  -0.160  1.00  0.00     0.093 C 
HETATM    3  N2  UNL     1       1.119   1.279  -0.178  1.00  0.00    -0.377 N 
ATOM      4  H2  UNL     1       1.354   1.964  -0.896  1.00  0.00     0.160 HD
HETATM    5  C2  UNL     1      -0.041   1.649   0.542  1.00  0.00     0.164 C 
HETATM    6  C3  UNL     1      -1.262   1.885  -0.300  1.00  0.00     0.075 C 
HETATM    7  N3  UNL     1      -2.357   1.023  -0.116  1.00  0.00    -0.396 N 
ATOM      8  H3  UNL     1      -3.317   1.357  -0.203  1.00  0.00     0.159 HD
HETATM    9  C4  UNL     1      -2.068  -0.352   0.201  1.00  0.00     0.163 C 
HETATM   10  C5  UNL     1      -1.216  -0.946  -0.864  1.00  0.00     0.079 C 
HETATM   11  N4  UNL     1      -0.076  -1.663  -0.519  1.00  0.00    -0.381 N 
ATOM     12  H4  UNL     1       0.316  -2.290  -1.222  1.00  0.00     0.164 HD
HETATM   13  C6  UNL     1       0.570  -1.592   0.708  1.00  0.00     0.067 C 
HETATM   14  C7  UNL     1       1.819  -0.781   0.779  1.00  0.00     0.117 C 
ENDROOT
TORSDOF 0
