REMARK  3 active torsions:
REMARK  status: ('A' for Active; 'I' for Inactive)
REMARK    1  A    between atoms: N1_1  and  C1_4 
REMARK    2  A    between atoms: N3_11  and  N4_12 
REMARK    3  A    between atoms: N6_17  and  O1_18 
ROOT
HETATM    1  C1  UNL     1      -0.221  -1.275  -0.145  1.00  0.00     0.132 A 
HETATM    2  N2  UNL     1      -1.576  -1.392   0.045  1.00  0.00    -0.351 N 
ATOM      3  H2  UNL     1      -1.999  -2.318  -0.017  1.00  0.00     0.166 HD
HETATM    4  C2  UNL     1      -2.362  -0.350   0.307  1.00  0.00     0.092 A 
HETATM    5  C3  UNL     1      -1.887   0.935   0.410  1.00  0.00     0.053 A 
HETATM    6  C4  UNL     1      -0.529   1.096   0.225  1.00  0.00     0.118 A 
HETATM    7  C5  UNL     1       0.305   0.004  -0.051  1.00  0.00     0.150 A 
HETATM    8  N3  UNL     1       1.547   0.479  -0.175  1.00  0.00    -0.181 N 
HETATM    9  N5  UNL     1       1.512   1.807   0.011  1.00  0.00    -0.194 N 
ATOM     10  H5  UNL     1       2.320   2.428  -0.027  1.00  0.00     0.213 HD
HETATM   11  N6  UNL     1       0.278   2.185   0.250  1.00  0.00    -0.145 N 
ENDROOT
BRANCH   1  12
HETATM   12  N1  UNL     1       0.472  -2.313  -0.392  1.00  0.00    -0.383 N 
ATOM     13  H12 UNL     1       0.085  -3.254  -0.461  1.00  0.00     0.157 HD
ATOM     14  H11 UNL     1       1.478  -2.226  -0.533  1.00  0.00     0.157 HD
ENDBRANCH   1  12
BRANCH   8  15
HETATM   15  N4  UNL     1       2.696  -0.218  -0.445  1.00  0.00    -0.322 N 
ATOM     16  H42 UNL     1       2.723  -1.228  -0.586  1.00  0.00     0.179 HD
ATOM     17  H41 UNL     1       3.645   0.145  -0.540  1.00  0.00     0.179 HD
ENDBRANCH   8  15
BRANCH  11  18
HETATM   18  O1  UNL     1      -0.189   3.474   0.497  1.00  0.00    -0.266 OA
ATOM     19  H1  UNL     1       0.377   4.237   0.515  1.00  0.00     0.247 HD
ENDBRANCH  11  18
TORSDOF 3
