REMARK  2 active torsions:
REMARK  status: ('A' for Active; 'I' for Inactive)
REMARK    1  A    between atoms: C3_5  and  N2_6 
REMARK    2  A    between atoms: N2_6  and  C4_8 
ROOT
HETATM    1  N2  UNL     1       1.192  -0.144   1.248  1.00  0.00    -0.020 N 
ATOM      2  H2  UNL     1       1.406  -0.396   2.213  1.00  0.00     0.203 HD
ENDROOT
BRANCH   1   3
HETATM    3  C3  UNL     1      -0.157   0.029   0.817  1.00  0.00     0.688 C 
HETATM    4  N1  UNL     1      -0.883   1.010   1.227  1.00  0.00    -0.226 N 
HETATM    5  C2  UNL     1      -2.250   1.193   0.797  1.00  0.00     0.139 C 
ATOM      6  H1  UNL     1      -0.478   1.682   1.879  1.00  0.00     0.177 HD
HETATM    7  C1  UNL     1      -2.863  -0.157   0.512  1.00  0.00     0.040 C 
HETATM    8  C5  UNL     1      -2.044  -0.765  -0.633  1.00  0.00     0.139 C 
HETATM    9  N7  UNL     1      -0.691  -0.923  -0.090  1.00  0.00    -0.226 N 
ATOM     10  H7  UNL     1      -0.127  -1.726  -0.367  1.00  0.00     0.177 HD
ENDBRANCH   1   3
BRANCH   1  11
HETATM   11  C4  UNL     1       2.141   0.029   0.375  1.00  0.00     0.728 A 
HETATM   12  N3  UNL     1       2.031   0.358  -0.924  1.00  0.00    -0.115 N 
HETATM   13  N4  UNL     1       3.235   0.434  -1.459  1.00  0.00    -0.213 N 
ATOM     14  H3  UNL     1       1.154   0.523  -1.419  1.00  0.00     0.207 HD
HETATM   15  N5  UNL     1       4.130   0.159  -0.530  1.00  0.00    -0.213 N 
ATOM     16  H4  UNL     1       3.440   0.667  -2.431  1.00  0.00     0.210 HD
HETATM   17  N6  UNL     1       3.464  -0.087   0.583  1.00  0.00    -0.115 N 
ATOM     18  H5  UNL     1       5.143   0.140  -0.649  1.00  0.00     0.210 HD
ATOM     19  H6  UNL     1       3.893  -0.331   1.476  1.00  0.00     0.207 HD
ENDBRANCH   1  11
TORSDOF 2
