REMARK  0 active torsions:
REMARK  status: ('A' for Active; 'I' for Inactive)
ROOT
HETATM    1  C1  UNL     1      -3.143   3.173  -0.547  1.00  0.00     0.056 C 
HETATM    2  C2  UNL     1      -2.496   1.843  -0.345  1.00  0.00    -0.020 A 
HETATM    3  C3  UNL     1      -3.220   0.675  -0.222  1.00  0.00     0.026 A 
HETATM    4  C4  UNL     1      -2.704  -0.568  -0.037  1.00  0.00    -0.020 A 
HETATM    5  C5  UNL     1      -3.625  -1.615   0.062  1.00  0.00     0.029 A 
HETATM    6  C6  UNL     1      -3.245  -2.925   0.250  1.00  0.00     0.089 A 
HETATM    7  N1  UNL     1      -1.952  -3.194   0.340  1.00  0.00    -0.364 N 
ATOM      8  H1  UNL     1      -1.657  -4.160   0.480  1.00  0.00     0.165 HD
HETATM    9  C7  UNL     1      -1.016  -2.232   0.253  1.00  0.00     0.062 A 
HETATM   10  C8  UNL     1       0.312  -2.588   0.356  1.00  0.00     0.147 A 
HETATM   11  N2  UNL     1       1.306  -1.687   0.279  1.00  0.00    -0.263 N 
HETATM   12  N3  UNL     1       2.624  -1.782   0.347  1.00  0.00    -0.293 N 
ATOM     13  H3  UNL     1       3.134  -2.655   0.483  1.00  0.00     0.187 HD
HETATM   14  C9  UNL     1       3.199  -0.579   0.213  1.00  0.00     0.061 A 
HETATM   15  C10 UNL     1       4.545  -0.182   0.218  1.00  0.00     0.032 A 
HETATM   16  C11 UNL     1       4.803   1.157   0.053  1.00  0.00     0.002 A 
HETATM   17  C12 UNL     1       3.788   2.069  -0.110  1.00  0.00     0.001 A 
HETATM   18  C13 UNL     1       2.444   1.656  -0.112  1.00  0.00     0.016 A 
HETATM   19  C14 UNL     1       2.168   0.330   0.050  1.00  0.00     0.022 A 
HETATM   20  C15 UNL     1       0.992  -0.399   0.097  1.00  0.00     0.086 A 
HETATM   21  C16 UNL     1      -0.327  -0.002  -0.011  1.00  0.00     0.048 A 
HETATM   22  S1  UNL     1      -0.813   1.621  -0.245  1.00  0.00    -0.092 SA
HETATM   23  C17 UNL     1      -1.371  -0.904   0.063  1.00  0.00     0.022 A 
ENDROOT
TORSDOF 0
