REMARK  0 active torsions:
REMARK  status: ('A' for Active; 'I' for Inactive)
ROOT
HETATM    1  C1  UNL     1      -4.255  -1.069   0.668  1.00  0.00     0.165 C 
HETATM    2  N1  UNL     1      -2.850  -1.359   0.579  1.00  0.00    -0.320 N 
HETATM    3  S1  UNL     1      -2.362  -2.979   0.860  1.00  0.00    -0.023 SA
HETATM    4  C2  UNL     1      -0.699  -2.784   0.644  1.00  0.00     0.084 A 
HETATM    5  C3  UNL     1      -0.581  -1.442   0.356  1.00  0.00     0.029 A 
HETATM    6  C4  UNL     1       0.672  -0.861   0.105  1.00  0.00     0.073 A 
HETATM    7  N2  UNL     1       1.820  -1.577   0.131  1.00  0.00    -0.352 N 
ATOM      8  H2  UNL     1       1.763  -2.573   0.342  1.00  0.00     0.166 HD
HETATM    9  C5  UNL     1       3.033  -1.045  -0.106  1.00  0.00     0.059 A 
HETATM   10  C6  UNL     1       4.296  -1.544  -0.137  1.00  0.00     0.032 A 
HETATM   11  C7  UNL     1       5.155  -0.533  -0.435  1.00  0.00     0.005 A 
HETATM   12  C8  UNL     1       4.455   0.646  -0.603  1.00  0.00     0.032 A 
HETATM   13  C9  UNL     1       3.127   0.387  -0.410  1.00  0.00     0.059 A 
HETATM   14  N3  UNL     1       1.984   1.058  -0.427  1.00  0.00    -0.352 N 
ATOM     15  H3  UNL     1       2.006   2.056  -0.634  1.00  0.00     0.166 HD
HETATM   16  C10 UNL     1       0.794   0.476  -0.182  1.00  0.00     0.072 A 
HETATM   17  C11 UNL     1      -0.359   1.221  -0.213  1.00  0.00     0.005 A 
HETATM   18  C12 UNL     1      -0.186   2.577  -0.510  1.00  0.00     0.014 A 
HETATM   19  C13 UNL     1      -1.315   3.354  -0.551  1.00  0.00     0.001 A 
HETATM   20  C14 UNL     1      -2.562   2.866  -0.319  1.00  0.00     0.001 A 
HETATM   21  C15 UNL     1      -2.697   1.492  -0.023  1.00  0.00     0.014 A 
HETATM   22  C16 UNL     1      -1.606   0.660   0.033  1.00  0.00     0.005 A 
HETATM   23  C17 UNL     1      -1.727  -0.724   0.330  1.00  0.00     0.064 A 
ENDROOT
TORSDOF 0
