REMARK  12 active torsions:
REMARK  status: ('A' for Active; 'I' for Inactive)
REMARK    1  A    between atoms: C2_3  and  C3_4 
REMARK    2  A    between atoms: C3_4  and  C4_5 
REMARK    3  A    between atoms: C3_4  and  N10_34 
REMARK    4  A    between atoms: C4_5  and  N2_6 
REMARK    5  A    between atoms: N3_8  and  C5_10 
REMARK    6  A    between atoms: C9_18  and  N6_19 
REMARK    7  A    between atoms: N10_34  and  C14_37 
REMARK    8  A    between atoms: C14_37  and  O2_38 
REMARK    9  A    between atoms: C14_37  and  C15_40 
REMARK   10  A    between atoms: C15_40  and  O3_41 
REMARK   11  A    between atoms: C15_40  and  C16_43 
REMARK   12  A    between atoms: C16_43  and  O4_44 
ROOT
HETATM    1  N1  UNL     1       0.149  -1.009  -2.104  1.00  0.00    -0.197 NA
HETATM    2  C1  UNL     1       0.876  -1.428  -1.304  1.00  0.00     0.061 C 
HETATM    3  C2  UNL     1       1.818  -1.962  -0.310  1.00  0.00     0.158 C 
ENDROOT
BRANCH   3   4
HETATM    4  C3  UNL     1       2.072  -1.031   0.821  1.00  0.00     0.221 C 
BRANCH   4   5
HETATM    5  C4  UNL     1       0.828  -0.685   1.613  1.00  0.00     0.173 C 
BRANCH   5   6
HETATM    6  N2  UNL     1      -0.201  -0.050   0.856  1.00  0.00    -0.334 N 
HETATM    7  N3  UNL     1      -1.410  -0.272   1.209  1.00  0.00    -0.303 N 
ATOM      8  H3  UNL     1      -1.555  -0.889   2.009  1.00  0.00     0.186 HD
ATOM      9  H2  UNL     1       0.019   0.556   0.066  1.00  0.00     0.180 HD
BRANCH   7  10
HETATM   10  C5  UNL     1      -2.549   0.254   0.598  1.00  0.00     0.075 A 
HETATM   11  C6  UNL     1      -2.695   1.656   0.532  1.00  0.00     0.021 A 
HETATM   12  C7  UNL     1      -3.794   2.216  -0.056  1.00  0.00     0.112 A 
HETATM   13  C13 UNL     1      -1.823   2.735   1.020  1.00  0.00     0.166 A 
HETATM   14  N4  UNL     1      -4.760   1.404  -0.584  1.00  0.00    -0.336 N 
HETATM   15  C12 UNL     1      -3.685   3.669   0.009  1.00  0.00     0.269 A 
HETATM   16  C8  UNL     1      -4.667   0.069  -0.545  1.00  0.00     0.138 A 
ATOM     17  H4  UNL     1      -5.577   1.829  -1.021  1.00  0.00     0.168 HD
HETATM   18  N5  UNL     1      -5.599  -0.752  -1.055  1.00  0.00    -0.176 N 
HETATM   19  C11 UNL     1      -3.546  -0.504   0.054  1.00  0.00     0.081 A 
HETATM   20  C9  UNL     1      -5.521  -2.095  -1.024  1.00  0.00     0.679 A 
ATOM     21  H5  UNL     1      -6.418  -0.331  -1.494  1.00  0.00     0.186 HD
HETATM   22  N7  UNL     1      -4.438  -2.650  -0.445  1.00  0.00    -0.176 N 
HETATM   23  C10 UNL     1      -3.450  -1.877   0.094  1.00  0.00     0.131 A 
ATOM     24  H7  UNL     1      -4.355  -3.666  -0.409  1.00  0.00     0.186 HD
HETATM   25  N8  UNL     1      -2.419  -2.418   0.644  1.00  0.00    -0.384 N 
ATOM     26  H82 UNL     1      -2.348  -3.435   0.674  1.00  0.00     0.157 HD
ATOM     27  H81 UNL     1      -1.681  -1.841   1.047  1.00  0.00     0.157 HD
HETATM   28  O1  UNL     1      -4.540   4.494  -0.446  1.00  0.00    -0.266 OA
HETATM   29  N9  UNL     1      -2.468   3.958   0.664  1.00  0.00    -0.351 N 
ATOM     30  H9  UNL     1      -2.107   4.893   0.853  1.00  0.00     0.163 HD
BRANCH  20  31
HETATM   31  N6  UNL     1      -6.465  -2.848  -1.537  1.00  0.00    -0.234 N 
ATOM     32  H62 UNL     1      -7.285  -2.428  -1.975  1.00  0.00     0.174 HD
ATOM     33  H61 UNL     1      -6.406  -3.866  -1.514  1.00  0.00     0.174 HD
ENDBRANCH  20  31
ENDBRANCH   7  10
ENDBRANCH   5   6
ENDBRANCH   4   5
BRANCH   4  34
HETATM   34  N10 UNL     1       2.835   0.118   0.468  1.00  0.00    -0.040 N 
ATOM     35 2H10 UNL     1       2.349   0.675  -0.235  1.00  0.00     0.280 HD
ATOM     36 1H10 UNL     1       2.852   0.792   1.233  1.00  0.00     0.280 HD
BRANCH  34  37
HETATM   37  C14 UNL     1       4.172  -0.201   0.036  1.00  0.00     0.350 C 
BRANCH  37  38
HETATM   38  O2  UNL     1       4.905  -0.834   1.059  1.00  0.00    -0.368 OA
ATOM     39  H2  UNL     1       5.787  -1.044   0.774  1.00  0.00     0.212 HD
ENDBRANCH  37  38
BRANCH  37  40
HETATM   40  C15 UNL     1       4.911   1.088  -0.337  1.00  0.00     0.198 C 
BRANCH  40  41
HETATM   41  O3  UNL     1       4.992   1.971   0.737  1.00  0.00    -0.389 OA
ATOM     42  H3  UNL     1       5.450   2.770   0.506  1.00  0.00     0.210 HD
ENDBRANCH  40  41
BRANCH  40  43
HETATM   43  C16 UNL     1       6.332   0.728  -0.709  1.00  0.00     0.200 C 
BRANCH  43  44
HETATM   44  O4  UNL     1       6.428  -0.154  -1.768  1.00  0.00    -0.398 OA
ATOM     45  H4  UNL     1       7.321  -0.380  -2.002  1.00  0.00     0.209 HD
ENDBRANCH  43  44
ENDBRANCH  40  43
ENDBRANCH  37  40
ENDBRANCH  34  37
ENDBRANCH   4  34
ENDBRANCH   3   4
TORSDOF 12
