REMARK  9 active torsions:
REMARK  status: ('A' for Active; 'I' for Inactive)
REMARK    1  A    between atoms: N1_2  and  C2_3 
REMARK    2  A    between atoms: N1_2  and  C8_30 
REMARK    3  A    between atoms: C2_3  and  C3_4 
REMARK    4  A    between atoms: C3_4  and  N2_5 
REMARK    5  A    between atoms: N2_5  and  C4_7 
REMARK    6  A    between atoms: C7_23  and  N9_24 
REMARK    7  A    between atoms: C8_30  and  C9_31 
REMARK    8  A    between atoms: C9_31  and  N11_32 
REMARK    9  A    between atoms: C12_39  and  N14_40 
ROOT
HETATM    1  N2  UNL     1      -2.061  -0.210  -2.095  1.00  0.00    -0.359 N 
ATOM      2  H2  UNL     1      -2.253   0.047  -3.063  1.00  0.00     0.162 HD
ENDROOT
BRANCH   1   3
HETATM    3  C3  UNL     1      -0.807  -0.854  -1.784  1.00  0.00     0.153 C 
BRANCH   3   4
HETATM    4  C2  UNL     1       0.091   0.048  -0.962  1.00  0.00     0.291 C 
BRANCH   4   5
HETATM    5  N1  UNL     1       1.352  -0.613  -0.652  1.00  0.00     0.087 N 
HETATM    6  C1  UNL     1       1.160  -1.691   0.258  1.00  0.00     0.310 C 
BRANCH   5   7
HETATM    7  C8  UNL     1       2.110  -0.844  -1.809  1.00  0.00     0.292 C 
BRANCH   7   8
HETATM    8  C9  UNL     1       3.575  -1.022  -1.751  1.00  0.00     0.160 C 
BRANCH   8   9
HETATM    9  N11 UNL     1       4.324   0.117  -1.252  1.00  0.00    -0.334 N 
HETATM   10  C10 UNL     1       4.553   1.264  -1.959  1.00  0.00     0.185 A 
HETATM   11  N12 UNL     1       5.196   2.147  -1.193  1.00  0.00    -0.336 N 
HETATM   12  C11 UNL     1       5.404   1.605   0.026  1.00  0.00     0.154 A 
ATOM     13  H12 UNL     1       5.484   3.082  -1.482  1.00  0.00     0.168 HD
HETATM   14  N13 UNL     1       6.008   2.054   1.136  1.00  0.00    -0.174 N 
HETATM   15  C14 UNL     1       4.849   0.332  -0.038  1.00  0.00     0.149 A 
HETATM   16  C12 UNL     1       6.096   1.265   2.242  1.00  0.00     0.680 A 
ATOM     17  H13 UNL     1       6.404   2.994   1.152  1.00  0.00     0.186 HD
HETATM   18  N15 UNL     1       5.581   0.024   2.237  1.00  0.00    -0.154 N 
HETATM   19  C13 UNL     1       4.972  -0.426   1.115  1.00  0.00     0.290 A 
ATOM     20  H15 UNL     1       5.648  -0.569   3.064  1.00  0.00     0.187 HD
HETATM   21  O1  UNL     1       4.505  -1.576   1.112  1.00  0.00    -0.265 OA
BRANCH  16  22
HETATM   22  N14 UNL     1       6.677   1.704   3.305  1.00  0.00    -0.234 N 
ATOM     23 2H14 UNL     1       7.068   2.646   3.309  1.00  0.00     0.174 HD
ATOM     24 1H14 UNL     1       6.743   1.113   4.134  1.00  0.00     0.174 HD
ENDBRANCH  16  22
ENDBRANCH   8   9
ENDBRANCH   7   8
ENDBRANCH   5   7
ENDBRANCH   4   5
ENDBRANCH   3   4
ENDBRANCH   1   3
BRANCH   1  25
HETATM   25  C4  UNL     1      -3.040   0.080  -1.103  1.00  0.00     0.195 C 
HETATM   26  N3  UNL     1      -3.397   1.213  -0.605  1.00  0.00    -0.249 N 
HETATM   27  N4  UNL     1      -4.404   1.044   0.353  1.00  0.00    -0.043 N 
ATOM     28  H3  UNL     1      -2.999   2.113  -0.873  1.00  0.00     0.191 HD
HETATM   29  C5  UNL     1      -4.908   1.781   1.442  1.00  0.00     0.712 C 
HETATM   30  C7  UNL     1      -5.014  -0.231   0.054  1.00  0.00     0.406 C 
HETATM   31  N5  UNL     1      -4.606   3.013   1.586  1.00  0.00    -0.232 N 
HETATM   32  N6  UNL     1      -5.775   1.170   2.421  1.00  0.00    -0.021 N 
ATOM     33  H52 UNL     1      -3.993   3.445   0.894  1.00  0.00     0.174 HD
ATOM     34  H51 UNL     1      -4.971   3.547   2.375  1.00  0.00     0.174 HD
HETATM   35  C6  UNL     1      -6.110  -0.193   2.264  1.00  0.00     0.691 C 
ATOM     36  H6  UNL     1      -6.137   1.710   3.207  1.00  0.00     0.203 HD
HETATM   37  N7  UNL     1      -6.888  -0.773   3.128  1.00  0.00    -0.234 N 
HETATM   38  N8  UNL     1      -5.589  -0.911   1.162  1.00  0.00    -0.153 N 
ATOM     39  H72 UNL     1      -7.264  -0.255   3.923  1.00  0.00     0.174 HD
ATOM     40  H71 UNL     1      -7.130  -1.757   3.015  1.00  0.00     0.174 HD
ATOM     41  H8  UNL     1      -5.626  -1.930   1.163  1.00  0.00     0.184 HD
HETATM   42  N10 UNL     1      -3.830  -0.939  -0.468  1.00  0.00    -0.291 N 
ATOM     43  H10 UNL     1      -3.618  -1.934  -0.394  1.00  0.00     0.168 HD
BRANCH  30  44
HETATM   44  N9  UNL     1      -5.965  -0.119  -1.043  1.00  0.00    -0.011 N 
ATOM     45  H93 UNL     1      -6.667   0.597  -0.858  1.00  0.00     0.282 HD
ATOM     46  H92 UNL     1      -5.535   0.293  -1.871  1.00  0.00     0.282 HD
ATOM     47  H91 UNL     1      -6.396  -1.019  -1.254  1.00  0.00     0.282 HD
ENDBRANCH  30  44
ENDBRANCH   1  25
TORSDOF 9
