REMARK  11 active torsions:
REMARK  status: ('A' for Active; 'I' for Inactive)
REMARK    1  A    between atoms: N1_1  and  C1_4 
REMARK    2  A    between atoms: C2_7  and  C3_8 
REMARK    3  A    between atoms: C3_8  and  C4_9 
REMARK    4  A    between atoms: C3_8  and  N7_20 
REMARK    5  A    between atoms: C4_9  and  N3_10 
REMARK    6  A    between atoms: N7_20  and  C9_23 
REMARK    7  A    between atoms: C9_23  and  C10_24 
REMARK    8  A    between atoms: C10_24  and  C11_25 
REMARK    9  A    between atoms: C14_28  and  O1_29 
REMARK   10  A    between atoms: C15_31  and  O2_32 
REMARK   11  A    between atoms: C17_37  and  N9_38 
ROOT
HETATM    1  C3  UNL     1      -0.908   0.587  -0.261  1.00  0.00     0.268 C 
ENDROOT
BRANCH   1   2
HETATM    2  C2  UNL     1      -0.536   1.973   0.107  1.00  0.00     0.145 A 
HETATM    3  N2  UNL     1       0.009   2.837  -0.756  1.00  0.00    -0.178 N 
HETATM    4  C1  UNL     1       0.327   4.089  -0.362  1.00  0.00     0.691 A 
ATOM      5  H2  UNL     1       0.186   2.548  -1.718  1.00  0.00     0.185 HD
HETATM    6  N10 UNL     1       0.117   4.526   0.893  1.00  0.00    -0.023 N 
HETATM    7  C17 UNL     1      -0.432   3.650   1.754  1.00  0.00     0.691 A 
ATOM      8  H10 UNL     1       0.362   5.474   1.178  1.00  0.00     0.203 HD
HETATM    9  N8  UNL     1      -0.752   2.395   1.364  1.00  0.00    -0.178 N 
ATOM     10  H8  UNL     1      -1.167   1.754   2.040  1.00  0.00     0.185 HD
BRANCH   4  11
HETATM   11  N1  UNL     1       0.848   4.874  -1.234  1.00  0.00    -0.234 N 
ATOM     12  H12 UNL     1       1.007   4.543  -2.185  1.00  0.00     0.174 HD
ATOM     13  H11 UNL     1       1.088   5.820  -0.936  1.00  0.00     0.174 HD
ENDBRANCH   4  11
BRANCH   7  14
HETATM   14  N9  UNL     1      -0.664   3.995   2.975  1.00  0.00    -0.234 N 
ATOM     15  H92 UNL     1      -1.080   3.331   3.628  1.00  0.00     0.174 HD
ATOM     16  H91 UNL     1      -0.423   4.941   3.269  1.00  0.00     0.174 HD
ENDBRANCH   7  14
ENDBRANCH   1   2
BRANCH   1  17
HETATM   17  C4  UNL     1      -2.196   0.635  -1.057  1.00  0.00     0.148 C 
BRANCH  17  18
HETATM   18  N3  UNL     1      -2.511  -0.740  -1.388  1.00  0.00    -0.216 NA
HETATM   19  C5  UNL     1      -3.780  -0.816  -2.183  1.00  0.00     0.227 A 
HETATM   20  N4  UNL     1      -4.710  -1.726  -1.707  1.00  0.00    -0.368 N 
HETATM   21  C6  UNL     1      -4.981  -2.568  -0.808  1.00  0.00     0.108 A 
ATOM     22  H4  UNL     1      -5.503  -1.707  -2.348  1.00  0.00     0.161 HD
HETATM   23  N5  UNL     1      -6.268  -3.195  -0.982  1.00  0.00    -0.086 NA
HETATM   24  C7  UNL     1      -4.289  -3.035   0.348  1.00  0.00     0.202 A 
HETATM   25  N6  UNL     1      -2.921  -2.499   0.590  1.00  0.00    -0.341 N 
HETATM   26  C8  UNL     1      -2.708  -1.610  -0.383  1.00  0.00     0.020 A 
ATOM     27  H6  UNL     1      -2.281  -2.757   1.341  1.00  0.00     0.170 HD
ENDBRANCH  17  18
ENDBRANCH   1  17
BRANCH   1  28
HETATM   28  N7  UNL     1       0.171   0.024  -1.016  1.00  0.00    -0.063 N 
ATOM     29  H72 UNL     1      -0.066  -0.898  -1.382  1.00  0.00     0.278 HD
ATOM     30  H71 UNL     1       0.306   0.512  -1.901  1.00  0.00     0.278 HD
BRANCH  28  31
HETATM   31  C9  UNL     1       1.388  -0.009  -0.233  1.00  0.00     0.238 C 
BRANCH  31  32
HETATM   32  C10 UNL     1       2.523  -0.607  -1.040  1.00  0.00     0.066 C 
BRANCH  32  33
HETATM   33  C11 UNL     1       3.764  -0.641  -0.239  1.00  0.00    -0.054 A 
HETATM   34  C12 UNL     1       4.620   0.430  -0.272  1.00  0.00     0.010 A 
HETATM   35  C13 UNL     1       5.784   0.446   0.453  1.00  0.00     0.040 A 
HETATM   36  C14 UNL     1       6.130  -0.613   1.239  1.00  0.00     0.098 A 
HETATM   37  C15 UNL     1       5.269  -1.706   1.281  1.00  0.00     0.099 A 
HETATM   38  C16 UNL     1       4.105  -1.714   0.551  1.00  0.00     0.046 A 
BRANCH  36  39
HETATM   39  O1  UNL     1       7.305  -0.610   1.978  1.00  0.00    -0.358 OA
ATOM     40  H1  UNL     1       7.546  -1.348   2.526  1.00  0.00     0.217 HD
ENDBRANCH  36  39
BRANCH  37  41
HETATM   41  O2  UNL     1       5.640  -2.772   2.086  1.00  0.00    -0.358 OA
ATOM     42  H2  UNL     1       5.052  -3.518   2.115  1.00  0.00     0.217 HD
ENDBRANCH  37  41
ENDBRANCH  32  33
ENDBRANCH  31  32
ENDBRANCH  28  31
ENDBRANCH   1  28
TORSDOF 11
