REMARK  10 active torsions:
REMARK  status: ('A' for Active; 'I' for Inactive)
REMARK    1  A    between atoms: C7_13  and  N4_14 
REMARK    2  A    between atoms: N4_14  and  C8_16 
REMARK    3  A    between atoms: C8_16  and  O3_17 
REMARK    4  A    between atoms: C8_16  and  C9_19 
REMARK    5  A    between atoms: C10_20  and  N5_21 
REMARK    6  A    between atoms: N5_21  and  N6_23 
REMARK    7  A    between atoms: N6_23  and  C11_24 
REMARK    8  A    between atoms: C11_24  and  C12_25 
REMARK    9  A    between atoms: C12_25  and  O4_26 
REMARK   10  A    between atoms: C13_30  and  N8_31 
ROOT
HETATM    1  C8  UNL     1      -0.041  -0.015  -1.144  1.00  0.00     0.263 C 
ENDROOT
BRANCH   1   2
HETATM    2  N4  UNL     1       0.152   0.951  -0.126  1.00  0.00    -0.341 N 
ATOM      3  H4  UNL     1      -0.582   1.625   0.091  1.00  0.00     0.164 HD
BRANCH   2   4
HETATM    4  C7  UNL     1       1.370   0.971   0.585  1.00  0.00     0.174 C 
HETATM    5  C6  UNL     1       1.534   1.916   1.572  1.00  0.00     0.292 C 
HETATM    6  N3  UNL     1       2.679   2.430   2.098  1.00  0.00    -0.286 N 
HETATM    7  O2  UNL     1       0.462   2.351   2.038  1.00  0.00    -0.264 OA
HETATM    8  C5  UNL     1       3.953   2.099   1.765  1.00  0.00     0.264 C 
ATOM      9  H3  UNL     1       2.568   3.141   2.821  1.00  0.00     0.172 HD
HETATM   10  C4  UNL     1       4.408   0.960   1.124  1.00  0.00     0.102 A 
HETATM   11  O1  UNL     1       4.830   2.935   2.080  1.00  0.00    -0.267 OA
HETATM   12  C3  UNL     1       5.718   0.543   1.061  1.00  0.00     0.081 A 
HETATM   13  C15 UNL     1       3.650   0.035   0.431  1.00  0.00     0.126 A 
HETATM   14  C2  UNL     1       5.721  -0.634   0.325  1.00  0.00     0.119 A 
HETATM   15  N2  UNL     1       6.802   1.223   1.650  1.00  0.00    -0.100 NA
HETATM   16  N1  UNL     1       4.463  -0.922  -0.045  1.00  0.00    -0.345 N 
HETATM   17  C1  UNL     1       4.072  -2.073  -0.825  1.00  0.00     0.157 C 
HETATM   18  N10 UNL     1       2.305   0.044   0.236  1.00  0.00    -0.323 N 
ATOM     19  H10 UNL     1       1.937  -0.774  -0.249  1.00  0.00     0.169 HD
ENDBRANCH   2   4
ENDBRANCH   1   2
BRANCH   1  20
HETATM   20  O3  UNL     1       0.128  -1.279  -0.515  1.00  0.00    -0.372 OA
ATOM     21  H3  UNL     1      -0.001  -1.927  -1.198  1.00  0.00     0.212 HD
ENDBRANCH   1  20
BRANCH   1  22
HETATM   22  C9  UNL     1      -1.311  -0.041  -1.841  1.00  0.00     0.104 A 
HETATM   23  C10 UNL     1      -2.567  -0.019  -1.292  1.00  0.00     0.148 A 
HETATM   24  N7  UNL     1      -3.686  -0.004  -2.051  1.00  0.00    -0.175 N 
HETATM   25  C13 UNL     1      -3.596  -0.013  -3.377  1.00  0.00     0.680 A 
ATOM     26  H7  UNL     1      -4.603   0.014  -1.604  1.00  0.00     0.186 HD
HETATM   27  N9  UNL     1      -2.392  -0.036  -3.970  1.00  0.00    -0.156 N 
HETATM   28  C14 UNL     1      -1.266  -0.050  -3.242  1.00  0.00     0.274 A 
ATOM     29  H9  UNL     1      -2.333  -0.043  -4.988  1.00  0.00     0.187 HD
HETATM   30  O5  UNL     1      -0.172  -0.072  -3.861  1.00  0.00    -0.267 OA
BRANCH  23  31
HETATM   31  N5  UNL     1      -2.702  -0.057   0.103  1.00  0.00    -0.288 N 
ATOM     32  H5  UNL     1      -1.877  -0.156   0.695  1.00  0.00     0.184 HD
BRANCH  31  33
HETATM   33  N6  UNL     1      -3.967   0.041   0.676  1.00  0.00    -0.138 NA
BRANCH  33  34
HETATM   34  C11 UNL     1      -4.410  -1.238   1.209  1.00  0.00     0.161 C 
BRANCH  34  35
HETATM   35  C12 UNL     1      -5.788  -1.150   1.814  1.00  0.00     0.181 C 
BRANCH  35  36
HETATM   36  O4  UNL     1      -5.798  -0.238   2.844  1.00  0.00    -0.400 OA
ATOM     37  H4  UNL     1      -6.666  -0.183   3.225  1.00  0.00     0.209 HD
ENDBRANCH  35  36
ENDBRANCH  34  35
ENDBRANCH  33  34
ENDBRANCH  31  33
ENDBRANCH  23  31
BRANCH  25  38
HETATM   38  N8  UNL     1      -4.668   0.002  -4.129  1.00  0.00    -0.234 N 
ATOM     39  H82 UNL     1      -5.583   0.019  -3.678  1.00  0.00     0.174 HD
ATOM     40  H81 UNL     1      -4.599  -0.005  -5.147  1.00  0.00     0.174 HD
ENDBRANCH  25  38
ENDBRANCH   1  22
TORSDOF 10
