REMARK  13 active torsions:
REMARK  status: ('A' for Active; 'I' for Inactive)
REMARK    1  A    between atoms: N1_1  and  C1_4 
REMARK    2  A    between atoms: C2_7  and  N3_8 
REMARK    3  A    between atoms: C4_14  and  C5_15 
REMARK    4  A    between atoms: C5_15  and  O1_16 
REMARK    5  A    between atoms: C5_15  and  C6_18 
REMARK    6  A    between atoms: C6_18  and  O2_19 
REMARK    7  A    between atoms: C6_18  and  C7_21 
REMARK    8  A    between atoms: C7_21  and  O3_22 
REMARK    9  A    between atoms: N5_24  and  C8_25 
REMARK   10  A    between atoms: C8_25  and  C9_26 
REMARK   11  A    between atoms: C9_26  and  C10_27 
REMARK   12  A    between atoms: C10_27  and  N6_28 
REMARK   13  A    between atoms: C13_33  and  N8_34 
ROOT
HETATM    1  C1  UNL     1      -2.538  -4.326   0.017  1.00  0.00     0.679 A 
HETATM    2  N2  UNL     1      -3.667  -4.135  -0.690  1.00  0.00    -0.175 N 
ATOM      3  H2  UNL     1      -4.205  -4.931  -1.032  1.00  0.00     0.186 HD
HETATM    4  C2  UNL     1      -4.073  -2.884  -0.937  1.00  0.00     0.145 A 
HETATM    5  C3  UNL     1      -3.326  -1.828  -0.462  1.00  0.00     0.123 A 
HETATM    6  N4  UNL     1      -3.465  -0.501  -0.541  1.00  0.00    -0.337 N 
ATOM      7  H4  UNL     1      -4.230  -0.023  -1.018  1.00  0.00     0.167 HD
HETATM    8  C4  UNL     1      -2.449   0.118   0.100  1.00  0.00     0.117 A 
HETATM    9  N5  UNL     1      -1.636  -0.826   0.604  1.00  0.00    -0.318 N 
HETATM   10  C16 UNL     1      -2.157  -2.032   0.270  1.00  0.00     0.155 A 
HETATM   11  N11 UNL     1      -1.798  -3.306   0.487  1.00  0.00    -0.174 N 
ATOM     12  H11 UNL     1      -0.950  -3.505   1.017  1.00  0.00     0.186 HD
ENDROOT
BRANCH   9  13
HETATM   13  C8  UNL     1      -0.437  -0.643   1.364  1.00  0.00     0.133 C 
BRANCH  13  14
HETATM   14  C9  UNL     1       0.830  -0.562   0.586  1.00  0.00     0.041 C 
BRANCH  14  15
HETATM   15  C10 UNL     1       1.954  -0.374   1.617  1.00  0.00     0.133 C 
BRANCH  15  16
HETATM   16  N6  UNL     1       3.240  -0.280   0.999  1.00  0.00    -0.327 N 
HETATM   17  C11 UNL     1       4.052  -1.321   0.738  1.00  0.00     0.185 A 
HETATM   18  N7  UNL     1       5.182  -0.844   0.149  1.00  0.00    -0.346 N 
HETATM   19  C12 UNL     1       5.106   0.484   0.028  1.00  0.00     0.122 A 
ATOM     20  H7  UNL     1       5.970  -1.416  -0.155  1.00  0.00     0.167 HD
HETATM   21  C13 UNL     1       5.945   1.453  -0.482  1.00  0.00     0.131 A 
HETATM   22  C15 UNL     1       3.866   0.829   0.573  1.00  0.00     0.140 A 
HETATM   23  N9  UNL     1       5.556   2.739  -0.450  1.00  0.00    -0.337 N 
HETATM   24  C14 UNL     1       4.348   3.086   0.079  1.00  0.00     0.183 A 
ATOM     25  H9  UNL     1       6.170   3.462  -0.825  1.00  0.00     0.168 HD
HETATM   26  N10 UNL     1       3.531   2.134   0.577  1.00  0.00    -0.336 N 
ATOM     27  H10 UNL     1       2.631   2.411   0.969  1.00  0.00     0.168 HD
BRANCH  21  28
HETATM   28  N8  UNL     1       7.083   1.138  -0.982  1.00  0.00    -0.383 N 
ATOM     29  H82 UNL     1       7.378   0.162  -1.006  1.00  0.00     0.157 HD
ATOM     30  H81 UNL     1       7.703   1.854  -1.359  1.00  0.00     0.157 HD
ENDBRANCH  21  28
ENDBRANCH  15  16
ENDBRANCH  14  15
ENDBRANCH  13  14
ENDBRANCH   9  13
BRANCH   8  31
HETATM   31  C5  UNL     1      -2.355   1.589   0.181  1.00  0.00     0.216 C 
BRANCH  31  32
HETATM   32  O1  UNL     1      -3.587   2.149   0.608  1.00  0.00    -0.385 OA
ATOM     33  H1  UNL     1      -3.527   3.096   0.660  1.00  0.00     0.210 HD
ENDBRANCH  31  32
BRANCH  31  34
HETATM   34  C6  UNL     1      -2.145   2.219  -1.203  1.00  0.00     0.177 C 
BRANCH  34  35
HETATM   35  O2  UNL     1      -0.974   1.751  -1.732  1.00  0.00    -0.390 OA
ATOM     36  H2  UNL     1      -0.844   2.141  -2.589  1.00  0.00     0.210 HD
ENDBRANCH  34  35
BRANCH  34  37
HETATM   37  C7  UNL     1      -1.994   3.719  -0.996  1.00  0.00     0.198 C 
BRANCH  37  38
HETATM   38  O3  UNL     1      -1.737   4.380  -2.173  1.00  0.00    -0.398 OA
ATOM     39  H3  UNL     1      -1.643   5.316  -2.044  1.00  0.00     0.209 HD
ENDBRANCH  37  38
ENDBRANCH  34  37
ENDBRANCH  31  34
ENDBRANCH   8  31
BRANCH   4  40
HETATM   40  N3  UNL     1      -5.147  -2.694  -1.610  1.00  0.00    -0.383 N 
ATOM     41  H32 UNL     1      -5.700  -3.476  -1.962  1.00  0.00     0.157 HD
ATOM     42  H31 UNL     1      -5.456  -1.740  -1.798  1.00  0.00     0.157 HD
ENDBRANCH   4  40
BRANCH   1  43
HETATM   43  N1  UNL     1      -2.197  -5.558   0.223  1.00  0.00    -0.234 N 
ATOM     44  H12 UNL     1      -2.758  -6.332  -0.133  1.00  0.00     0.174 HD
ATOM     45  H11 UNL     1      -1.341  -5.703   0.759  1.00  0.00     0.174 HD
ENDBRANCH   1  43
TORSDOF 13
