REMARK  4 active torsions:
REMARK  status: ('A' for Active; 'I' for Inactive)
REMARK    1  A    between atoms: C4_4  and  C5_5 
REMARK    2  A    between atoms: C14_14  and  C15_15 
REMARK    3  A    between atoms: C15_15  and  C17_17 
REMARK    4  A    between atoms: C24_24  and  O1_25 
ROOT
HETATM    1  C5  UNL     1       1.527  -0.479   1.178  1.00  0.00     0.004 C 
HETATM    2  C6  UNL     1       0.249  -0.781   1.243  1.00  0.00    -0.075 C 
HETATM    3  C7  UNL     1      -0.262  -1.479   2.444  1.00  0.00     0.034 C 
HETATM    4  C8  UNL     1      -1.427  -2.364   2.142  1.00  0.00     0.005 C 
HETATM    5  C9  UNL     1      -2.437  -1.805   1.208  1.00  0.00     0.006 C 
HETATM    6  C10 UNL     1      -2.137  -0.471   0.628  1.00  0.00    -0.002 C 
HETATM    7  C11 UNL     1      -0.670  -0.448   0.173  1.00  0.00     0.019 C 
HETATM    8  C12 UNL     1      -0.708  -1.429  -0.962  1.00  0.00     0.010 C 
HETATM    9  C13 UNL     1      -2.065  -1.182  -1.599  1.00  0.00     0.006 C 
HETATM   10  C14 UNL     1      -2.792  -0.221  -0.700  1.00  0.00    -0.006 C 
ENDROOT
BRANCH   1  11
HETATM   11  C4  UNL     1       2.093   0.204   0.029  1.00  0.00     0.008 C 
HETATM   12  C3  UNL     1       3.368   0.523  -0.072  1.00  0.00    -0.050 C 
HETATM   13  C2  UNL     1       3.926   1.209  -1.228  1.00  0.00    -0.033 C 
HETATM   14  C20 UNL     1       4.268   0.153   1.069  1.00  0.00     0.043 C 
HETATM   15  C1  UNL     1       3.348   1.006  -2.402  1.00  0.00     0.022 C 
HETATM   16  C24 UNL     1       5.101   2.113  -1.138  1.00  0.00     0.151 C 
HETATM   17  C23 UNL     1       5.606   2.125   0.273  1.00  0.00     0.041 C 
HETATM   18  C21 UNL     1       5.639   0.758   0.909  1.00  0.00    -0.012 C 
HETATM   19  C22 UNL     1       6.518  -0.215   0.196  1.00  0.00     0.010 C 
BRANCH  16  20
HETATM   20  O1  UNL     1       6.096   1.766  -2.048  1.00  0.00    -0.391 OA
ATOM     21  H1  UNL     1       6.848   2.344  -1.990  1.00  0.00     0.210 HD
ENDBRANCH  16  20
ENDBRANCH   1  11
BRANCH  10  22
HETATM   22  C15 UNL     1      -4.271  -0.428  -0.709  1.00  0.00    -0.011 C 
HETATM   23  C16 UNL     1      -4.771  -0.137  -2.109  1.00  0.00     0.011 C 
BRANCH  22  24
HETATM   24  C17 UNL     1      -5.007   0.474   0.241  1.00  0.00    -0.019 C 
HETATM   25  C18 UNL     1      -4.790   1.937  -0.080  1.00  0.00     0.010 C 
HETATM   26  C19 UNL     1      -6.495   0.202   0.049  1.00  0.00     0.010 C 
ENDBRANCH  22  24
ENDBRANCH  10  22
TORSDOF 4
