REMARK  3 active torsions:
REMARK  status: ('A' for Active; 'I' for Inactive)
REMARK    1  A    between atoms: C3_3  and  N1_4 
REMARK    2  A    between atoms: N1_4  and  C4_6 
REMARK    3  A    between atoms: C23_25  and  C24_26 
ROOT
HETATM    1  C1  UNL     1       0.233   1.669   1.075  1.00  0.00     0.017 C 
HETATM    2  C2  UNL     1       0.493   0.873   0.093  1.00  0.00    -0.062 C 
HETATM    3  C3  UNL     1      -0.119  -0.469  -0.025  1.00  0.00     0.109 C 
HETATM    4  C14 UNL     1       0.990  -1.427   0.335  1.00  0.00     0.064 C 
HETATM    5  C15 UNL     1       2.321  -0.727   0.276  1.00  0.00    -0.071 C 
HETATM    6  C16 UNL     1       3.225  -0.984   1.240  1.00  0.00    -0.081 C 
HETATM    7  C17 UNL     1       2.945  -1.927   2.346  1.00  0.00     0.043 C 
HETATM    8  C18 UNL     1       4.556  -0.321   1.189  1.00  0.00     0.038 C 
HETATM    9  C19 UNL     1       4.896  -0.290  -0.312  1.00  0.00    -0.014 C 
HETATM   10  C20 UNL     1       6.323   0.084  -0.559  1.00  0.00     0.010 C 
HETATM   11  C21 UNL     1       3.939   0.785  -0.862  1.00  0.00     0.014 C 
HETATM   12  C22 UNL     1       2.570   0.212  -0.852  1.00  0.00     0.023 C 
HETATM   13  C23 UNL     1       1.447   1.215  -0.992  1.00  0.00     0.023 C 
ENDROOT
BRANCH   3  14
HETATM   14  N1  UNL     1      -1.263  -0.710   0.780  1.00  0.00    -0.408 N 
ATOM     15  H1  UNL     1      -1.255  -1.388   1.542  1.00  0.00     0.154 HD
BRANCH  14  16
HETATM   16  C4  UNL     1      -2.418   0.050   0.461  1.00  0.00     0.085 C 
HETATM   17  C5  UNL     1      -2.945  -0.284  -0.937  1.00  0.00     0.009 C 
HETATM   18  C6  UNL     1      -3.426  -1.710  -1.021  1.00  0.00     0.011 C 
HETATM   19  C10 UNL     1      -4.139   0.622  -1.194  1.00  0.00     0.011 C 
HETATM   20  C7  UNL     1      -4.534  -1.969  -0.023  1.00  0.00    -0.013 C 
HETATM   21  C8  UNL     1      -5.697  -1.064  -0.330  1.00  0.00     0.009 C 
HETATM   22  C13 UNL     1      -3.983  -1.704   1.357  1.00  0.00     0.011 C 
HETATM   23  C9  UNL     1      -5.249   0.371  -0.190  1.00  0.00    -0.013 C 
HETATM   24  C11 UNL     1      -4.712   0.656   1.179  1.00  0.00     0.011 C 
HETATM   25  C12 UNL     1      -3.528  -0.272   1.429  1.00  0.00     0.009 C 
ENDBRANCH  14  16
ENDBRANCH   3  14
BRANCH  13  26
HETATM   26  C24 UNL     1       1.838   2.648  -0.976  1.00  0.00     0.005 C 
HETATM   27  C25 UNL     1       2.754   3.096  -2.074  1.00  0.00     0.006 C 
ENDBRANCH  13  26
TORSDOF 3
