REMARK  10 active torsions:
REMARK  status: ('A' for Active; 'I' for Inactive)
REMARK    1  A    between atoms: C2_2  and  C3_3 
REMARK    2  A    between atoms: C2_2  and  N1_11 
REMARK    3  A    between atoms: C3_3  and  C4_4 
REMARK    4  A    between atoms: C4_4  and  O1_5 
REMARK    5  A    between atoms: C10_17  and  C11_18 
REMARK    6  A    between atoms: C12_21  and  S3_22 
REMARK    7  A    between atoms: S3_22  and  C13_23 
REMARK    8  A    between atoms: C13_23  and  C14_24 
REMARK    9  A    between atoms: C14_24  and  C15_25 
REMARK   10  A    between atoms: C15_25  and  O3_26 
ROOT
HETATM    1  N1  UNL     1      -1.320  -0.223   1.539  1.00  0.00    -0.335 N 
HETATM    2  C8  UNL     1      -2.218  -0.419   2.527  1.00  0.00     0.184 A 
HETATM    3  N2  UNL     1      -1.966  -1.587   3.118  1.00  0.00    -0.345 N 
ATOM      4  H2  UNL     1      -2.480  -1.999   3.897  1.00  0.00     0.167 HD
HETATM    5  C9  UNL     1      -0.900  -2.117   2.486  1.00  0.00     0.104 A 
HETATM    6  S2  UNL     1       0.168  -3.445   2.416  1.00  0.00    -0.064 SA
HETATM    7  C10 UNL     1       1.152  -2.940   1.126  1.00  0.00     0.091 A 
HETATM    8  C12 UNL     1       0.617  -1.734   0.778  1.00  0.00     0.052 A 
HETATM    9  C18 UNL     1      -0.457  -1.296   1.484  1.00  0.00     0.088 A 
ENDROOT
BRANCH   1  10
HETATM   10  C2  UNL     1      -1.312   0.971   0.731  1.00  0.00     0.090 C 
HETATM   11  C1  UNL     1      -1.210   2.199   1.706  1.00  0.00     0.033 C 
BRANCH  10  12
HETATM   12  C3  UNL     1      -2.469   1.260  -0.114  1.00  0.00     0.064 C 
BRANCH  12  13
HETATM   13  C4  UNL     1      -2.874   0.324  -1.191  1.00  0.00     0.069 C 
HETATM   14  C5  UNL     1      -3.534  -0.942  -0.873  1.00  0.00     0.049 C 
HETATM   15  C6  UNL     1      -4.889  -0.679  -0.228  1.00  0.00     0.077 C 
HETATM   16  S1  UNL     1      -5.416   0.810  -1.126  1.00  0.00    -0.166 SA
HETATM   17  C7  UNL     1      -3.919   1.079  -2.116  1.00  0.00     0.111 C 
BRANCH  13  18
HETATM   18  O1  UNL     1      -1.833   0.103  -2.119  1.00  0.00    -0.389 OA
ATOM     19  H1  UNL     1      -2.092  -0.496  -2.809  1.00  0.00     0.210 HD
ENDBRANCH  13  18
ENDBRANCH  12  13
ENDBRANCH  10  12
ENDBRANCH   1  10
BRANCH   8  20
HETATM   20  S3  UNL     1       1.400  -0.822  -0.598  1.00  0.00    -0.125 SA
BRANCH  20  21
HETATM   21  C13 UNL     1       2.691   0.241   0.123  1.00  0.00     0.091 C 
BRANCH  21  22
HETATM   22  C14 UNL     1       3.405   1.044  -0.907  1.00  0.00    -0.010 A 
HETATM   23  C16 UNL     1       4.189   2.224  -0.335  1.00  0.00     0.013 A 
HETATM   24  C17 UNL     1       2.959   2.454  -1.156  1.00  0.00     0.013 A 
BRANCH  22  25
HETATM   25  C15 UNL     1       4.147   0.332  -2.014  1.00  0.00     0.174 C 
BRANCH  25  26
HETATM   26  O3  UNL     1       5.150  -0.495  -1.505  1.00  0.00    -0.400 OA
ATOM     27  H3  UNL     1       5.617  -0.943  -2.201  1.00  0.00     0.209 HD
ENDBRANCH  25  26
ENDBRANCH  22  25
ENDBRANCH  21  22
ENDBRANCH  20  21
ENDBRANCH   8  20
BRANCH   7  28
HETATM   28  C11 UNL     1       2.299  -3.669   0.553  1.00  0.00     0.273 C 
HETATM   29  N3  UNL     1       3.044  -3.175  -0.525  1.00  0.00    -0.057 NA
HETATM   30  O2  UNL     1       2.602  -4.774   1.068  1.00  0.00    -0.270 OA
ENDBRANCH   7  28
TORSDOF 10
