REMARK  11 active torsions:
REMARK  status: ('A' for Active; 'I' for Inactive)
REMARK    1  A    between atoms: C2_2  and  C3_3 
REMARK    2  A    between atoms: C3_3  and  C4_4 
REMARK    3  A    between atoms: C3_3  and  C6_6 
REMARK    4  A    between atoms: C6_6  and  C7_7 
REMARK    5  A    between atoms: C7_7  and  N1_8 
REMARK    6  A    between atoms: C8_9  and  S1_10 
REMARK    7  A    between atoms: S1_10  and  C9_11 
REMARK    8  A    between atoms: C9_11  and  C10_12 
REMARK    9  A    between atoms: C12_19  and  N4_20 
REMARK   10  A    between atoms: C13_23  and  N5_24 
REMARK   11  A    between atoms: N5_24  and  O2_26 
ROOT
HETATM    1  N1  UNL     1      -0.830  -2.042  -0.498  1.00  0.00    -0.293 N 
HETATM    2  C8  UNL     1       0.407  -2.056   0.035  1.00  0.00     0.150 A 
HETATM    3  N6  UNL     1       1.404  -2.741  -0.502  1.00  0.00    -0.335 N 
ATOM      4  H6  UNL     1       2.312  -2.701  -0.039  1.00  0.00     0.168 HD
HETATM    5  C14 UNL     1       1.299  -3.499  -1.637  1.00  0.00     0.057 A 
HETATM    6  C15 UNL     1       2.262  -4.225  -2.250  1.00  0.00     0.038 A 
HETATM    7  C16 UNL     1       1.912  -4.902  -3.381  1.00  0.00     0.053 A 
HETATM    8  S2  UNL     1       0.262  -4.517  -3.565  1.00  0.00    -0.094 SA
HETATM    9  C17 UNL     1       0.058  -3.507  -2.204  1.00  0.00     0.099 A 
HETATM   10  C18 UNL     1      -0.980  -2.783  -1.629  1.00  0.00     0.269 A 
HETATM   11  O3  UNL     1      -2.094  -2.833  -2.200  1.00  0.00    -0.266 OA
ENDROOT
BRANCH   2  12
HETATM   12  S1  UNL     1       0.789  -1.112   1.518  1.00  0.00    -0.087 SA
BRANCH  12  13
HETATM   13  C9  UNL     1       1.469   0.491   1.244  1.00  0.00     0.142 C 
BRANCH  13  14
HETATM   14  C10 UNL     1       2.881   0.574   0.837  1.00  0.00     0.055 A 
HETATM   15  N2  UNL     1       3.763  -0.419   0.747  1.00  0.00    -0.309 N 
HETATM   16  C11 UNL     1       5.067  -0.191   0.397  1.00  0.00     0.326 A 
ATOM     17  H2  UNL     1       3.460  -1.373   0.944  1.00  0.00     0.170 HD
HETATM   18  O1  UNL     1       5.858  -1.167   0.326  1.00  0.00    -0.247 OA
HETATM   19  N3  UNL     1       5.535   1.026   0.126  1.00  0.00    -0.293 N 
HETATM   20  C12 UNL     1       4.682   2.057   0.206  1.00  0.00     0.134 A 
ATOM     21  H3  UNL     1       6.511   1.169  -0.134  1.00  0.00     0.172 HD
HETATM   22  C13 UNL     1       3.376   1.851   0.553  1.00  0.00     0.121 A 
BRANCH  20  23
HETATM   23  N4  UNL     1       5.169   3.238  -0.065  1.00  0.00    -0.383 N 
ATOM     24  H42 UNL     1       6.144   3.392  -0.324  1.00  0.00     0.157 HD
ATOM     25  H41 UNL     1       4.520   4.022  -0.004  1.00  0.00     0.157 HD
ENDBRANCH  20  23
BRANCH  22  26
HETATM   26  N5  UNL     1       2.514   2.959   0.626  1.00  0.00    -0.264 N 
ATOM     27  H5  UNL     1       1.724   3.009  -0.017  1.00  0.00     0.194 HD
BRANCH  26  28
HETATM   28  O2  UNL     1       2.677   3.877   1.442  1.00  0.00    -0.289 OA
ATOM     29  H2  UNL     1       2.094   4.626   1.491  1.00  0.00     0.244 HD
ENDBRANCH  26  28
ENDBRANCH  22  26
ENDBRANCH  13  14
ENDBRANCH  12  13
ENDBRANCH   2  12
BRANCH   1  30
HETATM   30  C7  UNL     1      -1.925  -1.327   0.088  1.00  0.00     0.135 C 
BRANCH  30  31
HETATM   31  C6  UNL     1      -2.163   0.054  -0.431  1.00  0.00     0.025 C 
BRANCH  31  32
HETATM   32  C3  UNL     1      -3.365   0.693   0.231  1.00  0.00    -0.014 C 
BRANCH  32  33
HETATM   33  C2  UNL     1      -3.252   0.838   1.696  1.00  0.00     0.000 C 
HETATM   34  C1  UNL     1      -2.197   1.804   2.147  1.00  0.00     0.005 C 
ENDBRANCH  32  33
BRANCH  32  35
HETATM   35  C4  UNL     1      -3.705   1.968  -0.497  1.00  0.00     0.000 C 
HETATM   36  C5  UNL     1      -5.041   2.515  -0.018  1.00  0.00     0.005 C 
ENDBRANCH  32  35
ENDBRANCH  31  32
ENDBRANCH  30  31
ENDBRANCH   1  30
TORSDOF 11
