REMARK  10 active torsions:
REMARK  status: ('A' for Active; 'I' for Inactive)
REMARK    1  A    between atoms: C6_8  and  S1_9 
REMARK    2  A    between atoms: S1_9  and  C7_10 
REMARK    3  A    between atoms: C7_10  and  C8_11 
REMARK    4  A    between atoms: C8_11  and  O1_12 
REMARK    5  A    between atoms: O1_12  and  C9_13 
REMARK    6  A    between atoms: C12_16  and  C13_17 
REMARK    7  A    between atoms: C13_17  and  C14_18 
REMARK    8  A    between atoms: C17_21  and  O2_22 
REMARK    9  A    between atoms: C18_24  and  O3_25 
REMARK   10  A    between atoms: C19_27  and  O4_28 
ROOT
HETATM    1  C9  UNL     1      -0.777  -0.281  -0.497  1.00  0.00     0.156 C 
HETATM    2  C10 UNL     1      -2.179   0.245  -0.413  1.00  0.00     0.020 C 
HETATM    3  C11 UNL     1      -2.115   1.727  -0.722  1.00  0.00     0.013 C 
HETATM    4  C12 UNL     1      -2.987  -0.038   0.770  1.00  0.00     0.024 C 
HETATM    5  C17 UNL     1      -2.509  -1.057   1.755  1.00  0.00     0.154 C 
HETATM    6  C18 UNL     1      -1.069  -1.444   1.595  1.00  0.00     0.178 C 
HETATM    7  C19 UNL     1      -0.818  -1.705   0.136  1.00  0.00     0.178 C 
ENDROOT
BRANCH   1   8
HETATM    8  O1  UNL     1      -0.409  -0.361  -1.777  1.00  0.00    -0.382 OA
BRANCH   8   9
HETATM    9  C8  UNL     1       0.701   0.024  -2.361  1.00  0.00     0.178 C 
BRANCH   9  10
HETATM   10  C7  UNL     1       1.217   1.413  -2.290  1.00  0.00     0.107 C 
BRANCH  10  11
HETATM   11  S1  UNL     1       1.740   1.954  -0.652  1.00  0.00    -0.110 SA
BRANCH  11  12
HETATM   12  C6  UNL     1       3.222   1.105  -0.140  1.00  0.00     0.070 A 
HETATM   13  C5  UNL     1       3.213  -0.100   0.518  1.00  0.00     0.039 A 
HETATM   14  C4  UNL     1       4.320  -0.778   0.931  1.00  0.00     0.035 A 
HETATM   15  C3  UNL     1       5.593  -0.224   0.678  1.00  0.00     0.067 A 
HETATM   16  N1  UNL     1       6.741  -0.736   1.002  1.00  0.00    -0.352 N 
HETATM   17  C20 UNL     1       5.595   0.977   0.021  1.00  0.00     0.103 A 
HETATM   18  C2  UNL     1       7.857  -0.099   0.697  1.00  0.00     0.049 A 
ATOM     19  H1  UNL     1       6.781  -1.630   1.492  1.00  0.00     0.166 HD
HETATM   20  C1  UNL     1       9.263  -0.555   1.001  1.00  0.00     0.076 C 
HETATM   21  S2  UNL     1       7.271   1.298  -0.090  1.00  0.00    -0.057 SA
HETATM   22  N2  UNL     1       4.456   1.622  -0.376  1.00  0.00    -0.343 N 
ATOM     23  H2  UNL     1       4.535   2.515  -0.862  1.00  0.00     0.167 HD
ENDBRANCH  11  12
ENDBRANCH  10  11
ENDBRANCH   9  10
ENDBRANCH   8   9
ENDBRANCH   1   8
BRANCH   7  24
HETATM   24  O4  UNL     1      -1.881  -2.411  -0.397  1.00  0.00    -0.390 OA
ATOM     25  H4  UNL     1      -1.906  -3.279  -0.011  1.00  0.00     0.210 HD
ENDBRANCH   7  24
BRANCH   4  26
HETATM   26  C13 UNL     1      -4.439  -0.375   0.502  1.00  0.00     0.012 C 
BRANCH  26  27
HETATM   27  C14 UNL     1      -5.238   0.679  -0.173  1.00  0.00    -0.014 A 
HETATM   28  C15 UNL     1      -6.686   0.234  -0.410  1.00  0.00     0.005 A 
HETATM   29  C16 UNL     1      -5.784   0.440  -1.594  1.00  0.00     0.005 A 
ENDBRANCH  26  27
ENDBRANCH   4  26
BRANCH   6  30
HETATM   30  O3  UNL     1      -0.209  -0.537   2.172  1.00  0.00    -0.390 OA
ATOM     31  H3  UNL     1       0.703  -0.782   2.071  1.00  0.00     0.210 HD
ENDBRANCH   6  30
BRANCH   5  32
HETATM   32  O2  UNL     1      -2.675  -0.623   3.069  1.00  0.00    -0.393 OA
ATOM     33  H2  UNL     1      -2.371  -1.270   3.695  1.00  0.00     0.210 HD
ENDBRANCH   5  32
TORSDOF 10
