REMARK  6 active torsions:
REMARK  status: ('A' for Active; 'I' for Inactive)
REMARK    1  A    between atoms: C2_2  and  C3_3 
REMARK    2  A    between atoms: C4_7  and  C5_8 
REMARK    3  A    between atoms: C5_8  and  C6_9 
REMARK    4  A    between atoms: C6_9  and  N2_10 
REMARK    5  A    between atoms: N2_10  and  C7_12 
REMARK    6  A    between atoms: C9_18  and  C10_19 
ROOT
HETATM    1  C7  UNL     1       0.251  -1.618   1.009  1.00  0.00     0.680 A 
HETATM    2  N3  UNL     1      -0.398  -0.495   1.307  1.00  0.00    -0.174 N 
ATOM      3  H3  UNL     1      -0.046   0.118   2.042  1.00  0.00     0.186 HD
HETATM    4  C8  UNL     1      -1.516  -0.169   0.640  1.00  0.00     0.151 A 
HETATM    5  N4  UNL     1      -2.335   0.876   0.743  1.00  0.00    -0.329 N 
ATOM      6  H4  UNL     1      -2.213   1.643   1.404  1.00  0.00     0.168 HD
HETATM    7  C9  UNL     1      -3.344   0.785  -0.142  1.00  0.00     0.087 A 
HETATM    8  N5  UNL     1      -3.151  -0.350  -0.818  1.00  0.00    -0.341 N 
ATOM      9  H5  UNL     1      -3.753  -0.700  -1.563  1.00  0.00     0.167 HD
HETATM   10  C14 UNL     1      -2.040  -0.962  -0.366  1.00  0.00     0.101 A 
HETATM   11  C15 UNL     1      -1.353  -2.119  -0.659  1.00  0.00     0.053 A 
HETATM   12  C16 UNL     1      -1.878  -2.987  -1.722  1.00  0.00     0.071 C 
HETATM   13  N6  UNL     1      -0.227  -2.401   0.047  1.00  0.00    -0.194 N 
ATOM     14  H6  UNL     1       0.278  -3.259  -0.173  1.00  0.00     0.184 HD
ENDROOT
BRANCH   1  15
HETATM   15  N2  UNL     1       1.318  -1.938   1.639  1.00  0.00    -0.226 N 
ATOM     16  H2  UNL     1       1.794  -2.804   1.389  1.00  0.00     0.177 HD
BRANCH  15  17
HETATM   17  C6  UNL     1       1.876  -1.115   2.696  1.00  0.00     0.146 C 
BRANCH  17  18
HETATM   18  C5  UNL     1       2.600   0.063   2.081  1.00  0.00     0.107 C 
BRANCH  18  19
HETATM   19  C4  UNL     1       3.713  -0.419   1.188  1.00  0.00     0.149 A 
HETATM   20  O1  UNL     1       4.065  -1.653   0.930  1.00  0.00    -0.223 OA
HETATM   21  N1  UNL     1       5.078  -1.678   0.108  1.00  0.00    -0.247 N 
HETATM   22  C3  UNL     1       5.411  -0.410  -0.191  1.00  0.00     0.103 A 
ATOM     23  H1  UNL     1       5.539  -2.516  -0.247  1.00  0.00     0.196 HD
HETATM   24  N7  UNL     1       4.554   0.361   0.487  1.00  0.00    -0.327 N 
ATOM     25  H7  UNL     1       4.541   1.381   0.474  1.00  0.00     0.169 HD
BRANCH  22  26
HETATM   26  C2  UNL     1       6.524   0.020  -1.105  1.00  0.00     0.074 C 
HETATM   27  C1  UNL     1       6.574   1.511  -1.179  1.00  0.00     0.013 C 
ENDBRANCH  22  26
ENDBRANCH  18  19
ENDBRANCH  17  18
ENDBRANCH  15  17
ENDBRANCH   1  15
BRANCH   7  28
HETATM   28  C10 UNL     1      -4.403   1.803  -0.253  1.00  0.00     0.053 C 
HETATM   29  C11 UNL     1      -4.705   2.288  -1.647  1.00  0.00     0.012 C 
HETATM   30  C12 UNL     1      -6.179   2.352  -1.221  1.00  0.00     0.002 C 
HETATM   31  C13 UNL     1      -5.825   1.262  -0.200  1.00  0.00     0.012 C 
ENDBRANCH   7  28
TORSDOF 6
