REMARK  7 active torsions:
REMARK  status: ('A' for Active; 'I' for Inactive)
REMARK    1  A    between atoms: C2_2  and  N1_3 
REMARK    2  A    between atoms: C6_7  and  C7_8 
REMARK    3  A    between atoms: C7_8  and  C8_9 
REMARK    4  A    between atoms: C8_9  and  N2_10 
REMARK    5  A    between atoms: C9_11  and  O1_12 
REMARK    6  A    between atoms: C11_15  and  N3_16 
REMARK    7  A    between atoms: C17_23  and  O3_24 
ROOT
HETATM    1  N2  UNL     1       0.321   0.790  -1.290  1.00  0.00    -0.307 N 
HETATM    2  C9  UNL     1       0.769   2.059  -1.380  1.00  0.00     0.146 A 
HETATM    3  C10 UNL     1       2.041   2.150  -0.870  1.00  0.00     0.089 A 
HETATM    4  C11 UNL     1       2.377   0.877  -0.453  1.00  0.00     0.086 A 
HETATM    5  C17 UNL     1       1.304   0.067  -0.723  1.00  0.00     0.171 A 
ENDROOT
BRANCH   1   6
HETATM    6  C8  UNL     1      -0.980   0.342  -1.737  1.00  0.00     0.135 C 
BRANCH   6   7
HETATM    7  C7  UNL     1      -1.997   0.460  -0.633  1.00  0.00     0.056 C 
BRANCH   7   8
HETATM    8  C6  UNL     1      -3.370   0.014  -1.055  1.00  0.00     0.224 C 
HETATM    9  N1  UNL     1      -4.271   0.166   0.064  1.00  0.00     0.092 N 
HETATM   10  C3  UNL     1      -4.178  -1.049   0.838  1.00  0.00     0.273 C 
HETATM   11  C4  UNL     1      -3.525  -2.097  -0.038  1.00  0.00     0.032 C 
HETATM   12  C5  UNL     1      -3.485  -1.429  -1.401  1.00  0.00     0.037 C 
BRANCH   9  13
HETATM   13  C2  UNL     1      -5.647   0.338  -0.342  1.00  0.00     0.268 C 
HETATM   14  C1  UNL     1      -6.484   0.644   0.891  1.00  0.00     0.037 C 
ENDBRANCH   9  13
ENDBRANCH   7   8
ENDBRANCH   6   7
ENDBRANCH   1   6
BRANCH   2  15
HETATM   15  O1  UNL     1       0.025   3.098  -1.916  1.00  0.00    -0.346 OA
ATOM     16  H1  UNL     1       0.341   3.992  -1.979  1.00  0.00     0.219 HD
ENDBRANCH   2  15
BRANCH   5  17
HETATM   17  O3  UNL     1       1.248  -1.287  -0.452  1.00  0.00    -0.344 OA
ATOM     18  H3  UNL     1       1.942  -1.797  -0.052  1.00  0.00     0.219 HD
ENDBRANCH   5  17
BRANCH   4  19
HETATM   19  N3  UNL     1       3.617   0.557   0.129  1.00  0.00    -0.373 N 
HETATM   20  C12 UNL     1       4.633   1.597   0.354  1.00  0.00     0.149 C 
HETATM   21  C13 UNL     1       5.394   1.211   1.584  1.00  0.00     0.188 C 
HETATM   22  O2  UNL     1       6.150   0.063   1.363  1.00  0.00    -0.383 OA
HETATM   23  C14 UNL     1       5.552  -0.785   0.438  1.00  0.00     0.135 C 
HETATM   24  C15 UNL     1       6.000  -2.195   0.758  1.00  0.00     0.041 C 
HETATM   25  C16 UNL     1       4.024  -0.776   0.554  1.00  0.00     0.154 C 
ENDBRANCH   4  19
TORSDOF 7
