REMARK  7 active torsions:
REMARK  status: ('A' for Active; 'I' for Inactive)
REMARK    1  A    between atoms: N1_7  and  C7_8 
REMARK    2  A    between atoms: C9_10  and  O1_11 
REMARK    3  A    between atoms: N2_13  and  C10_14 
REMARK    4  A    between atoms: C10_14  and  C11_15 
REMARK    5  A    between atoms: C11_15  and  C12_16 
REMARK    6  A    between atoms: C12_16  and  N3_17 
REMARK    7  A    between atoms: C17_23  and  O3_24 
ROOT
HETATM    1  C7  UNL     1       2.117   0.175  -0.909  1.00  0.00     0.086 A 
HETATM    2  C8  UNL     1       2.101   1.566  -1.074  1.00  0.00     0.089 A 
HETATM    3  C9  UNL     1       0.821   1.981  -1.264  1.00  0.00     0.146 A 
HETATM    4  N2  UNL     1       0.030   0.891  -1.224  1.00  0.00    -0.307 N 
HETATM    5  C17 UNL     1       0.794  -0.198  -1.012  1.00  0.00     0.171 A 
ENDROOT
BRANCH   4   6
HETATM    6  C10 UNL     1      -1.409   0.888  -1.381  1.00  0.00     0.135 C 
BRANCH   6   7
HETATM    7  C11 UNL     1      -2.121   1.041  -0.051  1.00  0.00     0.050 C 
BRANCH   7   8
HETATM    8  C12 UNL     1      -3.590   1.028  -0.324  1.00  0.00     0.274 C 
BRANCH   8   9
HETATM    9  N3  UNL     1      -4.429   1.165   0.841  1.00  0.00     0.092 N 
HETATM   10  C13 UNL     1      -5.808   1.196   0.351  1.00  0.00     0.298 C 
HETATM   11  C14 UNL     1      -6.214  -0.082  -0.308  1.00  0.00     0.198 C 
HETATM   12  O2  UNL     1      -5.906  -1.192   0.484  1.00  0.00    -0.388 OA
HETATM   13  C15 UNL     1      -5.543  -0.799   1.748  1.00  0.00     0.198 C 
HETATM   14  C16 UNL     1      -4.257   0.033   1.717  1.00  0.00     0.298 C 
ENDBRANCH   8   9
ENDBRANCH   7   8
ENDBRANCH   6   7
ENDBRANCH   4   6
BRANCH   3  15
HETATM   15  O1  UNL     1       0.449   3.317  -1.462  1.00  0.00    -0.346 OA
ATOM     16  H1  UNL     1      -0.446   3.607  -1.595  1.00  0.00     0.219 HD
ENDBRANCH   3  15
BRANCH   5  17
HETATM   17  O3  UNL     1       0.298  -1.467  -0.918  1.00  0.00    -0.344 OA
ATOM     18  H3  UNL     1      -0.614  -1.724  -0.989  1.00  0.00     0.219 HD
ENDBRANCH   5  17
BRANCH   1  19
HETATM   19  N1  UNL     1       3.266  -0.605  -0.689  1.00  0.00    -0.373 N 
HETATM   20  C2  UNL     1       4.569   0.053  -0.628  1.00  0.00     0.080 C 
HETATM   21  C1  UNL     1       4.779   0.795   0.651  1.00  0.00     0.032 C 
HETATM   22  C3  UNL     1       5.697  -0.937  -0.868  1.00  0.00     0.025 C 
HETATM   23  C4  UNL     1       5.704  -2.020   0.179  1.00  0.00     0.004 C 
HETATM   24  C5  UNL     1       4.321  -2.419   0.579  1.00  0.00     0.020 C 
HETATM   25  C6  UNL     1       3.308  -2.033  -0.510  1.00  0.00     0.123 C 
ENDBRANCH   1  19
TORSDOF 7
