REMARK  7 active torsions:
REMARK  status: ('A' for Active; 'I' for Inactive)
REMARK    1  A    between atoms: C2_2  and  C3_3 
REMARK    2  A    between atoms: C3_3  and  C4_4 
REMARK    3  A    between atoms: C4_4  and  C5_5 
REMARK    4  A    between atoms: C5_5  and  C6_6 
REMARK    5  A    between atoms: C6_6  and  N1_7 
REMARK       I    between atoms: N1_7  and  C7_9 
REMARK    6  A    between atoms: C7_9  and  O2_11 
REMARK    7  A    between atoms: C13_17  and  O3_18 
ROOT
HETATM    1  C5  UNL     1      -0.156  -0.105   0.540  1.00  0.00     0.044 C 
HETATM    2  C9  UNL     1      -0.487  -1.065  -0.505  1.00  0.00     0.073 C 
HETATM    3  C10 UNL     1      -1.452  -0.965  -1.552  1.00  0.00    -0.006 C 
HETATM    4  C11 UNL     1      -2.904  -0.903  -1.410  1.00  0.00     0.010 C 
HETATM    5  C12 UNL     1      -1.305  -2.460  -2.043  1.00  0.00     0.042 C 
HETATM    6  C13 UNL     1      -1.657  -3.101  -0.683  1.00  0.00     0.184 C 
HETATM    7  C14 UNL     1      -1.086  -2.231   0.327  1.00  0.00     0.231 C 
HETATM    8  O4  UNL     1      -0.183  -2.745   1.189  1.00  0.00    -0.194 OA
HETATM    9  O5  UNL     1      -0.026  -1.827   2.113  1.00  0.00    -0.197 OA
HETATM   10  C15 UNL     1      -0.805  -0.730   1.726  1.00  0.00     0.206 C 
HETATM   11  C16 UNL     1      -1.127   0.068   2.884  1.00  0.00     0.083 C 
HETATM   12  O6  UNL     1      -1.878  -1.468   1.159  1.00  0.00    -0.310 OA
ENDROOT
BRANCH   1  13
HETATM   13  C4  UNL     1      -0.269   1.318   0.321  1.00  0.00     0.017 C 
BRANCH  13  14
HETATM   14  C3  UNL     1      -1.494   2.059   0.033  1.00  0.00     0.001 C 
BRANCH  14  15
HETATM   15  C2  UNL     1      -1.062   3.550  -0.061  1.00  0.00    -0.005 C 
HETATM   16  C1  UNL     1      -0.449   4.016   1.240  1.00  0.00     0.005 C 
ENDBRANCH  14  15
ENDBRANCH  13  14
ENDBRANCH   1  13
BRANCH   1  17
HETATM   17  C6  UNL     1       1.368  -0.309   0.804  1.00  0.00     0.140 C 
BRANCH  17  18
HETATM   18  N1  UNL     1       2.109   0.096  -0.380  1.00  0.00    -0.336 N 
HETATM   19  C7  UNL     1       3.546   0.013  -0.327  1.00  0.00     0.360 C 
HETATM   20  O1  UNL     1       4.129  -0.393   0.703  1.00  0.00    -0.239 OA
ATOM     21  H1  UNL     1       1.629   0.427  -1.217  1.00  0.00     0.164 HD
BRANCH  19  22
HETATM   22  O2  UNL     1       4.260   0.395  -1.444  1.00  0.00    -0.309 OA
HETATM   23  C8  UNL     1       5.691   0.341  -1.466  1.00  0.00     0.215 C 
ENDBRANCH  19  22
ENDBRANCH  17  18
ENDBRANCH   1  17
BRANCH   6  24
HETATM   24  O3  UNL     1      -0.892  -4.299  -0.694  1.00  0.00    -0.390 OA
ATOM     25  H3  UNL     1      -1.109  -4.693   0.143  1.00  0.00     0.210 HD
ENDBRANCH   6  24
TORSDOF 7
