REMARK  7 active torsions:
REMARK  status: ('A' for Active; 'I' for Inactive)
REMARK    1  A    between atoms: C6_6  and  C7_7 
REMARK    2  A    between atoms: C7_7  and  S1_8 
REMARK    3  A    between atoms: S1_8  and  N1_11 
REMARK    4  A    between atoms: N1_11  and  C8_13 
REMARK       I    between atoms: N2_16  and  C11_17 
REMARK    5  A    between atoms: C11_17  and  C12_19 
REMARK    6  A    between atoms: C15_22  and  N3_23 
REMARK    7  A    between atoms: N3_23  and  C16_25 
ROOT
HETATM    1  C8  UNL     1      -1.130  -0.637  -0.699  1.00  0.00     0.096 C 
HETATM    2  C9  UNL     1      -0.108  -1.583  -1.226  1.00  0.00     0.045 C 
HETATM    3  C10 UNL     1       1.219  -1.355  -0.530  1.00  0.00     0.128 C 
HETATM    4  N2  UNL     1       1.658  -0.022  -0.909  1.00  0.00    -0.350 N 
HETATM    5  C11 UNL     1       2.970   0.292  -1.353  1.00  0.00     0.250 C 
HETATM    6  O3  UNL     1       3.181   1.513  -1.668  1.00  0.00    -0.271 OA
HETATM    7  C20 UNL     1       0.648   1.017  -0.810  1.00  0.00     0.128 C 
HETATM    8  C21 UNL     1      -0.449   0.471   0.079  1.00  0.00     0.045 C 
ENDROOT
BRANCH   1   9
HETATM    9  N1  UNL     1      -1.898   0.011  -1.742  1.00  0.00    -0.315 N 
ATOM     10  H1  UNL     1      -1.498   0.573  -2.493  1.00  0.00     0.172 HD
BRANCH   9  11
HETATM   11  S1  UNL     1      -3.626  -0.307  -1.535  1.00  0.00     0.227 S 
HETATM   12  O1  UNL     1      -4.183   0.455  -2.740  1.00  0.00    -0.206 OA
HETATM   13  O2  UNL     1      -3.790  -1.739  -1.797  1.00  0.00    -0.206 OA
BRANCH  11  14
HETATM   14  C7  UNL     1      -4.118   0.334  -0.043  1.00  0.00     0.175 C 
BRANCH  14  15
HETATM   15  C6  UNL     1      -5.446   0.262   0.527  1.00  0.00    -0.002 C 
HETATM   16  C2  UNL     1      -6.666   0.807  -0.068  1.00  0.00    -0.028 C 
HETATM   17  C1  UNL     1      -7.015   0.581  -1.504  1.00  0.00     0.016 C 
HETATM   18  C3  UNL     1      -7.129   2.165   0.398  1.00  0.00     0.016 C 
HETATM   19  C4  UNL     1      -7.459  -0.257   0.730  1.00  0.00     0.056 C 
HETATM   20  C5  UNL     1      -6.144  -1.038   0.730  1.00  0.00     0.025 C 
HETATM   21  C23 UNL     1      -7.690   0.261   2.077  1.00  0.00     0.078 C 
HETATM   22  N5  UNL     1      -6.532   0.820   2.690  1.00  0.00    -0.383 N 
HETATM   23  S2  UNL     1      -9.152   0.186   2.776  1.00  0.00    -0.065 SA
HETATM   24  C22 UNL     1      -5.334   0.887   1.948  1.00  0.00     0.131 C 
ATOM     25  H5  UNL     1      -6.568   1.166   3.649  1.00  0.00     0.160 HD
ENDBRANCH  14  15
ENDBRANCH  11  14
ENDBRANCH   9  11
ENDBRANCH   1   9
BRANCH   5  26
HETATM   26  C12 UNL     1       4.077  -0.695  -1.468  1.00  0.00     0.277 C 
HETATM   27  C13 UNL     1       4.383  -1.295  -0.149  1.00  0.00     0.045 C 
HETATM   28  C14 UNL     1       5.678  -0.961   0.497  1.00  0.00     0.029 C 
HETATM   29  C15 UNL     1       6.827  -0.650  -0.386  1.00  0.00     0.102 C 
HETATM   30  C19 UNL     1       6.370  -0.856  -1.840  1.00  0.00     0.257 C 
HETATM   31  N4  UNL     1       5.209  -0.009  -2.066  1.00  0.00    -0.060 N 
ATOM     32  H42 UNL     1       5.066   0.227  -3.048  1.00  0.00     0.278 HD
ATOM     33  H41 UNL     1       5.331   0.944  -1.723  1.00  0.00     0.278 HD
BRANCH  29  34
HETATM   34  N3  UNL     1       7.416   0.628  -0.271  1.00  0.00    -0.411 N 
ATOM     35  H3  UNL     1       7.382   1.276  -1.058  1.00  0.00     0.154 HD
BRANCH  34  36
HETATM   36  C16 UNL     1       8.051   1.013   0.929  1.00  0.00     0.077 A 
HETATM   37  C17 UNL     1       9.255   0.314   1.453  1.00  0.00     0.027 A 
HETATM   38  C18 UNL     1       7.952   0.347   2.232  1.00  0.00     0.027 A 
ENDBRANCH  34  36
ENDBRANCH  29  34
ENDBRANCH   5  26
TORSDOF 7
