REMARK  8 active torsions:
REMARK  status: ('A' for Active; 'I' for Inactive)
REMARK       I    between atoms: C1_2  and  N1_3 
REMARK       I    between atoms: C1_2  and  N2_13 
REMARK    1  A    between atoms: N1_3  and  C2_5 
REMARK    2  A    between atoms: C2_5  and  C3_6 
REMARK    3  A    between atoms: N2_13  and  S1_15 
REMARK    4  A    between atoms: S1_15  and  N3_18 
REMARK    5  A    between atoms: N3_18  and  S2_20 
REMARK    6  A    between atoms: S2_20  and  N4_23 
REMARK       I    between atoms: N4_23  and  C10_25 
REMARK    7  A    between atoms: C10_25  and  O7_27 
REMARK    8  A    between atoms: O7_27  and  C11_28 
ROOT
HETATM    1  N3  UNL     1      -0.048   0.861  -1.561  1.00  0.00    -0.177 N 
ATOM      2  H3  UNL     1      -0.277   1.420  -2.383  1.00  0.00     0.195 HD
ENDROOT
BRANCH   1   3
HETATM    3  S1  UNL     1       0.734   1.437  -0.143  1.00  0.00     0.337 S 
HETATM    4  O2  UNL     1       0.434   0.471   0.985  1.00  0.00    -0.181 OA
HETATM    5  O3  UNL     1       0.194   2.804   0.231  1.00  0.00    -0.181 OA
BRANCH   3   6
HETATM    6  N2  UNL     1       2.431   1.510  -0.424  1.00  0.00    -0.218 N 
HETATM    7  C1  UNL     1       3.348   0.828   0.403  1.00  0.00     0.330 C 
HETATM    8  O1  UNL     1       2.921   0.123   1.383  1.00  0.00    -0.246 OA
HETATM    9  N1  UNL     1       4.733   0.933   0.141  1.00  0.00    -0.342 N 
ATOM     10  H1  UNL     1       5.072   1.497  -0.638  1.00  0.00     0.164 HD
ATOM     11  H2  UNL     1       2.782   2.060  -1.208  1.00  0.00     0.185 HD
BRANCH   9  12
HETATM   12  C2  UNL     1       5.659   0.228   0.996  1.00  0.00     0.129 C 
BRANCH  12  13
HETATM   13  C3  UNL     1       7.065   0.487   0.577  1.00  0.00     0.008 C 
HETATM   14  C4  UNL     1       7.387   0.062  -0.838  1.00  0.00     0.011 C 
HETATM   15  C5  UNL     1       8.788  -0.491  -0.653  1.00  0.00    -0.014 C 
HETATM   16  C6  UNL     1       9.708   0.553  -0.079  1.00  0.00     0.005 C 
HETATM   17  C9  UNL     1       8.529  -1.337   0.608  1.00  0.00     0.010 C 
HETATM   18  C7  UNL     1       9.339   0.695   1.398  1.00  0.00     0.005 C 
HETATM   19  C8  UNL     1       8.085  -0.148   1.480  1.00  0.00    -0.009 C 
ENDBRANCH  12  13
ENDBRANCH   9  12
ENDBRANCH   3   6
ENDBRANCH   1   3
BRANCH   1  20
HETATM   20  S2  UNL     1      -0.385  -0.839  -1.362  1.00  0.00     0.337 S 
HETATM   21  O4  UNL     1      -0.514  -1.389  -2.771  1.00  0.00    -0.181 OA
HETATM   22  O5  UNL     1       0.788  -1.469  -0.700  1.00  0.00    -0.181 OA
BRANCH  20  23
HETATM   23  N4  UNL     1      -1.854  -1.049  -0.479  1.00  0.00    -0.212 N 
HETATM   24  C10 UNL     1      -3.082  -0.712  -1.094  1.00  0.00     0.375 C 
HETATM   25  O6  UNL     1      -3.067  -0.280  -2.268  1.00  0.00    -0.237 OA
ATOM     26  H4  UNL     1      -1.836  -1.412   0.474  1.00  0.00     0.185 HD
BRANCH  24  27
HETATM   27  O7  UNL     1      -4.310  -0.826  -0.477  1.00  0.00    -0.297 OA
BRANCH  27  28
HETATM   28  C11 UNL     1      -5.552  -0.513  -1.019  1.00  0.00     0.142 C 
HETATM   29  C12 UNL     1      -5.990   0.760  -0.255  1.00  0.00     0.016 C 
HETATM   30  C13 UNL     1      -6.231   0.438   1.183  1.00  0.00     0.012 C 
HETATM   31  C17 UNL     1      -7.209   1.350  -0.876  1.00  0.00     0.012 C 
HETATM   32  C14 UNL     1      -7.358  -0.563   1.335  1.00  0.00    -0.013 C 
HETATM   33  C15 UNL     1      -8.596   0.041   0.736  1.00  0.00     0.009 C 
HETATM   34  C20 UNL     1      -6.950  -1.808   0.611  1.00  0.00     0.012 C 
HETATM   35  C16 UNL     1      -8.333   0.347  -0.714  1.00  0.00    -0.013 C 
HETATM   36  C18 UNL     1      -7.919  -0.903  -1.418  1.00  0.00     0.012 C 
HETATM   37  C19 UNL     1      -6.639  -1.500  -0.837  1.00  0.00     0.016 C 
ENDBRANCH  27  28
ENDBRANCH  24  27
ENDBRANCH  20  23
ENDBRANCH   1  20
TORSDOF 8
