REMARK  7 active torsions:
REMARK  status: ('A' for Active; 'I' for Inactive)
REMARK    1  A    between atoms: C4_5  and  C5_6 
REMARK    2  A    between atoms: C14_19  and  O4_20 
REMARK    3  A    between atoms: C18_25  and  C19_26 
REMARK       I    between atoms: C19_26  and  N2_28 
REMARK    4  A    between atoms: N2_28  and  C20_30 
REMARK    5  A    between atoms: C20_30  and  C21_31 
REMARK    6  A    between atoms: C21_31  and  C22_32 
REMARK    7  A    between atoms: C22_32  and  N3_33 
ROOT
HETATM    1  C1  UNL     1      -5.130   0.644  -1.860  1.00  0.00     0.026 C 
HETATM    2  C2  UNL     1      -4.830   0.568  -0.379  1.00  0.00     0.048 C 
HETATM    3  C3  UNL     1      -5.761   1.549   0.298  1.00  0.00     0.152 C 
HETATM    4  O1  UNL     1      -6.812   1.519   0.891  1.00  0.00    -0.296 OA
HETATM    5  C4  UNL     1      -4.740   2.582  -0.128  1.00  0.00     0.162 C 
HETATM    6  C6  UNL     1      -3.734   1.451   0.033  1.00  0.00     0.025 C 
HETATM    7  C7  UNL     1      -2.541   1.487  -0.875  1.00  0.00     0.008 C 
HETATM    8  C8  UNL     1      -1.268   1.263  -0.118  1.00  0.00     0.011 C 
HETATM    9  C9  UNL     1      -0.982  -0.109   0.347  1.00  0.00    -0.030 C 
HETATM   10  C10 UNL     1      -0.802  -0.077   1.856  1.00  0.00     0.054 C 
HETATM   11  C11 UNL     1      -0.896  -1.409   2.499  1.00  0.00     0.056 C 
HETATM   12  N1  UNL     1      -1.962  -2.236   2.103  1.00  0.00    -0.397 N 
ATOM     13  H1  UNL     1      -2.186  -3.087   2.618  1.00  0.00     0.159 HD
HETATM   14  C12 UNL     1      -2.721  -1.847   0.957  1.00  0.00     0.087 C 
HETATM   15  C13 UNL     1      -3.994  -1.110   1.312  1.00  0.00     0.058 C 
HETATM   16  C14 UNL     1      -4.835  -0.813   0.131  1.00  0.00     0.136 C 
HETATM   17  C15 UNL     1      -1.886  -1.204  -0.101  1.00  0.00     0.017 C 
HETATM   18  C16 UNL     1      -1.087  -2.374  -0.721  1.00  0.00     0.008 C 
HETATM   19  C17 UNL     1      -0.408  -1.946  -1.977  1.00  0.00     0.014 C 
HETATM   20  C18 UNL     1       0.392  -0.705  -1.683  1.00  0.00     0.078 C 
HETATM   21  C27 UNL     1       0.424  -0.455  -0.188  1.00  0.00     0.024 C 
ENDROOT
BRANCH  20  22
HETATM   22  C19 UNL     1       1.795  -0.946  -2.087  1.00  0.00     0.221 C 
HETATM   23  O5  UNL     1       2.136  -2.074  -2.536  1.00  0.00    -0.273 OA
HETATM   24  N2  UNL     1       2.809   0.047  -1.997  1.00  0.00    -0.361 N 
ATOM     25  H2  UNL     1       2.550   0.966  -1.638  1.00  0.00     0.162 HD
BRANCH  24  26
HETATM   26  C20 UNL     1       4.167  -0.165  -2.378  1.00  0.00     0.124 C 
BRANCH  26  27
HETATM   27  C21 UNL     1       4.834  -1.268  -1.582  1.00  0.00     0.039 C 
BRANCH  27  28
HETATM   28  C22 UNL     1       4.831  -0.926  -0.091  1.00  0.00     0.118 C 
BRANCH  28  29
HETATM   29  N3  UNL     1       5.535   0.285   0.173  1.00  0.00    -0.408 N 
HETATM   30  C23 UNL     1       6.939   0.222  -0.036  1.00  0.00     0.143 C 
HETATM   31  C24 UNL     1       7.796   0.650   1.106  1.00  0.00     0.187 C 
HETATM   32  O6  UNL     1       7.251   1.649   1.887  1.00  0.00    -0.388 OA
HETATM   33  C25 UNL     1       6.044   1.147   2.409  1.00  0.00     0.187 C 
HETATM   34  C26 UNL     1       5.077   1.067   1.267  1.00  0.00     0.143 C 
ENDBRANCH  28  29
ENDBRANCH  27  28
ENDBRANCH  26  27
ENDBRANCH  24  26
ENDBRANCH  20  22
BRANCH  16  35
HETATM   35  O4  UNL     1      -6.188  -1.167   0.355  1.00  0.00    -0.394 OA
ATOM     36  H4  UNL     1      -6.191  -2.058   0.684  1.00  0.00     0.210 HD
ENDBRANCH  16  35
BRANCH   5  37
HETATM   37  C5  UNL     1      -4.624   3.644   0.895  1.00  0.00     0.184 C 
HETATM   38  O2  UNL     1      -3.525   3.844   1.452  1.00  0.00    -0.647 OA
HETATM   39  O3  UNL     1      -5.735   4.428   1.245  1.00  0.00    -0.647 OA
ENDBRANCH   5  37
TORSDOF 7
