REMARK  11 active torsions:
REMARK  status: ('A' for Active; 'I' for Inactive)
REMARK    1  A    between atoms: C2_2  and  C3_3 
REMARK    2  A    between atoms: C3_3  and  C6_6 
REMARK    3  A    between atoms: C7_7  and  C8_8 
REMARK    4  A    between atoms: C11_13  and  N2_14 
REMARK       I    between atoms: N2_14  and  C12_16 
REMARK    5  A    between atoms: C12_16  and  C13_18 
REMARK    6  A    between atoms: C13_18  and  N3_20 
REMARK    7  A    between atoms: C17_26  and  O3_27 
REMARK    8  A    between atoms: C18_29  and  C19_30 
REMARK    9  A    between atoms: C21_33  and  C23_35 
REMARK   10  A    between atoms: C23_35  and  S1_36 
REMARK   11  A    between atoms: C25_38  and  O5_39 
ROOT
HETATM    1  C6  UNL     1       2.539  -0.120   0.475  1.00  0.00     0.079 C 
HETATM    2  C7  UNL     1       2.070  -1.541   0.355  1.00  0.00     0.100 C 
HETATM    3  N1  UNL     1       0.985  -1.084  -0.471  1.00  0.00    -0.306 N 
HETATM    4  C10 UNL     1      -0.238  -1.527  -1.027  1.00  0.00     0.269 C 
HETATM    5  O1  UNL     1      -0.266  -2.748  -1.316  1.00  0.00    -0.266 OA
HETATM    6  C11 UNL     1      -1.482  -0.819  -1.330  1.00  0.00     0.086 C 
HETATM    7  C15 UNL     1      -1.510   0.631  -1.202  1.00  0.00     0.058 C 
HETATM    8  C16 UNL     1      -0.218   1.223  -1.731  1.00  0.00     0.060 C 
HETATM    9  C17 UNL     1       0.688   1.354  -0.519  1.00  0.00     0.137 C 
HETATM   10  C18 UNL     1      -0.283   1.351   0.618  1.00  0.00     0.014 C 
HETATM   11  C21 UNL     1      -1.657   1.355   0.065  1.00  0.00     0.004 C 
HETATM   12  C22 UNL     1      -2.565   0.761   1.108  1.00  0.00     0.022 C 
HETATM   13  C25 UNL     1       1.616   0.174  -0.597  1.00  0.00     0.179 C 
ENDROOT
BRANCH   6  14
HETATM   14  N2  UNL     1      -2.580  -1.578  -0.789  1.00  0.00    -0.324 N 
HETATM   15  C12 UNL     1      -3.564  -2.244  -1.612  1.00  0.00     0.252 C 
HETATM   16  O2  UNL     1      -3.403  -2.120  -2.853  1.00  0.00    -0.271 OA
ATOM     17  H2  UNL     1      -2.668  -1.649   0.225  1.00  0.00     0.169 HD
BRANCH  15  18
HETATM   18  C13 UNL     1      -4.679  -3.015  -1.076  1.00  0.00     0.271 C 
HETATM   19  C14 UNL     1      -4.783  -4.419  -1.637  1.00  0.00     0.050 C 
BRANCH  18  20
HETATM   20  N3  UNL     1      -4.687  -3.035   0.389  1.00  0.00    -0.067 N 
ATOM     21  H33 UNL     1      -3.797  -3.369   0.758  1.00  0.00     0.275 HD
ATOM     22  H32 UNL     1      -4.676  -2.089   0.770  1.00  0.00     0.275 HD
ATOM     23  H31 UNL     1      -5.467  -3.574   0.764  1.00  0.00     0.275 HD
ENDBRANCH  18  20
ENDBRANCH  15  18
ENDBRANCH   6  14
BRANCH  11  24
HETATM   24  C23 UNL     1      -2.248   2.709  -0.306  1.00  0.00     0.088 C 
BRANCH  24  25
HETATM   25  S1  UNL     1      -2.590   3.785   1.081  1.00  0.00    -0.172 SA
HETATM   26  C24 UNL     1      -3.279   5.331   0.428  1.00  0.00     0.089 C 
ENDBRANCH  24  25
ENDBRANCH  11  24
BRANCH   2  27
HETATM   27  C8  UNL     1       1.659  -2.181   1.668  1.00  0.00     0.021 C 
HETATM   28  C9  UNL     1       1.234  -3.599   1.374  1.00  0.00     0.007 C 
ENDBRANCH   2  27
BRANCH  13  29
HETATM   29  O5  UNL     1       2.290   0.264  -1.842  1.00  0.00    -0.367 OA
ATOM     30  H5  UNL     1       1.683   0.457  -2.547  1.00  0.00     0.212 HD
ENDBRANCH  13  29
BRANCH   9  31
HETATM   31  O3  UNL     1       1.375   2.525  -0.711  1.00  0.00    -0.380 OA
ATOM     32  H3  UNL     1       1.942   2.607   0.047  1.00  0.00     0.211 HD
ENDBRANCH   9  31
BRANCH  10  33
HETATM   33  C19 UNL     1       0.074   2.064   1.807  1.00  0.00     0.151 C 
HETATM   34  C20 UNL     1       0.511   3.451   2.057  1.00  0.00     0.096 C 
HETATM   35  O4  UNL     1       0.038   1.468   2.914  1.00  0.00    -0.293 OA
ENDBRANCH  10  33
BRANCH   1  36
HETATM   36  C3  UNL     1       4.020  -0.055   0.288  1.00  0.00    -0.021 C 
HETATM   37  C4  UNL     1       4.652  -0.997   1.329  1.00  0.00     0.019 C 
HETATM   38  C5  UNL     1       4.657   1.276   0.567  1.00  0.00     0.019 C 
BRANCH  36  39
HETATM   39  C2  UNL     1       4.522  -0.538  -1.015  1.00  0.00    -0.027 C 
HETATM   40  C1  UNL     1       5.385   0.137  -1.767  1.00  0.00     0.007 C 
ENDBRANCH  36  39
ENDBRANCH   1  36
TORSDOF 11
