REMARK  9 active torsions:
REMARK  status: ('A' for Active; 'I' for Inactive)
REMARK       I    between atoms: N2_9  and  C8_11 
REMARK    1  A    between atoms: C8_11  and  C9_13 
REMARK    2  A    between atoms: C9_13  and  C10_14 
REMARK    3  A    between atoms: C10_14  and  N3_17 
REMARK    4  A    between atoms: C14_23  and  C15_24 
REMARK    5  A    between atoms: C15_24  and  C16_25 
REMARK    6  A    between atoms: C16_25  and  C17_26 
REMARK    7  A    between atoms: C17_26  and  C18_27 
REMARK    8  A    between atoms: C18_27  and  N4_28 
REMARK    9  A    between atoms: C20_36  and  C21_37 
ROOT
HETATM    1  C1  UNL     1       0.223  -5.395   1.048  1.00  0.00     0.032 C 
HETATM    2  C2  UNL     1      -0.043  -5.477  -0.415  1.00  0.00     0.085 C 
HETATM    3  C3  UNL     1       0.473  -4.328  -1.200  1.00  0.00     0.084 C 
HETATM    4  C4  UNL     1      -0.042  -2.983  -0.666  1.00  0.00     0.044 C 
HETATM    5  C5  UNL     1       0.818  -2.061  -0.414  1.00  0.00     0.098 C 
HETATM    6  C6  UNL     1       2.257  -2.468  -0.688  1.00  0.00     0.104 C 
HETATM    7  N1  UNL     1       3.399  -2.767  -0.885  1.00  0.00    -0.191 NA
HETATM    8  C7  UNL     1       0.839  -0.682   0.059  1.00  0.00     0.106 C 
HETATM    9  N2  UNL     1       1.663  -0.311   0.975  1.00  0.00    -0.323 N 
ATOM     10  H2  UNL     1       2.251  -1.083   1.289  1.00  0.00     0.169 HD
HETATM   11  C8  UNL     1       1.952   0.837   1.629  1.00  0.00     0.224 C 
HETATM   12  O1  UNL     1       1.558   0.971   2.843  1.00  0.00    -0.273 OA
HETATM   13  C13 UNL     1      -0.036   0.435  -0.424  1.00  0.00     0.200 C 
HETATM   14  O2  UNL     1      -0.302   1.299   0.443  1.00  0.00    -0.288 OA
HETATM   15  C14 UNL     1      -0.548   0.526  -1.774  1.00  0.00     0.161 C 
HETATM   16  N5  UNL     1      -1.945   0.165  -1.923  1.00  0.00    -0.344 N 
ATOM     17  H5  UNL     1      -2.568   0.881  -2.296  1.00  0.00     0.163 HD
HETATM   18  C19 UNL     1      -2.528  -1.085  -1.601  1.00  0.00     0.269 C 
HETATM   19  O3  UNL     1      -3.328  -1.557  -2.501  1.00  0.00    -0.266 OA
HETATM   20  C20 UNL     1      -2.316  -1.881  -0.369  1.00  0.00     0.111 C 
HETATM   21  N6  UNL     1      -1.503  -3.048  -0.557  1.00  0.00    -0.285 N 
HETATM   22  C24 UNL     1      -2.162  -4.310  -0.610  1.00  0.00     0.179 C 
HETATM   23  S1  UNL     1      -3.795  -4.423  -0.589  1.00  0.00    -0.040 SA
HETATM   24  N7  UNL     1      -1.446  -5.563  -0.757  1.00  0.00    -0.362 N 
ATOM     25  H7  UNL     1      -1.891  -6.425  -1.072  1.00  0.00     0.162 HD
ENDROOT
BRANCH  20  26
HETATM   26  C21 UNL     1      -3.411  -1.699   0.603  1.00  0.00    -0.055 C 
HETATM   27  C22 UNL     1      -3.397  -2.414   1.893  1.00  0.00     0.045 C 
HETATM   28  C23 UNL     1      -4.762  -1.294   0.064  1.00  0.00     0.045 C 
ENDBRANCH  20  26
BRANCH  11  29
HETATM   29  C9  UNL     1       2.703   2.012   1.105  1.00  0.00     0.141 C 
BRANCH  29  30
HETATM   30  C10 UNL     1       3.820   2.432   2.047  1.00  0.00     0.124 C 
HETATM   31  C11 UNL     1       4.818   1.286   2.235  1.00  0.00     0.046 C 
HETATM   32  C12 UNL     1       4.590   3.580   1.441  1.00  0.00     0.046 C 
BRANCH  30  33
HETATM   33  N3  UNL     1       3.346   2.844   3.347  1.00  0.00    -0.071 N 
ATOM     34  H33 UNL     1       2.648   3.583   3.261  1.00  0.00     0.275 HD
ATOM     35  H32 UNL     1       2.770   2.116   3.770  1.00  0.00     0.275 HD
ATOM     36  H31 UNL     1       4.095   3.126   3.979  1.00  0.00     0.275 HD
ENDBRANCH  30  33
ENDBRANCH  29  30
ENDBRANCH  11  29
BRANCH  15  37
HETATM   37  C15 UNL     1      -0.275   1.841  -2.404  1.00  0.00     0.033 C 
BRANCH  37  38
HETATM   38  C16 UNL     1      -0.881   2.993  -1.693  1.00  0.00     0.004 C 
BRANCH  38  39
HETATM   39  C17 UNL     1      -0.593   4.310  -2.462  1.00  0.00     0.027 C 
BRANCH  39  40
HETATM   40  C18 UNL     1      -1.224   5.451  -1.676  1.00  0.00     0.229 C 
BRANCH  40  41
HETATM   41  N4  UNL     1      -0.601   5.461  -0.343  1.00  0.00    -0.079 N 
ATOM     42  H43 UNL     1      -0.668   4.563   0.135  1.00  0.00     0.274 HD
ATOM     43  H42 UNL     1       0.417   5.516  -0.379  1.00  0.00     0.274 HD
ATOM     44  H41 UNL     1      -1.024   6.225   0.184  1.00  0.00     0.274 HD
ENDBRANCH  40  41
ENDBRANCH  39  40
ENDBRANCH  38  39
ENDBRANCH  37  38
ENDBRANCH  15  37
TORSDOF 9
