REMARK  8 active torsions:
REMARK  status: ('A' for Active; 'I' for Inactive)
REMARK    1  A    between atoms: C2_2  and  C4_4 
REMARK    2  A    between atoms: C4_4  and  C5_5 
REMARK    3  A    between atoms: C5_5  and  C7_7 
REMARK    4  A    between atoms: C7_7  and  C8_8 
REMARK    5  A    between atoms: C10_13  and  C11_14 
REMARK    6  A    between atoms: C11_14  and  C12_15 
REMARK    7  A    between atoms: C16_22  and  C17_23 
REMARK    8  A    between atoms: C23_33  and  O5_34 
ROOT
HETATM    1  C8  UNL     1       1.169  -0.884  -0.546  1.00  0.00     0.090 C 
HETATM    2  N1  UNL     1       0.901  -0.002   0.540  1.00  0.00    -0.354 N 
ATOM      3  H1  UNL     1       1.682   0.153   1.178  1.00  0.00     0.162 HD
HETATM    4  C9  UNL     1      -0.276   0.683   0.860  1.00  0.00     0.240 C 
HETATM    5  O1  UNL     1      -0.546   0.702   2.121  1.00  0.00    -0.271 OA
HETATM    6  C10 UNL     1      -1.233   1.368  -0.006  1.00  0.00     0.177 C 
HETATM    7  N2  UNL     1      -1.674   0.616  -1.163  1.00  0.00    -0.346 N 
ATOM      8  H2  UNL     1      -1.228   0.844  -2.052  1.00  0.00     0.163 HD
HETATM    9  C15 UNL     1      -2.647  -0.390  -1.190  1.00  0.00     0.241 C 
HETATM   10  O2  UNL     1      -2.770  -1.041  -2.292  1.00  0.00    -0.271 OA
HETATM   11  C16 UNL     1      -3.564  -0.810  -0.108  1.00  0.00     0.180 C 
HETATM   12  N3  UNL     1      -3.710  -2.261  -0.245  1.00  0.00    -0.345 N 
ATOM     13  H3  UNL     1      -3.828  -2.606  -1.198  1.00  0.00     0.163 HD
HETATM   14  C20 UNL     1      -3.709  -3.233   0.753  1.00  0.00     0.250 C 
HETATM   15  O3  UNL     1      -4.800  -3.891   0.950  1.00  0.00    -0.271 OA
HETATM   16  C21 UNL     1      -2.607  -3.641   1.650  1.00  0.00     0.247 A 
HETATM   17  O4  UNL     1      -2.750  -3.595   3.026  1.00  0.00    -0.360 OA
HETATM   18  C22 UNL     1      -1.787  -2.735   2.279  1.00  0.00     0.215 A 
HETATM   19  C23 UNL     1      -0.391  -3.294   2.545  1.00  0.00     0.288 C 
HETATM   20  O6  UNL     1       0.618  -2.476   2.124  1.00  0.00    -0.358 OA
HETATM   21  C24 UNL     1       1.285  -2.902   0.972  1.00  0.00     0.177 C 
HETATM   22  C25 UNL     1       0.692  -2.302  -0.274  1.00  0.00     0.028 C 
HETATM   23  C26 UNL     1       0.949  -3.116  -1.515  1.00  0.00     0.014 C 
ENDROOT
BRANCH   1  24
HETATM   24  C7  UNL     1       2.570  -0.962  -1.046  1.00  0.00     0.029 C 
BRANCH  24  25
HETATM   25  C5  UNL     1       3.206   0.248  -1.616  1.00  0.00    -0.016 C 
HETATM   26  C6  UNL     1       4.442  -0.224  -2.375  1.00  0.00     0.010 C 
BRANCH  25  27
HETATM   27  C4  UNL     1       3.391   1.435  -0.773  1.00  0.00     0.008 C 
BRANCH  27  28
HETATM   28  C2  UNL     1       4.376   1.383   0.343  1.00  0.00    -0.023 C 
HETATM   29  C1  UNL     1       5.807   1.126  -0.030  1.00  0.00     0.009 C 
HETATM   30  C3  UNL     1       4.380   2.740   1.070  1.00  0.00     0.009 C 
ENDBRANCH  27  28
ENDBRANCH  25  27
ENDBRANCH  24  25
ENDBRANCH   1  24
BRANCH   6  31
HETATM   31  C11 UNL     1      -0.899   2.747  -0.449  1.00  0.00     0.038 C 
BRANCH  31  32
HETATM   32  C12 UNL     1      -0.735   3.807   0.583  1.00  0.00    -0.020 C 
HETATM   33  C13 UNL     1       0.350   3.630   1.590  1.00  0.00     0.009 C 
HETATM   34  C14 UNL     1      -0.486   5.173  -0.083  1.00  0.00     0.009 C 
ENDBRANCH  31  32
ENDBRANCH   6  31
BRANCH  19  35
HETATM   35  O5  UNL     1      -0.309  -4.591   2.095  1.00  0.00    -0.369 OA
ATOM     36  H5  UNL     1       0.559  -4.939   2.260  1.00  0.00     0.212 HD
ENDBRANCH  19  35
BRANCH  11  37
HETATM   37  C17 UNL     1      -4.968  -0.275  -0.349  1.00  0.00     0.009 C 
HETATM   38  C18 UNL     1      -5.079   1.201  -0.425  1.00  0.00     0.012 C 
HETATM   39  C19 UNL     1      -5.620  -0.879  -1.563  1.00  0.00     0.012 C 
ENDBRANCH  11  37
TORSDOF 8
