REMARK  10 active torsions:
REMARK  status: ('A' for Active; 'I' for Inactive)
REMARK    1  A    between atoms: C3_3  and  C4_4 
REMARK    2  A    between atoms: C5_5  and  N1_6 
REMARK    3  A    between atoms: N1_6  and  C6_8 
REMARK    4  A    between atoms: C7_11  and  N3_12 
REMARK    5  A    between atoms: C8_17  and  N5_18 
REMARK    6  A    between atoms: C9_20  and  C10_21 
REMARK    7  A    between atoms: C10_21  and  C11_22 
REMARK    8  A    between atoms: C19_33  and  C20_34 
REMARK    9  A    between atoms: C20_34  and  N7_35 
REMARK   10  A    between atoms: C24_42  and  C25_43 
ROOT
HETATM    1  C1  UNL     1       1.298  -3.187  -3.093  1.00  0.00     0.112 C 
HETATM    2  C2  UNL     1       0.416  -2.555  -2.107  1.00  0.00    -0.104 C 
HETATM    3  C3  UNL     1      -0.294  -2.037  -1.282  1.00  0.00    -0.047 C 
ENDROOT
BRANCH   3   4
HETATM    4  C4  UNL     1      -1.135  -1.417  -0.269  1.00  0.00     0.117 A 
HETATM    5  C5  UNL     1      -0.649  -1.119   0.982  1.00  0.00     0.102 A 
HETATM    6  C17 UNL     1      -1.489  -0.534   1.899  1.00  0.00     0.043 A 
HETATM    7 BR1  UNL     1      -0.814  -0.114   3.651  1.00  0.00    -0.049 Br
HETATM    8  C18 UNL     1      -2.793  -0.250   1.577  1.00  0.00     0.048 A 
HETATM    9  C19 UNL     1      -3.267  -0.553   0.323  1.00  0.00     0.042 A 
HETATM   10  N9  UNL     1      -2.417  -1.125  -0.548  1.00  0.00    -0.344 N 
HETATM   11  C28 UNL     1      -2.894  -1.463  -1.901  1.00  0.00     0.157 C 
BRANCH   5  12
HETATM   12  N1  UNL     1       0.708  -1.432   1.265  1.00  0.00    -0.186 N 
ATOM     13  H1  UNL     1       0.911  -2.281   1.793  1.00  0.00     0.184 HD
BRANCH  12  14
HETATM   14  C6  UNL     1       1.697  -0.692   0.885  1.00  0.00     0.712 A 
HETATM   15  N2  UNL     1       1.549   0.441   0.189  1.00  0.00    -0.021 N 
HETATM   16  C7  UNL     1       2.617   1.177  -0.184  1.00  0.00     0.705 A 
ATOM     17  H2  UNL     1       0.612   0.754  -0.064  1.00  0.00     0.203 HD
HETATM   18  N4  UNL     1       3.869   0.801   0.129  1.00  0.00    -0.021 N 
HETATM   19  C8  UNL     1       4.043  -0.333   0.828  1.00  0.00     0.710 A 
ATOM     20  H4  UNL     1       4.669   1.364  -0.158  1.00  0.00     0.203 HD
HETATM   21  N6  UNL     1       2.930  -1.066   1.196  1.00  0.00    -0.021 N 
ATOM     22  H6  UNL     1       3.063  -1.927   1.727  1.00  0.00     0.203 HD
BRANCH  16  23
HETATM   23  N3  UNL     1       2.408   2.273  -0.862  1.00  0.00    -0.234 N 
ATOM     24  H32 UNL     1       1.458   2.558  -1.100  1.00  0.00     0.174 HD
ATOM     25  H31 UNL     1       3.215   2.829  -1.144  1.00  0.00     0.174 HD
ENDBRANCH  16  23
BRANCH  19  26
HETATM   26  N5  UNL     1       5.142  -0.776   1.171  1.00  0.00    -0.204 N 
HETATM   27  C9  UNL     1       6.496  -0.652   1.188  1.00  0.00     0.083 C 
ATOM     28  H5  UNL     1       4.941  -1.637   1.679  1.00  0.00     0.183 HD
BRANCH  27  29
HETATM   29  C10 UNL     1       7.057   0.586   0.543  1.00  0.00     0.083 C 
BRANCH  29  30
HETATM   30  C11 UNL     1       8.553   0.608   0.629  1.00  0.00    -0.053 A 
HETATM   31  C12 UNL     1       9.152   1.195   1.715  1.00  0.00     0.007 A 
HETATM   32  C13 UNL     1      10.546   1.239   1.838  1.00  0.00     0.001 A 
HETATM   33  C14 UNL     1      11.308   0.678   0.839  1.00  0.00     0.000 A 
HETATM   34  C15 UNL     1      10.725   0.074  -0.278  1.00  0.00     0.001 A 
HETATM   35  C16 UNL     1       9.343   0.060  -0.345  1.00  0.00     0.007 A 
ENDBRANCH  29  30
ENDBRANCH  27  29
ENDBRANCH  19  26
ENDBRANCH  12  14
ENDBRANCH   5  12
BRANCH   9  36
HETATM   36  C20 UNL     1      -4.639  -0.289  -0.127  1.00  0.00     0.330 C 
BRANCH  36  37
HETATM   37  N7  UNL     1      -5.336   0.744   0.561  1.00  0.00     0.109 N 
HETATM   38  C21 UNL     1      -4.721   2.041   0.455  1.00  0.00     0.293 C 
HETATM   39  C22 UNL     1      -4.381   2.408  -0.973  1.00  0.00     0.153 C 
HETATM   40  N8  UNL     1      -5.534   2.171  -1.848  1.00  0.00    -0.358 N 
HETATM   41  C23 UNL     1      -6.519   1.189  -1.483  1.00  0.00     0.251 C 
ATOM     42  H8  UNL     1      -5.637   2.701  -2.713  1.00  0.00     0.162 HD
HETATM   43  O1  UNL     1      -7.194   0.661  -2.402  1.00  0.00    -0.271 OA
HETATM   44  C24 UNL     1      -6.661   0.877  -0.041  1.00  0.00     0.317 C 
BRANCH  44  45
HETATM   45  C25 UNL     1      -7.516  -0.338   0.110  1.00  0.00     0.020 C 
HETATM   46  C26 UNL     1      -7.760  -0.700   1.561  1.00  0.00     0.012 C 
HETATM   47  C27 UNL     1      -8.880   0.011  -0.472  1.00  0.00     0.012 C 
ENDBRANCH  44  45
ENDBRANCH  36  37
ENDBRANCH   9  36
ENDBRANCH   3   4
TORSDOF 10
