REMARK  10 active torsions:
REMARK  status: ('A' for Active; 'I' for Inactive)
REMARK    1  A    between atoms: C2_2  and  C4_4 
REMARK    2  A    between atoms: C4_4  and  C5_5 
REMARK    3  A    between atoms: C6_8  and  O1_9 
REMARK    4  A    between atoms: C9_14  and  C10_15 
REMARK    5  A    between atoms: C10_15  and  O2_19 
REMARK    6  A    between atoms: C11_21  and  C12_22 
REMARK    7  A    between atoms: C12_22  and  C13_23 
REMARK    8  A    between atoms: C16_28  and  O3_29 
REMARK    9  A    between atoms: C21_37  and  C22_38 
REMARK   10  A    between atoms: C22_38  and  C23_39 
ROOT
HETATM    1  C5  UNL     1       1.074  -2.098   0.761  1.00  0.00     0.176 C 
HETATM    2  N1  UNL     1      -0.290  -1.929   1.147  1.00  0.00    -0.357 N 
ATOM      3  H1  UNL     1      -0.408  -1.475   2.053  1.00  0.00     0.162 HD
HETATM    4  C6  UNL     1      -1.490  -2.264   0.526  1.00  0.00     0.144 C 
HETATM    5  C7  UNL     1      -2.115  -1.781  -0.703  1.00  0.00     0.013 C 
HETATM    6  C8  UNL     1      -2.771  -2.674  -1.417  1.00  0.00     0.068 C 
HETATM    7 BR1  UNL     1      -2.915  -4.474  -0.908  1.00  0.00    -0.063 Br
HETATM    8  C9  UNL     1      -2.056  -0.389  -1.178  1.00  0.00     0.120 C 
HETATM    9  C11 UNL     1      -2.837   0.618  -0.301  1.00  0.00     0.100 C 
HETATM   10  N3  UNL     1      -1.972   1.120   0.718  1.00  0.00    -0.367 N 
ATOM     11  H3  UNL     1      -1.972   0.575   1.580  1.00  0.00     0.161 HD
HETATM   12  C16 UNL     1      -1.116   2.244   0.734  1.00  0.00     0.134 C 
HETATM   13  C17 UNL     1      -0.679   3.163  -0.268  1.00  0.00     0.157 C 
HETATM   14  C18 UNL     1      -1.780   3.606  -1.252  1.00  0.00     0.041 C 
HETATM   15  N4  UNL     1       0.494   2.941  -1.038  1.00  0.00    -0.343 N 
HETATM   16  C19 UNL     1       0.763   4.119  -1.918  1.00  0.00     0.153 C 
HETATM   17  C20 UNL     1       1.397   1.909  -1.146  1.00  0.00     0.243 C 
HETATM   18  O4  UNL     1       1.986   1.819  -2.292  1.00  0.00    -0.271 OA
HETATM   19  C21 UNL     1       1.827   0.867  -0.189  1.00  0.00     0.177 C 
HETATM   20  N5  UNL     1       2.048  -0.373  -0.885  1.00  0.00    -0.346 N 
ATOM     21  H5  UNL     1       2.692  -0.351  -1.675  1.00  0.00     0.163 HD
HETATM   22  C26 UNL     1       1.452  -1.626  -0.574  1.00  0.00     0.241 C 
HETATM   23  O5  UNL     1       1.206  -2.449  -1.533  1.00  0.00    -0.271 OA
ENDROOT
BRANCH   8  24
HETATM   24  C10 UNL     1      -2.536  -0.237  -2.563  1.00  0.00     0.119 C 
HETATM   25  N2  UNL     1      -1.742  -0.139  -3.578  1.00  0.00    -0.383 N 
ATOM     26  H22 UNL     1      -0.742  -0.172  -3.381  1.00  0.00     0.158 HD
ATOM     27  H21 UNL     1      -2.074  -0.034  -4.537  1.00  0.00     0.158 HD
BRANCH  24  28
HETATM   28  O2  UNL     1      -3.890  -0.193  -2.829  1.00  0.00    -0.349 OA
ATOM     29  H2  UNL     1      -4.199  -0.095  -3.722  1.00  0.00     0.219 HD
ENDBRANCH  24  28
ENDBRANCH   8  24
BRANCH   9  30
HETATM   30  C12 UNL     1      -4.078  -0.014   0.230  1.00  0.00     0.030 C 
BRANCH  30  31
HETATM   31  C13 UNL     1      -4.943   0.896   1.043  1.00  0.00    -0.021 C 
HETATM   32  C14 UNL     1      -6.221   0.114   1.469  1.00  0.00     0.009 C 
HETATM   33  C15 UNL     1      -4.366   1.371   2.354  1.00  0.00     0.009 C 
ENDBRANCH  30  31
ENDBRANCH   9  30
BRANCH   4  34
HETATM   34  O1  UNL     1      -2.209  -3.170   1.124  1.00  0.00    -0.346 OA
ATOM     35  H1  UNL     1      -3.028  -3.399   0.700  1.00  0.00     0.219 HD
ENDBRANCH   4  34
BRANCH  12  36
HETATM   36  O3  UNL     1      -0.634   2.475   1.923  1.00  0.00    -0.348 OA
ATOM     37  H3  UNL     1      -0.058   3.231   1.934  1.00  0.00     0.219 HD
ENDBRANCH  12  36
BRANCH   1  38
HETATM   38  C4  UNL     1       1.552  -3.549   0.926  1.00  0.00     0.038 C 
BRANCH  38  39
HETATM   39  C2  UNL     1       2.981  -3.729   0.537  1.00  0.00    -0.020 C 
HETATM   40  C1  UNL     1       3.433  -5.173   0.701  1.00  0.00     0.009 C 
HETATM   41  C3  UNL     1       3.870  -2.931   1.501  1.00  0.00     0.009 C 
ENDBRANCH  38  39
ENDBRANCH   1  38
BRANCH  19  42
HETATM   42  C22 UNL     1       2.965   1.230   0.662  1.00  0.00     0.038 C 
BRANCH  42  43
HETATM   43  C23 UNL     1       4.262   1.588   0.078  1.00  0.00    -0.020 C 
HETATM   44  C24 UNL     1       4.958   0.561  -0.756  1.00  0.00     0.009 C 
HETATM   45  C25 UNL     1       5.191   1.936   1.258  1.00  0.00     0.009 C 
ENDBRANCH  42  43
ENDBRANCH  19  42
TORSDOF 10
