REMARK  7 active torsions:
REMARK  status: ('A' for Active; 'I' for Inactive)
REMARK    1  A    between atoms: C2_2  and  C3_3 
REMARK    2  A    between atoms: C3_3  and  C5_5 
REMARK    3  A    between atoms: C7_10  and  C8_11 
REMARK    4  A    between atoms: C14_23  and  C15_24 
REMARK    5  A    between atoms: C19_31  and  C20_32 
REMARK    6  A    between atoms: C20_32  and  C21_33 
REMARK    7  A    between atoms: C25_40  and  C26_41 
ROOT
HETATM    1  C5  UNL     1      -3.224  -0.588  -0.276  1.00  0.00     0.180 C 
HETATM    2  N1  UNL     1      -2.456  -0.052   0.813  1.00  0.00    -0.342 N 
ATOM      3  H1  UNL     1      -1.562  -0.505   1.004  1.00  0.00     0.163 HD
HETATM    4  C6  UNL     1      -2.798   1.019   1.638  1.00  0.00     0.266 C 
HETATM    5  O1  UNL     1      -2.679   0.852   2.917  1.00  0.00    -0.266 OA
HETATM    6  C7  UNL     1      -3.281   2.335   1.267  1.00  0.00     0.091 C 
HETATM    7  N2  UNL     1      -2.813   3.060   0.344  1.00  0.00    -0.387 N 
ATOM      8  H2  UNL     1      -3.291   3.955   0.238  1.00  0.00     0.159 HD
HETATM    9  C10 UNL     1      -1.754   2.866  -0.568  1.00  0.00     0.121 C 
HETATM   10  C11 UNL     1      -0.386   2.821   0.077  1.00  0.00     0.039 C 
HETATM   11  C12 UNL     1       0.584   2.284  -0.952  1.00  0.00     0.124 C 
HETATM   12  N3  UNL     1       1.699   3.207  -1.127  1.00  0.00    -0.359 N 
ATOM     13  H3  UNL     1       1.561   3.991  -1.764  1.00  0.00     0.162 HD
HETATM   14  C13 UNL     1       2.940   3.106  -0.494  1.00  0.00     0.240 C 
HETATM   15  O2  UNL     1       3.428   4.167   0.028  1.00  0.00    -0.271 OA
HETATM   16  C14 UNL     1       3.771   1.885  -0.357  1.00  0.00     0.180 C 
HETATM   17  N4  UNL     1       3.453   0.844  -1.286  1.00  0.00    -0.346 N 
ATOM     18  H4  UNL     1       3.188   1.147  -2.223  1.00  0.00     0.163 HD
HETATM   19  C18 UNL     1       3.461  -0.545  -1.067  1.00  0.00     0.241 C 
HETATM   20  O3  UNL     1       4.091  -1.326  -1.863  1.00  0.00    -0.271 OA
HETATM   21  C19 UNL     1       2.756  -1.238   0.081  1.00  0.00     0.177 C 
HETATM   22  N5  UNL     1       2.252  -2.502  -0.476  1.00  0.00    -0.346 N 
ATOM     23  H5  UNL     1       2.951  -3.206  -0.714  1.00  0.00     0.163 HD
HETATM   24  C24 UNL     1       0.934  -2.839  -0.712  1.00  0.00     0.241 C 
HETATM   25  O4  UNL     1       0.586  -4.067  -0.630  1.00  0.00    -0.271 OA
HETATM   26  C25 UNL     1      -0.185  -1.896  -1.068  1.00  0.00     0.180 C 
HETATM   27  N6  UNL     1      -1.432  -2.442  -0.583  1.00  0.00    -0.346 N 
ATOM     28  H6  UNL     1      -1.360  -3.333  -0.092  1.00  0.00     0.163 HD
HETATM   29  C29 UNL     1      -2.715  -1.921  -0.693  1.00  0.00     0.241 C 
HETATM   30  O5  UNL     1      -3.605  -2.685  -1.229  1.00  0.00    -0.271 OA
ENDROOT
BRANCH   1  31
HETATM   31  C3  UNL     1      -4.719  -0.699   0.070  1.00  0.00     0.013 C 
HETATM   32  C4  UNL     1      -5.503  -1.025  -1.153  1.00  0.00     0.012 C 
BRANCH  31  33
HETATM   33  C2  UNL     1      -4.937  -1.604   1.236  1.00  0.00     0.002 C 
HETATM   34  C1  UNL     1      -6.388  -1.574   1.654  1.00  0.00     0.005 C 
ENDBRANCH  31  33
ENDBRANCH   1  31
BRANCH   6  35
HETATM   35  C8  UNL     1      -4.434   2.876   2.094  1.00  0.00     0.133 C 
HETATM   36  C9  UNL     1      -4.817   4.258   1.616  1.00  0.00     0.033 C 
HETATM   37 CL1  UNL     1      -4.007   2.905   3.816  1.00  0.00    -0.119 Cl
ENDBRANCH   6  35
BRANCH  26  38
HETATM   38  C26 UNL     1      -0.128  -1.801  -2.581  1.00  0.00     0.009 C 
HETATM   39  C27 UNL     1      -0.328  -3.146  -3.230  1.00  0.00     0.012 C 
HETATM   40  C28 UNL     1      -0.982  -0.730  -3.165  1.00  0.00     0.012 C 
ENDBRANCH  26  38
BRANCH  21  41
HETATM   41  C20 UNL     1       3.756  -1.519   1.147  1.00  0.00     0.038 C 
BRANCH  41  42
HETATM   42  C21 UNL     1       3.284  -2.168   2.389  1.00  0.00    -0.020 C 
HETATM   43  C22 UNL     1       2.666  -3.515   2.279  1.00  0.00     0.009 C 
HETATM   44  C23 UNL     1       4.440  -2.303   3.402  1.00  0.00     0.009 C 
ENDBRANCH  41  42
ENDBRANCH  21  41
BRANCH  16  45
HETATM   45  C15 UNL     1       5.205   2.340  -0.640  1.00  0.00     0.009 C 
HETATM   46  C16 UNL     1       6.176   1.210  -0.541  1.00  0.00     0.012 C 
HETATM   47  C17 UNL     1       5.313   2.942  -2.022  1.00  0.00     0.012 C 
ENDBRANCH  16  45
TORSDOF 7
