REMARK  7 active torsions:
REMARK  status: ('A' for Active; 'I' for Inactive)
REMARK    1  A    between atoms: C2_2  and  C3_3 
REMARK    2  A    between atoms: C3_3  and  C4_4 
REMARK    3  A    between atoms: C6_9  and  C7_10 
REMARK    4  A    between atoms: C11_17  and  C12_18 
REMARK    5  A    between atoms: C12_18  and  C13_19 
REMARK    6  A    between atoms: C21_31  and  C22_32 
REMARK    7  A    between atoms: C22_32  and  C23_33 
ROOT
HETATM    1  C4  UNL     1      -2.599   1.774   0.062  1.00  0.00     0.176 C 
HETATM    2  N1  UNL     1      -1.702   2.839  -0.343  1.00  0.00    -0.346 N 
ATOM      3  H1  UNL     1      -1.920   3.747   0.068  1.00  0.00     0.163 HD
HETATM    4  C5  UNL     1      -0.606   2.849  -1.184  1.00  0.00     0.241 C 
HETATM    5  O1  UNL     1      -0.683   3.635  -2.206  1.00  0.00    -0.271 OA
HETATM    6  C6  UNL     1       0.668   2.099  -1.113  1.00  0.00     0.180 C 
HETATM    7  N2  UNL     1       1.000   1.588   0.185  1.00  0.00    -0.346 N 
ATOM      8  H2  UNL     1       0.884   2.207   0.988  1.00  0.00     0.163 HD
HETATM    9  C10 UNL     1       1.489   0.248   0.425  1.00  0.00     0.241 C 
HETATM   10  O2  UNL     1       1.228  -0.138   1.620  1.00  0.00    -0.271 OA
HETATM   11  C11 UNL     1       2.186  -0.558  -0.568  1.00  0.00     0.177 C 
HETATM   12  N3  UNL     1       1.291  -1.533  -1.193  1.00  0.00    -0.347 N 
ATOM     13  H3  UNL     1       0.811  -1.216  -2.035  1.00  0.00     0.163 HD
HETATM   14  C16 UNL     1       1.009  -2.832  -0.792  1.00  0.00     0.224 C 
HETATM   15  O3  UNL     1       1.074  -3.717  -1.727  1.00  0.00    -0.273 OA
HETATM   16  C17 UNL     1       0.648  -3.337   0.539  1.00  0.00     0.101 C 
HETATM   17  C18 UNL     1       0.424  -4.812   0.606  1.00  0.00     0.089 C 
HETATM   18  S1  UNL     1      -0.805  -4.617   1.916  1.00  0.00    -0.162 SA
HETATM   19  C19 UNL     1      -0.742  -3.098   0.964  1.00  0.00     0.063 C 
HETATM   20  C20 UNL     1      -1.770  -2.928  -0.116  1.00  0.00     0.041 C 
HETATM   21  C21 UNL     1      -2.611  -1.676   0.111  1.00  0.00     0.092 C 
HETATM   22  N4  UNL     1      -2.282  -0.646  -0.849  1.00  0.00    -0.354 N 
ATOM     23  H4  UNL     1      -1.664  -0.947  -1.603  1.00  0.00     0.162 HD
HETATM   24  C25 UNL     1      -2.666   0.674  -0.912  1.00  0.00     0.240 C 
HETATM   25  O5  UNL     1      -3.192   1.045  -2.040  1.00  0.00    -0.271 OA
ENDROOT
BRANCH  11  26
HETATM   26  C12 UNL     1       3.486  -1.157  -0.243  1.00  0.00     0.038 C 
BRANCH  26  27
HETATM   27  C13 UNL     1       4.637  -0.302   0.107  1.00  0.00    -0.020 C 
HETATM   28  C14 UNL     1       5.889  -1.182   0.377  1.00  0.00     0.009 C 
HETATM   29  C15 UNL     1       4.401   0.365   1.452  1.00  0.00     0.009 C 
ENDBRANCH  26  27
ENDBRANCH  11  26
BRANCH   6  30
HETATM   30  C7  UNL     1       1.841   3.021  -1.463  1.00  0.00     0.009 C 
HETATM   31  C8  UNL     1       1.772   3.594  -2.835  1.00  0.00     0.012 C 
HETATM   32  C9  UNL     1       1.793   4.207  -0.482  1.00  0.00     0.012 C 
ENDBRANCH   6  30
BRANCH   1  33
HETATM   33  C3  UNL     1      -2.443   1.374   1.496  1.00  0.00     0.034 C 
BRANCH  33  34
HETATM   34  C2  UNL     1      -2.725   2.638   2.330  1.00  0.00    -0.002 C 
HETATM   35  C1  UNL     1      -2.600   2.323   3.809  1.00  0.00     0.005 C 
ENDBRANCH  33  34
ENDBRANCH   1  33
BRANCH  21  36
HETATM   36  C22 UNL     1      -4.067  -1.946   0.210  1.00  0.00     0.103 C 
BRANCH  36  37
HETATM   37  C23 UNL     1      -4.745  -2.548  -0.921  1.00  0.00     0.125 C 
HETATM   38  C24 UNL     1      -4.152  -2.746  -2.260  1.00  0.00     0.091 C 
HETATM   39  O4  UNL     1      -5.916  -2.920  -0.734  1.00  0.00    -0.298 OA
ENDBRANCH  36  37
ENDBRANCH  21  36
TORSDOF 7
