REMARK  10 active torsions:
REMARK  status: ('A' for Active; 'I' for Inactive)
REMARK    1  A    between atoms: C2_2  and  C3_3 
REMARK    2  A    between atoms: C3_3  and  C4_4 
REMARK    3  A    between atoms: C6_9  and  C7_10 
REMARK    4  A    between atoms: C7_10  and  C8_11 
REMARK    5  A    between atoms: C8_11  and  N2_12 
REMARK    6  A    between atoms: N2_12  and  C9_15 
REMARK    7  A    between atoms: C17_27  and  C18_28 
REMARK    8  A    between atoms: C18_28  and  C19_29 
REMARK    9  A    between atoms: C22_34  and  O3_35 
REMARK   10  A    between atoms: C26_41  and  O4_42 
ROOT
HETATM    1  C4  UNL     1       0.322   2.251  -0.413  1.00  0.00     0.159 C 
HETATM    2  N1  UNL     1       1.741   1.997  -0.104  1.00  0.00    -0.347 N 
ATOM      3  H1  UNL     1       2.421   2.619  -0.540  1.00  0.00     0.163 HD
HETATM    4  C5  UNL     1       2.250   0.999   0.719  1.00  0.00     0.249 C 
HETATM    5  O1  UNL     1       3.067   1.344   1.649  1.00  0.00    -0.271 OA
HETATM    6  C6  UNL     1       1.972  -0.463   0.674  1.00  0.00     0.278 C 
HETATM    7  N3  UNL     1       1.038  -0.854   1.741  1.00  0.00    -0.062 N 
ATOM      8  H31 UNL     1       0.365  -0.120   1.961  1.00  0.00     0.278 HD
ATOM      9  H32 UNL     1       1.488  -0.909   2.655  1.00  0.00     0.278 HD
HETATM   10  C13 UNL     1       0.405  -2.089   1.361  1.00  0.00     0.233 C 
HETATM   11  C14 UNL     1      -0.675  -1.784   0.377  1.00  0.00     0.035 C 
HETATM   12  C15 UNL     1      -1.930  -2.635   0.578  1.00  0.00     0.082 C 
HETATM   13  C16 UNL     1      -2.815  -2.239  -0.585  1.00  0.00     0.149 C 
HETATM   14  O2  UNL     1      -2.871  -3.010  -1.516  1.00  0.00    -0.296 OA
HETATM   15  C17 UNL     1      -3.553  -0.983  -0.571  1.00  0.00     0.153 C 
HETATM   16  N4  UNL     1      -2.797   0.038  -1.293  1.00  0.00    -0.361 N 
ATOM     17  H4  UNL     1      -2.066  -0.310  -1.913  1.00  0.00     0.162 HD
HETATM   18  C22 UNL     1      -2.940   1.415  -1.248  1.00  0.00     0.135 C 
HETATM   19  C23 UNL     1      -2.920   2.342  -0.124  1.00  0.00     0.156 C 
HETATM   20  C24 UNL     1      -4.339   2.368   0.473  1.00  0.00     0.041 C 
HETATM   21  N5  UNL     1      -1.925   2.181   0.867  1.00  0.00    -0.356 N 
HETATM   22  C25 UNL     1      -2.406   1.811   2.209  1.00  0.00     0.152 C 
HETATM   23  C26 UNL     1      -0.519   2.333   0.764  1.00  0.00     0.137 C 
ENDROOT
BRANCH   6  24
HETATM   24  C7  UNL     1       3.254  -1.251   0.988  1.00  0.00     0.070 C 
BRANCH  24  25
HETATM   25  C8  UNL     1       4.349  -0.962   0.009  1.00  0.00     0.235 C 
BRANCH  25  26
HETATM   26  N2  UNL     1       5.493  -1.738   0.386  1.00  0.00    -0.067 N 
ATOM     27  H22 UNL     1       5.740  -1.554   1.358  1.00  0.00     0.278 HD
ATOM     28  H21 UNL     1       5.245  -2.725   0.451  1.00  0.00     0.278 HD
BRANCH  26  29
HETATM   29  C9  UNL     1       6.638  -1.568  -0.459  1.00  0.00     0.115 C 
HETATM   30  C10 UNL     1       6.385  -2.004  -1.865  1.00  0.00     0.045 C 
HETATM   31  C11 UNL     1       7.735  -2.478   0.107  1.00  0.00     0.045 C 
HETATM   32  C12 UNL     1       7.188  -0.159  -0.424  1.00  0.00     0.045 C 
ENDBRANCH  26  29
ENDBRANCH  25  26
ENDBRANCH  24  25
ENDBRANCH   6  24
BRANCH   1  33
HETATM   33  C3  UNL     1       0.222   3.429  -1.306  1.00  0.00     0.033 C 
BRANCH  33  34
HETATM   34  C2  UNL     1       0.772   4.733  -0.826  1.00  0.00    -0.002 C 
HETATM   35  C1  UNL     1       0.142   5.344   0.384  1.00  0.00     0.005 C 
ENDBRANCH  33  34
ENDBRANCH   1  33
BRANCH  23  36
HETATM   36  O4  UNL     1       0.157   2.577   1.852  1.00  0.00    -0.348 OA
ATOM     37  H4  UNL     1      -0.394   2.631   2.624  1.00  0.00     0.219 HD
ENDBRANCH  23  36
BRANCH  15  38
HETATM   38  C18 UNL     1      -4.950  -1.093  -1.029  1.00  0.00     0.036 C 
BRANCH  38  39
HETATM   39  C19 UNL     1      -5.836  -1.951  -0.208  1.00  0.00    -0.020 C 
HETATM   40  C20 UNL     1      -7.282  -1.894  -0.805  1.00  0.00     0.009 C 
HETATM   41  C21 UNL     1      -5.529  -3.414  -0.112  1.00  0.00     0.009 C 
ENDBRANCH  38  39
ENDBRANCH  15  38
BRANCH  18  42
HETATM   42  O3  UNL     1      -3.121   1.975  -2.408  1.00  0.00    -0.348 OA
ATOM     43  H3  UNL     1      -3.219   2.919  -2.377  1.00  0.00     0.219 HD
ENDBRANCH  18  42
TORSDOF 10
