REMARK  5 active torsions:
REMARK  status: ('A' for Active; 'I' for Inactive)
REMARK    1  A    between atoms: C6_6  and  N1_7 
REMARK    2  A    between atoms: N1_7  and  C7_9 
REMARK    3  A    between atoms: C7_9  and  C8_10 
REMARK    4  A    between atoms: C8_10  and  C9_11 
REMARK    5  A    between atoms: C9_11  and  N2_12 
ROOT
HETATM    1  C1  UNL     1      -6.383   1.593   0.929  1.00  0.00     0.018 C 
HETATM    2  C2  UNL     1      -5.329   1.172   0.517  1.00  0.00    -0.076 C 
HETATM    3  C3  UNL     1      -4.080   0.681   0.011  1.00  0.00     0.032 A 
HETATM    4  C4  UNL     1      -3.147   1.515  -0.568  1.00  0.00     0.026 A 
HETATM    5  C5  UNL     1      -1.948   0.981  -1.043  1.00  0.00     0.050 A 
HETATM    6  C6  UNL     1      -1.675  -0.352  -0.950  1.00  0.00     0.100 A 
HETATM    7  N5  UNL     1      -2.596  -1.147  -0.383  1.00  0.00    -0.351 N 
ATOM      8  H5  UNL     1      -2.408  -2.146  -0.304  1.00  0.00     0.166 HD
HETATM    9  C11 UNL     1      -3.764  -0.658   0.085  1.00  0.00     0.110 A 
ENDROOT
BRANCH   6  10
HETATM   10  N1  UNL     1      -0.579  -0.879  -1.378  1.00  0.00    -0.376 N 
ATOM     11  H1  UNL     1      -0.448  -1.885  -1.272  1.00  0.00     0.161 HD
BRANCH  10  12
HETATM   12  C7  UNL     1       0.473  -0.106  -2.002  1.00  0.00     0.123 C 
BRANCH  12  13
HETATM   13  C8  UNL     1       1.373   0.455  -0.915  1.00  0.00     0.039 C 
BRANCH  13  14
HETATM   14  C9  UNL     1       1.940  -0.742  -0.158  1.00  0.00     0.123 C 
BRANCH  14  15
HETATM   15  N2  UNL     1       2.812  -0.344   0.903  1.00  0.00    -0.367 N 
HETATM   16  C10 UNL     1       4.072  -0.498   0.927  1.00  0.00     0.196 C 
HETATM   17  N3  UNL     1       4.789  -1.108  -0.143  1.00  0.00    -0.067 NA
HETATM   18  N4  UNL     1       4.819  -0.055   2.047  1.00  0.00    -0.067 NA
ATOM     19  H2  UNL     1       2.383   0.104   1.713  1.00  0.00     0.161 HD
ENDBRANCH  14  15
ENDBRANCH  13  14
ENDBRANCH  12  13
ENDBRANCH  10  12
ENDBRANCH   6  10
TORSDOF 5
