REMARK  2 active torsions:
REMARK  status: ('A' for Active; 'I' for Inactive)
REMARK       I    between atoms: C1_4  and  N3_6 
REMARK    1  A    between atoms: C4_9  and  N4_10 
REMARK       I    between atoms: N4_10  and  C5_11 
REMARK    2  A    between atoms: C5_11  and  C6_13 
ROOT
HETATM    1  N4  UNL     1       0.834  -1.262   0.033  1.00  0.00    -0.407 NA
HETATM    2  C5  UNL     1      -0.463  -1.399  -0.358  1.00  0.00     0.291 C 
HETATM    3  O1  UNL     1      -1.070  -2.475  -0.581  1.00  0.00    -0.257 OA
ENDROOT
BRANCH   2   4
HETATM    4  C6  UNL     1      -1.337  -0.190  -0.575  1.00  0.00     0.101 C 
HETATM    5  C7  UNL     1      -1.732   0.511   0.667  1.00  0.00     0.001 C 
HETATM    6  C8  UNL     1      -2.897  -0.158   1.376  1.00  0.00     0.010 C 
HETATM    7  C12 UNL     1      -2.262   1.897   0.261  1.00  0.00     0.010 C 
HETATM    8  C9  UNL     1      -4.067  -0.301   0.465  1.00  0.00    -0.013 C 
HETATM    9  C10 UNL     1      -4.563   1.051   0.016  1.00  0.00     0.009 C 
HETATM   10  C15 UNL     1      -3.654  -1.145  -0.725  1.00  0.00     0.010 C 
HETATM   11  C11 UNL     1      -3.412   1.735  -0.689  1.00  0.00    -0.013 C 
HETATM   12  C13 UNL     1      -3.035   0.895  -1.891  1.00  0.00     0.010 C 
HETATM   13  C14 UNL     1      -2.523  -0.476  -1.426  1.00  0.00     0.001 C 
ENDBRANCH   2   4
BRANCH   1  14
HETATM   14  C4  UNL     1       2.132  -1.125   0.424  1.00  0.00     0.186 C 
HETATM   15  C3  UNL     1       2.387  -0.089   1.521  1.00  0.00     0.061 C 
HETATM   16  C2  UNL     1       3.889   0.059   1.452  1.00  0.00     0.129 C 
HETATM   17  N3  UNL     1       4.251  -0.186   0.080  1.00  0.00    -0.353 N 
HETATM   18  C1  UNL     1       5.574  -0.130  -0.455  1.00  0.00     0.184 C 
HETATM   19  C16 UNL     1       3.048  -0.503  -0.661  1.00  0.00     0.165 C 
HETATM   20  N1  UNL     1       5.785  -0.463  -1.693  1.00  0.00    -0.374 N 
HETATM   21  N2  UNL     1       6.668   0.278   0.317  1.00  0.00    -0.064 NA
ATOM     22  H12 UNL     1       6.730  -0.423  -2.075  1.00  0.00     0.158 HD
ATOM     23  H11 UNL     1       4.988  -0.760  -2.256  1.00  0.00     0.158 HD
ENDBRANCH   1  14
TORSDOF 2
