REMARK  9 active torsions:
REMARK  status: ('A' for Active; 'I' for Inactive)
REMARK    1  A    between atoms: C2_2  and  C3_3 
REMARK    2  A    between atoms: C3_3  and  C4_4 
REMARK    3  A    between atoms: C4_4  and  C5_5 
REMARK    4  A    between atoms: C8_11  and  C9_12 
REMARK    5  A    between atoms: C9_12  and  C10_13 
REMARK    6  A    between atoms: C13_19  and  C14_20 
REMARK    7  A    between atoms: C14_20  and  C15_21 
REMARK    8  A    between atoms: C15_21  and  C16_22 
REMARK    9  A    between atoms: C19_28  and  C20_29 
ROOT
HETATM    1  C4  UNL     1      -2.004  -0.485   0.227  1.00  0.00     0.068 C 
HETATM    2  C7  UNL     1      -1.850   0.952   0.705  1.00  0.00     0.229 C 
HETATM    3  O1  UNL     1      -2.952   1.569   0.928  1.00  0.00    -0.273 OA
HETATM    4  N1  UNL     1      -0.687   1.669   0.928  1.00  0.00    -0.347 N 
ATOM      5  H1  UNL     1      -0.562   1.958   1.898  1.00  0.00     0.163 HD
HETATM    6  C8  UNL     1       0.385   2.088   0.053  1.00  0.00     0.176 C 
HETATM    7  C12 UNL     1       1.703   1.560   0.494  1.00  0.00     0.241 C 
HETATM    8  O2  UNL     1       2.582   2.301   0.980  1.00  0.00    -0.271 OA
HETATM    9  N2  UNL     1       1.947   0.155   0.351  1.00  0.00    -0.346 N 
ATOM     10  H2  UNL     1       2.267  -0.382   1.157  1.00  0.00     0.163 HD
HETATM   11  C13 UNL     1       1.750  -0.507  -0.901  1.00  0.00     0.176 C 
HETATM   12  C18 UNL     1       1.088  -1.830  -0.754  1.00  0.00     0.241 C 
HETATM   13  O3  UNL     1       1.722  -2.823  -1.264  1.00  0.00    -0.271 OA
HETATM   14  N3  UNL     1      -0.128  -2.114  -0.134  1.00  0.00    -0.350 N 
ATOM     15  H3  UNL     1      -0.524  -3.025  -0.364  1.00  0.00     0.163 HD
HETATM   16  C19 UNL     1      -0.915  -1.323   0.781  1.00  0.00     0.130 C 
ENDROOT
BRANCH   1  17
HETATM   17  C3  UNL     1      -2.106  -0.372  -1.273  1.00  0.00     0.048 C 
BRANCH  17  18
HETATM   18  C2  UNL     1      -2.420  -1.604  -2.002  1.00  0.00    -0.036 C 
HETATM   19  C1  UNL     1      -3.573  -1.676  -2.709  1.00  0.00     0.007 C 
ENDBRANCH  17  18
ENDBRANCH   1  17
BRANCH   1  20
HETATM   20  C5  UNL     1      -3.336  -1.011   0.739  1.00  0.00     0.017 C 
HETATM   21  C6  UNL     1      -4.552  -0.213   0.454  1.00  0.00     0.006 C 
ENDBRANCH   1  20
BRANCH  16  22
HETATM   22  C20 UNL     1      -1.311  -2.278   1.888  1.00  0.00    -0.069 C 
HETATM   23  C21 UNL     1      -0.969  -2.019   3.161  1.00  0.00     0.016 C 
HETATM   24  C22 UNL     1      -2.076  -3.525   1.703  1.00  0.00     0.044 C 
ENDBRANCH  16  22
BRANCH   6  25
HETATM   25  C9  UNL     1       0.529   3.627   0.183  1.00  0.00     0.034 C 
BRANCH  25  26
HETATM   26  C10 UNL     1      -0.741   4.316  -0.210  1.00  0.00    -0.002 C 
HETATM   27  C11 UNL     1      -0.505   5.804  -0.053  1.00  0.00     0.005 C 
ENDBRANCH  25  26
ENDBRANCH   6  25
BRANCH  11  28
HETATM   28  C14 UNL     1       2.957  -0.558  -1.735  1.00  0.00     0.035 C 
BRANCH  28  29
HETATM   29  C15 UNL     1       4.201  -1.203  -1.331  1.00  0.00     0.002 C 
BRANCH  29  30
HETATM   30  C16 UNL     1       4.926  -0.641  -0.166  1.00  0.00    -0.004 C 
HETATM   31  C17 UNL     1       6.229  -1.436   0.096  1.00  0.00     0.005 C 
ENDBRANCH  29  30
ENDBRANCH  28  29
ENDBRANCH  11  28
TORSDOF 9
