REMARK  11 active torsions:
REMARK  status: ('A' for Active; 'I' for Inactive)
REMARK    1  A    between atoms: C2_2  and  N1_3 
REMARK    2  A    between atoms: N2_6  and  C5_7 
REMARK    3  A    between atoms: C5_7  and  N3_9 
REMARK    4  A    between atoms: N3_9  and  C6_11 
REMARK    5  A    between atoms: C6_11  and  C7_12 
REMARK    6  A    between atoms: C7_12  and  C8_13 
REMARK    7  A    between atoms: C13_18  and  C14_19 
REMARK    8  A    between atoms: C14_19  and  C15_20 
REMARK    9  A    between atoms: C15_20  and  C16_21 
REMARK   10  A    between atoms: C16_21  and  C17_22 
REMARK   11  A    between atoms: C17_22  and  N4_23 
REMARK       I    between atoms: N4_23  and  C18_25 
ROOT
HETATM    1  N1  UNL     1      -1.964  -2.763  -0.728  1.00  0.00     0.091 N 
HETATM    2  C3  UNL     1      -0.940  -2.850  -1.724  1.00  0.00     0.292 C 
HETATM    3  C4  UNL     1       0.272  -2.053  -1.515  1.00  0.00     0.156 C 
HETATM    4  N2  UNL     1       0.287  -1.040  -0.529  1.00  0.00    -0.350 N 
HETATM    5  C13 UNL     1      -1.023  -0.687   0.105  1.00  0.00     0.115 C 
HETATM    6  C19 UNL     1      -1.586  -2.018   0.437  1.00  0.00     0.297 C 
ENDROOT
BRANCH   4   7
HETATM    7  C5  UNL     1       1.460  -0.380  -0.147  1.00  0.00     0.170 C 
HETATM    8  S1  UNL     1       1.368   0.764   1.012  1.00  0.00    -0.041 SA
BRANCH   7   9
HETATM    9  N3  UNL     1       2.730  -0.662  -0.708  1.00  0.00    -0.367 N 
ATOM     10  H3  UNL     1       2.784  -1.386  -1.424  1.00  0.00     0.161 HD
BRANCH   9  11
HETATM   11  C6  UNL     1       3.955   0.009  -0.332  1.00  0.00     0.122 C 
BRANCH  11  12
HETATM   12  C7  UNL     1       4.036   1.434  -0.748  1.00  0.00     0.024 C 
BRANCH  12  13
HETATM   13  C8  UNL     1       5.310   2.112  -0.345  1.00  0.00    -0.013 C 
HETATM   14  C9  UNL     1       6.546   1.466  -0.923  1.00  0.00     0.005 C 
HETATM   15  C10 UNL     1       7.627   2.261  -0.205  1.00  0.00     0.000 C 
HETATM   16  C11 UNL     1       7.070   2.491   1.178  1.00  0.00     0.000 C 
HETATM   17  C12 UNL     1       5.600   2.099   1.116  1.00  0.00     0.005 C 
ENDBRANCH  12  13
ENDBRANCH  11  12
ENDBRANCH   9  11
ENDBRANCH   7   9
ENDBRANCH   4   7
BRANCH   5  18
HETATM   18  C14 UNL     1      -1.722   0.151  -0.887  1.00  0.00     0.027 C 
BRANCH  18  19
HETATM   19  C15 UNL     1      -3.054   0.705  -0.580  1.00  0.00     0.004 C 
BRANCH  19  20
HETATM   20  C16 UNL     1      -4.179  -0.213  -0.312  1.00  0.00     0.020 C 
BRANCH  20  21
HETATM   21  C17 UNL     1      -5.428   0.657  -0.070  1.00  0.00     0.122 C 
BRANCH  21  22
HETATM   22  N4  UNL     1      -5.278   1.523   1.062  1.00  0.00    -0.365 N 
HETATM   23  C18 UNL     1      -6.275   2.451   1.473  1.00  0.00     0.181 C 
HETATM   24  N5  UNL     1      -7.146   2.933   0.644  1.00  0.00    -0.374 N 
HETATM   25  N6  UNL     1      -6.349   2.883   2.821  1.00  0.00    -0.064 NA
ATOM     26  H52 UNL     1      -7.093   2.622  -0.326  1.00  0.00     0.158 HD
ATOM     27  H51 UNL     1      -7.861   3.598   0.939  1.00  0.00     0.158 HD
ATOM     28  H4  UNL     1      -4.413   1.471   1.600  1.00  0.00     0.162 HD
ENDBRANCH  21  22
ENDBRANCH  20  21
ENDBRANCH  19  20
ENDBRANCH  18  19
ENDBRANCH   5  18
BRANCH   1  29
HETATM   29  C2  UNL     1      -2.455  -4.074  -0.365  1.00  0.00     0.268 C 
HETATM   30  C1  UNL     1      -3.533  -4.041   0.671  1.00  0.00     0.037 C 
ENDBRANCH   1  29
TORSDOF 11
