REMARK  9 active torsions:
REMARK  status: ('A' for Active; 'I' for Inactive)
REMARK    1  A    between atoms: C3_3  and  N1_4 
REMARK    2  A    between atoms: C7_8  and  N2_9 
REMARK    3  A    between atoms: N2_9  and  C8_11 
REMARK    4  A    between atoms: C8_11  and  C9_12 
REMARK    5  A    between atoms: C9_12  and  C10_13 
REMARK    6  A    between atoms: C10_13  and  N3_14 
REMARK       I    between atoms: N3_14  and  C11_16 
REMARK       I    between atoms: C11_16  and  N5_20 
REMARK    7  A    between atoms: N5_20  and  C12_22 
REMARK    8  A    between atoms: C12_22  and  C13_23 
REMARK    9  A    between atoms: C13_23  and  C14_24 
ROOT
HETATM    1  C1  UNL     1       9.957  -1.820  -0.386  1.00  0.00     0.014 C 
HETATM    2  C2  UNL     1       9.417  -0.788  -0.636  1.00  0.00    -0.098 C 
HETATM    3  C3  UNL     1       8.744   0.487  -0.919  1.00  0.00     0.219 C 
ENDROOT
BRANCH   3   4
HETATM    4  N1  UNL     1       7.443   0.540  -0.298  1.00  0.00    -0.340 N 
HETATM    5  C4  UNL     1       7.372   1.074   1.060  1.00  0.00     0.127 C 
HETATM    6  C5  UNL     1       6.106   0.590   1.745  1.00  0.00     0.022 C 
HETATM    7  C6  UNL     1       4.961   0.918   0.822  1.00  0.00     0.036 C 
HETATM    8  C7  UNL     1       4.941   0.139  -0.444  1.00  0.00     0.169 C 
HETATM    9  C22 UNL     1       6.315   0.086  -0.998  1.00  0.00     0.242 C 
HETATM   10  O1  UNL     1       6.456  -0.394  -2.155  1.00  0.00    -0.271 OA
BRANCH   8  11
HETATM   11  N2  UNL     1       4.472  -1.203  -0.361  1.00  0.00    -0.409 N 
ATOM     12  H2  UNL     1       5.084  -1.987  -0.588  1.00  0.00     0.154 HD
BRANCH  11  13
HETATM   13  C8  UNL     1       3.136  -1.419   0.045  1.00  0.00     0.116 C 
BRANCH  13  14
HETATM   14  C9  UNL     1       2.087  -0.931  -0.957  1.00  0.00     0.039 C 
BRANCH  14  15
HETATM   15  C10 UNL     1       0.745  -1.283  -0.333  1.00  0.00     0.139 C 
BRANCH  15  16
HETATM   16  N3  UNL     1      -0.382  -0.891  -1.118  1.00  0.00    -0.227 N 
HETATM   17  C11 UNL     1      -0.770   0.454  -1.340  1.00  0.00     0.667 C 
HETATM   18  N4  UNL     1      -0.632   0.968  -2.501  1.00  0.00    -0.235 N 
HETATM   19  N5  UNL     1      -1.304   1.227  -0.292  1.00  0.00    -0.227 N 
ATOM     20  H42 UNL     1      -0.245   0.408  -3.260  1.00  0.00     0.174 HD
ATOM     21  H41 UNL     1      -0.911   1.936  -2.661  1.00  0.00     0.174 HD
ATOM     22  H5  UNL     1      -0.652   1.642   0.374  1.00  0.00     0.177 HD
ATOM     23  H3  UNL     1      -0.944  -1.627  -1.547  1.00  0.00     0.177 HD
BRANCH  19  24
HETATM   24  C12 UNL     1      -2.727   1.474  -0.095  1.00  0.00     0.142 C 
BRANCH  24  25
HETATM   25  C13 UNL     1      -3.339   0.164   0.275  1.00  0.00     0.054 C 
BRANCH  25  26
HETATM   26  C14 UNL     1      -4.776   0.157   0.530  1.00  0.00    -0.082 C 
HETATM   27  C15 UNL     1      -5.374   1.322   0.407  1.00  0.00    -0.024 C 
HETATM   28  C16 UNL     1      -6.801   1.792   0.568  1.00  0.00     0.027 C 
HETATM   29  C17 UNL     1      -7.728   1.159  -0.422  1.00  0.00     0.004 C 
HETATM   30  C18 UNL     1      -8.560   0.097   0.234  1.00  0.00     0.000 C 
HETATM   31  C19 UNL     1      -7.777  -0.928   0.986  1.00  0.00     0.000 C 
HETATM   32  C20 UNL     1      -6.618  -1.474   0.219  1.00  0.00     0.004 C 
HETATM   33  C21 UNL     1      -5.282  -1.192   0.878  1.00  0.00     0.034 C 
ENDBRANCH  25  26
ENDBRANCH  24  25
ENDBRANCH  19  24
ENDBRANCH  15  16
ENDBRANCH  14  15
ENDBRANCH  13  14
ENDBRANCH  11  13
ENDBRANCH   8  11
ENDBRANCH   3   4
TORSDOF 9
