REMARK  9 active torsions:
REMARK  status: ('A' for Active; 'I' for Inactive)
REMARK    1  A    between atoms: C2_2  and  C4_4 
REMARK    2  A    between atoms: C4_4  and  N1_5 
REMARK    3  A    between atoms: N1_5  and  C5_8 
REMARK    4  A    between atoms: C5_8  and  C6_9 
REMARK    5  A    between atoms: C6_9  and  N2_10 
REMARK       I    between atoms: N2_10  and  C7_12 
REMARK    6  A    between atoms: C7_12  and  C8_14 
REMARK    7  A    between atoms: C8_14  and  N3_15 
REMARK    8  A    between atoms: C8_14  and  C20_31 
REMARK       I    between atoms: N3_15  and  C9_17 
REMARK       I    between atoms: C9_17  and  N4_19 
REMARK    9  A    between atoms: N4_19  and  C10_21 
ROOT
HETATM    1  C8  UNL     1       0.743  -2.062   0.136  1.00  0.00     0.181 C 
ENDROOT
BRANCH   1   2
HETATM    2  C7  UNL     1       1.731  -1.786  -0.905  1.00  0.00     0.240 C 
HETATM    3  N2  UNL     1       3.127  -1.910  -0.769  1.00  0.00    -0.358 N 
ATOM      4  H2  UNL     1       3.519  -2.222   0.119  1.00  0.00     0.162 HD
HETATM    5  O1  UNL     1       1.301  -1.398  -2.030  1.00  0.00    -0.271 OA
BRANCH   3   6
HETATM    6  C6  UNL     1       4.008  -1.604  -1.862  1.00  0.00     0.150 C 
BRANCH   6   7
HETATM    7  C5  UNL     1       3.925  -0.167  -2.322  1.00  0.00     0.251 C 
BRANCH   7   8
HETATM    8  N1  UNL     1       4.272   0.678  -1.211  1.00  0.00    -0.073 N 
ATOM      9  H12 UNL     1       3.667   0.485  -0.413  1.00  0.00     0.277 HD
ATOM     10  H11 UNL     1       4.006   1.644  -1.401  1.00  0.00     0.277 HD
BRANCH   8  11
HETATM   11  C4  UNL     1       5.647   0.604  -0.826  1.00  0.00     0.236 C 
BRANCH  11  12
HETATM   12  C2  UNL     1       5.872   1.535   0.374  1.00  0.00     0.003 C 
HETATM   13  C1  UNL     1       5.001   1.111   1.533  1.00  0.00     0.011 C 
HETATM   14  C3  UNL     1       5.495   2.920  -0.079  1.00  0.00     0.011 C 
ENDBRANCH  11  12
ENDBRANCH   8  11
ENDBRANCH   7   8
ENDBRANCH   6   7
ENDBRANCH   3   6
ENDBRANCH   1   2
BRANCH   1  15
HETATM   15  N3  UNL     1      -0.600  -1.815  -0.358  1.00  0.00    -0.330 N 
HETATM   16  C9  UNL     1      -1.418  -0.740   0.078  1.00  0.00     0.317 C 
HETATM   17  O2  UNL     1      -0.931   0.025   0.936  1.00  0.00    -0.247 OA
HETATM   18  N4  UNL     1      -2.715  -0.528  -0.418  1.00  0.00    -0.334 N 
ATOM     19  H4  UNL     1      -3.045  -1.193  -1.117  1.00  0.00     0.165 HD
ATOM     20  H3  UNL     1      -0.978  -2.452  -1.060  1.00  0.00     0.165 HD
BRANCH  18  21
HETATM   21  C10 UNL     1      -3.619   0.504  -0.059  1.00  0.00     0.035 C 
HETATM   22  C11 UNL     1      -3.960   0.413   1.406  1.00  0.00     0.035 C 
HETATM   23  C12 UNL     1      -4.945   1.487   1.827  1.00  0.00    -0.012 C 
HETATM   24  C13 UNL     1      -6.199   1.314   1.034  1.00  0.00     0.009 C 
HETATM   25  C17 UNL     1      -4.344   2.839   1.553  1.00  0.00     0.009 C 
HETATM   26  C14 UNL     1      -5.868   1.472  -0.430  1.00  0.00    -0.012 C 
HETATM   27  C15 UNL     1      -5.273   2.832  -0.720  1.00  0.00     0.009 C 
HETATM   28  C19 UNL     1      -4.896   0.437  -0.887  1.00  0.00     0.035 C 
HETATM   29  C16 UNL     1      -4.002   2.937   0.083  1.00  0.00    -0.012 C 
HETATM   30  C18 UNL     1      -3.030   1.879  -0.329  1.00  0.00     0.035 C 
ENDBRANCH  18  21
ENDBRANCH   1  15
BRANCH   1  31
HETATM   31  C20 UNL     1       0.749  -3.422   0.727  1.00  0.00     0.009 C 
HETATM   32  C21 UNL     1       0.503  -4.508  -0.321  1.00  0.00     0.012 C 
HETATM   33  C22 UNL     1       1.934  -3.805   1.532  1.00  0.00     0.012 C 
ENDBRANCH   1  31
TORSDOF 9
