REMARK  3 active torsions:
REMARK  status: ('A' for Active; 'I' for Inactive)
REMARK    1  A    between atoms: N1_1  and  C1_4 
REMARK    2  A    between atoms: C4_10  and  C5_11 
REMARK       I    between atoms: C5_11  and  N4_13 
REMARK    3  A    between atoms: N4_13  and  N5_15 
ROOT
HETATM    1  C1  UNL     1      -2.370   1.155  -0.093  1.00  0.00     0.680 C 
HETATM    2  N2  UNL     1      -2.586  -0.140   0.264  1.00  0.00    -0.179 N 
ATOM      3  H2  UNL     1      -3.500  -0.348   0.666  1.00  0.00     0.185 HD
HETATM    4  C2  UNL     1      -1.743  -1.176   0.151  1.00  0.00     0.133 C 
HETATM    5  N3  UNL     1      -2.305  -2.487   0.372  1.00  0.00    -0.082 NA
HETATM    6  C3  UNL     1      -0.405  -1.119  -0.146  1.00  0.00     0.068 C 
HETATM    7  C4  UNL     1       0.423  -0.006  -0.260  1.00  0.00     0.105 C 
HETATM    8  C6  UNL     1       0.030   1.339  -0.211  1.00  0.00     0.275 C 
HETATM    9  O2  UNL     1       0.946   2.204  -0.176  1.00  0.00    -0.267 OA
HETATM   10  N6  UNL     1      -1.223   1.839  -0.198  1.00  0.00    -0.155 N 
ATOM     11  H6  UNL     1      -1.306   2.853  -0.277  1.00  0.00     0.187 HD
ENDROOT
BRANCH   7  12
HETATM   12  C5  UNL     1       1.849  -0.290  -0.410  1.00  0.00     0.275 C 
HETATM   13  O1  UNL     1       2.180  -0.825  -1.516  1.00  0.00    -0.266 OA
HETATM   14  N4  UNL     1       2.775   0.014   0.615  1.00  0.00    -0.272 N 
ATOM     15  H4  UNL     1       2.480   0.433   1.497  1.00  0.00     0.189 HD
BRANCH  14  16
HETATM   16  N5  UNL     1       4.104  -0.287   0.359  1.00  0.00    -0.342 N 
ATOM     17  H52 UNL     1       4.383  -0.706  -0.528  1.00  0.00     0.176 HD
ATOM     18  H51 UNL     1       4.772  -0.068   1.098  1.00  0.00     0.176 HD
ENDBRANCH  14  16
ENDBRANCH   7  12
BRANCH   1  19
HETATM   19  N1  UNL     1      -3.465   1.771  -0.366  1.00  0.00    -0.234 N 
ATOM     20  H12 UNL     1      -4.338   1.250  -0.286  1.00  0.00     0.174 HD
ATOM     21  H11 UNL     1      -3.303   2.742  -0.634  1.00  0.00     0.174 HD
ENDBRANCH   1  19
TORSDOF 3
