REMARK  3 active torsions:
REMARK  status: ('A' for Active; 'I' for Inactive)
REMARK    1  A    between atoms: N1_1  and  C1_4 
REMARK    2  A    between atoms: C2_7  and  C3_8 
REMARK       I    between atoms: C3_8  and  N3_10 
REMARK    3  A    between atoms: N3_10  and  N4_12 
ROOT
HETATM    1  C1  UNL     1      -1.338  -1.004   0.093  1.00  0.00     0.116 A 
HETATM    2  N2  UNL     1       0.017  -0.931   0.130  1.00  0.00    -0.324 N 
ATOM      3  H2  UNL     1       0.552  -1.799   0.126  1.00  0.00     0.169 HD
HETATM    4  C2  UNL     1       0.682   0.231   0.171  1.00  0.00     0.179 A 
HETATM    5  N5  UNL     1      -0.037   1.366   0.175  1.00  0.00    -0.322 N 
ATOM      6  H5  UNL     1       0.462   2.255   0.206  1.00  0.00     0.169 HD
HETATM    7  C4  UNL     1      -1.376   1.388   0.140  1.00  0.00     0.137 A 
HETATM    8  N6  UNL     1      -2.317   2.343   0.135  1.00  0.00    -0.285 N 
ATOM      9  H6  UNL     1      -2.126   3.345   0.160  1.00  0.00     0.188 HD
HETATM   10  N7  UNL     1      -3.520   1.814   0.093  1.00  0.00    -0.309 N 
ATOM     11  H7  UNL     1      -4.400   2.330   0.081  1.00  0.00     0.186 HD
HETATM   12  C5  UNL     1      -3.390   0.480   0.069  1.00  0.00     0.126 A 
HETATM   13  C6  UNL     1      -2.046   0.191   0.099  1.00  0.00     0.070 A 
ENDROOT
BRANCH   4  14
HETATM   14  C3  UNL     1       2.137   0.256   0.210  1.00  0.00     0.303 C 
HETATM   15  O1  UNL     1       2.774   1.364   0.249  1.00  0.00    -0.263 OA
HETATM   16  N3  UNL     1       2.931  -0.917   0.207  1.00  0.00    -0.270 N 
ATOM     17  H3  UNL     1       2.467  -1.825   0.176  1.00  0.00     0.189 HD
BRANCH  16  18
HETATM   18  N4  UNL     1       4.329  -0.874   0.245  1.00  0.00    -0.342 N 
ATOM     19  H42 UNL     1       4.776   0.042   0.276  1.00  0.00     0.176 HD
ATOM     20  H41 UNL     1       4.901  -1.719   0.243  1.00  0.00     0.176 HD
ENDBRANCH  16  18
ENDBRANCH   4  14
BRANCH   1  21
HETATM   21  N1  UNL     1      -1.953  -2.114   0.055  1.00  0.00    -0.385 N 
ATOM     22  H12 UNL     1      -1.433  -2.992   0.051  1.00  0.00     0.157 HD
ATOM     23  H11 UNL     1      -2.971  -2.169   0.027  1.00  0.00     0.157 HD
ENDBRANCH   1  21
TORSDOF 3
