REMARK  3 active torsions:
REMARK  status: ('A' for Active; 'I' for Inactive)
REMARK    1  A    between atoms: N1_1  and  C1_4 
REMARK       I    between atoms: N5_15  and  C6_16 
REMARK       I    between atoms: C6_16  and  N6_18 
REMARK    2  A    between atoms: N6_18  and  N7_20 
REMARK    3  A    between atoms: N7_20  and  N8_21 
ROOT
HETATM    1  C1  UNL     1      -3.229  -0.117  -0.044  1.00  0.00     0.131 A 
HETATM    2  N2  UNL     1      -3.230   1.208   0.182  1.00  0.00    -0.337 N 
ATOM      3  H2  UNL     1      -4.121   1.699   0.255  1.00  0.00     0.168 HD
HETATM    4  C2  UNL     1      -2.082   1.905   0.315  1.00  0.00     0.183 A 
HETATM    5  N3  UNL     1      -0.878   1.311   0.227  1.00  0.00    -0.336 N 
ATOM      6  H3  UNL     1      -0.022   1.856   0.330  1.00  0.00     0.168 HD
HETATM    7  C3  UNL     1      -0.822  -0.020   0.000  1.00  0.00     0.148 A 
HETATM    8  C4  UNL     1      -2.008  -0.734  -0.136  1.00  0.00     0.122 A 
HETATM    9  N4  UNL     1      -1.663  -2.001  -0.350  1.00  0.00    -0.346 N 
ATOM     10  H4  UNL     1      -2.320  -2.768  -0.490  1.00  0.00     0.167 HD
HETATM   11  C5  UNL     1      -0.326  -2.125  -0.356  1.00  0.00     0.195 A 
HETATM   12  N5  UNL     1       0.204  -0.874  -0.135  1.00  0.00    -0.242 N 
HETATM   13  C6  UNL     1       1.593  -0.618  -0.070  1.00  0.00     0.346 C 
HETATM   14  O1  UNL     1       2.400  -1.606  -0.226  1.00  0.00    -0.245 OA
HETATM   15  N6  UNL     1       2.219   0.623   0.153  1.00  0.00    -0.235 N 
ATOM     16  H6  UNL     1       1.639   1.451   0.286  1.00  0.00     0.189 HD
ENDROOT
BRANCH  15  17
HETATM   17  N7  UNL     1       3.618   0.758   0.199  1.00  0.00    -0.026 NA
BRANCH  17  18
HETATM   18  N8  UNL     1       4.287  -0.057  -0.689  1.00  0.00    -0.329 N 
ATOM     19  H82 UNL     1       3.797  -0.695  -1.316  1.00  0.00     0.174 HD
ATOM     20  H81 UNL     1       5.302   0.041  -0.656  1.00  0.00     0.174 HD
ENDBRANCH  17  18
ENDBRANCH  15  17
BRANCH   1  21
HETATM   21  N1  UNL     1      -4.335  -0.785  -0.169  1.00  0.00    -0.383 N 
ATOM     22  H12 UNL     1      -5.243  -0.326  -0.101  1.00  0.00     0.157 HD
ATOM     23  H11 UNL     1      -4.334  -1.790  -0.341  1.00  0.00     0.157 HD
ENDBRANCH   1  21
TORSDOF 3
