REMARK  2 active torsions:
REMARK  status: ('A' for Active; 'I' for Inactive)
REMARK    1  A    between atoms: C4_7  and  N3_8 
REMARK       I    between atoms: N3_8  and  C5_10 
REMARK       I    between atoms: C5_10  and  N4_11 
REMARK       I    between atoms: C5_10  and  N5_15 
REMARK    2  A    between atoms: C6_21  and  N7_22 
ROOT
HETATM    1  C1  UNL     1      -3.484  -1.517   0.288  1.00  0.00     0.158 C 
HETATM    2  N1  UNL     1      -2.077  -1.175   0.412  1.00  0.00    -0.331 N 
HETATM    3  C2  UNL     1      -1.109  -1.836   1.067  1.00  0.00     0.184 A 
HETATM    4  N2  UNL     1       0.063  -1.193   0.942  1.00  0.00    -0.346 N 
ATOM      5  H2  UNL     1       0.949  -1.495   1.348  1.00  0.00     0.167 HD
HETATM    6  C3  UNL     1      -0.115  -0.087   0.196  1.00  0.00     0.123 A 
HETATM    7  C4  UNL     1       0.709   0.926  -0.248  1.00  0.00     0.150 A 
HETATM    8  N6  UNL     1       0.121   1.891  -1.004  1.00  0.00    -0.175 N 
ATOM      9  H6  UNL     1       0.697   2.657  -1.352  1.00  0.00     0.186 HD
HETATM   10  C6  UNL     1      -1.175   1.879  -1.310  1.00  0.00     0.679 A 
HETATM   11  N8  UNL     1      -1.985   0.897  -0.882  1.00  0.00    -0.174 N 
ATOM     12  H8  UNL     1      -2.977   0.893  -1.120  1.00  0.00     0.186 HD
HETATM   13  C7  UNL     1      -1.448  -0.084  -0.129  1.00  0.00     0.154 A 
ENDROOT
BRANCH   7  14
HETATM   14  N3  UNL     1       1.944   0.964   0.027  1.00  0.00    -0.325 N 
HETATM   15  C5  UNL     1       2.737   0.057   0.796  1.00  0.00     0.481 C 
HETATM   16  N4  UNL     1       3.035  -1.128   0.019  1.00  0.00    -0.033 N 
HETATM   17  N5  UNL     1       4.018   0.658   1.183  1.00  0.00    -0.033 N 
ATOM     18  H43 UNL     1       2.189  -1.571  -0.340  1.00  0.00     0.278 HD
ATOM     19  H42 UNL     1       3.474  -0.899  -0.872  1.00  0.00     0.278 HD
ATOM     20  H41 UNL     1       3.601  -1.775   0.568  1.00  0.00     0.278 HD
ATOM     21  H53 UNL     1       4.529   1.004   0.371  1.00  0.00     0.278 HD
ATOM     22  H52 UNL     1       3.882   1.543   1.672  1.00  0.00     0.278 HD
ATOM     23  H51 UNL     1       4.584   0.011   1.732  1.00  0.00     0.278 HD
ATOM     24  H3  UNL     1       2.449   1.762  -0.358  1.00  0.00     0.165 HD
ENDBRANCH   7  14
BRANCH  10  25
HETATM   25  N7  UNL     1      -1.705   2.813  -2.032  1.00  0.00    -0.234 N 
ATOM     26  H72 UNL     1      -1.090   3.559  -2.357  1.00  0.00     0.174 HD
ATOM     27  H71 UNL     1      -2.698   2.804  -2.266  1.00  0.00     0.174 HD
ENDBRANCH  10  25
TORSDOF 2
