REMARK  5 active torsions:
REMARK  status: ('A' for Active; 'I' for Inactive)
REMARK    1  A    between atoms: C2_2  and  C3_3 
REMARK    2  A    between atoms: C3_3  and  C4_4 
REMARK    3  A    between atoms: C7_7  and  C8_8 
REMARK    4  A    between atoms: C8_8  and  C9_9 
REMARK    5  A    between atoms: C9_9  and  N1_10 
ROOT
HETATM    1  N1  UNL     1       1.540   1.406   0.623  1.00  0.00    -0.306 N 
HETATM    2  C10 UNL     1       1.246   1.119   1.905  1.00  0.00     0.181 A 
HETATM    3  S1  UNL     1       0.033   1.743   2.839  1.00  0.00    -0.040 SA
HETATM    4  N2  UNL     1       2.141   0.218   2.340  1.00  0.00    -0.316 N 
ATOM      5  H2  UNL     1       2.151  -0.176   3.281  1.00  0.00     0.170 HD
HETATM    6  C11 UNL     1       3.023  -0.099   1.375  1.00  0.00     0.153 A 
HETATM    7  N3  UNL     1       4.096  -0.932   1.294  1.00  0.00    -0.337 N 
ATOM      8  H3  UNL     1       4.376  -1.488   2.102  1.00  0.00     0.167 HD
HETATM    9  C12 UNL     1       4.785  -1.017   0.143  1.00  0.00     0.060 A 
HETATM   10  C13 UNL     1       5.885  -1.847   0.002  1.00  0.00     0.032 A 
HETATM   11  C14 UNL     1       6.597  -1.936  -1.181  1.00  0.00     0.002 A 
HETATM   12  C15 UNL     1       6.229  -1.189  -2.279  1.00  0.00     0.002 A 
HETATM   13  C16 UNL     1       5.136  -0.360  -2.151  1.00  0.00     0.032 A 
HETATM   14  C17 UNL     1       4.418  -0.270  -0.955  1.00  0.00     0.060 A 
HETATM   15  N4  UNL     1       3.354   0.542  -0.842  1.00  0.00    -0.337 N 
ATOM     16  H4  UNL     1       3.078   1.097  -1.652  1.00  0.00     0.167 HD
HETATM   17  C18 UNL     1       2.636   0.658   0.289  1.00  0.00     0.155 A 
ENDROOT
BRANCH   1  18
HETATM   18  C9  UNL     1       0.879   2.309  -0.246  1.00  0.00     0.138 C 
BRANCH  18  19
HETATM   19  C8  UNL     1      -0.203   1.838  -1.132  1.00  0.00     0.062 C 
BRANCH  19  20
HETATM   20  C7  UNL     1      -1.391   1.232  -0.555  1.00  0.00    -0.015 A 
HETATM   21  C6  UNL     1      -2.498   2.041  -0.279  1.00  0.00     0.011 A 
HETATM   22  C5  UNL     1      -3.612   1.491   0.295  1.00  0.00     0.011 A 
HETATM   23  C4  UNL     1      -3.710   0.155   0.623  1.00  0.00    -0.016 A 
HETATM   24  C20 UNL     1      -2.617  -0.624   0.346  1.00  0.00     0.161 A 
HETATM   25  C19 UNL     1      -1.455  -0.100  -0.242  1.00  0.00     0.161 A 
HETATM   26  F2  UNL     1      -2.599  -1.955   0.669  1.00  0.00    -0.202 F 
HETATM   27  F1  UNL     1      -0.462  -0.985  -0.495  1.00  0.00    -0.202 F 
BRANCH  23  28
HETATM   28  C3  UNL     1      -4.970  -0.334   1.201  1.00  0.00     0.041 C 
BRANCH  28  29
HETATM   29  C2  UNL     1      -5.903  -0.908   0.193  1.00  0.00     0.000 C 
HETATM   30  C1  UNL     1      -5.448  -2.075  -0.597  1.00  0.00     0.005 C 
ENDBRANCH  28  29
ENDBRANCH  23  28
ENDBRANCH  19  20
ENDBRANCH  18  19
ENDBRANCH   1  18
TORSDOF 5
