REMARK  6 active torsions:
REMARK  status: ('A' for Active; 'I' for Inactive)
REMARK    1  A    between atoms: C2_2  and  C3_3 
REMARK    2  A    between atoms: C3_3  and  N1_5 
REMARK    3  A    between atoms: N1_5  and  C5_7 
REMARK    4  A    between atoms: C6_10  and  S1_11 
REMARK    5  A    between atoms: S1_11  and  C7_12 
REMARK    6  A    between atoms: C7_12  and  C8_13 
ROOT
HETATM    1  C5  UNL     1      -1.289  -0.182   0.457  1.00  0.00     0.163 A 
HETATM    2  N2  UNL     1      -0.301  -0.346   1.341  1.00  0.00    -0.316 N 
ATOM      3  H2  UNL     1      -0.399  -0.029   2.306  1.00  0.00     0.170 HD
HETATM    4  C6  UNL     1       0.792  -0.924   0.930  1.00  0.00     0.152 A 
HETATM    5  N3  UNL     1       0.861  -1.316  -0.338  1.00  0.00    -0.304 N 
ATOM      6  H3  UNL     1       1.634  -1.779  -0.816  1.00  0.00     0.176 HD
HETATM    7  S2  UNL     1      -0.632  -0.866  -0.964  1.00  0.00     0.024 SA
ENDROOT
BRANCH   4   8
HETATM    8  S1  UNL     1       2.228  -1.213   2.013  1.00  0.00    -0.089 SA
BRANCH   8   9
HETATM    9  C7  UNL     1       3.297   0.245   1.865  1.00  0.00     0.121 C 
BRANCH   9  10
HETATM   10  C8  UNL     1       3.832   0.264   0.473  1.00  0.00    -0.047 A 
HETATM   11  C9  UNL     1       5.021  -0.371   0.148  1.00  0.00     0.011 A 
HETATM   12  C10 UNL     1       5.509  -0.351  -1.140  1.00  0.00     0.044 A 
HETATM   13  C11 UNL     1       4.817   0.311  -2.150  1.00  0.00     0.133 A 
HETATM   14  F1  UNL     1       5.361   0.287  -3.395  1.00  0.00    -0.205 F 
HETATM   15  C12 UNL     1       3.635   0.949  -1.850  1.00  0.00     0.050 A 
HETATM   16 BR1  UNL     1       2.718   1.841  -3.256  1.00  0.00    -0.048 Br
HETATM   17  C13 UNL     1       3.170   0.913  -0.557  1.00  0.00     0.030 A 
ENDBRANCH   9  10
ENDBRANCH   8   9
ENDBRANCH   4   8
BRANCH   1  18
HETATM   18  N1  UNL     1      -2.460   0.372   0.678  1.00  0.00    -0.365 N 
ATOM     19  H1  UNL     1      -2.677   0.727   1.609  1.00  0.00     0.162 HD
BRANCH  18  20
HETATM   20  C3  UNL     1      -3.434   0.486  -0.360  1.00  0.00     0.079 C 
HETATM   21  C4  UNL     1      -3.567  -0.785  -1.151  1.00  0.00     0.032 C 
BRANCH  20  22
HETATM   22  C2  UNL     1      -4.761   0.855   0.285  1.00  0.00     0.020 C 
HETATM   23  C1  UNL     1      -5.219  -0.257   1.222  1.00  0.00     0.007 C 
ENDBRANCH  20  22
ENDBRANCH  18  20
ENDBRANCH   1  18
TORSDOF 6
