REMARK  9 active torsions:
REMARK  status: ('A' for Active; 'I' for Inactive)
REMARK    1  A    between atoms: C2_2  and  N1_4 
REMARK    2  A    between atoms: N1_4  and  C4_5 
REMARK    3  A    between atoms: N1_4  and  C14_19 
REMARK    4  A    between atoms: C4_5  and  C5_6 
REMARK    5  A    between atoms: C6_9  and  C7_10 
REMARK    6  A    between atoms: C14_19  and  C16_21 
REMARK    7  A    between atoms: C16_21  and  C17_22 
REMARK    8  A    between atoms: C17_22  and  O1_24 
REMARK    9  A    between atoms: C17_22  and  C19_26 
ROOT
HETATM    1  N1  UNL     1      -1.191   0.457  -0.453  1.00  0.00     0.102 N 
ENDROOT
BRANCH   1   2
HETATM    2  C2  UNL     1      -0.271   0.362  -1.547  1.00  0.00     0.216 C 
HETATM    3  C1  UNL     1       0.287   1.767  -1.894  1.00  0.00     0.042 C 
HETATM    4  C3  UNL     1      -0.686  -0.328  -2.794  1.00  0.00     0.042 C 
ENDBRANCH   1   2
BRANCH   1   5
HETATM    5  C4  UNL     1      -0.392   0.958   0.703  1.00  0.00     0.338 C 
BRANCH   5   6
HETATM    6  C5  UNL     1       0.718   0.085   1.135  1.00  0.00     0.079 A 
HETATM    7  N2  UNL     1       2.002   0.172   0.835  1.00  0.00    -0.351 N 
HETATM    8  C6  UNL     1       2.856  -0.663   1.321  1.00  0.00     0.049 A 
ATOM      9  H2  UNL     1       2.323   0.911   0.209  1.00  0.00     0.166 HD
HETATM   10  C13 UNL     1       2.382  -1.644   2.160  1.00  0.00     0.081 A 
HETATM   11  S1  UNL     1       0.716  -1.275   2.179  1.00  0.00    -0.085 SA
BRANCH   8  12
HETATM   12  C7  UNL     1       4.305  -0.579   0.996  1.00  0.00    -0.009 A 
HETATM   13  C8  UNL     1       5.211  -1.468   1.511  1.00  0.00     0.017 A 
HETATM   14  C9  UNL     1       6.563  -1.405   1.221  1.00  0.00     0.043 A 
HETATM   15  C10 UNL     1       7.039  -0.437   0.398  1.00  0.00     0.116 A 
HETATM   16  F1  UNL     1       8.349  -0.307   0.065  1.00  0.00    -0.206 F 
HETATM   17  C11 UNL     1       6.152   0.480  -0.141  1.00  0.00     0.043 A 
HETATM   18  C12 UNL     1       4.816   0.397   0.161  1.00  0.00     0.017 A 
ENDBRANCH   8  12
ENDBRANCH   5   6
ENDBRANCH   1   5
BRANCH   1  19
HETATM   19  C14 UNL     1      -1.886  -0.658   0.032  1.00  0.00     0.223 C 
HETATM   20  C15 UNL     1      -2.721  -1.452  -0.973  1.00  0.00     0.043 C 
BRANCH  19  21
HETATM   21  C16 UNL     1      -2.799  -0.292   1.176  1.00  0.00     0.082 C 
BRANCH  21  22
HETATM   22  C17 UNL     1      -3.919   0.593   1.132  1.00  0.00     0.153 C 
HETATM   23  C18 UNL     1      -5.057   0.153   0.160  1.00  0.00     0.055 C 
BRANCH  22  24
HETATM   24  O1  UNL     1      -4.598   0.317   2.386  1.00  0.00    -0.381 OA
ATOM     25  H1  UNL     1      -5.343   0.906   2.357  1.00  0.00     0.211 HD
ENDBRANCH  22  24
BRANCH  22  26
HETATM   26  C19 UNL     1      -3.889   2.064   1.103  1.00  0.00     0.417 C 
HETATM   27  F2  UNL     1      -5.228   2.579   1.081  1.00  0.00    -0.168 F 
HETATM   28  F3  UNL     1      -3.444   2.509  -0.147  1.00  0.00    -0.168 F 
HETATM   29  F4  UNL     1      -3.321   2.743   2.110  1.00  0.00    -0.168 F 
ENDBRANCH  22  26
ENDBRANCH  21  22
ENDBRANCH  19  21
ENDBRANCH   1  19
TORSDOF 9
