REMARK  7 active torsions:
REMARK  status: ('A' for Active; 'I' for Inactive)
REMARK    1  A    between atoms: C7_11  and  C8_12 
REMARK    2  A    between atoms: C8_12  and  C9_15 
REMARK    3  A    between atoms: C9_15  and  C10_16 
REMARK    4  A    between atoms: C10_16  and  C11_17 
REMARK    5  A    between atoms: C11_17  and  C12_18 
REMARK    6  A    between atoms: C12_18  and  N1_19 
REMARK    7  A    between atoms: N1_19  and  C13_21 
ROOT
HETATM    1  C9  UNL     1      -0.907   1.370   0.840  1.00  0.00     0.082 C 
ENDROOT
BRANCH   1   2
HETATM    2  C8  UNL     1      -2.342   1.797   1.064  1.00  0.00     0.270 C 
HETATM    3  F3  UNL     1      -2.389   3.098   0.508  1.00  0.00    -0.203 F 
HETATM    4  F4  UNL     1      -2.553   1.956   2.391  1.00  0.00    -0.203 F 
BRANCH   2   5
HETATM    5  C7  UNL     1      -3.348   0.998   0.316  1.00  0.00     0.209 A 
HETATM    6  C2  UNL     1      -3.621  -0.401   0.595  1.00  0.00     0.038 A 
HETATM    7  C1  UNL     1      -2.905  -1.135   1.696  1.00  0.00     0.023 C 
HETATM    8  C3  UNL     1      -3.739  -1.262  -0.650  1.00  0.00     0.025 C 
HETATM    9  C6  UNL     1      -4.973   0.066   1.019  1.00  0.00     0.278 A 
HETATM   10  C4  UNL     1      -4.631  -0.658  -1.701  1.00  0.00     0.113 C 
HETATM   11  C5  UNL     1      -5.916  -0.161  -1.086  1.00  0.00     0.356 C 
HETATM   12  F1  UNL     1      -7.022  -0.754  -1.682  1.00  0.00    -0.176 F 
HETATM   13  F2  UNL     1      -6.098   1.188  -1.173  1.00  0.00    -0.176 F 
HETATM   14  O1  UNL     1      -5.934  -0.557   0.238  1.00  0.00    -0.294 OA
HETATM   15  O2  UNL     1      -4.632   1.354   0.702  1.00  0.00    -0.348 OA
ENDBRANCH   2   5
ENDBRANCH   1   2
BRANCH   1  16
HETATM   16  C10 UNL     1      -0.549   1.486  -0.616  1.00  0.00     0.008 C 
BRANCH  16  17
HETATM   17  C11 UNL     1       0.862   1.077  -0.912  1.00  0.00     0.020 C 
BRANCH  17  18
HETATM   18  C12 UNL     1       1.896   1.875  -0.202  1.00  0.00     0.120 C 
BRANCH  18  19
HETATM   19  N1  UNL     1       3.204   1.388  -0.559  1.00  0.00    -0.388 N 
ATOM     20  H1  UNL     1       3.796   2.001  -1.120  1.00  0.00     0.159 HD
BRANCH  19  21
HETATM   21  C13 UNL     1       3.735   0.123  -0.192  1.00  0.00     0.056 A 
HETATM   22  C14 UNL     1       3.146  -0.816   0.619  1.00  0.00     0.049 A 
HETATM   23  C15 UNL     1       3.986  -1.914   0.752  1.00  0.00     0.099 A 
HETATM   24  N2  UNL     1       5.078  -1.633   0.021  1.00  0.00    -0.331 N 
HETATM   25  C16 UNL     1       6.199  -2.367  -0.188  1.00  0.00     0.096 A 
HETATM   26  C20 UNL     1       4.960  -0.418  -0.559  1.00  0.00     0.065 A 
HETATM   27  C17 UNL     1       7.250  -1.932  -0.978  1.00  0.00     0.018 A 
HETATM   28  C18 UNL     1       7.091  -0.681  -1.557  1.00  0.00     0.004 A 
HETATM   29  C19 UNL     1       5.962   0.072  -1.353  1.00  0.00     0.032 A 
ENDBRANCH  19  21
ENDBRANCH  18  19
ENDBRANCH  17  18
ENDBRANCH  16  17
ENDBRANCH   1  16
TORSDOF 7
