REMARK  5 active torsions:
REMARK  status: ('A' for Active; 'I' for Inactive)
REMARK    1  A    between atoms: C2_2  and  C4_4 
REMARK    2  A    between atoms: C5_5  and  C6_6 
REMARK    3  A    between atoms: N2_16  and  C12_17 
REMARK    4  A    between atoms: C12_17  and  C13_18 
REMARK    5  A    between atoms: C13_18  and  C14_19 
ROOT
HETATM    1  C4  UNL     1      -0.661   0.044   0.359  1.00  0.00     0.056 A 
HETATM    2  C5  UNL     1      -1.921  -0.430   0.676  1.00  0.00     0.045 A 
HETATM    3  C10 UNL     1      -1.964  -1.317   1.757  1.00  0.00     0.258 A 
HETATM    4  O1  UNL     1      -3.078  -1.782   2.096  1.00  0.00    -0.267 OA
HETATM    5  N1  UNL     1      -0.860  -1.701   2.461  1.00  0.00    -0.275 N 
ATOM      6  H1  UNL     1      -0.937  -2.350   3.244  1.00  0.00     0.173 HD
HETATM    7  C11 UNL     1       0.324  -1.203   2.096  1.00  0.00     0.329 A 
HETATM    8  O2  UNL     1       1.330  -1.580   2.769  1.00  0.00    -0.246 OA
HETATM    9  N2  UNL     1       0.454  -0.348   1.073  1.00  0.00    -0.298 N 
ENDROOT
BRANCH   9  10
HETATM   10  C12 UNL     1       1.758   0.098   0.754  1.00  0.00     0.134 C 
BRANCH  10  11
HETATM   11  C13 UNL     1       2.559  -0.803  -0.162  1.00  0.00     0.024 C 
BRANCH  11  12
HETATM   12  C14 UNL     1       3.904  -0.080  -0.342  1.00  0.00    -0.021 C 
HETATM   13  C15 UNL     1       4.558   0.083   0.992  1.00  0.00     0.009 C 
HETATM   14  C16 UNL     1       4.756  -0.732  -1.372  1.00  0.00     0.009 C 
ENDBRANCH  11  12
ENDBRANCH  10  11
ENDBRANCH   9  10
BRANCH   1  15
HETATM   15  C2  UNL     1      -0.448   1.012  -0.704  1.00  0.00    -0.044 C 
HETATM   16  C1  UNL     1      -0.231   0.760  -1.965  1.00  0.00     0.021 C 
HETATM   17  C3  UNL     1      -0.415   2.488  -0.341  1.00  0.00     0.049 C 
ENDBRANCH   1  15
BRANCH   2  18
HETATM   18  C6  UNL     1      -3.143  -0.093  -0.025  1.00  0.00    -0.017 C 
HETATM   19  C7  UNL     1      -4.413  -0.748   0.554  1.00  0.00     0.019 C 
HETATM   20  C8  UNL     1      -3.525   1.380  -0.042  1.00  0.00     0.019 C 
HETATM   21  C9  UNL     1      -3.191  -0.564  -1.493  1.00  0.00     0.019 C 
ENDBRANCH   2  18
TORSDOF 5
