REMARK  4 active torsions:
REMARK  status: ('A' for Active; 'I' for Inactive)
REMARK    1  A    between atoms: C2_3  and  C10_11 
REMARK    2  A    between atoms: C3_4  and  C4_5 
REMARK       I    between atoms: C10_11  and  N2_13 
REMARK    3  A    between atoms: N2_13  and  C11_15 
REMARK    4  A    between atoms: C11_15  and  C12_16 
ROOT
HETATM    1  N1  UNL     1       1.501   0.250  -2.620  1.00  0.00    -0.191 NA
HETATM    2  C1  UNL     1       1.258   0.351  -1.471  1.00  0.00     0.105 C 
HETATM    3  C2  UNL     1       0.929   0.460  -0.079  1.00  0.00     0.113 C 
HETATM    4  C3  UNL     1       1.793   0.139   0.899  1.00  0.00     0.039 C 
ENDROOT
BRANCH   3   5
HETATM    5  C10 UNL     1      -0.404   0.942   0.235  1.00  0.00     0.262 C 
HETATM    6  O1  UNL     1      -0.733   1.047   1.430  1.00  0.00    -0.267 OA
HETATM    7  N2  UNL     1      -1.300   1.284  -0.789  1.00  0.00    -0.352 N 
ATOM      8  H2  UNL     1      -0.986   1.179  -1.754  1.00  0.00     0.163 HD
BRANCH   7   9
HETATM    9  C11 UNL     1      -2.639   1.775  -0.561  1.00  0.00     0.161 C 
BRANCH   9  10
HETATM   10  C12 UNL     1      -3.592   0.728  -0.177  1.00  0.00    -0.038 A 
HETATM   11  C13 UNL     1      -4.763   1.140   0.451  1.00  0.00     0.025 A 
HETATM   12  C14 UNL     1      -5.724   0.222   0.841  1.00  0.00     0.088 A 
HETATM   13  N3  UNL     1      -5.520  -1.078   0.607  1.00  0.00    -0.375 N 
HETATM   14  C15 UNL     1      -4.388  -1.508  -0.005  1.00  0.00     0.088 A 
ATOM     15  H3  UNL     1      -6.226  -1.757   0.893  1.00  0.00     0.164 HD
HETATM   16  C16 UNL     1      -3.424  -0.611  -0.397  1.00  0.00     0.025 A 
ENDBRANCH   9  10
ENDBRANCH   7   9
ENDBRANCH   3   5
BRANCH   4  17
HETATM   17  C4  UNL     1       3.116  -0.333   0.552  1.00  0.00    -0.035 A 
HETATM   18  C5  UNL     1       3.960   0.290  -0.344  1.00  0.00     0.011 A 
HETATM   19  C6  UNL     1       5.198  -0.244  -0.646  1.00  0.00     0.001 A 
HETATM   20  C7  UNL     1       5.640  -1.414  -0.067  1.00  0.00     0.000 A 
HETATM   21  C8  UNL     1       4.810  -2.049   0.831  1.00  0.00     0.001 A 
HETATM   22  C9  UNL     1       3.574  -1.528   1.140  1.00  0.00     0.011 A 
ENDBRANCH   4  17
TORSDOF 4
