REMARK  4 active torsions:
REMARK  status: ('A' for Active; 'I' for Inactive)
REMARK    1  A    between atoms: C1_2  and  C2_4 
REMARK    2  A    between atoms: C2_4  and  C3_5 
REMARK    3  A    between atoms: C2_4  and  S1_11 
REMARK    4  A    between atoms: S1_11  and  C9_14 
ROOT
HETATM    1  C2  UNL     1      -0.608   1.392  -0.718  1.00  0.00     0.246 C 
ENDROOT
BRANCH   1   2
HETATM    2  C1  UNL     1      -1.454   2.131  -1.682  1.00  0.00     0.197 C 
HETATM    3  O1  UNL     1      -1.174   2.098  -2.905  1.00  0.00    -0.647 OA
HETATM    4  O2  UNL     1      -2.568   2.876  -1.278  1.00  0.00    -0.647 OA
ENDBRANCH   1   2
BRANCH   1   5
HETATM    5  C3  UNL     1      -1.459   0.401  -0.028  1.00  0.00    -0.029 A 
HETATM    6  C4  UNL     1      -1.631   0.511   1.334  1.00  0.00     0.009 A 
HETATM    7  C5  UNL     1      -2.418  -0.389   2.029  1.00  0.00     0.001 A 
HETATM    8  C6  UNL     1      -3.046  -1.419   1.353  1.00  0.00     0.000 A 
HETATM    9  C7  UNL     1      -2.869  -1.524  -0.015  1.00  0.00     0.001 A 
HETATM   10  C8  UNL     1      -2.078  -0.616  -0.704  1.00  0.00     0.009 A 
ENDBRANCH   1   5
BRANCH   1  11
HETATM   11  S1  UNL     1       0.743   0.662  -1.572  1.00  0.00     0.193 S 
HETATM   12  O3  UNL     1       0.277  -0.261  -2.667  1.00  0.00    -0.221 OA
HETATM   13  O4  UNL     1       1.484   1.789  -2.277  1.00  0.00    -0.221 OA
BRANCH  11  14
HETATM   14  C9  UNL     1       1.862  -0.136  -0.523  1.00  0.00     0.060 A 
HETATM   15  C10 UNL     1       1.701  -1.469  -0.209  1.00  0.00     0.023 A 
HETATM   16  C11 UNL     1       2.630  -2.042   0.634  1.00  0.00     0.002 A 
HETATM   17  C12 UNL     1       3.695  -1.319   1.156  1.00  0.00     0.000 A 
HETATM   18  C13 UNL     1       3.855   0.015   0.841  1.00  0.00     0.002 A 
HETATM   19  C14 UNL     1       2.919   0.584  -0.004  1.00  0.00     0.023 A 
ENDBRANCH  11  14
ENDBRANCH   1  11
TORSDOF 4
