REMARK  1 active torsions:
REMARK  status: ('A' for Active; 'I' for Inactive)
REMARK       I    between atoms: C1_2  and  N2_4 
REMARK    1  A    between atoms: N2_4  and  C2_6 
ROOT
HETATM    1  C2  UNL     1      -0.610   0.162   0.211  1.00  0.00     0.063 A 
HETATM    2  C3  UNL     1      -1.821  -0.493  -0.061  1.00  0.00     0.025 A 
HETATM    3  C4  UNL     1      -3.003   0.104   0.292  1.00  0.00     0.016 A 
HETATM    4  C5  UNL     1      -4.209  -0.588   0.001  1.00  0.00     0.001 A 
HETATM    5  C6  UNL     1      -4.202  -1.806  -0.609  1.00  0.00     0.003 A 
HETATM    6  C7  UNL     1      -2.997  -2.365  -0.944  1.00  0.00     0.038 A 
HETATM    7  C8  UNL     1      -1.790  -1.716  -0.674  1.00  0.00     0.088 A 
HETATM    8  O2  UNL     1      -0.687  -2.306  -1.020  1.00  0.00    -0.309 OA
HETATM    9  C9  UNL     1       0.467  -1.758  -0.799  1.00  0.00     0.089 A 
HETATM   10  C10 UNL     1       1.611  -2.444  -1.195  1.00  0.00     0.039 A 
HETATM   11  C11 UNL     1       2.825  -1.888  -0.973  1.00  0.00     0.015 A 
HETATM   12  C12 UNL     1       2.929  -0.665  -0.366  1.00  0.00    -0.025 A 
HETATM   13  C13 UNL     1       4.186  -0.137  -0.160  1.00  0.00     0.012 A 
HETATM   14  C14 UNL     1       4.339   1.081   0.443  1.00  0.00     0.001 A 
HETATM   15  C15 UNL     1       3.232   1.783   0.845  1.00  0.00     0.001 A 
HETATM   16  C16 UNL     1       1.943   1.265   0.645  1.00  0.00     0.013 A 
HETATM   17  C17 UNL     1       1.804   0.055   0.046  1.00  0.00    -0.011 A 
HETATM   18  C18 UNL     1       0.555  -0.513  -0.181  1.00  0.00     0.037 A 
ENDROOT
BRANCH   1  19
HETATM   19  N2  UNL     1      -0.620   1.242   0.751  1.00  0.00    -0.309 N 
HETATM   20  C1  UNL     1      -1.211   2.315   1.315  1.00  0.00     0.333 C 
HETATM   21  N1  UNL     1      -1.614   3.527   0.673  1.00  0.00    -0.040 NA
HETATM   22  O1  UNL     1      -1.461   2.306   2.582  1.00  0.00    -0.251 OA
ATOM     23  H2  UNL     1       0.372   1.470   0.818  1.00  0.00     0.170 HD
ENDBRANCH   1  19
TORSDOF 1
