REMARK  11 active torsions:
REMARK  status: ('A' for Active; 'I' for Inactive)
REMARK    1  A    between atoms: C2_2  and  O2_4 
REMARK    2  A    between atoms: O2_4  and  C3_5 
REMARK    3  A    between atoms: C3_5  and  C4_6 
REMARK    4  A    between atoms: C4_6  and  O4_8 
REMARK    5  A    between atoms: O4_8  and  C5_9 
REMARK    6  A    between atoms: C5_9  and  C6_11 
REMARK    7  A    between atoms: C6_11  and  O6_13 
REMARK    8  A    between atoms: O6_13  and  C8_14 
REMARK    9  A    between atoms: C12_19  and  O8_20 
REMARK   10  A    between atoms: O8_20  and  C13_21 
REMARK       I    between atoms: C13_21  and  N1_23 
REMARK   11  A    between atoms: N1_23  and  C14_25 
ROOT
HETATM    1  C3  UNL     1       0.445   1.153  -1.387  1.00  0.00     0.184 C 
HETATM    2  C9  UNL     1       0.776   2.159  -2.489  1.00  0.00     0.052 C 
HETATM    3  C10 UNL     1       0.244   1.491  -3.733  1.00  0.00     0.006 C 
HETATM    4  C11 UNL     1      -1.092   0.951  -3.254  1.00  0.00     0.036 C 
HETATM    5  C12 UNL     1      -0.696   0.315  -1.938  1.00  0.00     0.179 C 
ENDROOT
BRANCH   1   6
HETATM    6  O2  UNL     1      -0.011   1.775  -0.230  1.00  0.00    -0.297 OA
BRANCH   6   7
HETATM    7  C2  UNL     1       0.676   2.676   0.541  1.00  0.00     0.256 C 
HETATM    8  C1  UNL     1       0.120   3.304   1.776  1.00  0.00     0.126 C 
HETATM    9  O1  UNL     1       1.828   2.995   0.201  1.00  0.00    -0.266 OA
ENDBRANCH   6   7
ENDBRANCH   1   6
BRANCH   1  10
HETATM   10  C4  UNL     1       1.660   0.327  -1.189  1.00  0.00     0.304 C 
HETATM   11  O3  UNL     1       2.164  -0.277  -2.169  1.00  0.00    -0.261 OA
BRANCH  10  12
HETATM   12  O4  UNL     1       2.306   0.160   0.026  1.00  0.00    -0.240 OA
BRANCH  12  13
HETATM   13  C5  UNL     1       3.441  -0.619   0.176  1.00  0.00     0.295 C 
HETATM   14  O5  UNL     1       3.919  -1.209  -0.823  1.00  0.00    -0.262 OA
BRANCH  13  15
HETATM   15  C6  UNL     1       4.129  -0.794   1.479  1.00  0.00     0.227 C 
HETATM   16  C7  UNL     1       3.094  -1.310   2.459  1.00  0.00     0.051 C 
BRANCH  15  17
HETATM   17  O6  UNL     1       5.247  -1.622   1.385  1.00  0.00    -0.313 OA
BRANCH  17  18
HETATM   18  C8  UNL     1       6.525  -1.217   1.665  1.00  0.00     0.399 C 
HETATM   19  O7  UNL     1       6.731  -0.041   2.027  1.00  0.00    -0.276 OA
ENDBRANCH  17  18
ENDBRANCH  15  17
ENDBRANCH  13  15
ENDBRANCH  12  13
ENDBRANCH  10  12
ENDBRANCH   1  10
BRANCH   5  20
HETATM   20  O8  UNL     1      -1.833   0.352  -1.103  1.00  0.00    -0.295 OA
BRANCH  20  21
HETATM   21  C13 UNL     1      -2.437  -0.764  -0.574  1.00  0.00     0.361 C 
HETATM   22  O9  UNL     1      -1.919  -1.884  -0.871  1.00  0.00    -0.238 OA
HETATM   23  N1  UNL     1      -3.582  -0.721   0.267  1.00  0.00    -0.333 N 
ATOM     24  H1  UNL     1      -4.001   0.177   0.509  1.00  0.00     0.165 HD
BRANCH  23  25
HETATM   25  C14 UNL     1      -4.153  -1.941   0.780  1.00  0.00     0.078 C 
HETATM   26  C15 UNL     1      -4.102  -1.983   2.291  1.00  0.00     0.032 C 
HETATM   27  C16 UNL     1      -5.577  -2.147   0.292  1.00  0.00     0.032 C 
ENDBRANCH  23  25
ENDBRANCH  20  21
ENDBRANCH   5  20
TORSDOF 11
