REMARK  11 active torsions:
REMARK  status: ('A' for Active; 'I' for Inactive)
REMARK    1  A    between atoms: C2_2  and  O1_3 
REMARK    2  A    between atoms: O1_3  and  C3_4 
REMARK       I    between atoms: C3_4  and  N1_6 
REMARK    3  A    between atoms: N1_6  and  C4_8 
REMARK    4  A    between atoms: C5_11  and  C6_12 
REMARK    5  A    between atoms: C6_12  and  O4_14 
REMARK    6  A    between atoms: O4_14  and  C7_15 
REMARK    7  A    between atoms: C7_15  and  C8_16 
REMARK    8  A    between atoms: C8_16  and  C9_18 
REMARK    9  A    between atoms: C12_21  and  C13_22 
REMARK   10  A    between atoms: C13_22  and  C14_23 
REMARK   11  A    between atoms: C14_23  and  O7_25 
ROOT
HETATM    1  C4  UNL     1       2.132   0.877   0.687  1.00  0.00     0.154 A 
HETATM    2  N2  UNL     1       1.192   0.107   0.144  1.00  0.00    -0.331 N 
ATOM      3  H2  UNL     1       1.280  -0.909   0.152  1.00  0.00     0.168 HD
HETATM    4  C5  UNL     1       0.145   0.691  -0.404  1.00  0.00     0.124 A 
HETATM    5  C12 UNL     1       0.101   2.058  -0.374  1.00  0.00     0.028 A 
HETATM    6  S1  UNL     1       1.553   2.449   0.434  1.00  0.00    -0.055 SA
ENDROOT
BRANCH   4   7
HETATM    7  C6  UNL     1      -0.936  -0.120  -1.025  1.00  0.00     0.315 C 
HETATM    8  O3  UNL     1      -1.904   0.486  -1.529  1.00  0.00    -0.257 OA
BRANCH   7   9
HETATM    9  O4  UNL     1      -0.940  -1.465  -1.081  1.00  0.00    -0.282 OA
BRANCH   9  10
HETATM   10  C7  UNL     1      -1.767  -2.426  -1.548  1.00  0.00     0.196 C 
BRANCH  10  11
HETATM   11  C8  UNL     1      -3.044  -2.753  -0.941  1.00  0.00     0.174 C 
HETATM   12  O5  UNL     1      -3.687  -3.668  -1.546  1.00  0.00    -0.291 OA
BRANCH  11  13
HETATM   13  C9  UNL     1      -3.737  -2.238   0.232  1.00  0.00     0.053 C 
HETATM   14  C10 UNL     1      -2.886  -2.124   1.479  1.00  0.00     0.018 C 
HETATM   15  C11 UNL     1      -4.586  -1.051  -0.072  1.00  0.00     0.018 C 
ENDBRANCH  11  13
ENDBRANCH  10  11
ENDBRANCH   9  10
ENDBRANCH   7   9
ENDBRANCH   4   7
BRANCH   5  16
HETATM   16  C13 UNL     1      -0.968   2.954  -0.923  1.00  0.00     0.160 C 
BRANCH  16  17
HETATM   17  C14 UNL     1      -0.602   4.342  -0.635  1.00  0.00     0.263 C 
HETATM   18  O6  UNL     1       0.446   4.624  -0.027  1.00  0.00    -0.265 OA
BRANCH  17  19
HETATM   19  O7  UNL     1      -1.393   5.423  -1.018  1.00  0.00    -0.326 OA
HETATM   20  C15 UNL     1      -1.012   6.761  -0.725  1.00  0.00     0.213 C 
ENDBRANCH  17  19
ENDBRANCH  16  17
ENDBRANCH   5  16
BRANCH   1  21
HETATM   21  N1  UNL     1       3.249   0.527   1.283  1.00  0.00    -0.282 N 
HETATM   22  C3  UNL     1       3.637  -0.805   1.441  1.00  0.00     0.366 C 
HETATM   23  O2  UNL     1       2.868  -1.610   2.023  1.00  0.00    -0.238 OA
ATOM     24  H1  UNL     1       3.859   1.260   1.646  1.00  0.00     0.173 HD
BRANCH  22  25
HETATM   25  O1  UNL     1       4.867  -1.241   0.958  1.00  0.00    -0.304 OA
BRANCH  25  26
HETATM   26  C2  UNL     1       5.193  -2.610   1.156  1.00  0.00     0.176 C 
HETATM   27  C1  UNL     1       6.537  -2.958   0.595  1.00  0.00     0.034 C 
ENDBRANCH  25  26
ENDBRANCH  22  25
ENDBRANCH   1  21
TORSDOF 11
