REMARK  7 active torsions:
REMARK  status: ('A' for Active; 'I' for Inactive)
REMARK    1  A    between atoms: C5_7  and  C6_8 
REMARK    2  A    between atoms: C6_8  and  N2_9 
REMARK    3  A    between atoms: C8_14  and  N4_15 
REMARK    4  A    between atoms: C14_22  and  N5_23 
REMARK    5  A    between atoms: N5_23  and  C15_24 
REMARK    6  A    between atoms: C15_24  and  C16_25 
REMARK    7  A    between atoms: C16_25  and  N6_26 
ROOT
HETATM    1  N2  UNL     1      -1.411   0.634  -0.023  1.00  0.00    -0.268 N 
HETATM    2  C7  UNL     1      -2.672   0.224   0.069  1.00  0.00     0.330 A 
HETATM    3  O1  UNL     1      -3.584   1.102   0.266  1.00  0.00    -0.246 OA
HETATM    4  N3  UNL     1      -3.042  -1.075  -0.048  1.00  0.00    -0.293 N 
ATOM      5  H3  UNL     1      -4.027  -1.326   0.036  1.00  0.00     0.172 HD
HETATM    6  C8  UNL     1      -2.126  -2.044  -0.274  1.00  0.00     0.134 A 
HETATM    7  C13 UNL     1      -0.818  -1.625  -0.376  1.00  0.00     0.136 A 
HETATM    8 CL1  UNL     1       0.360  -2.933  -0.660  1.00  0.00    -0.075 Cl
HETATM    9  C14 UNL     1      -0.406  -0.300  -0.262  1.00  0.00     0.210 A 
ENDROOT
BRANCH   1  10
HETATM   10  C6  UNL     1      -0.908   1.902   0.389  1.00  0.00     0.184 C 
BRANCH  10  11
HETATM   11  C5  UNL     1      -1.619   3.150   0.099  1.00  0.00     0.025 A 
HETATM   12  C3  UNL     1      -2.484   3.865   0.943  1.00  0.00     0.020 A 
HETATM   13  N1  UNL     1      -3.050   4.905   0.466  1.00  0.00    -0.357 N 
HETATM   14  C4  UNL     1      -2.661   3.470   2.404  1.00  0.00     0.069 C 
HETATM   15  C2  UNL     1      -2.832   5.295  -0.776  1.00  0.00     0.047 A 
ATOM     16  H1  UNL     1      -3.683   5.445   1.056  1.00  0.00     0.166 HD
HETATM   17  C1  UNL     1      -3.415   6.494  -1.483  1.00  0.00     0.076 C 
HETATM   18  S1  UNL     1      -1.729   4.079  -1.312  1.00  0.00    -0.078 SA
ENDBRANCH  10  11
ENDBRANCH   1  10
BRANCH   9  19
HETATM   19  N5  UNL     1       0.788  -0.066  -0.411  1.00  0.00    -0.400 NA
BRANCH  19  20
HETATM   20  C15 UNL     1       2.048   0.241  -0.563  1.00  0.00     0.187 C 
BRANCH  20  21
HETATM   21  C16 UNL     1       3.130  -0.537   0.203  1.00  0.00     0.331 C 
BRANCH  21  22
HETATM   22  N6  UNL     1       4.432  -0.109  -0.090  1.00  0.00     0.098 N 
HETATM   23  C17 UNL     1       4.868   1.181   0.343  1.00  0.00     0.299 C 
HETATM   24  C18 UNL     1       6.268   1.336  -0.315  1.00  0.00     0.198 C 
HETATM   25  O2  UNL     1       7.164   0.426   0.133  1.00  0.00    -0.388 OA
HETATM   26  C19 UNL     1       6.749  -0.860  -0.184  1.00  0.00     0.198 C 
HETATM   27  C20 UNL     1       5.388  -1.063   0.462  1.00  0.00     0.299 C 
ENDBRANCH  21  22
ENDBRANCH  20  21
ENDBRANCH  19  20
ENDBRANCH   9  19
BRANCH   6  28
HETATM   28  N4  UNL     1      -2.547  -3.385  -0.391  1.00  0.00    -0.366 N 
HETATM   29  C9  UNL     1      -3.772  -3.771  -1.107  1.00  0.00     0.124 C 
HETATM   30  C10 UNL     1      -4.212  -5.070  -0.521  1.00  0.00     0.021 C 
HETATM   31  C11 UNL     1      -3.136  -5.499   0.452  1.00  0.00     0.021 C 
HETATM   32  C12 UNL     1      -1.963  -4.573   0.178  1.00  0.00     0.124 C 
ENDBRANCH   6  28
TORSDOF 7
