REMARK  17 active torsions:
REMARK  status: ('A' for Active; 'I' for Inactive)
REMARK    1  A    between atoms: C2_2  and  C3_3 
REMARK    2  A    between atoms: C2_2  and  N6_43 
REMARK    3  A    between atoms: C3_3  and  N1_4 
REMARK    4  A    between atoms: C3_3  and  C20_40 
REMARK    5  A    between atoms: N1_4  and  C4_7 
REMARK    6  A    between atoms: C6_11  and  C7_12 
REMARK    7  A    between atoms: C8_15  and  C9_16 
REMARK    8  A    between atoms: C9_16  and  O4_17 
REMARK    9  A    between atoms: O4_17  and  C10_18 
REMARK   10  A    between atoms: C10_18  and  C11_20 
REMARK   11  A    between atoms: C11_20  and  S1_22 
REMARK   12  A    between atoms: S1_22  and  C12_23 
REMARK   13  A    between atoms: C12_23  and  C13_24 
REMARK   14  A    between atoms: C15_27  and  O7_28 
REMARK   15  A    between atoms: C16_30  and  O8_31 
REMARK   16  A    between atoms: O8_31  and  N4_32 
REMARK   17  A    between atoms: C21_46  and  N8_47 
ROOT
HETATM    1  C4  UNL     1      -4.032  -1.680  -1.505  1.00  0.00     0.311 C 
HETATM    2  C5  UNL     1      -3.167  -0.821  -2.327  1.00  0.00     0.259 C 
HETATM    3  O1  UNL     1      -3.318  -0.245  -3.430  1.00  0.00    -0.271 OA
HETATM    4  N2  UNL     1      -2.113  -0.912  -1.378  1.00  0.00    -0.293 N 
HETATM    5  C6  UNL     1      -0.851  -0.378  -0.880  1.00  0.00     0.124 C 
HETATM    6  C8  UNL     1      -0.736  -0.064   0.396  1.00  0.00     0.008 C 
HETATM    7  C18 UNL     1      -1.984  -0.205   1.298  1.00  0.00     0.119 C 
HETATM    8  S2  UNL     1      -2.781  -1.801   1.013  1.00  0.00    -0.136 SA
HETATM    9  C19 UNL     1      -2.748  -2.061  -0.770  1.00  0.00     0.195 C 
ENDROOT
BRANCH   6  10
HETATM   10  C9  UNL     1       0.396   0.461   1.092  1.00  0.00     0.156 C 
BRANCH  10  11
HETATM   11  O4  UNL     1       1.611   0.742   0.551  1.00  0.00    -0.284 OA
BRANCH  11  12
HETATM   12  C10 UNL     1       2.615   1.255   1.384  1.00  0.00     0.345 C 
HETATM   13  O5  UNL     1       2.353   1.433   2.588  1.00  0.00    -0.255 OA
BRANCH  12  14
HETATM   14  C11 UNL     1       3.914   1.555   0.804  1.00  0.00     0.284 C 
HETATM   15  O6  UNL     1       4.177   1.372  -0.410  1.00  0.00    -0.274 OA
BRANCH  14  16
HETATM   16  S1  UNL     1       5.205   2.217   1.860  1.00  0.00    -0.076 SA
BRANCH  16  17
HETATM   17  C12 UNL     1       6.719   2.477   1.010  1.00  0.00     0.142 C 
BRANCH  17  18
HETATM   18  C13 UNL     1       7.468   1.254   0.667  1.00  0.00     0.050 A 
HETATM   19  C14 UNL     1       8.672   1.417  -0.083  1.00  0.00     0.107 A 
HETATM   20  N3  UNL     1       9.218   2.634  -0.570  1.00  0.00    -0.097 NA
HETATM   21  C15 UNL     1       9.206   0.172  -0.252  1.00  0.00     0.146 A 
HETATM   22  C16 UNL     1       8.371  -0.706   0.365  1.00  0.00     0.207 A 
HETATM   23  N5  UNL     1       7.319  -0.037   0.921  1.00  0.00    -0.329 N 
HETATM   24  C17 UNL     1       6.282  -0.720   1.672  1.00  0.00     0.158 C 
BRANCH  21  25
HETATM   25  O7  UNL     1      10.385  -0.141  -0.929  1.00  0.00    -0.355 OA
ATOM     26  H7  UNL     1      10.757  -1.007  -1.047  1.00  0.00     0.218 HD
ENDBRANCH  21  25
BRANCH  22  27
HETATM   27  O8  UNL     1       8.565  -2.101   0.421  1.00  0.00    -0.224 OA
BRANCH  27  28
HETATM   28  N4  UNL     1       9.180  -2.625   1.530  1.00  0.00    -0.303 N 
ATOM     29  H42 UNL     1       9.482  -2.008   2.284  1.00  0.00     0.184 HD
ATOM     30  H41 UNL     1       9.320  -3.634   1.571  1.00  0.00     0.184 HD
ENDBRANCH  27  28
ENDBRANCH  22  27
ENDBRANCH  17  18
ENDBRANCH  16  17
ENDBRANCH  14  16
ENDBRANCH  12  14
ENDBRANCH  11  12
ENDBRANCH  10  11
ENDBRANCH   6  10
BRANCH   5  31
HETATM   31  C7  UNL     1       0.176  -0.191  -1.889  1.00  0.00     0.227 C 
HETATM   32  O2  UNL     1       1.317   0.255  -1.795  1.00  0.00    -0.643 OA
HETATM   33  O3  UNL     1      -0.122  -0.563  -3.237  1.00  0.00    -0.643 OA
ENDBRANCH   5  31
BRANCH   1  34
HETATM   34  N1  UNL     1      -5.013  -1.047  -0.662  1.00  0.00    -0.043 N 
ATOM     35  H12 UNL     1      -4.591  -0.452   0.051  1.00  0.00     0.279 HD
ATOM     36  H11 UNL     1      -5.476  -1.707  -0.037  1.00  0.00     0.279 HD
BRANCH  34  37
HETATM   37  C3  UNL     1      -5.965  -0.315  -1.517  1.00  0.00     0.311 C 
BRANCH  37  38
HETATM   38  C2  UNL     1      -6.718   0.674  -0.680  1.00  0.00     0.149 C 
HETATM   39  C1  UNL     1      -7.720   1.509  -1.409  1.00  0.00     0.037 C 
BRANCH  38  40
HETATM   40  N6  UNL     1      -7.356   0.062   0.515  1.00  0.00    -0.242 N 
HETATM   41  N7  UNL     1      -6.745  -0.043   1.647  1.00  0.00    -0.274 N 
HETATM   42  C21 UNL     1      -7.381  -0.600   2.676  1.00  0.00     0.162 A 
ATOM     43  H7  UNL     1      -5.789   0.296   1.752  1.00  0.00     0.189 HD
HETATM   44  S3  UNL     1      -8.899  -0.984   2.002  1.00  0.00     0.010 SA
HETATM   45  C22 UNL     1      -8.605  -0.394   0.427  1.00  0.00     0.308 A 
HETATM   46  O11 UNL     1      -9.390  -0.389  -0.593  1.00  0.00    -0.258 OA
BRANCH  42  47
HETATM   47  N8  UNL     1      -6.936  -0.798   3.901  1.00  0.00    -0.378 N 
ATOM     48  H82 UNL     1      -6.028  -0.568   4.304  1.00  0.00     0.158 HD
ATOM     49  H81 UNL     1      -7.423  -1.225   4.689  1.00  0.00     0.158 HD
ENDBRANCH  42  47
ENDBRANCH  38  40
ENDBRANCH  37  38
BRANCH  37  50
HETATM   50  C20 UNL     1      -6.772  -1.295  -2.238  1.00  0.00     0.207 C 
HETATM   51  O9  UNL     1      -6.786  -2.541  -1.944  1.00  0.00    -0.646 OA
HETATM   52  O10 UNL     1      -7.580  -0.949  -3.301  1.00  0.00    -0.646 OA
ENDBRANCH  37  50
ENDBRANCH  34  37
ENDBRANCH   1  34
TORSDOF 17
