REMARK  6 active torsions:
REMARK  status: ('A' for Active; 'I' for Inactive)
REMARK    1  A    between atoms: N5_12  and  C3_13 
REMARK    2  A    between atoms: C3_13  and  C4_14 
REMARK    3  A    between atoms: C4_14  and  C5_15 
REMARK    4  A    between atoms: C5_15  and  C6_16 
REMARK    5  A    between atoms: C6_16  and  C7_17 
REMARK    6  A    between atoms: C7_17  and  N6_18 
ROOT
HETATM    1  N1  UNL     1      -2.646  -1.864  -0.397  1.00  0.00    -0.233 N 
ATOM      2  H11 UNL     1      -1.676  -2.169  -0.314  1.00  0.00     0.174 HD
ATOM      3  H12 UNL     1      -3.387  -2.520  -0.642  1.00  0.00     0.174 HD
HETATM    4  C1  UNL     1      -2.919  -0.631  -0.195  1.00  0.00     0.694 A 
HETATM    5  N2  UNL     1      -4.281  -0.203  -0.312  1.00  0.00    -0.185 N 
ATOM      6  H2  UNL     1      -5.020  -0.862  -0.558  1.00  0.00     0.185 HD
HETATM    7  C2  UNL     1      -4.541   1.029  -0.099  1.00  0.00     0.216 A 
HETATM    8  N3  UNL     1      -3.532   1.952   0.242  1.00  0.00    -0.281 N 
ATOM      9  H3  UNL     1      -3.791   2.919   0.437  1.00  0.00     0.189 HD
HETATM   10  N4  UNL     1      -2.222   1.591   0.319  1.00  0.00    -0.225 N 
ATOM     11  H4  UNL     1      -1.500   2.288   0.504  1.00  0.00     0.209 HD
HETATM   12  N5  UNL     1      -1.893   0.277   0.144  1.00  0.00    -0.110 N 
ENDROOT
BRANCH  12  13
HETATM   13  C3  UNL     1      -0.538  -0.180   0.301  1.00  0.00     0.169 C 
BRANCH  13  14
HETATM   14  C4  UNL     1       0.134  -0.622  -0.954  1.00  0.00     0.022 C 
BRANCH  14  15
HETATM   15  C5  UNL     1       1.516  -1.118  -0.645  1.00  0.00     0.003 C 
BRANCH  15  16
HETATM   16  C6  UNL     1       2.346  -0.050  -0.025  1.00  0.00     0.027 C 
BRANCH  16  17
HETATM   17  C7  UNL     1       3.764  -0.579   0.253  1.00  0.00     0.229 C 
BRANCH  17  18
HETATM   18  N6  UNL     1       4.525   0.475   0.854  1.00  0.00    -0.079 N 
ATOM     19  H63 UNL     1       4.526   1.328   0.294  1.00  0.00     0.274 HD
ATOM     20  H62 UNL     1       4.078   0.857   1.687  1.00  0.00     0.274 HD
ATOM     21  H61 UNL     1       5.465   0.124   1.038  1.00  0.00     0.274 HD
ENDBRANCH  17  18
ENDBRANCH  16  17
ENDBRANCH  15  16
ENDBRANCH  14  15
ENDBRANCH  13  14
ENDBRANCH  12  13
TORSDOF 6
