REMARK  8 active torsions:
REMARK  status: ('A' for Active; 'I' for Inactive)
REMARK    1  A    between atoms: C2_2  and  C3_3 
REMARK    2  A    between atoms: C3_3  and  N1_4 
REMARK    3  A    between atoms: C5_6  and  C6_7 
REMARK    4  A    between atoms: C6_7  and  C7_8 
REMARK    5  A    between atoms: C7_8  and  N2_9 
REMARK    6  A    between atoms: C7_8  and  C8_13 
REMARK    7  A    between atoms: C8_13  and  N3_14 
REMARK    8  A    between atoms: C9_18  and  N4_19 
ROOT
HETATM    1  N1  UNL     1       1.218  -1.535   1.293  1.00  0.00    -0.298 N 
HETATM    2  C4  UNL     1       0.096  -1.570   0.555  1.00  0.00     0.121 A 
HETATM    3  C5  UNL     1      -0.633  -0.419   0.825  1.00  0.00     0.006 A 
HETATM    4  C9  UNL     1       0.108   0.280   1.745  1.00  0.00     0.121 A 
HETATM    5  N5  UNL     1       1.247  -0.428   2.018  1.00  0.00    -0.283 N 
ATOM      6  H5  UNL     1       1.986  -0.152   2.665  1.00  0.00     0.189 HD
ENDROOT
BRANCH   3   7
HETATM    7  C6  UNL     1      -1.908   0.013   0.217  1.00  0.00     0.078 C 
BRANCH   7   8
HETATM    8  C7  UNL     1      -1.809   0.853  -0.992  1.00  0.00     0.213 C 
BRANCH   8   9
HETATM    9  N2  UNL     1      -3.178   1.188  -1.416  1.00  0.00    -0.073 N 
ATOM     10  H23 UNL     1      -3.764   0.364  -1.552  1.00  0.00     0.274 HD
ATOM     11  H22 UNL     1      -3.728   1.623  -0.675  1.00  0.00     0.274 HD
ATOM     12  H21 UNL     1      -3.110   1.769  -2.252  1.00  0.00     0.274 HD
ENDBRANCH   8   9
BRANCH   8  13
HETATM   13  C8  UNL     1      -1.082   2.142  -0.786  1.00  0.00     0.262 C 
BRANCH  13  14
HETATM   14  N3  UNL     1      -1.114   2.820  -2.103  1.00  0.00    -0.077 N 
ATOM     15  H33 UNL     1      -0.743   2.255  -2.867  1.00  0.00     0.274 HD
ATOM     16  H32 UNL     1      -2.053   2.933  -2.486  1.00  0.00     0.274 HD
ATOM     17  H31 UNL     1      -0.618   3.700  -1.962  1.00  0.00     0.274 HD
ENDBRANCH  13  14
ENDBRANCH   8  13
ENDBRANCH   7   8
ENDBRANCH   3   7
BRANCH   4  18
HETATM   18  N4  UNL     1      -0.125   1.386   2.357  1.00  0.00    -0.384 N 
ATOM     19  H42 UNL     1      -0.974   1.914   2.154  1.00  0.00     0.157 HD
ATOM     20  H41 UNL     1       0.426   1.905   3.041  1.00  0.00     0.157 HD
ENDBRANCH   4  18
BRANCH   1  21
HETATM   21  C3  UNL     1       2.273  -2.506   1.336  1.00  0.00     0.175 C 
BRANCH  21  22
HETATM   22  C2  UNL     1       3.346  -2.227   0.340  1.00  0.00    -0.015 C 
HETATM   23  C1  UNL     1       3.320  -1.199  -0.495  1.00  0.00     0.008 C 
ENDBRANCH  21  22
ENDBRANCH   1  21
TORSDOF 8
