REMARK  7 active torsions:
REMARK  status: ('A' for Active; 'I' for Inactive)
REMARK    1  A    between atoms: C2_2  and  N1_3 
REMARK    2  A    between atoms: C2_2  and  C5_12 
REMARK    3  A    between atoms: N1_3  and  C3_5 
REMARK    4  A    between atoms: C3_5  and  N2_7 
REMARK       I    between atoms: C5_12  and  N5_14 
REMARK    5  A    between atoms: N5_14  and  C6_15 
REMARK    6  A    between atoms: C6_15  and  C7_16 
REMARK       I    between atoms: C7_16  and  N6_18 
REMARK    7  A    between atoms: C8_20  and  C9_22 
ROOT
HETATM    1  C5  UNL     1       2.152   0.533   0.874  1.00  0.00     0.314 C 
HETATM    2  O1  UNL     1       2.610   0.936   1.967  1.00  0.00    -0.255 OA
HETATM    3  N5  UNL     1       0.949   0.872   0.325  1.00  0.00    -0.376 NA
ENDROOT
BRANCH   1   4
HETATM    4  C2  UNL     1       2.983  -0.436   0.045  1.00  0.00     0.187 C 
HETATM    5  C1  UNL     1       3.686   0.326  -1.011  1.00  0.00     0.043 C 
BRANCH   4   6
HETATM    6  N1  UNL     1       3.718  -1.370   0.815  1.00  0.00    -0.353 N 
ATOM      7  H1  UNL     1       3.226  -2.245   0.994  1.00  0.00     0.162 HD
BRANCH   6   8
HETATM    8  C3  UNL     1       4.986  -1.306   1.368  1.00  0.00     0.174 C 
HETATM    9  S1  UNL     1       5.556  -2.542   2.269  1.00  0.00    -0.041 SA
BRANCH   8  10
HETATM   10  N2  UNL     1       5.837  -0.183   1.199  1.00  0.00    -0.310 N 
HETATM   11  C4  UNL     1       6.873  -0.260   0.402  1.00  0.00     0.203 C 
HETATM   12  N3  UNL     1       7.156  -1.451  -0.295  1.00  0.00    -0.066 NA
HETATM   13  N4  UNL     1       7.681   0.898   0.287  1.00  0.00    -0.066 NA
ATOM     14  H2  UNL     1       5.642   0.685   1.699  1.00  0.00     0.170 HD
ENDBRANCH   8  10
ENDBRANCH   6   8
ENDBRANCH   4   6
ENDBRANCH   1   4
BRANCH   3  15
HETATM   15  C6  UNL     1      -0.261   1.212  -0.227  1.00  0.00     0.260 C 
BRANCH  15  16
HETATM   16  C7  UNL     1      -1.401   0.721   0.605  1.00  0.00     0.275 C 
HETATM   17  O2  UNL     1      -1.244   0.109   1.690  1.00  0.00    -0.266 OA
HETATM   18  N6  UNL     1      -2.782   0.920   0.200  1.00  0.00    -0.313 N 
HETATM   19  C8  UNL     1      -3.346  -0.065  -0.447  1.00  0.00     0.100 C 
ATOM     20  H6  UNL     1      -3.284   1.783   0.410  1.00  0.00     0.170 HD
HETATM   21  N7  UNL     1      -2.593  -1.232  -0.702  1.00  0.00    -0.087 NA
BRANCH  19  22
HETATM   22  C9  UNL     1      -4.730   0.011  -0.909  1.00  0.00     0.059 A 
HETATM   23  C10 UNL     1      -5.619  -1.119  -0.360  1.00  0.00     0.022 A 
HETATM   24  C11 UNL     1      -5.887   0.350  -0.082  1.00  0.00    -0.037 A 
HETATM   25  C12 UNL     1      -5.798   0.868   1.320  1.00  0.00     0.015 C 
HETATM   26  C13 UNL     1      -7.132   0.855  -0.828  1.00  0.00     0.015 C 
ENDBRANCH  19  22
ENDBRANCH  15  16
ENDBRANCH   3  15
TORSDOF 7
