REMARK  6 active torsions:
REMARK  status: ('A' for Active; 'I' for Inactive)
REMARK       I    between atoms: C2_2  and  N1_4 
REMARK       I    between atoms: C3_6  and  N3_8 
REMARK    1  A    between atoms: N3_8  and  C4_10 
REMARK    2  A    between atoms: C4_10  and  C5_11 
REMARK    3  A    between atoms: C5_11  and  N5_20 
REMARK    4  A    between atoms: N4_12  and  C6_14 
REMARK    5  A    between atoms: C6_14  and  C9_17 
REMARK       I    between atoms: C12_22  and  N6_23 
REMARK       I    between atoms: C12_22  and  N8_27 
REMARK    6  A    between atoms: N8_27  and  N9_29 
ROOT
HETATM    1  N5  UNL     1      -0.284   1.439   1.021  1.00  0.00    -0.177 N 
ATOM      2  H5  UNL     1      -0.224   1.562   2.032  1.00  0.00     0.185 HD
HETATM    3  C12 UNL     1      -0.532   2.502   0.413  1.00  0.00     0.708 C 
HETATM    4  N6  UNL     1      -0.686   3.689   1.232  1.00  0.00    -0.124 N 
ATOM      5  H6  UNL     1       0.074   4.368   1.265  1.00  0.00     0.197 HD
HETATM    6  C13 UNL     1      -1.830   3.928   1.968  1.00  0.00     0.196 C 
HETATM    7  N7  UNL     1      -2.787   4.121   2.606  1.00  0.00    -0.171 NA
HETATM    8  N8  UNL     1      -0.694   2.726  -0.976  1.00  0.00    -0.117 N 
ATOM      9  H8  UNL     1      -1.453   2.283  -1.494  1.00  0.00     0.207 HD
ENDROOT
BRANCH   1  10
HETATM   10  C5  UNL     1      -0.072   0.126   0.620  1.00  0.00     0.112 C 
HETATM   11  N4  UNL     1      -0.912  -0.741   0.268  1.00  0.00    -0.369 N 
ATOM     12  H4  UNL     1      -0.474  -1.632   0.033  1.00  0.00     0.161 HD
BRANCH  10  13
HETATM   13  C4  UNL     1       1.372  -0.349   0.614  1.00  0.00     0.199 C 
BRANCH  13  14
HETATM   14  N3  UNL     1       2.187   0.355  -0.318  1.00  0.00    -0.357 N 
HETATM   15  C3  UNL     1       3.561   0.016  -0.421  1.00  0.00     0.191 C 
HETATM   16  N1  UNL     1       4.390   0.414   0.472  1.00  0.00    -0.302 N 
HETATM   17  N2  UNL     1       4.037  -0.759  -1.502  1.00  0.00    -0.063 NA
HETATM   18  C2  UNL     1       5.770   0.094   0.400  1.00  0.00     0.220 C 
ATOM     19  H1  UNL     1       4.049   0.974   1.253  1.00  0.00     0.171 HD
HETATM   20  C1  UNL     1       6.269  -1.244   0.791  1.00  0.00     0.117 C 
HETATM   21  O1  UNL     1       6.566   0.955   0.002  1.00  0.00    -0.274 OA
ATOM     22  H3  UNL     1       1.789   1.091  -0.902  1.00  0.00     0.162 HD
ENDBRANCH  13  14
ENDBRANCH  10  13
BRANCH  11  23
HETATM   23  C6  UNL     1      -2.309  -0.777   0.121  1.00  0.00     0.027 C 
HETATM   24  C7  UNL     1      -2.648  -0.576  -1.367  1.00  0.00     0.038 C 
HETATM   25  C8  UNL     1      -3.089   0.261   0.870  1.00  0.00     0.038 C 
BRANCH  23  26
HETATM   26  C9  UNL     1      -2.896  -2.144   0.472  1.00  0.00     0.005 C 
HETATM   27  C10 UNL     1      -4.387  -2.109   0.283  1.00  0.00     0.012 C 
HETATM   28  C11 UNL     1      -2.317  -3.230  -0.368  1.00  0.00     0.012 C 
ENDBRANCH  23  26
ENDBRANCH  11  23
ENDBRANCH   1  10
BRANCH   8  29
HETATM   29  N9  UNL     1       0.226   3.582  -1.624  1.00  0.00    -0.235 N 
HETATM   30  N10 UNL     1       1.225   4.082  -1.036  1.00  0.00    -0.330 N 
ATOM     31 2H10 UNL     1       1.360   3.849  -0.052  1.00  0.00     0.178 HD
ATOM     32 1H10 UNL     1       1.889   4.700  -1.503  1.00  0.00     0.178 HD
ATOM     33  H9  UNL     1       0.076   3.805  -2.608  1.00  0.00     0.208 HD
ENDBRANCH   8  29
TORSDOF 6
