REMARK  15 active torsions:
REMARK  status: ('A' for Active; 'I' for Inactive)
REMARK    1  A    between atoms: C2_2  and  C3_3 
REMARK    2  A    between atoms: C3_3  and  C4_4 
REMARK    3  A    between atoms: C4_4  and  N1_5 
REMARK    4  A    between atoms: N1_5  and  C5_7 
REMARK    5  A    between atoms: C6_10  and  N3_11 
REMARK    6  A    between atoms: N3_11  and  C7_13 
REMARK    7  A    between atoms: C7_13  and  C8_14 
REMARK    8  A    between atoms: C8_14  and  C9_15 
REMARK    9  A    between atoms: C9_15  and  O1_16 
REMARK   10  A    between atoms: C10_20  and  N5_21 
REMARK   11  A    between atoms: N5_21  and  C11_23 
REMARK   12  A    between atoms: C11_23  and  C12_24 
REMARK   13  A    between atoms: C11_23  and  C13_27 
REMARK   14  A    between atoms: C12_24  and  O2_25 
REMARK   15  A    between atoms: C13_27  and  O3_28 
ROOT
HETATM    1  C5  UNL     1       1.264  -0.544   0.133  1.00  0.00     0.707 A 
HETATM    2  N2  UNL     1       0.942   0.751   0.167  1.00  0.00    -0.022 N 
ATOM      3  H2  UNL     1       1.662   1.428   0.420  1.00  0.00     0.203 HD
HETATM    4  C6  UNL     1      -0.307   1.203  -0.122  1.00  0.00     0.707 A 
HETATM    5  N4  UNL     1      -1.223   0.280  -0.448  1.00  0.00    -0.022 N 
ATOM      6  H4  UNL     1      -2.173   0.575  -0.672  1.00  0.00     0.203 HD
HETATM    7  C10 UNL     1      -0.906  -1.054  -0.486  1.00  0.00     0.707 A 
HETATM    8  N6  UNL     1       0.338  -1.469  -0.196  1.00  0.00    -0.022 N 
ATOM      9  H6  UNL     1       0.577  -2.460  -0.224  1.00  0.00     0.203 HD
ENDROOT
BRANCH   7  10
HETATM   10  N5  UNL     1      -1.863  -1.846  -0.812  1.00  0.00    -0.216 N 
ATOM     11  H5  UNL     1      -2.769  -1.424  -1.014  1.00  0.00     0.178 HD
BRANCH  10  12
HETATM   12  C11 UNL     1      -1.767  -3.278  -0.917  1.00  0.00     0.146 C 
BRANCH  12  13
HETATM   13  C12 UNL     1      -2.732  -3.802  -1.941  1.00  0.00     0.192 C 
BRANCH  13  14
HETATM   14  O2  UNL     1      -4.050  -3.520  -1.665  1.00  0.00    -0.399 OA
ATOM     15  H2  UNL     1      -4.661  -3.852  -2.313  1.00  0.00     0.209 HD
ENDBRANCH  13  14
ENDBRANCH  12  13
BRANCH  12  16
HETATM   16  C13 UNL     1      -1.908  -3.916   0.432  1.00  0.00     0.192 C 
BRANCH  16  17
HETATM   17  O3  UNL     1      -3.118  -3.641   1.049  1.00  0.00    -0.399 OA
ATOM     18  H3  UNL     1      -3.207  -4.045   1.904  1.00  0.00     0.209 HD
ENDBRANCH  16  17
ENDBRANCH  12  16
ENDBRANCH  10  12
ENDBRANCH   7  10
BRANCH   4  19
HETATM   19  N3  UNL     1      -0.583   2.460  -0.079  1.00  0.00    -0.225 N 
ATOM     20  H3  UNL     1       0.182   3.083   0.181  1.00  0.00     0.177 HD
BRANCH  19  21
HETATM   21  C7  UNL     1      -1.834   3.076  -0.353  1.00  0.00     0.140 C 
BRANCH  21  22
HETATM   22  C8  UNL     1      -2.790   3.051   0.836  1.00  0.00     0.046 C 
BRANCH  22  23
HETATM   23  C9  UNL     1      -4.077   3.711   0.477  1.00  0.00     0.165 C 
BRANCH  23  24
HETATM   24  O1  UNL     1      -3.795   5.035   0.120  1.00  0.00    -0.401 OA
ATOM     25  H1  UNL     1      -4.615   5.456  -0.109  1.00  0.00     0.209 HD
ENDBRANCH  23  24
ENDBRANCH  22  23
ENDBRANCH  21  22
ENDBRANCH  19  21
ENDBRANCH   4  19
BRANCH   1  26
HETATM   26  N1  UNL     1       2.444  -0.988   0.404  1.00  0.00    -0.225 N 
ATOM     27  H1  UNL     1       2.603  -1.994   0.354  1.00  0.00     0.177 HD
BRANCH  26  28
HETATM   28  C4  UNL     1       3.553  -0.139   0.774  1.00  0.00     0.138 C 
BRANCH  28  29
HETATM   29  C3  UNL     1       4.190   0.426  -0.481  1.00  0.00     0.020 C 
BRANCH  29  30
HETATM   30  C2  UNL     1       5.362   1.323  -0.071  1.00  0.00    -0.003 C 
HETATM   31  C1  UNL     1       6.392   0.530   0.701  1.00  0.00     0.005 C 
ENDBRANCH  29  30
ENDBRANCH  28  29
ENDBRANCH  26  28
ENDBRANCH   1  26
TORSDOF 15
