REMARK  7 active torsions:
REMARK  status: ('A' for Active; 'I' for Inactive)
REMARK    1  A    between atoms: C2_2  and  N1_4 
REMARK    2  A    between atoms: N1_4  and  C4_6 
REMARK    3  A    between atoms: C4_6  and  C6_8 
REMARK       I    between atoms: C6_8  and  N2_10 
REMARK    4  A    between atoms: N2_10  and  C7_12 
REMARK    5  A    between atoms: C13_18  and  N3_19 
REMARK       I    between atoms: N3_19  and  C14_21 
REMARK    6  A    between atoms: C14_21  and  C15_23 
REMARK    7  A    between atoms: C15_23  and  N4_24 
ROOT
HETATM    1  C7  UNL     1       0.851  -2.078   0.769  1.00  0.00     0.116 C 
HETATM    2  C8  UNL     1       1.374  -3.395   0.309  1.00  0.00     0.012 C 
HETATM    3  C9  UNL     1       0.476  -4.567   0.558  1.00  0.00     0.011 C 
HETATM    4  C10 UNL     1      -0.680  -4.692  -0.357  1.00  0.00    -0.014 C 
HETATM    5  C11 UNL     1      -1.891  -3.882   0.053  1.00  0.00     0.007 C 
HETATM    6  C12 UNL     1      -1.522  -2.656   0.830  1.00  0.00     0.033 C 
HETATM    7  C13 UNL     1      -0.503  -1.775   0.160  1.00  0.00     0.054 C 
HETATM    8  C21 UNL     1      -0.450  -1.920  -1.331  1.00  0.00     0.038 C 
HETATM    9  C22 UNL     1       0.359  -3.051  -1.851  1.00  0.00    -0.011 C 
HETATM   10  C23 UNL     1      -0.407  -4.378  -1.799  1.00  0.00     0.009 C 
HETATM   11  C24 UNL     1       1.661  -3.307  -1.174  1.00  0.00     0.011 C 
ENDROOT
BRANCH   1  12
HETATM   12  N2  UNL     1       1.767  -1.053   0.321  1.00  0.00    -0.352 N 
HETATM   13  C6  UNL     1       2.475  -0.202   1.202  1.00  0.00     0.240 C 
HETATM   14  O1  UNL     1       2.307  -0.336   2.434  1.00  0.00    -0.271 OA
ATOM     15  H2  UNL     1       1.910  -0.937  -0.682  1.00  0.00     0.163 HD
BRANCH  13  16
HETATM   16  C4  UNL     1       3.410   0.846   0.722  1.00  0.00     0.165 C 
HETATM   17  C5  UNL     1       2.631   1.726  -0.228  1.00  0.00     0.042 C 
BRANCH  16  18
HETATM   18  N1  UNL     1       3.963   1.563   1.807  1.00  0.00    -0.406 N 
ATOM     19  H1  UNL     1       3.651   1.370   2.759  1.00  0.00     0.154 HD
BRANCH  18  20
HETATM   20  C2  UNL     1       4.942   2.541   1.574  1.00  0.00     0.069 C 
HETATM   21  C1  UNL     1       6.215   2.007   0.944  1.00  0.00     0.031 C 
HETATM   22  C3  UNL     1       4.559   3.782   0.849  1.00  0.00     0.031 C 
ENDBRANCH  18  20
ENDBRANCH  16  18
ENDBRANCH  13  16
ENDBRANCH   1  12
BRANCH   7  23
HETATM   23  N3  UNL     1      -0.834  -0.409   0.472  1.00  0.00    -0.348 N 
HETATM   24  C14 UNL     1      -2.028   0.254   0.078  1.00  0.00     0.244 C 
HETATM   25  O2  UNL     1      -2.860  -0.404  -0.594  1.00  0.00    -0.272 OA
ATOM     26  H3  UNL     1      -0.159   0.125   1.019  1.00  0.00     0.163 HD
BRANCH  24  27
HETATM   27  C15 UNL     1      -2.246   1.671   0.467  1.00  0.00     0.339 C 
BRANCH  27  28
HETATM   28  N4  UNL     1      -3.505   2.164  -0.027  1.00  0.00    -0.063 N 
HETATM   29  C16 UNL     1      -4.621   1.359   0.383  1.00  0.00     0.273 C 
HETATM   30  C17 UNL     1      -3.723   3.536   0.402  1.00  0.00     0.237 C 
HETATM   31  C18 UNL     1      -4.782   4.017  -0.552  1.00  0.00     0.029 C 
HETATM   32  C19 UNL     1      -4.407   3.390  -1.853  1.00  0.00     0.029 C 
HETATM   33  C20 UNL     1      -3.405   2.311  -1.467  1.00  0.00     0.237 C 
ENDBRANCH  27  28
ENDBRANCH  24  27
ENDBRANCH   7  23
TORSDOF 7
