REMARK  8 active torsions:
REMARK  status: ('A' for Active; 'I' for Inactive)
REMARK    1  A    between atoms: C2_2  and  C3_3 
REMARK    2  A    between atoms: C3_3  and  O1_4 
REMARK    3  A    between atoms: C3_3  and  C4_6 
REMARK    4  A    between atoms: C3_3  and  C24_30 
REMARK    5  A    between atoms: C5_7  and  C6_8 
REMARK    6  A    between atoms: C6_8  and  N1_9 
REMARK    7  A    between atoms: N1_9  and  C7_10 
REMARK    8  A    between atoms: C11_14  and  O2_15 
ROOT
HETATM    1  N1  UNL     1       0.004  -0.291   0.614  1.00  0.00    -0.035 N 
HETATM    2  C9  UNL     1       0.415  -1.118  -0.470  1.00  0.00     0.243 C 
HETATM    3  C10 UNL     1      -0.353  -2.340  -0.804  1.00  0.00     0.066 C 
HETATM    4  C11 UNL     1      -1.524  -2.158  -1.700  1.00  0.00     0.064 C 
HETATM    5  C12 UNL     1      -2.722  -2.795  -1.047  1.00  0.00     0.066 C 
HETATM    6  C13 UNL     1      -2.995  -2.476   0.333  1.00  0.00     0.001 C 
HETATM    7  C14 UNL     1      -2.944  -1.150   0.919  1.00  0.00     0.201 C 
HETATM    8  N2  UNL     1      -2.490   0.046   0.261  1.00  0.00    -0.018 N 
HETATM    9  C15 UNL     1      -3.342   1.103   0.878  1.00  0.00     0.245 C 
HETATM   10  C16 UNL     1      -3.926   2.199   0.208  1.00  0.00     0.028 C 
HETATM   11  C17 UNL     1      -3.435   3.549   0.796  1.00  0.00     0.002 C 
HETATM   12  C18 UNL     1      -2.259   3.925  -0.118  1.00  0.00     0.000 C 
HETATM   13  C19 UNL     1      -1.128   3.073   0.335  1.00  0.00     0.004 C 
HETATM   14  C20 UNL     1      -0.965   1.751  -0.357  1.00  0.00     0.064 C 
HETATM   15  C21 UNL     1      -1.157   0.502   0.494  1.00  0.00     0.397 C 
HETATM   16  C22 UNL     1      -2.889  -0.121  -1.107  1.00  0.00     0.248 C 
HETATM   17  C23 UNL     1      -1.915  -0.766  -2.038  1.00  0.00     0.066 C 
ENDROOT
BRANCH   1  18
HETATM   18  C6  UNL     1       1.155   0.602   0.794  1.00  0.00     0.267 C 
BRANCH  18  19
HETATM   19  C5  UNL     1       2.254   0.486  -0.200  1.00  0.00     0.000 C 
HETATM   20  C4  UNL     1       3.505   0.147   0.132  1.00  0.00     0.018 C 
BRANCH  20  21
HETATM   21  C3  UNL     1       4.617   0.021  -0.810  1.00  0.00     0.153 C 
BRANCH  21  22
HETATM   22  C2  UNL     1       5.640  -0.991  -0.332  1.00  0.00     0.047 C 
HETATM   23  C1  UNL     1       5.066  -2.350  -0.108  1.00  0.00     0.009 C 
ENDBRANCH  21  22
BRANCH  21  24
HETATM   24  O1  UNL     1       4.119  -0.484  -2.024  1.00  0.00    -0.376 OA
ATOM     25  H1  UNL     1       3.478   0.150  -2.323  1.00  0.00     0.211 HD
ENDBRANCH  21  24
BRANCH  21  26
HETATM   26  C24 UNL     1       5.345   1.273  -1.058  1.00  0.00     0.269 C 
HETATM   27  N3  UNL     1       5.454   1.785  -2.361  1.00  0.00    -0.059 NA
HETATM   28  O3  UNL     1       5.867   1.886  -0.115  1.00  0.00    -0.273 OA
ENDBRANCH  21  26
ENDBRANCH  20  21
ENDBRANCH  18  19
ENDBRANCH   1  18
BRANCH   1  29
HETATM   29  C7  UNL     1       0.117  -1.101   1.815  1.00  0.00     0.236 C 
HETATM   30  C8  UNL     1       0.134  -0.341   3.108  1.00  0.00     0.035 C 
ENDBRANCH   1  29
BRANCH   4  31
HETATM   31  O2  UNL     1      -1.374  -2.886  -2.914  1.00  0.00    -0.389 OA
ATOM     32  H2  UNL     1      -2.123  -2.770  -3.487  1.00  0.00     0.210 HD
ENDBRANCH   4  31
TORSDOF 8
