REMARK  6 active torsions:
REMARK  status: ('A' for Active; 'I' for Inactive)
REMARK    1  A    between atoms: N1_2  and  C2_4 
REMARK    2  A    between atoms: C2_4  and  C3_5 
REMARK    3  A    between atoms: C2_4  and  C9_11 
REMARK    4  A    between atoms: C9_11  and  O1_12 
REMARK    5  A    between atoms: C9_11  and  C10_14 
REMARK    6  A    between atoms: C9_11  and  C14_19 
ROOT
HETATM    1  C9  UNL     1       0.710   0.264   0.600  1.00  0.00     0.158 C 
ENDROOT
BRANCH   1   2
HETATM    2  C2  UNL     1      -0.519   0.806  -0.020  1.00  0.00     0.153 C 
BRANCH   2   3
HETATM    3  N1  UNL     1      -0.433   1.581  -1.185  1.00  0.00    -0.414 N 
HETATM    4  C1  UNL     1       0.210   2.814  -1.226  1.00  0.00     0.140 C 
ATOM      5  H1  UNL     1      -0.861   1.225  -2.040  1.00  0.00     0.153 HD
ENDBRANCH   2   3
BRANCH   2   6
HETATM    6  C3  UNL     1      -1.631  -0.183  -0.159  1.00  0.00    -0.033 A 
HETATM    7  C4  UNL     1      -2.440  -0.474   0.927  1.00  0.00     0.009 A 
HETATM    8  C5  UNL     1      -3.477  -1.363   0.773  1.00  0.00     0.001 A 
HETATM    9  C6  UNL     1      -3.724  -1.971  -0.448  1.00  0.00     0.000 A 
HETATM   10  C7  UNL     1      -2.942  -1.702  -1.538  1.00  0.00     0.001 A 
HETATM   11  C8  UNL     1      -1.898  -0.805  -1.379  1.00  0.00     0.009 A 
ENDBRANCH   2   6
ENDBRANCH   1   2
BRANCH   1  12
HETATM   12  O1  UNL     1       0.348  -0.590   1.689  1.00  0.00    -0.378 OA
ATOM     13  H1  UNL     1       1.137  -0.938   2.087  1.00  0.00     0.211 HD
ENDBRANCH   1  12
BRANCH   1  14
HETATM   14  C10 UNL     1       1.580  -0.552  -0.261  1.00  0.00     0.092 A 
HETATM   15  C11 UNL     1       2.744  -1.172   0.180  1.00  0.00     0.038 A 
HETATM   16  C12 UNL     1       3.283  -1.841  -0.914  1.00  0.00     0.027 A 
HETATM   17  C13 UNL     1       2.420  -1.593  -1.961  1.00  0.00     0.142 A 
HETATM   18  O2  UNL     1       1.433  -0.830  -1.527  1.00  0.00    -0.324 OA
ENDBRANCH   1  14
BRANCH   1  19
HETATM   19  C14 UNL     1       1.511   1.373   1.315  1.00  0.00     0.188 A 
HETATM   20  C15 UNL     1       1.601   1.254   2.846  1.00  0.00     0.203 A 
HETATM   21  O3  UNL     1       2.647   1.017   1.996  1.00  0.00    -0.378 OA
ENDBRANCH   1  19
TORSDOF 6
