REMARK  6 active torsions:
REMARK  status: ('A' for Active; 'I' for Inactive)
REMARK    1  A    between atoms: C2_3  and  O1_4 
REMARK    2  A    between atoms: C2_3  and  C3_6 
REMARK    3  A    between atoms: C2_3  and  C10_17 
REMARK    4  A    between atoms: N2_7  and  N3_9 
REMARK    5  A    between atoms: N3_9  and  C4_11 
REMARK    6  A    between atoms: C10_17  and  C11_18 
ROOT
HETATM    1  N1  UNL     1       1.333  -2.917  -1.256  1.00  0.00    -0.194 NA
HETATM    2  C1  UNL     1       1.052  -1.860  -0.916  1.00  0.00     0.103 C 
HETATM    3  C2  UNL     1       0.696  -0.526  -0.459  1.00  0.00     0.184 C 
ENDROOT
BRANCH   3   4
HETATM    4  O1  UNL     1       0.684   0.400  -1.505  1.00  0.00    -0.371 OA
ATOM      5  H1  UNL     1       0.451   1.271  -1.206  1.00  0.00     0.212 HD
ENDBRANCH   3   4
BRANCH   3   6
HETATM    6  C3  UNL     1      -0.699  -0.575   0.051  1.00  0.00     0.133 C 
HETATM    7  N2  UNL     1      -1.464  -1.587  -0.015  1.00  0.00    -0.311 N 
ATOM      8  H2  UNL     1      -1.124  -2.447  -0.445  1.00  0.00     0.185 HD
BRANCH   7   9
HETATM    9  N3  UNL     1      -2.757  -1.540   0.490  1.00  0.00    -0.301 N 
ATOM     10  H3  UNL     1      -3.131  -2.358   0.972  1.00  0.00     0.187 HD
BRANCH   9  11
HETATM   11  C4  UNL     1      -3.564  -0.398   0.356  1.00  0.00     0.048 A 
HETATM   12  C5  UNL     1      -3.582   0.547   1.352  1.00  0.00     0.031 A 
HETATM   13  C6  UNL     1      -4.394   1.669   1.177  1.00  0.00     0.002 A 
HETATM   14  C7  UNL     1      -5.149   1.814   0.039  1.00  0.00     0.000 A 
HETATM   15  C8  UNL     1      -5.130   0.863  -0.962  1.00  0.00     0.002 A 
HETATM   16  C9  UNL     1      -4.322  -0.261  -0.795  1.00  0.00     0.031 A 
ENDBRANCH   9  11
ENDBRANCH   7   9
ENDBRANCH   3   6
BRANCH   3  17
HETATM   17  C10 UNL     1       1.566  -0.070   0.686  1.00  0.00     0.098 C 
BRANCH  17  18
HETATM   18  C11 UNL     1       2.987  -0.012   0.356  1.00  0.00    -0.054 A 
HETATM   19  C12 UNL     1       3.828  -1.079   0.532  1.00  0.00     0.007 A 
HETATM   20  C13 UNL     1       5.182  -1.030   0.218  1.00  0.00     0.001 A 
HETATM   21  C14 UNL     1       5.678   0.168  -0.297  1.00  0.00     0.000 A 
HETATM   22  C15 UNL     1       4.838   1.249  -0.479  1.00  0.00     0.001 A 
HETATM   23  C16 UNL     1       3.497   1.180  -0.161  1.00  0.00     0.007 A 
ENDBRANCH  17  18
ENDBRANCH   3  17
TORSDOF 6
