REMARK  7 active torsions:
REMARK  status: ('A' for Active; 'I' for Inactive)
REMARK    1  A    between atoms: C7_7  and  C8_8 
REMARK    2  A    between atoms: N1_9  and  C9_11 
REMARK    3  A    between atoms: C9_11  and  C10_12 
REMARK    4  A    between atoms: C9_11  and  C11_15 
REMARK    5  A    between atoms: C10_12  and  O1_13 
REMARK    6  A    between atoms: C11_15  and  C12_16 
REMARK    7  A    between atoms: C12_16  and  O2_17 
ROOT
HETATM    1  C8  UNL     1       0.050  -0.461  -0.040  1.00  0.00     0.062 C 
HETATM    2  N1  UNL     1       1.153  -0.065  -0.552  1.00  0.00    -0.395 N 
ATOM      3  H1  UNL     1       1.133   0.625  -1.303  1.00  0.00     0.159 HD
ENDROOT
BRANCH   1   4
HETATM    4  C7  UNL     1      -1.257   0.073  -0.526  1.00  0.00     0.042 C 
HETATM    5  C5  UNL     1      -1.602   1.360   0.125  1.00  0.00    -0.009 C 
HETATM    6  C4  UNL     1      -3.010   1.616   0.449  1.00  0.00     0.005 C 
HETATM    7  C6  UNL     1      -1.016   2.533  -0.681  1.00  0.00     0.011 C 
HETATM    8  C3  UNL     1      -3.940   0.468   0.440  1.00  0.00     0.006 C 
HETATM    9  C2  UNL     1      -3.287  -0.870   0.617  1.00  0.00    -0.003 C 
HETATM   10  C1  UNL     1      -2.739  -1.113   1.981  1.00  0.00     0.011 C 
HETATM   11  C13 UNL     1      -2.260  -1.003  -0.469  1.00  0.00     0.071 C 
HETATM   12  S1  UNL     1      -1.445  -2.616  -0.252  1.00  0.00    -0.091 SA
ENDBRANCH   1   4
BRANCH   2  13
HETATM   13  C9  UNL     1       2.433  -0.574  -0.091  1.00  0.00     0.106 C 
BRANCH  13  14
HETATM   14  C10 UNL     1       2.801  -1.642  -1.088  1.00  0.00     0.189 C 
BRANCH  14  15
HETATM   15  O1  UNL     1       3.984  -2.229  -0.748  1.00  0.00    -0.399 OA
ATOM     16  H1  UNL     1       4.216  -2.902  -1.377  1.00  0.00     0.209 HD
ENDBRANCH  14  15
ENDBRANCH  13  14
BRANCH  13  17
HETATM   17  C11 UNL     1       3.392   0.580  -0.074  1.00  0.00     0.053 C 
BRANCH  17  18
HETATM   18  C12 UNL     1       4.781   0.275   0.381  1.00  0.00     0.166 C 
BRANCH  18  19
HETATM   19  O2  UNL     1       5.471   1.523   0.333  1.00  0.00    -0.401 OA
ATOM     20  H2  UNL     1       6.355   1.329   0.622  1.00  0.00     0.209 HD
ENDBRANCH  18  19
ENDBRANCH  17  18
ENDBRANCH  13  17
ENDBRANCH   2  13
TORSDOF 7
