REMARK  3 active torsions:
REMARK  status: ('A' for Active; 'I' for Inactive)
REMARK    1  A    between atoms: N1_1  and  C1_5 
REMARK    2  A    between atoms: C1_5  and  C2_6 
REMARK    3  A    between atoms: C2_6  and  N2_7 
ROOT
HETATM    1  C2  UNL     1      -0.202   0.296   0.769  1.00  0.00     0.166 C 
ENDROOT
BRANCH   1   2
HETATM    2  C1  UNL     1      -1.326  -0.216  -0.138  1.00  0.00     0.250 C 
BRANCH   2   3
HETATM    3  N1  UNL     1      -2.600   0.141   0.414  1.00  0.00    -0.078 N 
ATOM      4  H13 UNL     1      -2.705  -0.184   1.375  1.00  0.00     0.274 HD
ATOM      5  H12 UNL     1      -2.675   1.143   0.587  1.00  0.00     0.274 HD
ATOM      6  H11 UNL     1      -3.348  -0.200  -0.190  1.00  0.00     0.274 HD
ENDBRANCH   2   3
ENDBRANCH   1   2
BRANCH   1   7
HETATM    7  N2  UNL     1       1.078  -0.088   0.171  1.00  0.00    -0.298 N 
HETATM    8  C3  UNL     1       1.873   0.524  -0.693  1.00  0.00     0.199 A 
HETATM    9  N3  UNL     1       2.805  -0.414  -0.749  1.00  0.00    -0.308 N 
HETATM   10  S1  UNL     1       2.048  -1.420   0.318  1.00  0.00     0.071 SA
ATOM     11  H3  UNL     1       3.680  -0.489  -1.267  1.00  0.00     0.176 HD
ENDBRANCH   1   7
TORSDOF 3
