REMARK  1 active torsions:
REMARK  status: ('A' for Active; 'I' for Inactive)
REMARK    1  A    between atoms: C4_5  and  N2_6 
ROOT
HETATM    1  C1  UNL     1       2.428  -0.008   0.129  1.00  0.00     0.156 C 
HETATM    2  N1  UNL     1       0.973   0.017   0.046  1.00  0.00    -0.357 N 
HETATM    3  C2  UNL     1       0.245  -1.113   0.103  1.00  0.00     0.095 A 
HETATM    4  C3  UNL     1      -1.136  -1.069   0.022  1.00  0.00     0.065 A 
HETATM    5  C4  UNL     1      -1.805   0.131  -0.118  1.00  0.00     0.100 A 
HETATM    6  N3  UNL     1      -1.044   1.240  -0.172  1.00  0.00    -0.339 N 
ATOM      7  H3  UNL     1      -1.493   2.150  -0.276  1.00  0.00     0.168 HD
HETATM    8  C5  UNL     1       0.299   1.173  -0.092  1.00  0.00     0.183 A 
ENDROOT
BRANCH   5   9
HETATM    9  N2  UNL     1      -3.111   0.190  -0.196  1.00  0.00    -0.385 N 
ATOM     10  H22 UNL     1      -3.688  -0.650  -0.155  1.00  0.00     0.157 HD
ATOM     11  H21 UNL     1      -3.605   1.076  -0.299  1.00  0.00     0.157 HD
ENDBRANCH   5   9
TORSDOF 1
