REMARK  2 active torsions:
REMARK  status: ('A' for Active; 'I' for Inactive)
REMARK    1  A    between atoms: C2_5  and  C3_6 
REMARK    2  A    between atoms: C3_6  and  N3_7 
ROOT
HETATM    1  C1  UNL     1       2.681  -0.923  -0.022  1.00  0.00     0.200 C 
HETATM    2  N1  UNL     1       1.456  -0.147   0.004  1.00  0.00    -0.239 N 
HETATM    3  N2  UNL     1       0.299  -0.620  -0.422  1.00  0.00    -0.286 N 
ATOM      4  H2  UNL     1       0.164  -1.557  -0.801  1.00  0.00     0.188 HD
HETATM    5  C2  UNL     1      -0.677   0.295  -0.291  1.00  0.00     0.069 A 
HETATM    6  C4  UNL     1      -0.071   1.403   0.255  1.00  0.00     0.137 A 
HETATM    7  N4  UNL     1       1.225   1.070   0.410  1.00  0.00    -0.294 N 
ATOM      8  H4  UNL     1       1.936   1.691   0.796  1.00  0.00     0.187 HD
ENDROOT
BRANCH   5   9
HETATM    9  C3  UNL     1      -2.080   0.065  -0.680  1.00  0.00     0.289 C 
BRANCH   9  10
HETATM   10  N3  UNL     1      -2.789  -0.474   0.419  1.00  0.00    -0.074 N 
ATOM     11  H33 UNL     1      -2.347  -1.316   0.788  1.00  0.00     0.274 HD
ATOM     12  H32 UNL     1      -2.710   0.108   1.253  1.00  0.00     0.274 HD
ATOM     13  H31 UNL     1      -3.760  -0.633   0.150  1.00  0.00     0.274 HD
ENDBRANCH   9  10
ENDBRANCH   5   9
TORSDOF 2
