REMARK  2 active torsions:
REMARK  status: ('A' for Active; 'I' for Inactive)
REMARK    1  A    between atoms: C4_7  and  C5_8 
REMARK    2  A    between atoms: C5_8  and  N3_9 
ROOT
HETATM    1  C1  UNL     1      -0.717   1.731   0.484  1.00  0.00     0.177 C 
HETATM    2  N1  UNL     1      -0.862   0.300   0.179  1.00  0.00    -0.299 N 
HETATM    3  N2  UNL     1      -1.910  -0.469   0.380  1.00  0.00    -0.310 N 
ATOM      4  H2  UNL     1      -2.790  -0.157   0.790  1.00  0.00     0.186 HD
HETATM    5  C2  UNL     1      -1.658  -1.721  -0.030  1.00  0.00     0.109 A 
HETATM    6  C3  UNL     1      -0.369  -1.722  -0.516  1.00  0.00     0.047 A 
HETATM    7  C4  UNL     1       0.109  -0.441  -0.373  1.00  0.00     0.054 A 
ENDROOT
BRANCH   7   8
HETATM    8  C5  UNL     1       1.452   0.041  -0.758  1.00  0.00     0.288 C 
BRANCH   8   9
HETATM    9  N3  UNL     1       2.411  -0.093   0.338  1.00  0.00    -0.074 N 
ATOM     10  H33 UNL     1       2.077   0.372   1.183  1.00  0.00     0.274 HD
ATOM     11  H32 UNL     1       2.446  -1.051   0.686  1.00  0.00     0.274 HD
ATOM     12  H31 UNL     1       3.338   0.240   0.072  1.00  0.00     0.274 HD
ENDBRANCH   8   9
ENDBRANCH   7   8
TORSDOF 2
