REMARK  9 active torsions:
REMARK  status: ('A' for Active; 'I' for Inactive)
REMARK    1  A    between atoms: N1_1  and  C1_4 
REMARK    2  A    between atoms: C2_7  and  S1_8 
REMARK    3  A    between atoms: S1_8  and  N3_11 
REMARK    4  A    between atoms: N3_11  and  N4_13 
REMARK    5  A    between atoms: C3_18  and  N6_19 
REMARK    6  A    between atoms: N6_19  and  C4_21 
REMARK    7  A    between atoms: C4_21  and  C5_22 
REMARK    8  A    between atoms: C5_22  and  N7_23 
REMARK    9  A    between atoms: C8_28  and  N9_29 
ROOT
HETATM    1  C1  UNL     1       3.725   1.582   1.755  1.00  0.00     0.692 A 
HETATM    2  N2  UNL     1       4.186   0.572   0.996  1.00  0.00    -0.163 N 
ATOM      3  H2  UNL     1       5.191   0.433   0.891  1.00  0.00     0.186 HD
HETATM    4  C2  UNL     1       3.336  -0.246   0.381  1.00  0.00     0.254 A 
HETATM    5  N5  UNL     1       2.019  -0.039   0.537  1.00  0.00    -0.163 N 
ATOM      6  H5  UNL     1       1.362  -0.663   0.068  1.00  0.00     0.186 HD
HETATM    7  C3  UNL     1       1.540   0.960   1.288  1.00  0.00     0.694 A 
HETATM    8  N12 UNL     1       2.406   1.775   1.900  1.00  0.00    -0.023 N 
ATOM      9  H12 UNL     1       2.063   2.543   2.477  1.00  0.00     0.203 HD
ENDROOT
BRANCH   7  10
HETATM   10  N6  UNL     1       0.280   1.122   1.410  1.00  0.00    -0.224 N 
ATOM     11  H6  UNL     1      -0.045   1.895   1.991  1.00  0.00     0.177 HD
BRANCH  10  12
HETATM   12  C4  UNL     1      -0.714   0.290   0.785  1.00  0.00     0.158 C 
BRANCH  12  13
HETATM   13  C5  UNL     1      -1.572   1.087  -0.165  1.00  0.00     0.151 C 
BRANCH  13  14
HETATM   14  N7  UNL     1      -2.575   0.304  -0.811  1.00  0.00    -0.326 N 
HETATM   15  C6  UNL     1      -2.528  -0.383  -1.978  1.00  0.00     0.185 A 
HETATM   16  N8  UNL     1      -3.707  -0.985  -2.213  1.00  0.00    -0.346 N 
HETATM   17  C7  UNL     1      -4.521  -0.688  -1.197  1.00  0.00     0.122 A 
ATOM     18  H8  UNL     1      -3.938  -1.564  -3.021  1.00  0.00     0.167 HD
HETATM   19  C8  UNL     1      -5.826  -1.047  -0.947  1.00  0.00     0.131 A 
HETATM   20  C10 UNL     1      -3.818   0.118  -0.316  1.00  0.00     0.140 A 
HETATM   21  N10 UNL     1      -6.397  -0.588   0.180  1.00  0.00    -0.337 N 
HETATM   22  C9  UNL     1      -5.743   0.201   1.063  1.00  0.00     0.183 A 
ATOM     23  H10 UNL     1      -7.364  -0.845   0.378  1.00  0.00     0.168 HD
HETATM   24  N11 UNL     1      -4.468   0.532   0.788  1.00  0.00    -0.336 N 
ATOM     25  H11 UNL     1      -3.969   1.127   1.449  1.00  0.00     0.168 HD
BRANCH  19  26
HETATM   26  N9  UNL     1      -6.483  -1.798  -1.766  1.00  0.00    -0.383 N 
ATOM     27  H92 UNL     1      -6.050  -2.146  -2.621  1.00  0.00     0.157 HD
ATOM     28  H91 UNL     1      -7.450  -2.064  -1.581  1.00  0.00     0.157 HD
ENDBRANCH  19  26
ENDBRANCH  13  14
ENDBRANCH  12  13
ENDBRANCH  10  12
ENDBRANCH   7  10
BRANCH   4  29
HETATM   29  S1  UNL     1       3.823  -1.587  -0.627  1.00  0.00     0.308 S 
HETATM   30  O1  UNL     1       3.301  -2.848   0.007  1.00  0.00    -0.196 OA
HETATM   31  O2  UNL     1       3.255  -1.487  -2.003  1.00  0.00    -0.196 OA
BRANCH  29  32
HETATM   32  N3  UNL     1       5.536  -1.719  -0.727  1.00  0.00    -0.227 N 
ATOM     33  H3  UNL     1       6.094  -2.274  -0.078  1.00  0.00     0.199 HD
BRANCH  32  34
HETATM   34  N4  UNL     1       6.079  -1.000  -1.772  1.00  0.00    -0.336 N 
ATOM     35  H42 UNL     1       5.508  -0.449  -2.413  1.00  0.00     0.177 HD
ATOM     36  H41 UNL     1       7.094  -1.078  -1.831  1.00  0.00     0.177 HD
ENDBRANCH  32  34
ENDBRANCH  29  32
ENDBRANCH   4  29
BRANCH   1  37
HETATM   37  N1  UNL     1       4.616   2.343   2.327  1.00  0.00    -0.234 N 
ATOM     38  H12 UNL     1       5.619   2.196   2.217  1.00  0.00     0.174 HD
ATOM     39  H11 UNL     1       4.266   3.109   2.903  1.00  0.00     0.174 HD
ENDBRANCH   1  37
TORSDOF 9
