REMARK  7 active torsions:
REMARK  status: ('A' for Active; 'I' for Inactive)
REMARK    1  A    between atoms: C4_9  and  O3_10 
REMARK    2  A    between atoms: C4_9  and  C5_12 
REMARK    3  A    between atoms: C5_12  and  C6_13 
REMARK    4  A    between atoms: C6_13  and  N3_14 
REMARK    5  A    between atoms: C6_13  and  C8_23 
REMARK    6  A    between atoms: N3_14  and  N4_16 
REMARK       I    between atoms: N4_16  and  C7_18 
REMARK    7  A    between atoms: C10_29  and  O6_30 
ROOT
HETATM    1  C6  UNL     1       1.459  -0.774   0.168  1.00  0.00     0.086 C 
ENDROOT
BRANCH   1   2
HETATM    2  C5  UNL     1       0.298  -0.639   0.985  1.00  0.00     0.064 C 
BRANCH   2   3
HETATM    3  C4  UNL     1      -1.075  -0.465   0.468  1.00  0.00     0.241 C 
HETATM    4  C3  UNL     1      -1.955  -0.324   1.708  1.00  0.00     0.274 C 
HETATM    5  N2  UNL     1      -3.323  -0.064   1.522  1.00  0.00    -0.276 N 
HETATM    6  O2  UNL     1      -1.441  -0.444   2.872  1.00  0.00    -0.269 OA
HETATM    7  C2  UNL     1      -3.742   0.607   0.345  1.00  0.00     0.331 C 
ATOM      8  H2  UNL     1      -4.005  -0.354   2.223  1.00  0.00     0.173 HD
HETATM    9  N1  UNL     1      -2.766   0.988  -0.604  1.00  0.00    -0.271 N 
HETATM   10  O1  UNL     1      -4.967   0.829   0.207  1.00  0.00    -0.246 OA
HETATM   11  C1  UNL     1      -3.192   1.700  -1.819  1.00  0.00     0.164 C 
HETATM   12  C11 UNL     1      -1.355   0.695  -0.384  1.00  0.00     0.276 C 
HETATM   13  O7  UNL     1      -0.557   1.458  -0.946  1.00  0.00    -0.269 OA
BRANCH   3  14
HETATM   14  O3  UNL     1      -1.640  -1.556  -0.202  1.00  0.00    -0.368 OA
ATOM     15  H3  UNL     1      -1.093  -1.644  -0.973  1.00  0.00     0.212 HD
ENDBRANCH   3  14
ENDBRANCH   2   3
ENDBRANCH   1   2
BRANCH   1  16
HETATM   16  N3  UNL     1       2.326   0.221   0.213  1.00  0.00    -0.296 N 
ATOM     17  H3  UNL     1       3.157   0.138  -0.373  1.00  0.00     0.187 HD
BRANCH  16  18
HETATM   18  N4  UNL     1       2.214   1.343   0.966  1.00  0.00    -0.273 N 
HETATM   19  C7  UNL     1       2.513   2.663   0.433  1.00  0.00     0.200 C 
HETATM   20  N5  UNL     1       3.430   2.746  -0.464  1.00  0.00    -0.372 N 
HETATM   21  N6  UNL     1       1.827   3.815   0.880  1.00  0.00    -0.062 NA
ATOM     22  H52 UNL     1       3.925   1.915  -0.787  1.00  0.00     0.158 HD
ATOM     23  H51 UNL     1       3.640   3.672  -0.838  1.00  0.00     0.158 HD
ATOM     24  H4  UNL     1       1.911   1.259   1.936  1.00  0.00     0.189 HD
ENDBRANCH  16  18
ENDBRANCH   1  16
BRANCH   1  25
HETATM   25  C8  UNL     1       1.878  -1.820  -0.750  1.00  0.00     0.159 A 
HETATM   26  O4  UNL     1       2.891  -1.693  -1.600  1.00  0.00    -0.254 OA
HETATM   27  C9  UNL     1       3.068  -2.751  -2.323  1.00  0.00     0.372 A 
HETATM   28  O5  UNL     1       3.933  -2.972  -3.224  1.00  0.00    -0.238 OA
HETATM   29  N7  UNL     1       2.150  -3.661  -1.975  1.00  0.00    -0.280 N 
HETATM   30  C10 UNL     1       1.405  -3.080  -0.989  1.00  0.00     0.181 A 
ATOM     31  H7  UNL     1       2.031  -4.596  -2.366  1.00  0.00     0.173 HD
BRANCH  30  32
HETATM   32  O6  UNL     1       0.377  -3.744  -0.393  1.00  0.00    -0.344 OA
ATOM     33  H6  UNL     1       0.048  -4.620  -0.559  1.00  0.00     0.219 HD
ENDBRANCH  30  32
ENDBRANCH   1  25
TORSDOF 7
