REMARK  12 active torsions:
REMARK  status: ('A' for Active; 'I' for Inactive)
REMARK    1  A    between atoms: C2_2  and  C4_4 
REMARK    2  A    between atoms: N2_9  and  C8_10 
REMARK    3  A    between atoms: C8_10  and  C9_11 
REMARK    4  A    between atoms: C8_10  and  C26_32 
REMARK    5  A    between atoms: C10_12  and  C11_13 
REMARK    6  A    between atoms: C12_14  and  C13_15 
REMARK    7  A    between atoms: C14_16  and  C15_17 
REMARK    8  A    between atoms: C16_18  and  C17_19 
REMARK       I    between atoms: C17_19  and  N3_21 
REMARK    9  A    between atoms: N3_21  and  C18_23 
REMARK   10  A    between atoms: C18_23  and  C19_24 
REMARK   11  A    between atoms: C19_24  and  N4_25 
REMARK   12  A    between atoms: C26_32  and  O2_33 
ROOT
HETATM    1  C11 UNL     1      -1.726  -1.191  -0.435  1.00  0.00    -0.001 C 
HETATM    2  C12 UNL     1      -0.546  -1.129  -0.680  1.00  0.00    -0.000 C 
ENDROOT
BRANCH   1   3
HETATM    3  C10 UNL     1      -3.100  -1.278  -0.090  1.00  0.00    -0.012 C 
HETATM    4  C9  UNL     1      -4.259  -1.364   0.238  1.00  0.00    -0.063 C 
BRANCH   4   5
HETATM    5  C8  UNL     1      -5.676  -1.489   0.678  1.00  0.00     0.205 C 
BRANCH   5   6
HETATM    6  N2  UNL     1      -6.325  -0.256   0.540  1.00  0.00    -0.312 N 
HETATM    7  N1  UNL     1      -5.734   0.729  -0.174  1.00  0.00    -0.333 N 
HETATM    8  C6  UNL     1      -6.233   1.061  -1.454  1.00  0.00     0.142 C 
HETATM    9  C7  UNL     1      -4.938   1.683   0.502  1.00  0.00     0.170 C 
HETATM   10  C5  UNL     1      -7.721   1.125  -1.592  1.00  0.00     0.026 C 
HETATM   11  C4  UNL     1      -8.475   0.364  -0.523  1.00  0.00    -0.008 C 
HETATM   12  C28 UNL     1      -8.297   1.028   0.834  1.00  0.00     0.026 C 
HETATM   13  C27 UNL     1      -7.227   0.171   1.550  1.00  0.00     0.144 C 
BRANCH  11  14
HETATM   14  C2  UNL     1      -9.951   0.446  -0.856  1.00  0.00    -0.019 C 
HETATM   15  C1  UNL     1     -10.771  -0.292   0.165  1.00  0.00     0.010 C 
HETATM   16  C3  UNL     1     -10.416   1.895  -0.825  1.00  0.00     0.010 C 
ENDBRANCH  11  14
ENDBRANCH   5   6
BRANCH   5  17
HETATM   17  C26 UNL     1      -5.552  -1.853   2.165  1.00  0.00     0.203 C 
BRANCH  17  18
HETATM   18  O2  UNL     1      -4.884  -3.102   2.243  1.00  0.00    -0.398 OA
ATOM     19  H2  UNL     1      -4.807  -3.327   3.163  1.00  0.00     0.209 HD
ENDBRANCH  17  18
ENDBRANCH   5  17
ENDBRANCH   4   5
ENDBRANCH   1   3
BRANCH   2  20
HETATM   20  C13 UNL     1       0.845  -1.069  -0.906  1.00  0.00    -0.000 C 
HETATM   21  C14 UNL     1       2.042  -1.035  -1.041  1.00  0.00    -0.001 C 
BRANCH  21  22
HETATM   22  C15 UNL     1       3.467  -1.013  -1.125  1.00  0.00    -0.004 C 
HETATM   23  C16 UNL     1       4.669  -1.010  -1.128  1.00  0.00     0.009 C 
BRANCH  23  24
HETATM   24  C17 UNL     1       6.116  -1.028  -1.046  1.00  0.00     0.297 C 
HETATM   25  O1  UNL     1       6.599  -1.922  -0.261  1.00  0.00    -0.258 OA
HETATM   26  N3  UNL     1       6.924  -0.137  -1.760  1.00  0.00    -0.349 N 
ATOM     27  H3  UNL     1       6.515   0.545  -2.400  1.00  0.00     0.163 HD
BRANCH  26  28
HETATM   28  C18 UNL     1       8.382  -0.211  -1.562  1.00  0.00     0.151 C 
BRANCH  28  29
HETATM   29  C19 UNL     1       8.637   0.158  -0.125  1.00  0.00     0.257 C 
BRANCH  29  30
HETATM   30  N4  UNL     1       9.999   0.099   0.218  1.00  0.00    -0.065 N 
HETATM   31  C20 UNL     1      10.847   1.153  -0.305  1.00  0.00     0.238 C 
HETATM   32  C21 UNL     1      12.262   0.698  -0.007  1.00  0.00     0.034 C 
HETATM   33  C22 UNL     1      12.069  -0.702   0.464  1.00  0.00     0.015 C 
HETATM   34  C23 UNL     1      11.551  -0.615   1.890  1.00  0.00     0.034 C 
HETATM   35  C25 UNL     1      10.740  -1.066  -0.222  1.00  0.00     0.242 C 
HETATM   36  C24 UNL     1      10.227   0.082   1.658  1.00  0.00     0.238 C 
ENDBRANCH  29  30
ENDBRANCH  28  29
ENDBRANCH  26  28
ENDBRANCH  23  24
ENDBRANCH  21  22
ENDBRANCH   2  20
TORSDOF 12
