REMARK  7 active torsions:
REMARK  status: ('A' for Active; 'I' for Inactive)
REMARK    1  A    between atoms: C3_3  and  N1_4 
REMARK    2  A    between atoms: C9_11  and  C10_12 
REMARK    3  A    between atoms: C12_15  and  N3_16 
REMARK       I    between atoms: N3_16  and  C13_18 
REMARK    4  A    between atoms: C13_18  and  C14_20 
REMARK       I    between atoms: C14_20  and  N4_22 
REMARK    5  A    between atoms: N4_22  and  C15_24 
REMARK    6  A    between atoms: C24_33  and  C25_34 
REMARK    7  A    between atoms: C25_34  and  N5_35 
ROOT
HETATM    1  C1  UNL     1      -5.697   3.528   1.878  1.00  0.00     0.013 C 
HETATM    2  C2  UNL     1      -4.754   2.837   1.600  1.00  0.00    -0.089 C 
HETATM    3  C3  UNL     1      -3.586   2.011   1.250  1.00  0.00     0.333 C 
ENDROOT
BRANCH   3   4
HETATM    4  N1  UNL     1      -3.896   0.644   0.989  1.00  0.00    -0.018 N 
HETATM    5  C4  UNL     1      -5.284   0.278   1.199  1.00  0.00     0.269 C 
HETATM    6  C5  UNL     1      -5.391  -1.010   0.455  1.00  0.00     0.268 C 
HETATM    7  N2  UNL     1      -4.220  -1.112  -0.423  1.00  0.00    -0.032 N 
HETATM    8  C6  UNL     1      -4.791  -1.468  -1.738  1.00  0.00     0.276 C 
HETATM    9  C7  UNL     1      -3.375  -2.218  -0.116  1.00  0.00     0.241 C 
HETATM   10  C24 UNL     1      -3.655   0.191  -0.366  1.00  0.00     0.320 C 
HETATM   11  C8  UNL     1      -2.451  -2.198   0.987  1.00  0.00     0.048 C 
HETATM   12  C9  UNL     1      -1.987  -0.868   1.484  1.00  0.00     0.059 C 
HETATM   13  C11 UNL     1      -3.170  -0.131   1.979  1.00  0.00     0.260 C 
HETATM   14  C12 UNL     1      -1.274  -0.043   0.479  1.00  0.00     0.106 C 
HETATM   15  C23 UNL     1      -2.152   0.143  -0.698  1.00  0.00     0.099 C 
BRANCH  12  16
HETATM   16  C10 UNL     1      -1.050  -1.118   2.634  1.00  0.00     0.244 C 
HETATM   17  O1  UNL     1      -0.282  -2.036   2.537  1.00  0.00    -0.306 OA
ENDBRANCH  12  16
BRANCH  14  18
HETATM   18  N3  UNL     1      -0.005  -0.606   0.078  1.00  0.00    -0.347 N 
HETATM   19  C13 UNL     1       1.238   0.041   0.315  1.00  0.00     0.309 C 
HETATM   20  O2  UNL     1       1.210   1.149   0.901  1.00  0.00    -0.262 OA
ATOM     21  H3  UNL     1      -0.001  -1.509  -0.397  1.00  0.00     0.163 HD
BRANCH  19  22
HETATM   22  C14 UNL     1       2.512  -0.509  -0.080  1.00  0.00     0.309 C 
HETATM   23  O3  UNL     1       2.530  -1.618  -0.665  1.00  0.00    -0.262 OA
HETATM   24  N4  UNL     1       3.700   0.164   0.176  1.00  0.00    -0.348 N 
ATOM     25  H4  UNL     1       3.630   1.062   0.655  1.00  0.00     0.163 HD
BRANCH  24  26
HETATM   26  C15 UNL     1       5.023  -0.291  -0.174  1.00  0.00     0.092 C 
HETATM   27  C16 UNL     1       5.797  -0.549   1.088  1.00  0.00     0.026 C 
HETATM   28  C17 UNL     1       7.145  -1.136   0.760  1.00  0.00     0.002 C 
HETATM   29  C18 UNL     1       7.887  -0.355  -0.293  1.00  0.00     0.001 C 
HETATM   30  C19 UNL     1       7.037  -0.133  -1.523  1.00  0.00     0.011 C 
HETATM   31  C20 UNL     1       5.765   0.608  -1.087  1.00  0.00    -0.027 C 
HETATM   32  C21 UNL     1       5.004   0.929  -2.334  1.00  0.00     0.017 C 
HETATM   33  C22 UNL     1       6.216   1.893  -0.458  1.00  0.00     0.017 C 
ENDBRANCH  24  26
ENDBRANCH  19  22
ENDBRANCH  14  18
BRANCH  10  34
HETATM   34  C25 UNL     1      -4.184   1.131  -1.405  1.00  0.00     0.300 C 
BRANCH  34  35
HETATM   35  N5  UNL     1      -5.553   1.425  -1.448  1.00  0.00    -0.075 N 
ATOM     36  H53 UNL     1      -6.070   0.548  -1.512  1.00  0.00     0.274 HD
ATOM     37  H52 UNL     1      -5.840   1.764  -0.530  1.00  0.00     0.274 HD
ATOM     38  H51 UNL     1      -5.913   2.065  -2.156  1.00  0.00     0.274 HD
ENDBRANCH  34  35
ENDBRANCH  10  34
ENDBRANCH   3   4
TORSDOF 7
