REMARK  12 active torsions:
REMARK  status: ('A' for Active; 'I' for Inactive)
REMARK    1  A    between atoms: C2_2  and  C4_4 
REMARK    2  A    between atoms: C4_4  and  C5_5 
REMARK       I    between atoms: C5_5  and  N1_7 
REMARK    3  A    between atoms: C6_9  and  C7_10 
REMARK    4  A    between atoms: C7_10  and  C8_11 
REMARK    5  A    between atoms: N3_18  and  C14_19 
REMARK    6  A    between atoms: C14_19  and  N4_21 
REMARK    7  A    between atoms: N4_21  and  C15_23 
REMARK    8  A    between atoms: C15_23  and  C16_24 
REMARK    9  A    between atoms: C17_25  and  C18_26 
REMARK   10  A    between atoms: C18_26  and  O2_27 
REMARK   11  A    between atoms: O2_27  and  C19_28 
REMARK   12  A    between atoms: C19_28  and  N6_32 
ROOT
HETATM    1  C8  UNL     1      -2.386  -1.280  -0.838  1.00  0.00     0.117 C 
HETATM    2  C9  UNL     1      -3.440  -2.204  -0.231  1.00  0.00     0.262 C 
HETATM    3  N2  UNL     1      -3.330  -3.544  -0.697  1.00  0.00    -0.071 N 
HETATM    4  C10 UNL     1      -3.708  -3.720  -2.075  1.00  0.00     0.272 C 
HETATM    5  C11 UNL     1      -4.291  -4.331   0.099  1.00  0.00     0.272 C 
HETATM    6  C12 UNL     1      -2.032  -4.085  -0.365  1.00  0.00     0.256 C 
HETATM    7  C13 UNL     1      -0.895  -3.203  -0.710  1.00  0.00     0.154 C 
HETATM    8  N3  UNL     1      -1.081  -1.755  -0.572  1.00  0.00    -0.350 N 
ENDROOT
BRANCH   8   9
HETATM    9  C14 UNL     1       0.085  -1.009  -0.276  1.00  0.00     0.171 C 
HETATM   10  S1  UNL     1      -0.126   0.674  -0.376  1.00  0.00    -0.041 SA
BRANCH   9  11
HETATM   11  N4  UNL     1       1.397  -1.343   0.020  1.00  0.00    -0.357 N 
ATOM     12  H4  UNL     1       1.967  -0.513   0.183  1.00  0.00     0.162 HD
BRANCH  11  13
HETATM   13  C15 UNL     1       2.155  -2.528   0.156  1.00  0.00     0.216 C 
BRANCH  13  14
HETATM   14  C16 UNL     1       3.586  -2.176   0.479  1.00  0.00    -0.085 C 
HETATM   15  C17 UNL     1       4.715  -1.875   0.755  1.00  0.00    -0.078 C 
BRANCH  15  16
HETATM   16  C18 UNL     1       6.079  -1.495   1.115  1.00  0.00     0.272 C 
BRANCH  16  17
HETATM   17  O2  UNL     1       6.306  -0.183   0.606  1.00  0.00    -0.310 OA
BRANCH  17  18
HETATM   18  C19 UNL     1       7.563   0.342   0.860  1.00  0.00     0.215 C 
HETATM   19  N5  UNL     1       8.361  -0.122   1.764  1.00  0.00    -0.365 N 
ATOM     20  H52 UNL     1       8.039  -0.917   2.316  1.00  0.00     0.159 HD
ATOM     21  H51 UNL     1       9.286   0.264   1.951  1.00  0.00     0.159 HD
BRANCH  18  22
HETATM   22  N6  UNL     1       8.010   1.447   0.092  1.00  0.00    -0.348 N 
HETATM   23  C20 UNL     1       8.637   1.618  -1.204  1.00  0.00     0.128 C 
HETATM   24  C21 UNL     1       9.045   3.033  -0.876  1.00  0.00     0.040 C 
HETATM   25  C22 UNL     1       8.051   2.900   0.253  1.00  0.00     0.128 C 
ENDBRANCH  18  22
ENDBRANCH  17  18
ENDBRANCH  16  17
ENDBRANCH  15  16
ENDBRANCH  13  14
ENDBRANCH  11  13
ENDBRANCH   9  11
ENDBRANCH   8   9
BRANCH   1  26
HETATM   26  C7  UNL     1      -2.813   0.102  -0.484  1.00  0.00     0.071 C 
BRANCH  26  27
HETATM   27  C6  UNL     1      -2.919   0.381   0.946  1.00  0.00     0.066 C 
HETATM   28  N1  UNL     1      -3.399   1.428   1.472  1.00  0.00    -0.341 N 
HETATM   29  C5  UNL     1      -3.936   2.541   0.800  1.00  0.00     0.221 C 
ATOM     30  H1  UNL     1      -3.396   1.469   2.491  1.00  0.00     0.167 HD
HETATM   31  O1  UNL     1      -3.750   2.734  -0.438  1.00  0.00    -0.273 OA
BRANCH  29  32
HETATM   32  C4  UNL     1      -4.763   3.565   1.514  1.00  0.00     0.106 C 
BRANCH  32  33
HETATM   33  C2  UNL     1      -5.239   4.652   0.596  1.00  0.00    -0.014 C 
HETATM   34  C1  UNL     1      -6.085   4.062  -0.510  1.00  0.00     0.010 C 
HETATM   35  C3  UNL     1      -4.101   5.462   0.035  1.00  0.00     0.010 C 
ENDBRANCH  32  33
ENDBRANCH  29  32
ENDBRANCH  26  27
ENDBRANCH   1  26
TORSDOF 12
