REMARK  9 active torsions:
REMARK  status: ('A' for Active; 'I' for Inactive)
REMARK    1  A    between atoms: N1_5  and  C5_6 
REMARK    2  A    between atoms: C5_6  and  N2_8 
REMARK    3  A    between atoms: N2_8  and  C7_10 
REMARK    4  A    between atoms: C7_10  and  C8_11 
REMARK    5  A    between atoms: C8_11  and  N4_15 
REMARK    6  A    between atoms: N5_18  and  C12_20 
REMARK    7  A    between atoms: C12_20  and  C13_21 
REMARK    8  A    between atoms: C20_29  and  N7_30 
REMARK    9  A    between atoms: N7_30  and  N8_31 
ROOT
HETATM    1  N4  UNL     1      -1.346   0.876  -0.541  1.00  0.00    -0.287 N 
HETATM    2  C9  UNL     1      -1.785   0.531  -1.827  1.00  0.00     0.102 C 
HETATM    3  C10 UNL     1      -3.289   0.530  -1.835  1.00  0.00     0.289 C 
HETATM    4  N5  UNL     1      -3.923  -0.032  -0.667  1.00  0.00    -0.028 N 
HETATM    5  C11 UNL     1      -4.780  -1.109  -1.335  1.00  0.00     0.280 C 
HETATM    6  C14 UNL     1      -3.082  -0.641   0.292  1.00  0.00     0.207 C 
HETATM    7  C15 UNL     1      -2.212  -1.726  -0.262  1.00  0.00     0.049 C 
HETATM    8  C16 UNL     1      -2.147  -2.981   0.635  1.00  0.00     0.003 C 
HETATM    9  C17 UNL     1      -3.545  -3.461   0.941  1.00  0.00     0.000 C 
HETATM   10  C18 UNL     1      -4.126  -2.423   1.836  1.00  0.00     0.003 C 
HETATM   11  C19 UNL     1      -3.602  -1.035   1.605  1.00  0.00     0.049 C 
HETATM   12  C20 UNL     1      -2.016   0.500   0.653  1.00  0.00     0.226 C 
ENDROOT
BRANCH   1  13
HETATM   13  C8  UNL     1      -0.154   1.735  -0.356  1.00  0.00     0.101 C 
HETATM   14  N3  UNL     1      -0.158   2.912  -0.814  1.00  0.00    -0.387 N 
ATOM     15  H32 UNL     1       0.663   3.504  -0.687  1.00  0.00     0.157 HD
ATOM     16  H31 UNL     1      -0.935   3.317  -1.336  1.00  0.00     0.157 HD
BRANCH  13  17
HETATM   17  C7  UNL     1       0.945   1.163   0.382  1.00  0.00     0.201 C 
BRANCH  17  18
HETATM   18  N2  UNL     1       2.111   0.710  -0.376  1.00  0.00    -0.355 N 
HETATM   19  C6  UNL     1       2.160   0.894  -1.788  1.00  0.00     0.152 C 
BRANCH  18  20
HETATM   20  C5  UNL     1       3.176   0.089   0.360  1.00  0.00     0.172 C 
HETATM   21  S1  UNL     1       2.872   0.018   2.019  1.00  0.00    -0.041 SA
BRANCH  20  22
HETATM   22  N1  UNL     1       4.368  -0.456  -0.055  1.00  0.00    -0.358 N 
HETATM   23  C4  UNL     1       5.311  -0.963   1.023  1.00  0.00     0.125 C 
HETATM   24  C3  UNL     1       6.447   0.046   1.067  1.00  0.00     0.024 C 
HETATM   25  C2  UNL     1       6.822   0.589  -0.274  1.00  0.00    -0.015 C 
HETATM   26  C1  UNL     1       8.362   0.569  -0.353  1.00  0.00     0.010 C 
HETATM   27  C22 UNL     1       6.354  -0.209  -1.453  1.00  0.00     0.024 C 
HETATM   28  C21 UNL     1       4.938  -0.722  -1.349  1.00  0.00     0.125 C 
ENDBRANCH  20  22
ENDBRANCH  18  20
ENDBRANCH  17  18
ENDBRANCH  13  17
ENDBRANCH   1  13
BRANCH  12  29
HETATM   29  N7  UNL     1      -1.906   0.854   1.744  1.00  0.00    -0.293 NA
BRANCH  29  30
HETATM   30  N8  UNL     1      -1.768   1.266   2.974  1.00  0.00    -0.181 N 
HETATM   31  N9  UNL     1      -2.621   1.756   3.788  1.00  0.00    -0.320 N 
ATOM     32  H92 UNL     1      -3.560   1.831   3.396  1.00  0.00     0.179 HD
ATOM     33  H91 UNL     1      -2.513   2.078   4.750  1.00  0.00     0.179 HD
ATOM     34  H8  UNL     1      -0.822   1.183   3.347  1.00  0.00     0.223 HD
ENDBRANCH  29  30
ENDBRANCH  12  29
BRANCH   4  35
HETATM   35  C12 UNL     1      -4.966   0.835  -0.254  1.00  0.00     0.218 C 
BRANCH  35  36
HETATM   36  C13 UNL     1      -4.803   2.099   0.458  1.00  0.00     0.125 C 
HETATM   37  N6  UNL     1      -4.121   3.194  -0.057  1.00  0.00    -0.114 NA
ENDBRANCH  35  36
ENDBRANCH   4  35
TORSDOF 9
