REMARK  5 active torsions:
REMARK  status: ('A' for Active; 'I' for Inactive)
REMARK       I    between atoms: N2_6  and  C5_7 
REMARK    1  A    between atoms: C5_7  and  C6_9 
REMARK    2  A    between atoms: C6_9  and  N3_10 
REMARK    3  A    between atoms: N4_13  and  C9_14 
REMARK    4  A    between atoms: C9_14  and  C10_15 
REMARK    5  A    between atoms: C20_25  and  N5_26 
REMARK       I    between atoms: N5_26  and  C21_28 
ROOT
HETATM    1  N3  UNL     1      -0.791   0.077   0.086  1.00  0.00    -0.052 N 
HETATM    2  C7  UNL     1      -0.609  -0.484   1.390  1.00  0.00     0.266 C 
HETATM    3  C8  UNL     1       0.793  -0.109   1.863  1.00  0.00     0.268 C 
HETATM    4  N4  UNL     1       1.663   0.127   0.720  1.00  0.00    -0.038 N 
HETATM    5  C18 UNL     1       1.352  -0.939  -0.227  1.00  0.00     0.268 C 
HETATM    6  C19 UNL     1       0.005  -0.627  -0.862  1.00  0.00     0.266 C 
HETATM    7  C20 UNL     1       1.307   1.360   0.083  1.00  0.00     0.317 C 
HETATM    8  C22 UNL     1      -0.225   1.445   0.160  1.00  0.00     0.293 C 
ENDROOT
BRANCH   1   9
HETATM    9  C6  UNL     1      -2.166   0.288  -0.290  1.00  0.00     0.340 C 
BRANCH   9  10
HETATM   10  C5  UNL     1      -3.015  -0.889  -0.327  1.00  0.00     0.246 C 
HETATM   11  N2  UNL     1      -4.377  -0.768  -0.674  1.00  0.00    -0.349 N 
HETATM   12  C4  UNL     1      -5.141  -1.991  -0.693  1.00  0.00     0.127 C 
HETATM   13  C23 UNL     1      -4.890   0.550  -0.973  1.00  0.00     0.145 C 
HETATM   14  C3  UNL     1      -6.566  -1.771  -1.119  1.00  0.00     0.039 C 
HETATM   15  C2  UNL     1      -7.321  -1.038  -0.031  1.00  0.00     0.118 C 
HETATM   16  N1  UNL     1      -7.202   0.383  -0.131  1.00  0.00    -0.415 N 
HETATM   17  C1  UNL     1      -7.903   0.971  -1.228  1.00  0.00     0.143 C 
HETATM   18  C24 UNL     1      -5.896   0.896   0.101  1.00  0.00     0.136 C 
HETATM   19  O1  UNL     1      -2.559  -2.020  -0.054  1.00  0.00    -0.272 OA
ENDBRANCH   9  10
ENDBRANCH   1   9
BRANCH   7  20
HETATM   20  N5  UNL     1       1.942   2.538   0.552  1.00  0.00    -0.335 N 
HETATM   21  C21 UNL     1       1.819   3.159   1.809  1.00  0.00     0.183 C 
HETATM   22  N6  UNL     1       2.804   3.186   2.631  1.00  0.00    -0.374 N 
HETATM   23  N7  UNL     1       0.621   3.793   2.225  1.00  0.00    -0.064 NA
ATOM     24  H62 UNL     1       3.666   2.730   2.332  1.00  0.00     0.158 HD
ATOM     25  H61 UNL     1       2.715   3.636   3.542  1.00  0.00     0.158 HD
ATOM     26  H5  UNL     1       2.571   2.995  -0.108  1.00  0.00     0.164 HD
ENDBRANCH   7  20
BRANCH   4  27
HETATM   27  C9  UNL     1       3.019   0.044   1.187  1.00  0.00     0.267 C 
BRANCH  27  28
HETATM   28  C10 UNL     1       3.704  -1.197   0.773  1.00  0.00     0.004 C 
HETATM   29  C11 UNL     1       4.793  -1.131   0.034  1.00  0.00    -0.077 C 
HETATM   30  C12 UNL     1       5.552  -2.341  -0.431  1.00  0.00     0.039 C 
HETATM   31  C16 UNL     1       5.550   0.015  -0.521  1.00  0.00     0.014 C 
HETATM   32  C13 UNL     1       6.662  -1.799  -1.304  1.00  0.00    -0.010 C 
HETATM   33  C14 UNL     1       7.678  -1.130  -0.441  1.00  0.00     0.005 C 
HETATM   34  C17 UNL     1       5.942  -0.572  -1.891  1.00  0.00     0.014 C 
HETATM   35  C15 UNL     1       6.914   0.068   0.126  1.00  0.00     0.009 C 
ENDBRANCH  27  28
ENDBRANCH   4  27
TORSDOF 5
