REMARK  9 active torsions:
REMARK  status: ('A' for Active; 'I' for Inactive)
REMARK    1  A    between atoms: C4_4  and  C5_5 
REMARK    2  A    between atoms: C5_5  and  N1_6 
REMARK       I    between atoms: N1_6  and  C6_8 
REMARK       I    between atoms: C6_8  and  N3_12 
REMARK    3  A    between atoms: N3_12  and  C7_13 
REMARK    4  A    between atoms: N3_12  and  C9_15 
REMARK    5  A    between atoms: C9_15  and  C10_16 
REMARK       I    between atoms: N4_18  and  C12_19 
REMARK    6  A    between atoms: C12_19  and  C13_21 
REMARK    7  A    between atoms: N6_26  and  C16_27 
REMARK    8  A    between atoms: C16_27  and  O3_28 
REMARK    9  A    between atoms: C16_27  and  N7_30 
ROOT
HETATM    1  C1  UNL     1       8.703   1.239   2.963  1.00  0.00     0.027 C 
HETATM    2  C2  UNL     1       8.004   0.514   2.283  1.00  0.00    -0.026 C 
HETATM    3  C3  UNL     1       7.163  -0.332   1.502  1.00  0.00    -0.014 C 
HETATM    4  C4  UNL     1       6.447  -1.065   0.855  1.00  0.00    -0.072 C 
ENDROOT
BRANCH   4   5
HETATM    5  C5  UNL     1       5.567  -1.970   0.090  1.00  0.00     0.233 C 
BRANCH   5   6
HETATM    6  N1  UNL     1       4.365  -1.254  -0.251  1.00  0.00    -0.216 N 
HETATM    7  C6  UNL     1       3.390  -0.829   0.681  1.00  0.00     0.670 C 
HETATM    8  N2  UNL     1       3.682  -0.130   1.691  1.00  0.00    -0.235 N 
HETATM    9  N3  UNL     1       2.013  -1.202   0.456  1.00  0.00    -0.218 N 
ATOM     10  H22 UNL     1       4.654   0.133   1.850  1.00  0.00     0.174 HD
ATOM     11  H21 UNL     1       2.979   0.177   2.363  1.00  0.00     0.174 HD
ATOM     12  H1  UNL     1       4.205  -1.038  -1.235  1.00  0.00     0.178 HD
BRANCH   9  13
HETATM   13  C7  UNL     1       1.368  -2.001   1.459  1.00  0.00     0.136 C 
HETATM   14  C8  UNL     1       2.321  -2.461   2.564  1.00  0.00     0.027 C 
ENDBRANCH   9  13
BRANCH   9  15
HETATM   15  C9  UNL     1       1.437  -0.724  -0.746  1.00  0.00     0.149 C 
BRANCH  15  16
HETATM   16  C10 UNL     1       0.353   0.323  -0.618  1.00  0.00     0.040 C 
HETATM   17  C11 UNL     1       0.821   1.540   0.092  1.00  0.00     0.134 C 
HETATM   18  N4  UNL     1       0.053   2.694  -0.417  1.00  0.00    -0.342 N 
HETATM   19  C12 UNL     1       0.735   3.609  -1.229  1.00  0.00     0.308 C 
HETATM   20  C14 UNL     1      -1.336   2.928  -0.135  1.00  0.00     0.146 C 
HETATM   21  O1  UNL     1       1.984   3.416  -1.489  1.00  0.00    -0.263 OA
HETATM   22  C15 UNL     1      -1.842   1.885   0.865  1.00  0.00     0.146 C 
HETATM   23  N6  UNL     1      -2.045   0.640   0.084  1.00  0.00    -0.345 N 
HETATM   24  C22 UNL     1      -0.994  -0.219  -0.347  1.00  0.00     0.134 C 
BRANCH  19  25
HETATM   25  C13 UNL     1       0.155   4.775  -1.818  1.00  0.00     0.322 C 
HETATM   26  N5  UNL     1       0.946   5.662  -2.642  1.00  0.00    -0.053 NA
HETATM   27  O2  UNL     1      -1.051   5.074  -1.646  1.00  0.00    -0.266 OA
ENDBRANCH  19  25
BRANCH  23  28
HETATM   28  C16 UNL     1      -3.399   0.400  -0.214  1.00  0.00     0.217 C 
BRANCH  28  29
HETATM   29  O3  UNL     1      -4.188   1.387   0.152  1.00  0.00    -0.333 OA
ATOM     30  H3  UNL     1      -5.102   1.225  -0.049  1.00  0.00     0.220 HD
ENDBRANCH  28  29
BRANCH  28  31
HETATM   31  N7  UNL     1      -4.090  -0.649  -0.805  1.00  0.00    -0.348 N 
HETATM   32  C17 UNL     1      -5.543  -0.474  -1.012  1.00  0.00     0.126 C 
HETATM   33  C18 UNL     1      -6.314  -1.544  -0.290  1.00  0.00     0.020 C 
HETATM   34  C19 UNL     1      -5.439  -2.747   0.012  1.00  0.00     0.003 C 
HETATM   35  C20 UNL     1      -4.545  -3.022  -1.180  1.00  0.00     0.020 C 
HETATM   36  C21 UNL     1      -3.484  -1.901  -1.174  1.00  0.00     0.126 C 
ENDBRANCH  28  31
ENDBRANCH  23  28
ENDBRANCH  15  16
ENDBRANCH   9  15
ENDBRANCH   5   6
ENDBRANCH   4   5
TORSDOF 9
