REMARK  6 active torsions:
REMARK  status: ('A' for Active; 'I' for Inactive)
REMARK    1  A    between atoms: C1_2  and  C2_3 
REMARK       I    between atoms: C1_2  and  N4_28 
REMARK    2  A    between atoms: C2_3  and  N1_4 
REMARK    3  A    between atoms: N2_7  and  C5_8 
REMARK    4  A    between atoms: C5_8  and  C6_9 
REMARK       I    between atoms: C6_9  and  N3_11 
REMARK    5  A    between atoms: N3_11  and  C7_13 
REMARK    6  A    between atoms: N4_28  and  C21_30 
ROOT
HETATM    1  N1  UNL     1       4.344  -0.643   0.253  1.00  0.00    -0.032 N 
HETATM    2  C3  UNL     1       3.595  -1.322  -0.763  1.00  0.00     0.271 C 
HETATM    3  C4  UNL     1       2.245  -1.736  -0.149  1.00  0.00     0.302 C 
HETATM    4  N2  UNL     1       1.903  -0.681   0.781  1.00  0.00     0.060 N 
HETATM    5  C18 UNL     1       2.311   0.608   0.260  1.00  0.00     0.302 C 
HETATM    6  C19 UNL     1       3.835   0.716   0.361  1.00  0.00     0.271 C 
HETATM    7  O3  UNL     1       2.705  -0.878   1.889  1.00  0.00    -0.173 OA
HETATM    8  C20 UNL     1       3.964  -1.282   1.526  1.00  0.00     0.445 C 
ENDROOT
BRANCH   4   9
HETATM    9  C5  UNL     1       0.566  -0.705   1.260  1.00  0.00     0.375 C 
BRANCH   9  10
HETATM   10  C6  UNL     1      -0.489  -0.430   0.287  1.00  0.00     0.246 C 
HETATM   11  O2  UNL     1      -0.243  -0.176  -0.933  1.00  0.00    -0.272 OA
HETATM   12  N3  UNL     1      -1.876  -0.428   0.640  1.00  0.00    -0.355 N 
ATOM     13  H3  UNL     1      -2.134  -0.624   1.607  1.00  0.00     0.162 HD
BRANCH  12  14
HETATM   14  C7  UNL     1      -2.930  -0.159  -0.317  1.00  0.00     0.084 C 
HETATM   15  C8  UNL     1      -3.625   1.106   0.052  1.00  0.00     0.025 C 
HETATM   16  C9  UNL     1      -4.218   1.200   1.394  1.00  0.00     0.002 C 
HETATM   17  C10 UNL     1      -5.701   0.987   1.528  1.00  0.00     0.000 C 
HETATM   18  C11 UNL     1      -6.570   1.796   0.657  1.00  0.00     0.000 C 
HETATM   19  C12 UNL     1      -7.459   1.103  -0.316  1.00  0.00     0.000 C 
HETATM   20  C13 UNL     1      -7.735  -0.333  -0.145  1.00  0.00     0.000 C 
HETATM   21  C14 UNL     1      -6.865  -1.351  -0.723  1.00  0.00     0.000 C 
HETATM   22  C15 UNL     1      -5.909  -0.990  -1.787  1.00  0.00     0.000 C 
HETATM   23  C16 UNL     1      -4.533  -1.553  -1.666  1.00  0.00     0.002 C 
HETATM   24  C17 UNL     1      -3.789  -1.385  -0.419  1.00  0.00     0.025 C 
ENDBRANCH  12  14
ENDBRANCH   9  10
ENDBRANCH   4   9
BRANCH   1  25
HETATM   25  C2  UNL     1       5.765  -0.710   0.126  1.00  0.00     0.342 C 
BRANCH  25  26
HETATM   26  C1  UNL     1       6.304  -0.245  -1.154  1.00  0.00     0.249 C 
HETATM   27  O1  UNL     1       5.571   0.176  -2.052  1.00  0.00    -0.271 OA
HETATM   28  N4  UNL     1       7.710  -0.267  -1.395  1.00  0.00    -0.311 N 
ATOM     29  H4  UNL     1       8.128  -1.116  -1.776  1.00  0.00     0.170 HD
BRANCH  28  30
HETATM   30  C21 UNL     1       8.468   0.734  -1.153  1.00  0.00     0.123 A 
HETATM   31  C22 UNL     1       9.827   0.743  -1.375  1.00  0.00     0.068 A 
HETATM   32  C23 UNL     1      10.264   2.001  -0.988  1.00  0.00     0.111 A 
HETATM   33  N5  UNL     1       9.212   2.705  -0.556  1.00  0.00    -0.310 N 
HETATM   34  N6  UNL     1       8.111   1.948  -0.651  1.00  0.00    -0.286 N 
ATOM     35  H5  UNL     1       9.243   3.664  -0.210  1.00  0.00     0.186 HD
ATOM     36  H6  UNL     1       7.166   2.233  -0.392  1.00  0.00     0.188 HD
ENDBRANCH  28  30
ENDBRANCH  25  26
ENDBRANCH   1  25
TORSDOF 6
