REMARK  2 active torsions:
REMARK  status: ('A' for Active; 'I' for Inactive)
REMARK    1  A    between atoms: C1_2  and  C2_5 
REMARK    2  A    between atoms: C9_13  and  C10_14 
ROOT
HETATM    1  C2  UNL     1       1.957   0.010  -0.144  1.00  0.00     0.274 C 
HETATM    2  F4  UNL     1       2.591  -0.175  -1.368  1.00  0.00    -0.209 F 
HETATM    3  C3  UNL     1       0.989  -1.111   0.033  1.00  0.00     0.081 C 
HETATM    4  C4  UNL     1      -0.239  -1.000  -0.820  1.00  0.00     0.000 C 
HETATM    5  C5  UNL     1      -1.276  -1.960  -0.238  1.00  0.00     0.005 C 
HETATM    6  C6  UNL     1      -1.934  -1.070   0.823  1.00  0.00     0.001 C 
HETATM    7  C7  UNL     1      -2.093   0.241   0.093  1.00  0.00     0.011 C 
HETATM    8  C8  UNL     1      -0.876   0.357  -0.785  1.00  0.00     0.036 C 
HETATM    9  C9  UNL     1       0.049   1.435  -0.388  1.00  0.00     0.003 C 
HETATM   10  N1  UNL     1       1.280   1.275  -0.111  1.00  0.00    -0.353 N 
ATOM     11  H1  UNL     1       1.821   2.099   0.152  1.00  0.00     0.162 HD
ENDROOT
BRANCH   1  12
HETATM   12  C1  UNL     1       2.989  -0.081   0.956  1.00  0.00     0.442 C 
HETATM   13  F1  UNL     1       3.925   0.915   0.730  1.00  0.00    -0.166 F 
HETATM   14  F2  UNL     1       2.410   0.045   2.199  1.00  0.00    -0.166 F 
HETATM   15  F3  UNL     1       3.646  -1.284   0.794  1.00  0.00    -0.166 F 
ENDBRANCH   1  12
BRANCH   9  16
HETATM   16  C10 UNL     1      -0.499   2.819  -0.306  1.00  0.00     0.167 C 
HETATM   17 CL1  UNL     1       0.740   3.988   0.180  1.00  0.00    -0.124 Cl
ENDBRANCH   9  16
TORSDOF 2
