REMARK  1 active torsions:
REMARK  status: ('A' for Active; 'I' for Inactive)
REMARK    1  A    between atoms: C4_5  and  C6_7 
ROOT
HETATM    1  C1  UNL     1       1.756  -1.111  -1.287  1.00  0.00     0.049 C 
HETATM    2  C2  UNL     1       1.142  -0.385  -0.080  1.00  0.00     0.090 C 
HETATM    3  C3  UNL     1       2.084  -0.794   1.073  1.00  0.00     0.049 C 
HETATM    4  O1  UNL     1      -0.039  -0.926   0.176  1.00  0.00    -0.358 OA
HETATM    5  C4  UNL     1      -1.178  -0.237   0.207  1.00  0.00     0.155 C 
HETATM    6  C5  UNL     1      -1.996  -0.719   1.419  1.00  0.00     0.056 C 
HETATM    7  C7  UNL     1      -1.093   1.243   0.346  1.00  0.00     0.050 C 
HETATM    8  C8  UNL     1       0.030   1.844  -0.448  1.00  0.00     0.048 C 
HETATM    9  C9  UNL     1       1.286   1.077  -0.232  1.00  0.00     0.143 C 
HETATM   10 CL1  UNL     1       2.130   1.831   1.173  1.00  0.00    -0.098 Cl
HETATM   11 CL2  UNL     1       2.331   1.449  -1.654  1.00  0.00    -0.098 Cl
ENDROOT
BRANCH   5  12
HETATM   12  C6  UNL     1      -2.105  -0.522  -0.986  1.00  0.00     0.418 C 
HETATM   13  F1  UNL     1      -2.462  -1.839  -1.046  1.00  0.00    -0.168 F 
HETATM   14  F2  UNL     1      -1.614  -0.012  -2.149  1.00  0.00    -0.168 F 
HETATM   15  F3  UNL     1      -3.277   0.192  -0.698  1.00  0.00    -0.168 F 
ENDBRANCH   5  12
TORSDOF 1
