REMARK  2 active torsions:
REMARK  status: ('A' for Active; 'I' for Inactive)
REMARK    1  A    between atoms: C2_2  and  C3_3 
REMARK    2  A    between atoms: C10_13  and  C11_14 
ROOT
HETATM    1  C1  UNL     1      -0.433  -1.453  -1.301  1.00  0.00     0.028 C 
HETATM    2  C2  UNL     1      -0.701  -0.599  -0.034  1.00  0.00     0.065 C 
HETATM    3  C4  UNL     1       0.615  -0.119   0.375  1.00  0.00    -0.026 A 
HETATM    4  C5  UNL     1       1.540  -0.717   1.220  1.00  0.00     0.009 A 
HETATM    5  C6  UNL     1       2.759  -0.124   1.506  1.00  0.00     0.001 A 
HETATM    6  C7  UNL     1       3.088   1.092   0.949  1.00  0.00     0.001 A 
HETATM    7  C8  UNL     1       2.201   1.696   0.120  1.00  0.00     0.019 A 
HETATM    8  C9  UNL     1       1.007   1.081  -0.139  1.00  0.00     0.008 A 
HETATM    9  S1  UNL     1      -0.300   1.733  -1.208  1.00  0.00    -0.114 SA
HETATM   10  C10 UNL     1      -1.531   0.539  -0.502  1.00  0.00     0.178 C 
ENDROOT
BRANCH   2  11
HETATM   11  C3  UNL     1      -1.417  -1.498   0.898  1.00  0.00     0.367 C 
HETATM   12  F1  UNL     1      -2.605  -1.902   0.258  1.00  0.00    -0.213 F 
HETATM   13  F2  UNL     1      -0.789  -2.698   1.151  1.00  0.00    -0.213 F 
ENDBRANCH   2  11
BRANCH  10  14
HETATM   14  C11 UNL     1      -2.283   1.340   0.478  1.00  0.00     0.401 C 
HETATM   15  F3  UNL     1      -1.457   1.953   1.436  1.00  0.00    -0.170 F 
HETATM   16  F4  UNL     1      -3.393   0.793   1.033  1.00  0.00    -0.170 F 
HETATM   17  F5  UNL     1      -2.773   2.454  -0.245  1.00  0.00    -0.170 F 
ENDBRANCH  10  14
TORSDOF 2
