REMARK  8 active torsions:
REMARK  status: ('A' for Active; 'I' for Inactive)
REMARK    1  A    between atoms: C2_2  and  C3_3 
REMARK    2  A    between atoms: C3_3  and  N1_6 
REMARK    3  A    between atoms: N1_6  and  C6_8 
REMARK    4  A    between atoms: C6_8  and  N2_9 
REMARK    5  A    between atoms: C6_8  and  C7_13 
REMARK    6  A    between atoms: N3_14  and  C8_15 
REMARK    7  A    between atoms: C8_15  and  C9_16 
REMARK    8  A    between atoms: N6_25  and  O1_26 
ROOT
HETATM    1  C7  UNL     1       0.771   0.002  -1.615  1.00  0.00     0.305 A 
HETATM    2  N3  UNL     1       1.600  -0.905  -0.912  1.00  0.00    -0.166 N 
HETATM    3  C12 UNL     1       0.947  -2.207  -1.007  1.00  0.00     0.696 A 
HETATM    4  N4  UNL     1       1.366  -3.253  -0.389  1.00  0.00    -0.233 N 
ATOM      5  H41 UNL     1       0.910  -4.163  -0.455  1.00  0.00     0.174 HD
ATOM      6  H42 UNL     1       2.173  -3.362   0.226  1.00  0.00     0.174 HD
HETATM    7  N5  UNL     1      -0.166  -2.057  -1.855  1.00  0.00    -0.108 N 
ATOM      8  H5  UNL     1      -0.797  -2.810  -2.131  1.00  0.00     0.208 HD
HETATM    9  N6  UNL     1      -0.266  -0.887  -2.214  1.00  0.00    -0.158 N 
ENDROOT
BRANCH   1  10
HETATM   10  C6  UNL     1      -0.128   0.893  -0.677  1.00  0.00     0.326 C 
BRANCH  10  11
HETATM   11  N1  UNL     1      -0.956   0.047   0.031  1.00  0.00    -0.385 N 
ATOM     12  H1  UNL     1      -0.562  -0.843   0.335  1.00  0.00     0.156 HD
BRANCH  11  13
HETATM   13  C3  UNL     1      -2.291   0.303   0.369  1.00  0.00     0.020 C 
HETATM   14  C4  UNL     1      -2.320   0.725   1.843  1.00  0.00     0.037 C 
HETATM   15  C5  UNL     1      -3.054   1.317  -0.409  1.00  0.00     0.037 C 
BRANCH  13  16
HETATM   16  C2  UNL     1      -3.045  -1.008   0.201  1.00  0.00     0.025 C 
HETATM   17  C1  UNL     1      -4.470  -0.988   0.602  1.00  0.00     0.007 C 
ENDBRANCH  13  16
ENDBRANCH  11  13
ENDBRANCH  10  11
BRANCH  10  18
HETATM   18  N2  UNL     1      -0.669   1.900  -1.548  1.00  0.00    -0.055 N 
ATOM     19  H23 UNL     1      -1.296   1.443  -2.210  1.00  0.00     0.276 HD
ATOM     20  H22 UNL     1      -1.318   2.471  -1.007  1.00  0.00     0.276 HD
ATOM     21  H21 UNL     1      -0.057   2.526  -2.072  1.00  0.00     0.276 HD
ENDBRANCH  10  18
ENDBRANCH   1  10
BRANCH   2  22
HETATM   22  C8  UNL     1       2.929  -0.839  -0.373  1.00  0.00     0.088 C 
BRANCH  22  23
HETATM   23  C9  UNL     1       3.331   0.055   0.695  1.00  0.00     0.017 C 
HETATM   24  C10 UNL     1       3.276   1.528   0.375  1.00  0.00     0.015 C 
HETATM   25  C11 UNL     1       4.807  -0.199   1.094  1.00  0.00     0.015 C 
ENDBRANCH  22  23
ENDBRANCH   2  22
BRANCH   9  26
HETATM   26  O1  UNL     1      -1.199  -0.345  -3.075  1.00  0.00    -0.270 OA
ATOM     27  H1  UNL     1      -1.860  -0.911  -3.457  1.00  0.00     0.246 HD
ENDBRANCH   9  26
TORSDOF 8
