REMARK  7 active torsions:
REMARK  status: ('A' for Active; 'I' for Inactive)
REMARK    1  A    between atoms: N1_2  and  C2_5 
REMARK    2  A    between atoms: C2_5  and  C3_6 
REMARK    3  A    between atoms: C3_6  and  N2_7 
REMARK    4  A    between atoms: N2_7  and  C4_9 
REMARK    5  A    between atoms: C4_9  and  N3_11 
REMARK    6  A    between atoms: N3_11  and  N4_13 
REMARK    7  A    between atoms: C5_15  and  C7_17 
ROOT
HETATM    1  N3  UNL     1       0.286   0.320  -0.082  1.00  0.00    -0.276 N 
ATOM      2  H3  UNL     1       0.817   0.875   0.589  1.00  0.00     0.189 HD
ENDROOT
BRANCH   1   3
HETATM    3  C4  UNL     1       0.937  -0.692  -0.823  1.00  0.00     0.186 C 
HETATM    4  S1  UNL     1       0.076  -1.569  -1.893  1.00  0.00    -0.040 SA
BRANCH   3   5
HETATM    5  N2  UNL     1       2.320  -0.967  -0.665  1.00  0.00    -0.364 N 
ATOM      6  H2  UNL     1       2.736  -1.709  -1.227  1.00  0.00     0.162 HD
BRANCH   5   7
HETATM    7  C3  UNL     1       3.166  -0.242   0.257  1.00  0.00     0.149 C 
BRANCH   7   8
HETATM    8  C2  UNL     1       4.592  -0.777   0.205  1.00  0.00     0.251 C 
BRANCH   8   9
HETATM    9  N1  UNL     1       5.384  -0.002   1.145  1.00  0.00    -0.077 N 
HETATM   10  C1  UNL     1       5.485   1.335   0.613  1.00  0.00     0.267 C 
ATOM     11  H12 UNL     1       6.291  -0.422   1.346  1.00  0.00     0.276 HD
ATOM     12  H11 UNL     1       5.015  -0.028   2.096  1.00  0.00     0.276 HD
ENDBRANCH   8   9
ENDBRANCH   7   8
ENDBRANCH   5   7
ENDBRANCH   3   5
ENDBRANCH   1   3
BRANCH   1  13
HETATM   13  N4  UNL     1      -1.076   0.568  -0.258  1.00  0.00    -0.302 N 
HETATM   14  C5  UNL     1      -2.001  -0.178   0.209  1.00  0.00     0.032 C 
HETATM   15  C6  UNL     1      -1.764  -1.411   1.001  1.00  0.00     0.070 C 
ATOM     16  H4  UNL     1      -1.349   1.394  -0.791  1.00  0.00     0.186 HD
BRANCH  14  17
HETATM   17  C7  UNL     1      -3.396   0.205  -0.048  1.00  0.00    -0.013 A 
HETATM   18  C8  UNL     1      -3.723   1.338  -0.766  1.00  0.00     0.013 A 
HETATM   19  C9  UNL     1      -5.025   1.710  -1.012  1.00  0.00     0.001 A 
HETATM   20  C10 UNL     1      -6.031   0.932  -0.532  1.00  0.00     0.000 A 
HETATM   21  C11 UNL     1      -5.763  -0.201   0.186  1.00  0.00     0.001 A 
HETATM   22  C12 UNL     1      -4.452  -0.555   0.422  1.00  0.00     0.013 A 
ENDBRANCH  14  17
ENDBRANCH   1  13
TORSDOF 7
