REMARK  5 active torsions:
REMARK  status: ('A' for Active; 'I' for Inactive)
REMARK    1  A    between atoms: N1_2  and  C2_4 
REMARK    2  A    between atoms: C5_7  and  S1_8 
REMARK    3  A    between atoms: S1_8  and  N2_11 
REMARK    4  A    between atoms: N2_11  and  N3_13 
REMARK       I    between atoms: N3_13  and  C6_14 
REMARK       I    between atoms: C6_14  and  N4_16 
REMARK    5  A    between atoms: N4_16  and  C7_18 
ROOT
HETATM    1  C7  UNL     1       6.005  -0.026   0.374  1.00  0.00     0.186 C 
HETATM    2  N5  UNL     1       7.197   0.240   0.898  1.00  0.00    -0.377 N 
ATOM      3  H51 UNL     1       7.949   0.922   0.801  1.00  0.00     0.158 HD
ATOM      4  H52 UNL     1       7.533  -0.544   1.457  1.00  0.00     0.158 HD
HETATM    5  C8  UNL     1       5.495   1.164  -0.474  1.00  0.00     0.136 C 
HETATM    6  N6  UNL     1       5.026   2.085  -1.067  1.00  0.00    -0.188 NA
ENDROOT
BRANCH   1   7
HETATM    7  N4  UNL     1       5.069  -0.875   0.495  1.00  0.00    -0.273 N 
HETATM    8  C6  UNL     1       3.971  -0.558  -0.521  1.00  0.00     0.419 C 
HETATM    9  N3  UNL     1       2.753  -0.171  -0.081  1.00  0.00    -0.254 NA
HETATM   10  O3  UNL     1       4.420  -0.706  -1.712  1.00  0.00    -0.228 OA
ATOM     11  H4  UNL     1       5.052  -1.645   1.163  1.00  0.00     0.174 HD
BRANCH   9  12
HETATM   12  N2  UNL     1       1.569   0.204   0.301  1.00  0.00    -0.151 N 
ATOM     13  H2  UNL     1       1.377   1.174   0.550  1.00  0.00     0.215 HD
BRANCH  12  14
HETATM   14  S1  UNL     1       0.344  -0.986   0.372  1.00  0.00     0.286 S 
HETATM   15  O1  UNL     1       0.277  -1.771   1.640  1.00  0.00    -0.198 OA
HETATM   16  O2  UNL     1       0.684  -2.049  -0.689  1.00  0.00    -0.198 OA
BRANCH  14  17
HETATM   17  C5  UNL     1      -1.204  -0.317   0.096  1.00  0.00     0.082 A 
HETATM   18  C4  UNL     1      -1.916  -0.672  -1.064  1.00  0.00     0.027 A 
HETATM   19  C3  UNL     1      -3.214  -0.259  -1.194  1.00  0.00     0.030 A 
HETATM   20  C2  UNL     1      -3.900   0.485  -0.246  1.00  0.00     0.027 A 
HETATM   21  C10 UNL     1      -3.186   0.834   0.924  1.00  0.00     0.030 A 
HETATM   22  C9  UNL     1      -1.882   0.397   1.003  1.00  0.00     0.027 A 
BRANCH  20  23
HETATM   23  N1  UNL     1      -5.218   0.861  -0.351  1.00  0.00    -0.394 N 
HETATM   24  C1  UNL     1      -6.219  -0.220  -0.290  1.00  0.00     0.146 C 
ATOM     25  H1  UNL     1      -5.490   1.838  -0.465  1.00  0.00     0.159 HD
ENDBRANCH  20  23
ENDBRANCH  14  17
ENDBRANCH  12  14
ENDBRANCH   9  12
ENDBRANCH   1   7
TORSDOF 5
