REMARK  4 active torsions:
REMARK  status: ('A' for Active; 'I' for Inactive)
REMARK    1  A    between atoms: N1_2  and  N2_4 
REMARK    2  A    between atoms: C2_6  and  C3_7 
REMARK    3  A    between atoms: C4_8  and  C5_9 
REMARK    4  A    between atoms: C7_14  and  C9_16 
REMARK       I    between atoms: N3_19  and  C10_20 
ROOT
HETATM    1  C3  UNL     1      -0.036   0.775  -0.147  1.00  0.00     0.152 C 
HETATM    2  C4  UNL     1      -0.705   1.950   0.554  1.00  0.00     0.176 C 
HETATM    3  S1  UNL     1      -2.391   1.947  -0.200  1.00  0.00    -0.148 SA
HETATM    4  C6  UNL     1      -2.508   0.487  -1.294  1.00  0.00     0.117 C 
HETATM    5  C7  UNL     1      -1.923  -0.739  -0.596  1.00  0.00     0.129 C 
HETATM    6  C8  UNL     1      -3.060  -1.351   0.219  1.00  0.00     0.051 C 
HETATM    7  N3  UNL     1      -0.786  -0.399   0.212  1.00  0.00    -0.321 N 
HETATM    8  C10 UNL     1      -0.462  -1.223   1.317  1.00  0.00     0.217 C 
HETATM    9  C11 UNL     1       0.638  -0.979   2.262  1.00  0.00     0.117 C 
HETATM   10  O5  UNL     1      -1.121  -2.278   1.591  1.00  0.00    -0.274 OA
ENDROOT
BRANCH   1  11
HETATM   11  C2  UNL     1       1.394   0.753   0.075  1.00  0.00     0.106 C 
HETATM   12  N2  UNL     1       2.248   0.073  -0.608  1.00  0.00    -0.318 N 
ATOM     13  H2  UNL     1       1.897  -0.503  -1.373  1.00  0.00     0.185 HD
BRANCH  12  14
HETATM   14  N1  UNL     1       3.617   0.074  -0.369  1.00  0.00    -0.341 N 
HETATM   15  C1  UNL     1       4.314  -1.217  -0.333  1.00  0.00     0.167 C 
ATOM     16  H1  UNL     1       4.123   0.947  -0.223  1.00  0.00     0.179 HD
ENDBRANCH  12  14
ENDBRANCH   1  11
BRANCH   2  17
HETATM   17  C5  UNL     1       0.035   3.172   0.213  1.00  0.00     0.189 C 
HETATM   18  O1  UNL     1       1.037   3.199  -0.546  1.00  0.00    -0.647 OA
HETATM   19  O2  UNL     1      -0.368   4.410   0.747  1.00  0.00    -0.647 OA
ENDBRANCH   2  17
BRANCH   5  20
HETATM   20  C9  UNL     1      -1.608  -1.709  -1.661  1.00  0.00     0.203 C 
HETATM   21  O3  UNL     1      -2.546  -2.061  -2.416  1.00  0.00    -0.646 OA
HETATM   22  O4  UNL     1      -0.360  -2.259  -1.893  1.00  0.00    -0.646 OA
ENDBRANCH   5  20
TORSDOF 4
