REMARK  3 active torsions:
REMARK  status: ('A' for Active; 'I' for Inactive)
REMARK    1  A    between atoms: C2_2  and  N1_3 
REMARK    2  A    between atoms: C2_2  and  C12_18 
REMARK       I    between atoms: N1_3  and  C3_5 
REMARK    3  A    between atoms: C3_5  and  C4_7 
REMARK       I    between atoms: C12_18  and  N3_20 
REMARK       I    between atoms: N3_20  and  C13_22 
ROOT
HETATM    1  N1  UNL     1       1.117  -0.802   0.416  1.00  0.00    -0.348 N 
ATOM      2  H1  UNL     1       0.875  -1.183   1.331  1.00  0.00     0.163 HD
HETATM    3  C3  UNL     1       0.112  -0.421  -0.496  1.00  0.00     0.225 C 
HETATM    4  O1  UNL     1       0.396   0.057  -1.644  1.00  0.00    -0.273 OA
ENDROOT
BRANCH   3   5
HETATM    5  C4  UNL     1      -1.300  -0.566  -0.144  1.00  0.00     0.115 C 
HETATM    6  C5  UNL     1      -1.702   0.213   1.103  1.00  0.00     0.054 C 
HETATM    7  C6  UNL     1      -3.192   0.346   0.894  1.00  0.00     0.120 C 
HETATM    8  C7  UNL     1      -3.592   1.754   1.271  1.00  0.00     0.046 C 
HETATM    9  C8  UNL     1      -3.947  -0.583   1.842  1.00  0.00     0.046 C 
HETATM   10  N2  UNL     1      -3.490  -0.003  -0.460  1.00  0.00    -0.058 N 
HETATM   11  C9  UNL     1      -2.246  -0.050  -1.208  1.00  0.00     0.131 C 
ATOM     12  H22 UNL     1      -4.024  -0.869  -0.533  1.00  0.00     0.279 HD
ATOM     13  H21 UNL     1      -4.178   0.620  -0.883  1.00  0.00     0.279 HD
HETATM   14  C10 UNL     1      -2.276  -1.045  -2.338  1.00  0.00     0.046 C 
HETATM   15  C11 UNL     1      -1.859   1.292  -1.748  1.00  0.00     0.046 C 
ENDBRANCH   3   5
BRANCH   1  16
HETATM   16  C2  UNL     1       2.509  -0.639   0.021  1.00  0.00     0.173 C 
HETATM   17  C1  UNL     1       3.085  -2.058   0.064  1.00  0.00     0.042 C 
BRANCH  16  18
HETATM   18  C12 UNL     1       3.242   0.233   0.950  1.00  0.00     0.247 C 
HETATM   19  O2  UNL     1       2.610   0.617   1.994  1.00  0.00    -0.271 OA
HETATM   20  N3  UNL     1       4.568   0.681   0.796  1.00  0.00    -0.280 N 
HETATM   21  C13 UNL     1       5.423   0.424  -0.297  1.00  0.00     0.335 C 
ATOM     22  H3  UNL     1       4.950   1.250   1.552  1.00  0.00     0.173 HD
HETATM   23  N4  UNL     1       6.754   0.952  -0.319  1.00  0.00    -0.040 NA
HETATM   24  O3  UNL     1       5.097  -0.256  -1.288  1.00  0.00    -0.251 OA
ENDBRANCH  16  18
ENDBRANCH   1  16
TORSDOF 3
