REMARK  3 active torsions:
REMARK  status: ('A' for Active; 'I' for Inactive)
REMARK    1  A    between atoms: C1_2  and  C2_4 
REMARK    2  A    between atoms: C2_4  and  C3_5 
REMARK       I    between atoms: C3_5  and  N1_7 
REMARK    3  A    between atoms: N1_7  and  N2_9 
ROOT
HETATM    1  C3  UNL     1       0.004  -1.318  -0.110  1.00  0.00     0.261 C 
HETATM    2  O3  UNL     1       0.055  -2.504  -0.438  1.00  0.00    -0.270 OA
HETATM    3  N1  UNL     1       1.135  -0.601   0.320  1.00  0.00    -0.266 N 
ATOM      4  H1  UNL     1       1.028   0.380   0.578  1.00  0.00     0.190 HD
ENDROOT
BRANCH   1   5
HETATM    5  C2  UNL     1      -1.304  -0.594  -0.165  1.00  0.00     0.166 C 
HETATM    6  C6  UNL     1      -1.265   0.559  -1.085  1.00  0.00     0.091 C 
HETATM    7  N5  UNL     1      -1.999   1.683  -0.695  1.00  0.00    -0.380 N 
HETATM    8  C7  UNL     1      -3.103   1.422   0.133  1.00  0.00     0.065 C 
ATOM      9  H5  UNL     1      -1.750   2.627  -0.991  1.00  0.00     0.164 HD
HETATM   10  C8  UNL     1      -2.730   0.723   1.421  1.00  0.00     0.031 A 
HETATM   11  C9  UNL     1      -1.352   1.032   1.898  1.00  0.00     0.017 A 
HETATM   12  C10 UNL     1      -1.657  -0.264   1.254  1.00  0.00     0.029 A 
BRANCH   5  13
HETATM   13  C1  UNL     1      -2.299  -1.608  -0.677  1.00  0.00     0.197 C 
HETATM   14  O1  UNL     1      -2.842  -1.397  -1.758  1.00  0.00    -0.647 OA
HETATM   15  O2  UNL     1      -2.577  -2.743   0.075  1.00  0.00    -0.647 OA
ENDBRANCH   5  13
ENDBRANCH   1   5
BRANCH   3  16
HETATM   16  N2  UNL     1       2.420  -1.197   0.407  1.00  0.00    -0.261 N 
HETATM   17  C4  UNL     1       3.391  -0.539  -0.129  1.00  0.00     0.261 A 
HETATM   18  N3  UNL     1       4.671  -0.965  -0.134  1.00  0.00    -0.261 N 
HETATM   19  O4  UNL     1       3.380   0.612  -0.753  1.00  0.00    -0.248 OA
HETATM   20  N4  UNL     1       5.403  -0.055  -0.763  1.00  0.00    -0.267 N 
ATOM     21  H3  UNL     1       5.015  -1.834   0.274  1.00  0.00     0.190 HD
HETATM   22  C5  UNL     1       4.586   0.940  -1.153  1.00  0.00     0.237 A 
ATOM     23  H4  UNL     1       6.409  -0.102  -0.923  1.00  0.00     0.190 HD
HETATM   24  S1  UNL     1       4.917   2.311  -1.959  1.00  0.00    -0.031 SA
ATOM     25  H2  UNL     1       2.567  -2.095   0.867  1.00  0.00     0.190 HD
ENDBRANCH   3  16
TORSDOF 3
