REMARK  3 active torsions:
REMARK  status: ('A' for Active; 'I' for Inactive)
REMARK       I    between atoms: N1_2  and  C2_4 
REMARK       I    between atoms: C2_4  and  N2_6 
REMARK    1  A    between atoms: N2_6  and  N3_8 
REMARK    2  A    between atoms: N4_17  and  N5_19 
REMARK       I    between atoms: N5_19  and  C10_21 
REMARK    3  A    between atoms: C10_21  and  C11_23 
ROOT
HETATM    1  N3  UNL     1       2.802  -0.880  -0.401  1.00  0.00    -0.285 N 
ATOM      2  H3  UNL     1       3.354  -1.621  -0.834  1.00  0.00     0.188 HD
HETATM    3  C3  UNL     1       1.512  -1.024  -0.306  1.00  0.00     0.097 C 
HETATM    4  C4  UNL     1       0.987  -2.302  -0.863  1.00  0.00     0.082 C 
HETATM    5  C5  UNL     1       0.090  -2.889   0.234  1.00  0.00    -0.011 C 
HETATM    6  C6  UNL     1       0.052  -4.386  -0.019  1.00  0.00     0.010 C 
HETATM    7  C7  UNL     1      -1.290  -2.367   0.177  1.00  0.00     0.012 C 
HETATM    8  C8  UNL     1      -1.559  -1.111   0.917  1.00  0.00     0.078 C 
HETATM    9  C9  UNL     1      -0.593  -0.032   0.732  1.00  0.00     0.097 C 
HETATM   10  N4  UNL     1      -1.062   1.139   1.021  1.00  0.00    -0.286 N 
ATOM     11  H4  UNL     1      -0.452   1.950   0.919  1.00  0.00     0.188 HD
HETATM   12  N7  UNL     1       0.762   0.022   0.301  1.00  0.00    -0.333 N 
ATOM     13  H7  UNL     1       1.249   0.907   0.443  1.00  0.00     0.168 HD
ENDROOT
BRANCH   1  14
HETATM   14  N2  UNL     1       3.445   0.253   0.070  1.00  0.00    -0.250 N 
HETATM   15  C2  UNL     1       3.668   1.416  -0.693  1.00  0.00     0.334 C 
HETATM   16  N1  UNL     1       4.336   2.543  -0.146  1.00  0.00    -0.346 N 
HETATM   17  O1  UNL     1       3.266   1.449  -1.880  1.00  0.00    -0.246 OA
HETATM   18  C1  UNL     1       4.560   3.732  -0.936  1.00  0.00     0.151 C 
ATOM     19  H1  UNL     1       4.663   2.513   0.820  1.00  0.00     0.163 HD
ATOM     20  H2  UNL     1       3.779   0.245   1.034  1.00  0.00     0.192 HD
ENDBRANCH   1  14
BRANCH  10  21
HETATM   21  N5  UNL     1      -2.380   1.338   1.470  1.00  0.00    -0.261 N 
HETATM   22  C10 UNL     1      -3.407   1.820   0.634  1.00  0.00     0.325 C 
HETATM   23  O2  UNL     1      -3.185   2.103  -0.591  1.00  0.00    -0.261 OA
ATOM     24  H5  UNL     1      -2.602   1.124   2.442  1.00  0.00     0.190 HD
BRANCH  22  25
HETATM   25  C11 UNL     1      -4.750   2.010   1.140  1.00  0.00     0.324 C 
HETATM   26  N6  UNL     1      -5.801   2.502   0.289  1.00  0.00    -0.053 NA
HETATM   27  O3  UNL     1      -4.983   1.735   2.345  1.00  0.00    -0.266 OA
ENDBRANCH  22  25
ENDBRANCH  10  21
TORSDOF 3
