REMARK  7 active torsions:
REMARK  status: ('A' for Active; 'I' for Inactive)
REMARK    1  A    between atoms: C2_2  and  O1_3 
REMARK    2  A    between atoms: C2_2  and  C3_5 
REMARK    3  A    between atoms: C2_2  and  C4_7 
REMARK    4  A    between atoms: C4_7  and  O3_9 
REMARK    5  A    between atoms: O3_9  and  C5_10 
REMARK    6  A    between atoms: C9_16  and  C10_18 
REMARK    7  A    between atoms: C15_25  and  C17_27 
ROOT
HETATM    1  C5  UNL     1       0.680  -0.531  -0.086  1.00  0.00     0.299 C 
HETATM    2  O4  UNL     1       0.082  -1.027   1.070  1.00  0.00    -0.355 OA
HETATM    3  C6  UNL     1      -0.677  -2.113   0.701  1.00  0.00     0.211 C 
HETATM    4  C7  UNL     1      -2.078  -1.753   0.280  1.00  0.00     0.109 C 
HETATM    5  C8  UNL     1      -2.850  -3.055   0.183  1.00  0.00     0.051 C 
HETATM    6  O5  UNL     1      -2.707  -0.938   1.189  1.00  0.00    -0.332 OA
HETATM    7  C9  UNL     1      -3.405   0.037   0.479  1.00  0.00     0.233 C 
HETATM    8  F1  UNL     1      -4.548  -0.630  -0.001  1.00  0.00    -0.206 F 
HETATM    9  C12 UNL     1      -2.562   0.321  -0.691  1.00  0.00     0.107 C 
HETATM   10  C13 UNL     1      -2.140  -1.106  -1.075  1.00  0.00     0.169 C 
HETATM   11  O6  UNL     1      -0.949  -0.955  -1.704  1.00  0.00    -0.371 OA
HETATM   12  C14 UNL     1      -0.263   0.078  -1.059  1.00  0.00     0.193 C 
HETATM   13  C15 UNL     1      -1.285   1.026  -0.514  1.00  0.00     0.052 C 
HETATM   14  C16 UNL     1      -0.992   1.568   0.837  1.00  0.00     0.026 C 
ENDROOT
BRANCH   1  15
HETATM   15  O3  UNL     1       1.805   0.275   0.189  1.00  0.00    -0.285 OA
BRANCH  15  16
HETATM   16  C4  UNL     1       3.091  -0.115  -0.150  1.00  0.00     0.296 C 
HETATM   17  O2  UNL     1       3.226  -1.235  -0.724  1.00  0.00    -0.262 OA
BRANCH  16  18
HETATM   18  C2  UNL     1       4.302   0.669   0.105  1.00  0.00     0.150 C 
HETATM   19  C1  UNL     1       5.059   1.028  -1.141  1.00  0.00     0.057 C 
BRANCH  18  20
HETATM   20  O1  UNL     1       3.924   1.859   0.742  1.00  0.00    -0.379 OA
ATOM     21  H1  UNL     1       3.445   1.632   1.530  1.00  0.00     0.211 HD
ENDBRANCH  18  20
BRANCH  18  22
HETATM   22  C3  UNL     1       5.257  -0.039   1.037  1.00  0.00     0.134 C 
HETATM   23  S1  UNL     1       5.944  -1.538   0.339  1.00  0.00    -0.094 SA
ENDBRANCH  18  22
ENDBRANCH  16  18
ENDBRANCH  15  16
ENDBRANCH   1  15
BRANCH  13  24
HETATM   24  C17 UNL     1      -1.293   2.204  -1.438  1.00  0.00     0.243 C 
HETATM   25  O7  UNL     1      -2.341   2.669  -1.833  1.00  0.00    -0.306 OA
ENDBRANCH  13  24
BRANCH   7  26
HETATM   26  C10 UNL     1      -3.873   1.145   1.279  1.00  0.00     0.058 C 
HETATM   27  C11 UNL     1      -4.762   2.004   0.810  1.00  0.00     0.086 C 
HETATM   28 CL1  UNL     1      -5.341   3.367   1.789  1.00  0.00    -0.097 Cl
ENDBRANCH   7  26
TORSDOF 7
