REMARK  6 active torsions:
REMARK  status: ('A' for Active; 'I' for Inactive)
REMARK    1  A    between atoms: C2_3  and  O2_4 
REMARK    2  A    between atoms: N1_7  and  C4_8 
REMARK    3  A    between atoms: C9_13  and  N2_14 
REMARK    4  A    between atoms: N3_17  and  C12_18 
REMARK    5  A    between atoms: C12_18  and  C13_19 
REMARK    6  A    between atoms: C13_19  and  C14_20 
ROOT
HETATM    1  O1  UNL     1      -5.335  -0.420   3.435  1.00  0.00    -0.284 OA
HETATM    2  C1  UNL     1      -4.875   0.159   2.447  1.00  0.00     0.218 A 
HETATM    3  C2  UNL     1      -5.641   1.018   1.686  1.00  0.00     0.132 A 
HETATM    4  C3  UNL     1      -5.090   1.657   0.573  1.00  0.00     0.132 A 
HETATM    5  N1  UNL     1      -3.806   1.427   0.250  1.00  0.00    -0.348 N 
HETATM    6  C7  UNL     1      -3.039   0.594   0.977  1.00  0.00     0.051 A 
HETATM    7  C8  UNL     1      -1.713   0.383   0.610  1.00  0.00     0.063 A 
HETATM    8  C9  UNL     1      -0.868  -0.465   1.318  1.00  0.00     0.071 A 
HETATM    9  C17 UNL     1      -1.410  -1.098   2.417  1.00  0.00     0.143 A 
HETATM   10  F1  UNL     1      -0.617  -1.927   3.125  1.00  0.00    -0.204 F 
HETATM   11  C18 UNL     1      -2.728  -0.901   2.800  1.00  0.00     0.062 A 
HETATM   12  C19 UNL     1      -3.560  -0.059   2.093  1.00  0.00     0.047 A 
ENDROOT
BRANCH   8  13
HETATM   13  N2  UNL     1       0.464  -0.637   0.887  1.00  0.00    -0.375 N 
HETATM   14  C10 UNL     1       1.051  -1.884   0.456  1.00  0.00     0.153 C 
HETATM   15  C11 UNL     1       2.245  -1.589  -0.419  1.00  0.00     0.292 C 
HETATM   16  N3  UNL     1       3.232  -0.777   0.207  1.00  0.00     0.092 N 
HETATM   17  C15 UNL     1       2.701  -0.042   1.324  1.00  0.00     0.292 C 
HETATM   18  C16 UNL     1       1.342   0.515   0.868  1.00  0.00     0.153 C 
BRANCH  16  19
HETATM   19  C12 UNL     1       4.430  -1.457   0.596  1.00  0.00     0.280 C 
BRANCH  19  20
HETATM   20  C13 UNL     1       5.191  -1.888  -0.633  1.00  0.00     0.109 C 
BRANCH  20  21
HETATM   21  C14 UNL     1       5.533  -0.660  -1.431  1.00  0.00     0.114 A 
HETATM   22  N4  UNL     1       5.237   0.623  -1.150  1.00  0.00    -0.272 N 
HETATM   23  N5  UNL     1       5.743   1.359  -2.139  1.00  0.00    -0.227 N 
ATOM     24  H4  UNL     1       4.725   0.965  -0.337  1.00  0.00     0.190 HD
HETATM   25  N6  UNL     1       6.336   0.585  -3.015  1.00  0.00    -0.227 N 
ATOM     26  H5  UNL     1       5.678   2.375  -2.205  1.00  0.00     0.210 HD
HETATM   27  N7  UNL     1       6.207  -0.676  -2.575  1.00  0.00    -0.272 N 
ATOM     28  H6  UNL     1       6.806   0.884  -3.869  1.00  0.00     0.210 HD
ATOM     29  H7  UNL     1       6.567  -1.509  -3.042  1.00  0.00     0.190 HD
ENDBRANCH  20  21
ENDBRANCH  19  20
ENDBRANCH  16  19
ENDBRANCH   8  13
BRANCH   5  30
HETATM   30  C4  UNL     1      -3.183   2.063  -0.913  1.00  0.00     0.090 A 
HETATM   31  C5  UNL     1      -4.180   2.209  -2.091  1.00  0.00     0.028 A 
HETATM   32  C6  UNL     1      -3.098   1.230  -2.203  1.00  0.00     0.028 A 
ENDBRANCH   5  30
BRANCH   3  33
HETATM   33  O2  UNL     1      -6.951   1.238   2.035  1.00  0.00    -0.356 OA
ATOM     34  H2  UNL     1      -7.478   1.829   1.511  1.00  0.00     0.218 HD
ENDBRANCH   3  33
TORSDOF 6
