REMARK  8 active torsions:
REMARK  status: ('A' for Active; 'I' for Inactive)
REMARK    1  A    between atoms: O1_2  and  C2_3 
REMARK    2  A    between atoms: C2_3  and  C3_4 
REMARK    3  A    between atoms: C5_10  and  N3_11 
REMARK    4  A    between atoms: N3_11  and  C6_13 
REMARK    5  A    between atoms: C6_13  and  C7_14 
REMARK    6  A    between atoms: C7_14  and  O2_15 
REMARK    7  A    between atoms: C7_14  and  C8_17 
REMARK    8  A    between atoms: C15_28  and  C16_29 
ROOT
HETATM    1  C3  UNL     1       2.977   1.217   1.152  1.00  0.00     0.128 A 
HETATM    2  N1  UNL     1       1.773   1.746   0.903  1.00  0.00    -0.285 N 
ATOM      3  H1  UNL     1       1.446   2.654   1.233  1.00  0.00     0.188 HD
HETATM    4  N2  UNL     1       1.084   0.915   0.171  1.00  0.00    -0.281 N 
ATOM      5  H2  UNL     1       0.133   1.085  -0.155  1.00  0.00     0.188 HD
HETATM    6  C4  UNL     1       1.782  -0.179  -0.093  1.00  0.00     0.172 A 
HETATM    7  C5  UNL     1       1.489  -1.316  -0.810  1.00  0.00     0.148 A 
HETATM    8  N4  UNL     1       2.470  -2.260  -0.872  1.00  0.00    -0.341 N 
ATOM      9  H4  UNL     1       2.293  -3.118  -1.394  1.00  0.00     0.167 HD
HETATM   10  C15 UNL     1       3.656  -2.103  -0.274  1.00  0.00     0.031 A 
HETATM   11  C19 UNL     1       3.903  -0.946   0.434  1.00  0.00     0.125 A 
HETATM   12  N5  UNL     1       2.978   0.010   0.527  1.00  0.00    -0.288 N 
ENDROOT
BRANCH   7  13
HETATM   13  N3  UNL     1       0.403  -1.549  -1.405  1.00  0.00    -0.371 N 
ATOM     14  H3  UNL     1       0.372  -2.448  -1.886  1.00  0.00     0.161 HD
BRANCH  13  15
HETATM   15  C6  UNL     1      -0.780  -0.784  -1.524  1.00  0.00     0.154 C 
BRANCH  15  16
HETATM   16  C7  UNL     1      -1.793  -1.045  -0.441  1.00  0.00     0.148 C 
BRANCH  16  17
HETATM   17  O2  UNL     1      -2.129  -2.412  -0.514  1.00  0.00    -0.393 OA
ATOM     18  H2  UNL     1      -2.768  -2.577   0.169  1.00  0.00     0.210 HD
ENDBRANCH  16  17
BRANCH  16  19
HETATM   19  C8  UNL     1      -3.051  -0.247  -0.622  1.00  0.00     0.027 C 
HETATM   20  C9  UNL     1      -3.649  -0.645  -1.976  1.00  0.00     0.022 C 
HETATM   21  C10 UNL     1      -4.093  -0.689   0.410  1.00  0.00     0.185 C 
HETATM   22  O3  UNL     1      -5.258   0.040   0.076  1.00  0.00    -0.355 OA
HETATM   23  C11 UNL     1      -5.074   1.383   0.286  1.00  0.00     0.156 C 
HETATM   24  C12 UNL     1      -5.733   2.233  -0.803  1.00  0.00     0.078 C 
HETATM   25  C13 UNL     1      -5.805   1.731   1.591  1.00  0.00     0.078 C 
HETATM   26  O4  UNL     1      -3.775   1.783   0.441  1.00  0.00    -0.355 OA
HETATM   27  C14 UNL     1      -2.890   1.226  -0.478  1.00  0.00     0.185 C 
ENDBRANCH  16  19
ENDBRANCH  15  16
ENDBRANCH  13  15
ENDBRANCH   7  13
BRANCH  10  28
HETATM   28  C16 UNL     1       4.739  -3.119  -0.329  1.00  0.00     0.037 A 
HETATM   29  C17 UNL     1       5.503  -3.298   0.934  1.00  0.00     0.011 A 
HETATM   30  C18 UNL     1       6.162  -2.714  -0.281  1.00  0.00     0.011 A 
ENDBRANCH  10  28
BRANCH   1  31
HETATM   31  C2  UNL     1       4.081   1.798   1.935  1.00  0.00     0.245 C 
BRANCH  31  32
HETATM   32  O1  UNL     1       4.023   3.162   2.035  1.00  0.00    -0.389 OA
HETATM   33  C1  UNL     1       4.101   3.868   0.869  1.00  0.00     0.202 C 
ENDBRANCH  31  32
ENDBRANCH   1  31
TORSDOF 8
