REMARK  7 active torsions:
REMARK  status: ('A' for Active; 'I' for Inactive)
REMARK    1  A    between atoms: C4_5  and  S2_6 
REMARK    2  A    between atoms: S2_6  and  C5_7 
REMARK    3  A    between atoms: C5_7  and  C6_8 
REMARK    4  A    between atoms: C6_8  and  O1_9 
REMARK    5  A    between atoms: C6_8  and  C7_11 
REMARK    6  A    between atoms: C7_11  and  N1_12 
REMARK    7  A    between atoms: N4_23  and  C12_24 
ROOT
HETATM    1  N1  UNL     1      -1.213   1.150  -0.179  1.00  0.00    -0.325 N 
HETATM    2  C8  UNL     1      -0.699   2.348   0.274  1.00  0.00     0.185 A 
HETATM    3  N2  UNL     1      -1.672   3.224   0.409  1.00  0.00    -0.345 N 
ATOM      4  H2  UNL     1      -1.558   4.185   0.730  1.00  0.00     0.167 HD
HETATM    5  C9  UNL     1      -2.817   2.667   0.065  1.00  0.00     0.147 A 
HETATM    6  C10 UNL     1      -4.112   3.105  -0.023  1.00  0.00     0.280 A 
HETATM    7  O2  UNL     1      -4.371   4.286   0.318  1.00  0.00    -0.265 OA
HETATM    8  N3  UNL     1      -5.080   2.286  -0.463  1.00  0.00    -0.273 N 
ATOM      9  H3  UNL     1      -6.039   2.629  -0.521  1.00  0.00     0.173 HD
HETATM   10  C11 UNL     1      -4.808   1.018  -0.830  1.00  0.00     0.331 A 
HETATM   11  O3  UNL     1      -5.808   0.336  -1.240  1.00  0.00    -0.246 OA
HETATM   12  N4  UNL     1      -3.548   0.552  -0.754  1.00  0.00    -0.278 N 
HETATM   13  C15 UNL     1      -2.526   1.349  -0.310  1.00  0.00     0.148 A 
ENDROOT
BRANCH   1  14
HETATM   14  C7  UNL     1      -0.405   0.019  -0.331  1.00  0.00     0.164 C 
BRANCH  14  15
HETATM   15  C6  UNL     1      -0.010  -0.619   1.003  1.00  0.00     0.145 C 
BRANCH  15  16
HETATM   16  C5  UNL     1       0.819  -1.839   0.850  1.00  0.00     0.108 C 
BRANCH  16  17
HETATM   17  S2  UNL     1       2.155  -1.708  -0.336  1.00  0.00    -0.149 SA
BRANCH  17  18
HETATM   18  C4  UNL     1       3.433  -0.553   0.173  1.00  0.00     0.131 C 
HETATM   19  S1  UNL     1       4.321  -1.166   1.660  1.00  0.00    -0.147 SA
HETATM   20  C3  UNL     1       6.041  -0.890   1.065  1.00  0.00     0.110 C 
HETATM   21  C2  UNL     1       5.754   0.006  -0.082  1.00  0.00    -0.060 C 
HETATM   22  C1  UNL     1       6.428   1.091  -0.399  1.00  0.00     0.016 C 
HETATM   23  C16 UNL     1       4.580  -0.518  -0.815  1.00  0.00     0.134 C 
HETATM   24 CL1  UNL     1       4.212   0.470  -2.228  1.00  0.00    -0.118 Cl
ENDBRANCH  17  18
ENDBRANCH  16  17
ENDBRANCH  15  16
BRANCH  15  25
HETATM   25  O1  UNL     1      -0.991  -0.796   1.911  1.00  0.00    -0.393 OA
ATOM     26  H1  UNL     1      -1.522  -0.014   2.009  1.00  0.00     0.210 HD
ENDBRANCH  15  25
ENDBRANCH  14  15
ENDBRANCH   1  14
BRANCH  12  27
HETATM   27  C12 UNL     1      -3.279  -0.771  -1.186  1.00  0.00     0.096 A 
HETATM   28  C13 UNL     1      -3.274  -2.013  -0.419  1.00  0.00     0.028 A 
HETATM   29  C14 UNL     1      -4.446  -1.759  -1.277  1.00  0.00     0.028 A 
ENDBRANCH  12  27
TORSDOF 7
