REMARK  6 active torsions:
REMARK  status: ('A' for Active; 'I' for Inactive)
REMARK    1  A    between atoms: C2_2  and  C3_3 
REMARK    2  A    between atoms: C3_3  and  C5_5 
REMARK    3  A    between atoms: C6_9  and  O1_10 
REMARK    4  A    between atoms: C14_19  and  O2_20 
REMARK    5  A    between atoms: O2_20  and  C15_21 
REMARK    6  A    between atoms: C19_26  and  O4_27 
ROOT
HETATM    1  C5  UNL     1      -2.362   0.678  -0.570  1.00  0.00     0.204 C 
HETATM    2  N1  UNL     1      -3.527   0.654   0.335  1.00  0.00    -0.043 N 
ATOM      3  H11 UNL     1      -4.247  -0.006   0.039  1.00  0.00     0.280 HD
ATOM      4  H12 UNL     1      -4.092   1.502   0.279  1.00  0.00     0.280 HD
HETATM    5  C6  UNL     1      -3.039   0.393   1.661  1.00  0.00     0.324 C 
HETATM    6  C7  UNL     1      -1.725  -0.269   1.435  1.00  0.00     0.055 C 
HETATM    7  C8  UNL     1      -0.876  -0.172   2.644  1.00  0.00     0.010 C 
HETATM    8  C9  UNL     1       0.565   0.030   2.342  1.00  0.00     0.009 C 
HETATM    9  C10 UNL     1       0.965  -0.497   0.961  1.00  0.00     0.031 C 
HETATM   10  C11 UNL     1       2.419  -0.240   0.822  1.00  0.00    -0.014 C 
HETATM   11  C12 UNL     1       2.946   0.804   1.831  1.00  0.00     0.018 C 
HETATM   12  C13 UNL     1       3.253  -1.484   1.226  1.00  0.00     0.018 C 
HETATM   13  C14 UNL     1       2.963   0.177  -0.490  1.00  0.00     0.140 C 
HETATM   14  C17 UNL     1       2.036  -0.188  -1.616  1.00  0.00     0.036 C 
HETATM   15  C18 UNL     1       0.764   0.602  -1.256  1.00  0.00     0.041 C 
HETATM   16  C19 UNL     1       0.052  -0.139  -0.151  1.00  0.00     0.072 C 
HETATM   17  C20 UNL     1      -1.215   0.556   0.239  1.00  0.00     0.024 C 
HETATM   18  C21 UNL     1      -0.884   1.950   0.843  1.00  0.00     0.021 C 
ENDROOT
BRANCH   1  19
HETATM   19  C3  UNL     1      -2.754   0.056  -1.829  1.00  0.00     0.013 C 
HETATM   20  C4  UNL     1      -3.260  -1.373  -1.724  1.00  0.00     0.012 C 
BRANCH  19  21
HETATM   21  C2  UNL     1      -3.858   0.795  -2.562  1.00  0.00     0.002 C 
HETATM   22  C1  UNL     1      -5.195   0.845  -1.970  1.00  0.00     0.005 C 
ENDBRANCH  19  21
ENDBRANCH   1  19
BRANCH   5  23
HETATM   23  O1  UNL     1      -3.848  -0.531   2.361  1.00  0.00    -0.369 OA
ATOM     24  H1  UNL     1      -3.525  -0.704   3.238  1.00  0.00     0.212 HD
ENDBRANCH   5  23
BRANCH  16  25
HETATM   25  O4  UNL     1      -0.384  -1.344  -0.745  1.00  0.00    -0.389 OA
ATOM     26  H4  UNL     1      -0.969  -1.115  -1.458  1.00  0.00     0.210 HD
ENDBRANCH  16  25
BRANCH  13  27
HETATM   27  O2  UNL     1       4.280  -0.229  -0.654  1.00  0.00    -0.316 OA
BRANCH  27  28
HETATM   28  C15 UNL     1       5.375   0.571  -0.819  1.00  0.00     0.255 C 
HETATM   29  C16 UNL     1       6.764   0.038  -0.989  1.00  0.00     0.126 C 
HETATM   30  O3  UNL     1       5.215   1.793  -0.829  1.00  0.00    -0.266 OA
ENDBRANCH  27  28
ENDBRANCH  13  27
TORSDOF 6
