REMARK  6 active torsions:
REMARK  status: ('A' for Active; 'I' for Inactive)
REMARK       I    between atoms: C1_4  and  N3_6 
REMARK    1  A    between atoms: C3_10  and  C4_11 
REMARK    2  A    between atoms: C7_14  and  N5_15 
REMARK    3  A    between atoms: N5_15  and  C8_17 
REMARK    4  A    between atoms: C8_17  and  N6_19 
REMARK    5  A    between atoms: N6_19  and  N7_21 
REMARK    6  A    between atoms: C9_23  and  C10_24 
ROOT
HETATM    1  C4  UNL     1       2.180  -0.347   0.534  1.00  0.00    -0.008 A 
HETATM    2  C5  UNL     1       1.614  -0.936   1.639  1.00  0.00     0.016 A 
HETATM    3  C6  UNL     1       0.260  -1.319   1.668  1.00  0.00     0.030 A 
HETATM    4  C7  UNL     1      -0.554  -1.116   0.588  1.00  0.00     0.034 A 
HETATM    5  C14 UNL     1       0.047  -0.510  -0.535  1.00  0.00     0.030 A 
HETATM    6  C15 UNL     1       1.369  -0.138  -0.559  1.00  0.00     0.016 A 
ENDROOT
BRANCH   4   7
HETATM    7  N5  UNL     1      -1.928  -1.425   0.516  1.00  0.00    -0.332 N 
ATOM      8  H5  UNL     1      -2.285  -1.673  -0.407  1.00  0.00     0.168 HD
BRANCH   7   9
HETATM    9  C8  UNL     1      -2.859  -1.432   1.560  1.00  0.00     0.191 C 
HETATM   10  S1  UNL     1      -2.440  -0.995   3.072  1.00  0.00    -0.039 SA
BRANCH   9  11
HETATM   11  N6  UNL     1      -4.239  -1.800   1.296  1.00  0.00    -0.276 N 
ATOM     12  H6  UNL     1      -4.934  -1.812   2.042  1.00  0.00     0.189 HD
BRANCH  11  13
HETATM   13  N7  UNL     1      -4.576  -2.132   0.004  1.00  0.00    -0.308 N 
HETATM   14  C9  UNL     1      -5.261  -1.539  -0.850  1.00  0.00     0.126 C 
ATOM     15  H7  UNL     1      -4.196  -3.025  -0.311  1.00  0.00     0.186 HD
BRANCH  14  16
HETATM   16  C10 UNL     1      -5.947  -0.248  -0.731  1.00  0.00     0.021 A 
HETATM   17  C11 UNL     1      -6.018   0.624   0.316  1.00  0.00     0.021 A 
HETATM   18  C12 UNL     1      -6.723   1.749   0.155  1.00  0.00     0.008 A 
HETATM   19  C13 UNL     1      -7.330   1.952  -1.051  1.00  0.00     0.050 A 
HETATM   20  S2  UNL     1      -6.897   0.561  -1.933  1.00  0.00    -0.101 SA
ENDBRANCH  14  16
ENDBRANCH  11  13
ENDBRANCH   9  11
ENDBRANCH   7   9
ENDBRANCH   4   7
BRANCH   1  21
HETATM   21  C3  UNL     1       3.594   0.051   0.512  1.00  0.00     0.059 A 
HETATM   22  N4  UNL     1       4.454  -0.114   1.533  1.00  0.00    -0.350 N 
HETATM   23  C2  UNL     1       5.673   0.346   1.214  1.00  0.00     0.191 A 
ATOM     24  H4  UNL     1       4.211  -0.533   2.431  1.00  0.00     0.166 HD
HETATM   25  N3  UNL     1       5.577   0.814  -0.043  1.00  0.00    -0.291 N 
HETATM   26  C1  UNL     1       6.629   1.390  -0.773  1.00  0.00     0.193 C 
HETATM   27  C16 UNL     1       4.305   0.640  -0.489  1.00  0.00     0.130 A 
HETATM   28  N1  UNL     1       6.397   2.459  -1.455  1.00  0.00    -0.373 N 
HETATM   29  N2  UNL     1       7.910   0.813  -0.761  1.00  0.00    -0.063 NA
ATOM     30  H12 UNL     1       7.161   2.877  -1.985  1.00  0.00     0.158 HD
ATOM     31  H11 UNL     1       5.467   2.878  -1.464  1.00  0.00     0.158 HD
ENDBRANCH   1  21
TORSDOF 6
