REMARK  5 active torsions:
REMARK  status: ('A' for Active; 'I' for Inactive)
REMARK    1  A    between atoms: N1_2  and  C2_5 
REMARK    2  A    between atoms: C2_5  and  O1_6 
REMARK    3  A    between atoms: C2_5  and  C3_8 
REMARK    4  A    between atoms: C4_9  and  N2_10 
REMARK       I    between atoms: N2_10  and  C5_12 
REMARK    5  A    between atoms: C5_12  and  C6_14 
ROOT
HETATM    1  C3  UNL     1      -0.848   0.203  -0.194  1.00  0.00     0.041 A 
HETATM    2  C4  UNL     1       0.039  -0.056   0.817  1.00  0.00     0.089 A 
HETATM    3  S1  UNL     1      -1.043  -0.228   2.200  1.00  0.00    -0.054 SA
HETATM    4  C12 UNL     1      -2.519   0.021   1.418  1.00  0.00     0.080 A 
HETATM    5  C13 UNL     1      -2.163   0.241   0.094  1.00  0.00    -0.001 A 
HETATM    6  C14 UNL     1      -3.149   0.447  -1.092  1.00  0.00     0.122 C 
HETATM    7  C15 UNL     1      -4.401  -0.066  -0.627  1.00  0.00    -0.178 C 
HETATM    8  C16 UNL     1      -5.699  -0.466  -0.489  1.00  0.00     0.081 C 
HETATM    9  C17 UNL     1      -5.885  -0.797   1.035  1.00  0.00     0.031 C 
HETATM   10  C18 UNL     1      -5.153   0.105   1.954  1.00  0.00     0.121 C 
HETATM   11  N3  UNL     1      -3.755  -0.061   2.204  1.00  0.00    -0.384 N 
ATOM     12  H3  UNL     1      -3.570  -0.297   3.179  1.00  0.00     0.160 HD
ENDROOT
BRANCH   2  13
HETATM   13  N2  UNL     1       1.415  -0.398   0.903  1.00  0.00    -0.320 N 
HETATM   14  C5  UNL     1       2.328  -0.968   0.039  1.00  0.00     0.227 C 
HETATM   15  O2  UNL     1       2.192  -1.399  -1.128  1.00  0.00    -0.273 OA
ATOM     16  H2  UNL     1       1.821  -0.170   1.811  1.00  0.00     0.169 HD
BRANCH  14  17
HETATM   17  C6  UNL     1       3.762  -1.111   0.571  1.00  0.00     0.085 C 
HETATM   18  C7  UNL     1       4.632  -1.737  -0.465  1.00  0.00     0.015 C 
HETATM   19  C8  UNL     1       6.050  -1.712   0.046  1.00  0.00     0.008 C 
HETATM   20  C9  UNL     1       6.535  -0.275  -0.068  1.00  0.00     0.078 C 
HETATM   21  C10 UNL     1       5.524   0.651   0.506  1.00  0.00     0.127 C 
HETATM   22  O3  UNL     1       5.766   1.837   0.501  1.00  0.00    -0.298 OA
HETATM   23  C11 UNL     1       4.240   0.202   1.084  1.00  0.00     0.092 C 
ENDBRANCH  14  17
ENDBRANCH   2  13
BRANCH   1  24
HETATM   24  C2  UNL     1      -0.326   0.620  -1.574  1.00  0.00     0.356 C 
BRANCH  24  25
HETATM   25  N1  UNL     1      -1.104   1.698  -2.159  1.00  0.00    -0.049 N 
HETATM   26  C1  UNL     1      -0.558   2.149  -3.414  1.00  0.00     0.270 C 
ATOM     27  H12 UNL     1      -1.210   2.473  -1.504  1.00  0.00     0.280 HD
ATOM     28  H11 UNL     1      -2.084   1.433  -2.258  1.00  0.00     0.280 HD
ENDBRANCH  24  25
BRANCH  24  29
HETATM   29  O1  UNL     1       0.926   1.297  -1.387  1.00  0.00    -0.366 OA
ATOM     30  H1  UNL     1       1.435   0.592  -1.004  1.00  0.00     0.212 HD
ENDBRANCH  24  29
ENDBRANCH   1  24
TORSDOF 5
