REMARK  7 active torsions:
REMARK  status: ('A' for Active; 'I' for Inactive)
REMARK    1  A    between atoms: N1_1  and  S1_4 
REMARK    2  A    between atoms: S1_4  and  C1_5 
REMARK    3  A    between atoms: C1_5  and  N2_6 
REMARK    4  A    between atoms: C1_5  and  N5_18 
REMARK    5  A    between atoms: N2_6  and  N3_8 
REMARK    6  A    between atoms: N4_10  and  C2_12 
REMARK    7  A    between atoms: N5_18  and  C8_20 
ROOT
HETATM    1  C1  UNL     1      -0.855   1.735  -0.799  1.00  0.00     0.181 C 
ENDROOT
BRANCH   1   2
HETATM    2  S1  UNL     1      -0.953   3.338  -1.196  1.00  0.00     0.017 SA
BRANCH   2   3
HETATM    3  N1  UNL     1      -2.320   4.339  -0.604  1.00  0.00    -0.367 N 
ATOM      4  H12 UNL     1      -3.033   3.901  -0.020  1.00  0.00     0.164 HD
ATOM      5  H11 UNL     1      -2.380   5.327  -0.849  1.00  0.00     0.164 HD
ENDBRANCH   2   3
ENDBRANCH   1   2
BRANCH   1   6
HETATM    6  N2  UNL     1       0.233   1.008  -1.289  1.00  0.00    -0.264 N 
ATOM      7  H2  UNL     1       0.306   0.016  -1.063  1.00  0.00     0.190 HD
BRANCH   6   8
HETATM    8  N3  UNL     1       1.238   1.605  -2.089  1.00  0.00    -0.240 N 
HETATM    9  N4  UNL     1       2.420   1.193  -1.920  1.00  0.00    -0.286 N 
ATOM     10  H4  UNL     1       3.174   1.596  -2.475  1.00  0.00     0.188 HD
ATOM     11  H3  UNL     1       1.018   2.333  -2.769  1.00  0.00     0.208 HD
BRANCH   9  12
HETATM   12  C2  UNL     1       2.721   0.172  -0.965  1.00  0.00     0.049 A 
HETATM   13  C3  UNL     1       2.973   0.473   0.362  1.00  0.00     0.031 A 
HETATM   14  C4  UNL     1       3.261  -0.526   1.268  1.00  0.00     0.002 A 
HETATM   15  C5  UNL     1       3.289  -1.823   0.802  1.00  0.00     0.000 A 
HETATM   16  C6  UNL     1       3.043  -2.151  -0.507  1.00  0.00     0.002 A 
HETATM   17  C7  UNL     1       2.757  -1.138  -1.397  1.00  0.00     0.031 A 
ENDBRANCH   9  12
ENDBRANCH   6   8
ENDBRANCH   1   6
BRANCH   1  18
HETATM   18  N5  UNL     1      -1.860   1.199   0.002  1.00  0.00    -0.334 N 
ATOM     19  H5  UNL     1      -2.606   1.843   0.266  1.00  0.00     0.168 HD
BRANCH  18  20
HETATM   20  C8  UNL     1      -1.985  -0.122   0.500  1.00  0.00     0.034 A 
HETATM   21  C9  UNL     1      -0.952  -0.841   1.036  1.00  0.00     0.029 A 
HETATM   22  C10 UNL     1      -1.080  -2.131   1.491  1.00  0.00     0.002 A 
HETATM   23  C11 UNL     1      -2.297  -2.757   1.416  1.00  0.00     0.000 A 
HETATM   24  C12 UNL     1      -3.349  -2.057   0.884  1.00  0.00     0.002 A 
HETATM   25  C13 UNL     1      -3.236  -0.767   0.425  1.00  0.00     0.029 A 
ENDBRANCH  18  20
ENDBRANCH   1  18
TORSDOF 7
