REMARK  3 active torsions:
REMARK  status: ('A' for Active; 'I' for Inactive)
REMARK       I    between atoms: C1_4  and  N2_5 
REMARK       I    between atoms: C1_4  and  N5_16 
REMARK    1  A    between atoms: N2_5  and  N3_7 
REMARK    2  A    between atoms: C2_9  and  C3_11 
REMARK    3  A    between atoms: N5_16  and  C7_18 
ROOT
HETATM    1  N1  UNL     1      -0.996  -0.154   2.166  1.00  0.00    -0.233 N 
ATOM      2  H11 UNL     1      -1.788   0.226   2.685  1.00  0.00     0.174 HD
ATOM      3  H12 UNL     1      -0.312  -0.757   2.623  1.00  0.00     0.174 HD
HETATM    4  C1  UNL     1      -0.837   0.116   0.924  1.00  0.00     0.691 C 
HETATM    5  N2  UNL     1       0.283  -0.422   0.190  1.00  0.00    -0.131 N 
ATOM      6  H2  UNL     1       0.169  -1.295  -0.325  1.00  0.00     0.205 HD
HETATM    7  N5  UNL     1      -1.790   0.957   0.287  1.00  0.00    -0.191 N 
ATOM      8  H5  UNL     1      -1.543   1.919   0.053  1.00  0.00     0.184 HD
ENDROOT
BRANCH   5   9
HETATM    9  N3  UNL     1       1.515   0.224   0.169  1.00  0.00    -0.272 N 
HETATM   10  C2  UNL     1       2.623  -0.413   0.134  1.00  0.00     0.148 C 
HETATM   11  N4  UNL     1       2.664  -1.822   0.114  1.00  0.00    -0.080 NA
ATOM     12  H3  UNL     1       1.535   1.244   0.182  1.00  0.00     0.189 HD
BRANCH  10  13
HETATM   13  C3  UNL     1       3.914   0.305   0.113  1.00  0.00     0.047 A 
HETATM   14  C4  UNL     1       5.171  -0.212   0.076  1.00  0.00     0.023 A 
HETATM   15  C5  UNL     1       6.200   0.648   0.063  1.00  0.00     0.009 A 
HETATM   16  C6  UNL     1       5.903   1.984   0.088  1.00  0.00     0.050 A 
HETATM   17  S1  UNL     1       4.203   2.000   0.129  1.00  0.00    -0.099 SA
ENDBRANCH  10  13
ENDBRANCH   5   9
BRANCH   7  18
HETATM   18  C7  UNL     1      -3.074   0.468  -0.023  1.00  0.00     0.049 A 
HETATM   19  C8  UNL     1      -4.024   1.253  -0.640  1.00  0.00     0.030 A 
HETATM   20  C9  UNL     1      -5.283   0.767  -0.942  1.00  0.00     0.002 A 
HETATM   21  C10 UNL     1      -5.626  -0.522  -0.633  1.00  0.00     0.000 A 
HETATM   22  C11 UNL     1      -4.691  -1.325  -0.015  1.00  0.00     0.002 A 
HETATM   23  C12 UNL     1      -3.425  -0.841   0.290  1.00  0.00     0.030 A 
ENDBRANCH   7  18
TORSDOF 3
