REMARK  3 active torsions:
REMARK  status: ('A' for Active; 'I' for Inactive)
REMARK    1  A    between atoms: O1_2  and  C2_3 
REMARK    2  A    between atoms: C3_4  and  C4_5 
REMARK    3  A    between atoms: C4_5  and  O2_6 
ROOT
HETATM    1  C2  UNL     1      -1.225   0.089  -0.175  1.00  0.00     0.168 C 
HETATM    2  C3  UNL     1      -0.101   0.933  -0.762  1.00  0.00     0.134 C 
HETATM    3  C5  UNL     1       1.070   0.212  -0.158  1.00  0.00     0.291 C 
HETATM    4  O3  UNL     1       1.549   0.857   0.984  1.00  0.00    -0.330 OA
HETATM    5  C6  UNL     1       2.768   0.182   1.216  1.00  0.00     0.200 C 
HETATM    6  C7  UNL     1       3.091  -0.498  -0.100  1.00  0.00     0.200 C 
HETATM    7  O4  UNL     1       2.181   0.165  -0.957  1.00  0.00    -0.330 OA
HETATM    8  O5  UNL     1       0.678  -1.066   0.155  1.00  0.00    -0.319 OA
HETATM    9  C8  UNL     1      -0.581  -1.286  -0.344  1.00  0.00     0.086 C 
HETATM   10  C9  UNL     1      -0.466  -1.664  -1.799  1.00  0.00     0.048 C 
HETATM   11  C10 UNL     1      -1.376  -2.300   0.424  1.00  0.00     0.048 C 
ENDROOT
BRANCH   2  12
HETATM   12  C4  UNL     1      -0.204   2.368  -0.309  1.00  0.00     0.179 C 
BRANCH  12  13
HETATM   13  O2  UNL     1       0.831   3.088  -0.864  1.00  0.00    -0.400 OA
ATOM     14  H2  UNL     1       0.766   3.992  -0.579  1.00  0.00     0.209 HD
ENDBRANCH  12  13
ENDBRANCH   2  12
BRANCH   1  15
HETATM   15  O1  UNL     1      -1.261   0.354   1.173  1.00  0.00    -0.387 OA
HETATM   16  C1  UNL     1      -2.497   0.713   1.652  1.00  0.00     0.202 C 
ENDBRANCH   1  15
TORSDOF 3
