REMARK  4 active torsions:
REMARK  status: ('A' for Active; 'I' for Inactive)
REMARK    1  A    between atoms: O1_2  and  C2_3 
REMARK    2  A    between atoms: C5_7  and  C7_10 
REMARK    3  A    between atoms: C7_10  and  O3_11 
REMARK    4  A    between atoms: C9_15  and  O5_16 
ROOT
HETATM    1  C2  UNL     1       1.850   0.051   0.021  1.00  0.00     0.154 C 
HETATM    2  C3  UNL     1       1.043   1.291   0.401  1.00  0.00     0.069 C 
HETATM    3  C4  UNL     1      -0.295   0.743   0.737  1.00  0.00     0.160 C 
HETATM    4  O2  UNL     1      -1.334   1.296  -0.028  1.00  0.00    -0.334 OA
HETATM    5  C5  UNL     1      -2.273   0.257   0.050  1.00  0.00     0.280 C 
HETATM    6  C6  UNL     1      -2.713   0.163   1.424  1.00  0.00     0.131 C 
HETATM    7  N1  UNL     1      -3.043   0.085   2.515  1.00  0.00    -0.191 NA
HETATM    8  O4  UNL     1      -1.579  -0.886  -0.331  1.00  0.00    -0.331 OA
HETATM    9  C8  UNL     1      -0.340  -0.699   0.278  1.00  0.00     0.186 C 
HETATM   10  C9  UNL     1       0.792  -0.746  -0.726  1.00  0.00     0.178 C 
ENDROOT
BRANCH   5  11
HETATM   11  C7  UNL     1      -3.449   0.503  -0.858  1.00  0.00     0.249 C 
BRANCH  11  12
HETATM   12  O3  UNL     1      -4.320  -0.574  -0.712  1.00  0.00    -0.394 OA
ATOM     13  H3  UNL     1      -5.062  -0.419  -1.285  1.00  0.00     0.209 HD
ENDBRANCH  11  12
ENDBRANCH   5  11
BRANCH  10  14
HETATM   14  O5  UNL     1       1.202  -2.059  -0.874  1.00  0.00    -0.390 OA
ATOM     15  H5  UNL     1       0.541  -2.557  -1.341  1.00  0.00     0.210 HD
ENDBRANCH  10  14
BRANCH   1  16
HETATM   16  O1  UNL     1       2.898   0.426  -0.783  1.00  0.00    -0.388 OA
HETATM   17  C1  UNL     1       4.071  -0.068  -0.164  1.00  0.00     0.202 C 
ENDBRANCH   1  16
TORSDOF 4
