REMARK  3 active torsions:
REMARK  status: ('A' for Active; 'I' for Inactive)
REMARK    1  A    between atoms: O1_1  and  C1_3 
REMARK    2  A    between atoms: C2_4  and  N1_5 
REMARK    3  A    between atoms: N3_13  and  C8_14 
ROOT
HETATM    1  C1  UNL     1      -0.096   0.699  -0.006  1.00  0.00     0.250 C 
HETATM    2  C2  UNL     1      -1.092   0.062   0.920  1.00  0.00     0.180 C 
HETATM    3  C6  UNL     1      -0.775  -1.377   0.816  1.00  0.00     0.021 C 
HETATM    4  C7  UNL     1       0.449  -1.497   0.325  1.00  0.00     0.089 C 
HETATM    5  N3  UNL     1       1.014  -0.231   0.078  1.00  0.00    -0.334 N 
ENDROOT
BRANCH   2   6
HETATM    6  N1  UNL     1      -2.463   0.342   0.473  1.00  0.00    -0.291 N 
HETATM    7  C3  UNL     1      -3.559  -0.214   1.016  1.00  0.00     0.112 A 
HETATM    8  C4  UNL     1      -4.653   0.287   0.340  1.00  0.00     0.037 A 
HETATM    9  C5  UNL     1      -4.186   1.159  -0.624  1.00  0.00     0.108 A 
HETATM   10  N2  UNL     1      -2.847   1.153  -0.497  1.00  0.00    -0.309 N 
ATOM     11  H2  UNL     1      -2.211   1.703  -1.074  1.00  0.00     0.186 HD
ENDBRANCH   2   6
BRANCH   1  12
HETATM   12  O1  UNL     1      -0.546   0.719  -1.326  1.00  0.00    -0.374 OA
ATOM     13  H1  UNL     1       0.084   1.122  -1.912  1.00  0.00     0.212 HD
ENDBRANCH   1  12
BRANCH   5  14
HETATM   14  C8  UNL     1       2.384   0.112  -0.067  1.00  0.00     0.251 C 
HETATM   15  C9  UNL     1       3.324  -1.064   0.066  1.00  0.00     0.224 C 
HETATM   16  O2  UNL     1       4.408  -0.693  -0.747  1.00  0.00    -0.363 OA
HETATM   17  C10 UNL     1       4.125   0.585  -1.218  1.00  0.00     0.340 C 
HETATM   18  O3  UNL     1       2.718   0.550  -1.370  1.00  0.00    -0.340 OA
ENDBRANCH   5  14
TORSDOF 3
