REMARK  3 active torsions:
REMARK  status: ('A' for Active; 'I' for Inactive)
REMARK    1  A    between atoms: O1_2  and  C2_3 
REMARK    2  A    between atoms: C3_4  and  C4_5 
REMARK    3  A    between atoms: C4_5  and  O2_6 
ROOT
HETATM    1  C2  UNL     1      -1.129  -0.707  -0.296  1.00  0.00     0.183 C 
HETATM    2  C3  UNL     1      -1.352   0.675  -0.833  1.00  0.00     0.177 C 
HETATM    3  O3  UNL     1      -0.096   1.213  -1.096  1.00  0.00    -0.372 OA
HETATM    4  C5  UNL     1       0.776   0.696  -0.172  1.00  0.00     0.166 C 
HETATM    5  C6  UNL     1       2.151   0.414  -0.715  1.00  0.00     0.097 C 
HETATM    6  C7  UNL     1       3.152   1.123   0.094  1.00  0.00     0.009 C 
HETATM    7  C8  UNL     1       3.479   0.332   1.095  1.00  0.00     0.134 C 
HETATM    8  O4  UNL     1       2.766  -0.874   1.022  1.00  0.00    -0.332 OA
HETATM    9  C9  UNL     1       2.354  -1.030  -0.351  1.00  0.00     0.276 C 
HETATM   10  O5  UNL     1       1.105  -1.593  -0.443  1.00  0.00    -0.350 OA
HETATM   11  C10 UNL     1       0.291  -0.667   0.219  1.00  0.00     0.186 C 
ENDROOT
BRANCH   2  12
HETATM   12  C4  UNL     1      -2.117   1.500   0.176  1.00  0.00     0.198 C 
BRANCH  12  13
HETATM   13  O2  UNL     1      -2.322   2.795  -0.252  1.00  0.00    -0.398 OA
ATOM     14  H2  UNL     1      -2.803   3.314   0.382  1.00  0.00     0.209 HD
ENDBRANCH  12  13
ENDBRANCH   2  12
BRANCH   1  15
HETATM   15  O1  UNL     1      -1.963  -0.980   0.759  1.00  0.00    -0.385 OA
HETATM   16  C1  UNL     1      -2.709  -2.146   0.575  1.00  0.00     0.202 C 
ENDBRANCH   1  15
TORSDOF 3
