REMARK  4 active torsions:
REMARK  status: ('A' for Active; 'I' for Inactive)
REMARK    1  A    between atoms: O1_2  and  C2_3 
REMARK    2  A    between atoms: C3_4  and  C4_5 
REMARK    3  A    between atoms: C8_12  and  O5_13 
REMARK    4  A    between atoms: C9_15  and  O6_16 
ROOT
HETATM    1  C4  UNL     1       0.640  -1.251   0.508  1.00  0.00     0.183 C 
HETATM    2  O2  UNL     1      -0.304  -0.606   1.293  1.00  0.00    -0.319 OA
HETATM    3  C5  UNL     1      -1.308  -0.152   0.479  1.00  0.00     0.313 C 
HETATM    4  O3  UNL     1      -1.130   1.184   0.228  1.00  0.00    -0.329 OA
HETATM    5  C6  UNL     1      -2.322   1.843   0.534  1.00  0.00     0.200 C 
HETATM    6  C7  UNL     1      -3.293   0.688   0.393  1.00  0.00     0.200 C 
HETATM    7  O4  UNL     1      -2.570  -0.302   1.080  1.00  0.00    -0.329 OA
HETATM    8  C8  UNL     1      -1.322  -1.002  -0.768  1.00  0.00     0.242 C 
HETATM    9  C9  UNL     1      -0.076  -1.832  -0.675  1.00  0.00     0.187 C 
ENDROOT
BRANCH   1  10
HETATM   10  C3  UNL     1       1.708  -0.347   0.050  1.00  0.00     0.032 C 
HETATM   11  C2  UNL     1       2.854  -0.285   0.688  1.00  0.00     0.132 C 
BRANCH  11  12
HETATM   12  O1  UNL     1       3.895   0.548   0.302  1.00  0.00    -0.368 OA
HETATM   13  C1  UNL     1       3.717   1.677  -0.527  1.00  0.00     0.208 C 
ENDBRANCH  11  12
ENDBRANCH   1  10
BRANCH   9  14
HETATM   14  O6  UNL     1      -0.385  -3.174  -0.445  1.00  0.00    -0.390 OA
ATOM     15  H6  UNL     1      -0.838  -3.542  -1.194  1.00  0.00     0.210 HD
ENDBRANCH   9  14
BRANCH   8  16
HETATM   16  O5  UNL     1      -1.360  -0.263  -1.933  1.00  0.00    -0.385 OA
ATOM     17  H5  UNL     1      -1.369  -0.798  -2.718  1.00  0.00     0.210 HD
ENDBRANCH   8  16
TORSDOF 4
