REMARK  17 active torsions:
REMARK  status: ('A' for Active; 'I' for Inactive)
REMARK    1  A    between atoms: C2_2  and  O1_3 
REMARK    2  A    between atoms: O1_3  and  C3_4 
REMARK    3  A    between atoms: C3_4  and  C4_5 
REMARK    4  A    between atoms: C4_5  and  O2_6 
REMARK    5  A    between atoms: O2_6  and  C5_7 
REMARK    6  A    between atoms: C5_7  and  N1_8 
REMARK    7  A    between atoms: C8_11  and  C9_12 
REMARK    8  A    between atoms: C9_12  and  C10_13 
REMARK    9  A    between atoms: C10_13  and  C11_14 
REMARK   10  A    between atoms: C11_14  and  C12_15 
REMARK   11  A    between atoms: C12_15  and  N2_16 
REMARK       I    between atoms: C13_18  and  N4_20 
REMARK   12  A    between atoms: N4_20  and  C14_22 
REMARK   13  A    between atoms: C14_22  and  C15_23 
REMARK   14  A    between atoms: C15_23  and  C16_24 
REMARK   15  A    between atoms: C16_24  and  C17_25 
REMARK   16  A    between atoms: C17_25  and  N5_26 
REMARK   17  A    between atoms: C19_31  and  O3_32 
ROOT
HETATM    1  C10 UNL     1      -1.488   0.941   0.384  1.00  0.00     0.006 C 
ENDROOT
BRANCH   1   2
HETATM    2  C9  UNL     1      -0.584   0.119   1.234  1.00  0.00     0.039 C 
BRANCH   2   3
HETATM    3  C8  UNL     1       0.849   0.422   1.031  1.00  0.00    -0.053 A 
HETATM    4  C7  UNL     1       1.568  -0.292   0.113  1.00  0.00     0.024 A 
HETATM    5  C6  UNL     1       2.918  -0.042  -0.130  1.00  0.00     0.096 A 
HETATM    6  N1  UNL     1       3.538   0.923   0.550  1.00  0.00    -0.316 N 
HETATM    7  C19 UNL     1       2.845   1.634   1.457  1.00  0.00     0.144 A 
HETATM    8  C18 UNL     1       1.515   1.413   1.719  1.00  0.00     0.063 A 
BRANCH   6   9
HETATM    9  C5  UNL     1       4.950   1.262   0.339  1.00  0.00     0.300 C 
BRANCH   9  10
HETATM   10  O2  UNL     1       5.709   0.553   1.213  1.00  0.00    -0.370 OA
BRANCH  10  11
HETATM   11  C4  UNL     1       5.739  -0.795   1.133  1.00  0.00     0.196 C 
BRANCH  11  12
HETATM   12  C3  UNL     1       6.353  -1.405  -0.089  1.00  0.00     0.193 C 
BRANCH  12  13
HETATM   13  O1  UNL     1       7.650  -1.111  -0.278  1.00  0.00    -0.389 OA
BRANCH  13  14
HETATM   14  C2  UNL     1       8.093   0.154  -0.415  1.00  0.00     0.163 C 
HETATM   15  C1  UNL     1       9.616   0.125  -0.674  1.00  0.00     0.033 C 
ENDBRANCH  13  14
ENDBRANCH  12  13
ENDBRANCH  11  12
ENDBRANCH  10  11
ENDBRANCH   9  10
ENDBRANCH   6   9
BRANCH   7  16
HETATM   16  O3  UNL     1       3.520   2.647   2.163  1.00  0.00    -0.346 OA
ATOM     17  H3  UNL     1       3.030   3.149   2.804  1.00  0.00     0.219 HD
ENDBRANCH   7  16
ENDBRANCH   2   3
ENDBRANCH   1   2
BRANCH   1  18
HETATM   18  C11 UNL     1      -1.366   0.803  -1.079  1.00  0.00     0.020 C 
BRANCH  18  19
HETATM   19  C12 UNL     1      -1.692  -0.531  -1.666  1.00  0.00     0.122 C 
BRANCH  19  20
HETATM   20  N2  UNL     1      -3.074  -0.878  -1.427  1.00  0.00    -0.365 N 
HETATM   21  C13 UNL     1      -3.502  -1.873  -0.756  1.00  0.00     0.183 C 
HETATM   22  N3  UNL     1      -2.679  -2.813  -0.128  1.00  0.00    -0.064 NA
HETATM   23  N4  UNL     1      -4.928  -2.025  -0.646  1.00  0.00    -0.365 N 
ATOM     24  H4  UNL     1      -5.357  -2.949  -0.593  1.00  0.00     0.162 HD
ATOM     25  H2  UNL     1      -3.778  -0.264  -1.837  1.00  0.00     0.162 HD
BRANCH  23  26
HETATM   26  C14 UNL     1      -5.738  -0.817  -0.613  1.00  0.00     0.122 C 
BRANCH  26  27
HETATM   27  C15 UNL     1      -7.201  -1.183  -0.502  1.00  0.00     0.021 C 
BRANCH  27  28
HETATM   28  C16 UNL     1      -8.039   0.067  -0.477  1.00  0.00     0.029 C 
BRANCH  28  29
HETATM   29  C17 UNL     1      -7.706   0.957   0.676  1.00  0.00     0.229 C 
BRANCH  29  30
HETATM   30  N5  UNL     1      -8.575   2.146   0.631  1.00  0.00    -0.079 N 
ATOM     31  H53 UNL     1      -8.521   2.633  -0.264  1.00  0.00     0.274 HD
ATOM     32  H52 UNL     1      -9.565   1.903   0.602  1.00  0.00     0.274 HD
ATOM     33  H51 UNL     1      -8.348   2.754   1.418  1.00  0.00     0.274 HD
ENDBRANCH  29  30
ENDBRANCH  28  29
ENDBRANCH  27  28
ENDBRANCH  26  27
ENDBRANCH  23  26
ENDBRANCH  19  20
ENDBRANCH  18  19
ENDBRANCH   1  18
TORSDOF 17
