REMARK  16 active torsions:
REMARK  status: ('A' for Active; 'I' for Inactive)
REMARK    1  A    between atoms: N1_2  and  C3_5 
REMARK    2  A    between atoms: N1_2  and  C12_20 
REMARK    3  A    between atoms: C3_5  and  C4_6 
REMARK    4  A    between atoms: C4_6  and  C5_7 
REMARK    5  A    between atoms: C5_7  and  C6_8 
REMARK    6  A    between atoms: C6_8  and  C7_9 
REMARK    7  A    between atoms: C7_9  and  C8_10 
REMARK    8  A    between atoms: C8_10  and  N3_11 
REMARK    9  A    between atoms: N3_11  and  C9_13 
REMARK   10  A    between atoms: C9_13  and  C10_14 
REMARK   11  A    between atoms: C10_14  and  N4_15 
REMARK   12  A    between atoms: C12_20  and  C13_21 
REMARK   13  A    between atoms: C13_21  and  C14_22 
REMARK   14  A    between atoms: C14_22  and  N7_23 
REMARK   15  A    between atoms: N7_23  and  C15_25 
REMARK   16  A    between atoms: C15_25  and  C16_26 
ROOT
HETATM    1  C1  UNL     1      -1.210   0.449   1.264  1.00  0.00     0.292 C 
HETATM    2  N1  UNL     1      -1.109   0.555  -0.178  1.00  0.00     0.016 N 
HETATM    3  C2  UNL     1      -1.021   1.925  -0.521  1.00  0.00     0.283 C 
HETATM    4  N2  UNL     1      -0.942   3.049  -0.784  1.00  0.00    -0.165 NA
ENDROOT
BRANCH   2   5
HETATM    5  C3  UNL     1       0.062  -0.144  -0.617  1.00  0.00     0.256 C 
BRANCH   5   6
HETATM    6  C4  UNL     1       1.126   0.731  -1.243  1.00  0.00     0.029 C 
BRANCH   6   7
HETATM    7  C5  UNL     1       2.297  -0.098  -1.722  1.00  0.00     0.002 C 
BRANCH   7   8
HETATM    8  C6  UNL     1       3.008  -0.871  -0.682  1.00  0.00     0.002 C 
BRANCH   8   9
HETATM    9  C7  UNL     1       3.689  -0.096   0.390  1.00  0.00     0.019 C 
BRANCH   9  10
HETATM   10  C8  UNL     1       4.783   0.819  -0.143  1.00  0.00     0.113 C 
BRANCH  10  11
HETATM   11  N3  UNL     1       5.799   0.071  -0.845  1.00  0.00    -0.420 N 
ATOM     12  H3  UNL     1       5.939   0.154  -1.852  1.00  0.00     0.153 HD
BRANCH  11  13
HETATM   13  C9  UNL     1       6.591  -0.790  -0.035  1.00  0.00     0.133 C 
BRANCH  13  14
HETATM   14  C10 UNL     1       7.542  -0.115   0.908  1.00  0.00     0.141 C 
BRANCH  14  15
HETATM   15  N4  UNL     1       8.525   0.691   0.200  1.00  0.00    -0.365 N 
HETATM   16  C11 UNL     1       9.686   0.194  -0.125  1.00  0.00     0.197 C 
HETATM   17  N5  UNL     1       9.949  -1.145   0.232  1.00  0.00    -0.067 NA
HETATM   18  N6  UNL     1      10.654   0.968  -0.814  1.00  0.00    -0.067 NA
ATOM     19  H4  UNL     1       8.303   1.656  -0.045  1.00  0.00     0.161 HD
ENDBRANCH  14  15
ENDBRANCH  13  14
ENDBRANCH  11  13
ENDBRANCH  10  11
ENDBRANCH   9  10
ENDBRANCH   8   9
ENDBRANCH   7   8
ENDBRANCH   6   7
ENDBRANCH   5   6
ENDBRANCH   2   5
BRANCH   2  20
HETATM   20  C12 UNL     1      -2.313  -0.000  -0.781  1.00  0.00     0.257 C 
BRANCH  20  21
HETATM   21  C13 UNL     1      -3.480   0.886  -0.414  1.00  0.00     0.048 C 
BRANCH  21  22
HETATM   22  C14 UNL     1      -4.763   0.354  -1.041  1.00  0.00     0.116 C 
BRANCH  22  23
HETATM   23  N7  UNL     1      -5.120  -0.953  -0.643  1.00  0.00    -0.415 N 
ATOM     24  H7  UNL     1      -5.052  -1.730  -1.301  1.00  0.00     0.153 HD
BRANCH  23  25
HETATM   25  C15 UNL     1      -5.573  -1.172   0.681  1.00  0.00     0.190 C 
BRANCH  25  26
HETATM   26  C16 UNL     1      -6.913  -0.622   1.001  1.00  0.00     0.090 C 
HETATM   27  N8  UNL     1      -7.912  -1.449   1.230  1.00  0.00    -0.379 N 
HETATM   28  C17 UNL     1      -9.234  -0.935   1.543  1.00  0.00     0.122 C 
ATOM     29  H8  UNL     1      -7.757  -2.456   1.187  1.00  0.00     0.160 HD
HETATM   30  C18 UNL     1      -9.557   0.288   0.713  1.00  0.00     0.039 C 
HETATM   31  C19 UNL     1      -8.532   1.337   1.002  1.00  0.00     0.122 C 
HETATM   32  N9  UNL     1      -7.220   0.748   1.079  1.00  0.00    -0.379 N 
ATOM     33  H9  UNL     1      -6.436   1.388   1.202  1.00  0.00     0.160 HD
ENDBRANCH  25  26
ENDBRANCH  23  25
ENDBRANCH  22  23
ENDBRANCH  21  22
ENDBRANCH  20  21
ENDBRANCH   2  20
TORSDOF 16
