REMARK  2 active torsions:
REMARK  status: ('A' for Active; 'I' for Inactive)
REMARK    1  A    between atoms: C1_2  and  C2_3 
REMARK       I    between atoms: C1_2  and  N3_14 
REMARK    2  A    between atoms: N4_18  and  C11_19 
ROOT
HETATM    1  O1  UNL     1      -2.038  -1.814   1.025  1.00  0.00    -0.271 OA
HETATM    2  C1  UNL     1      -1.599  -0.946   0.199  1.00  0.00     0.242 C 
HETATM    3  N3  UNL     1      -0.219  -0.731   0.146  1.00  0.00    -0.349 N 
HETATM    4  C8  UNL     1       0.810  -1.385   0.935  1.00  0.00     0.136 C 
HETATM    5  C9  UNL     1       1.939  -1.491  -0.074  1.00  0.00     0.053 C 
HETATM    6  C10 UNL     1       3.309  -1.485   0.560  1.00  0.00     0.070 C 
HETATM    7  N4  UNL     1       3.649  -0.142   0.606  1.00  0.00    -0.368 N 
HETATM    8  C14 UNL     1       2.756   0.700  -0.029  1.00  0.00     0.070 C 
HETATM    9  C15 UNL     1       1.871  -0.193  -0.864  1.00  0.00     0.053 C 
HETATM   10  C16 UNL     1       0.417   0.214  -0.769  1.00  0.00     0.136 C 
ENDROOT
BRANCH   2  11
HETATM   11  C2  UNL     1      -2.586  -0.239  -0.646  1.00  0.00     0.175 C 
HETATM   12  N1  UNL     1      -3.797  -1.024  -0.780  1.00  0.00    -0.407 N 
HETATM   13  C3  UNL     1      -4.819  -0.803   0.167  1.00  0.00     0.147 C 
ATOM     14  H1  UNL     1      -3.906  -1.708  -1.528  1.00  0.00     0.154 HD
HETATM   15  C4  UNL     1      -5.072   0.661   0.478  1.00  0.00     0.203 C 
HETATM   16  C5  UNL     1      -3.754   1.148   1.112  1.00  0.00     0.043 C 
HETATM   17  N2  UNL     1      -5.154   1.418  -0.741  1.00  0.00    -0.069 N 
HETATM   18  C6  UNL     1      -2.873   1.157  -0.114  1.00  0.00     0.045 C 
HETATM   19  C7  UNL     1      -3.803   1.827  -1.108  1.00  0.00     0.239 C 
ATOM     20  H22 UNL     1      -5.630   0.913  -1.488  1.00  0.00     0.277 HD
ATOM     21  H21 UNL     1      -5.800   2.204  -0.675  1.00  0.00     0.277 HD
ENDBRANCH   2  11
BRANCH   7  22
HETATM   22  C11 UNL     1       4.927   0.275   0.998  1.00  0.00     0.088 A 
HETATM   23  C12 UNL     1       6.042  -0.257   0.057  1.00  0.00     0.028 A 
HETATM   24  C13 UNL     1       5.688   1.189   0.116  1.00  0.00     0.028 A 
ENDBRANCH   7  22
TORSDOF 2
