REMARK  3 active torsions:
REMARK  status: ('A' for Active; 'I' for Inactive)
REMARK    1  A    between atoms: C1_2  and  C2_3 
REMARK       I    between atoms: C1_2  and  N1_6 
REMARK    2  A    between atoms: C11_14  and  C12_15 
REMARK    3  A    between atoms: C12_15  and  O2_16 
ROOT
HETATM    1  O1  UNL     1       2.847   1.840   0.128  1.00  0.00    -0.273 OA
HETATM    2  C1  UNL     1       2.927   0.582   0.291  1.00  0.00     0.224 C 
HETATM    3  N1  UNL     1       1.824  -0.139   0.771  1.00  0.00    -0.351 N 
HETATM    4  C5  UNL     1       1.810  -1.569   0.998  1.00  0.00     0.126 C 
HETATM    5  C6  UNL     1       0.799  -2.112  -0.028  1.00  0.00     0.027 C 
HETATM    6  C7  UNL     1      -0.544  -1.536   0.447  1.00  0.00     0.026 C 
HETATM    7  C8  UNL     1      -1.705  -2.157  -0.240  1.00  0.00     0.278 C 
HETATM    8  N2  UNL     1      -2.897  -1.447   0.094  1.00  0.00     0.090 N 
HETATM    9  C9  UNL     1      -2.788  -0.652   1.299  1.00  0.00     0.278 C 
HETATM   10  C10 UNL     1      -1.886   0.475   0.801  1.00  0.00     0.037 C 
HETATM   11  C11 UNL     1      -2.630   0.863  -0.455  1.00  0.00     0.013 C 
HETATM   12  C13 UNL     1      -1.609   1.286  -1.463  1.00  0.00     0.014 C 
HETATM   13  C14 UNL     1      -0.436   0.382  -1.131  1.00  0.00     0.013 C 
HETATM   14  C15 UNL     1      -0.578  -0.035   0.298  1.00  0.00    -0.013 C 
HETATM   15  C16 UNL     1       0.590   0.597   1.061  1.00  0.00     0.136 C 
HETATM   16  C17 UNL     1      -3.273  -0.443  -0.881  1.00  0.00     0.284 C 
ENDROOT
BRANCH   2  17
HETATM   17  C2  UNL     1       4.221  -0.031  -0.051  1.00  0.00     0.078 A 
HETATM   18  C3  UNL     1       5.486   0.730   0.102  1.00  0.00     0.015 A 
HETATM   19  C4  UNL     1       4.926   0.587  -1.252  1.00  0.00     0.015 A 
ENDBRANCH   2  17
BRANCH  11  20
HETATM   20  C12 UNL     1      -3.665   1.920  -0.161  1.00  0.00     0.175 C 
BRANCH  20  21
HETATM   21  O2  UNL     1      -3.074   3.061   0.357  1.00  0.00    -0.400 OA
ATOM     22  H2  UNL     1      -3.726   3.727   0.542  1.00  0.00     0.209 HD
ENDBRANCH  20  21
ENDBRANCH  11  20
TORSDOF 3
