REMARK  6 active torsions:
REMARK  status: ('A' for Active; 'I' for Inactive)
REMARK       I    between atoms: C1_2  and  N3_7 
REMARK    1  A    between atoms: N2_3  and  C2_5 
REMARK    2  A    between atoms: N5_14  and  C6_15 
REMARK    3  A    between atoms: C6_15  and  C7_16 
REMARK    4  A    between atoms: C7_16  and  C8_17 
REMARK    5  A    between atoms: C8_17  and  O1_18 
REMARK    6  A    between atoms: O1_18  and  C9_19 
ROOT
HETATM    1  N1  UNL     1      -4.464  -0.730   1.461  1.00  0.00    -0.063 NA
HETATM    2  C1  UNL     1      -4.093   0.449   0.787  1.00  0.00     0.195 C 
HETATM    3  N2  UNL     1      -4.949   1.391   0.648  1.00  0.00    -0.331 N 
ATOM      4  H2  UNL     1      -5.883   1.254   1.035  1.00  0.00     0.168 HD
HETATM    5  N3  UNL     1      -2.798   0.599   0.273  1.00  0.00    -0.302 N 
ATOM      6  H3  UNL     1      -2.310   1.465   0.501  1.00  0.00     0.171 HD
HETATM    7  C3  UNL     1      -2.164  -0.249  -0.458  1.00  0.00     0.179 C 
HETATM    8  N4  UNL     1      -2.640  -1.517  -0.900  1.00  0.00    -0.360 N 
ATOM      9  H4  UNL     1      -3.431  -2.037  -0.519  1.00  0.00     0.162 HD
HETATM   10  C4  UNL     1      -1.781  -1.927  -1.998  1.00  0.00     0.142 C 
HETATM   11  C5  UNL     1      -0.437  -1.379  -1.478  1.00  0.00     0.145 C 
HETATM   12  N5  UNL     1      -0.822  -0.076  -0.980  1.00  0.00    -0.352 N 
ENDROOT
BRANCH  12  13
HETATM   13  C6  UNL     1      -0.088   1.156  -0.978  1.00  0.00     0.128 C 
BRANCH  13  14
HETATM   14  C7  UNL     1       1.099   1.209  -0.071  1.00  0.00     0.046 C 
BRANCH  14  15
HETATM   15  C8  UNL     1       2.170   0.190  -0.367  1.00  0.00     0.169 C 
BRANCH  15  16
HETATM   16  O1  UNL     1       3.187   0.420   0.570  1.00  0.00    -0.386 OA
BRANCH  16  17
HETATM   17  C9  UNL     1       4.248  -0.435   0.435  1.00  0.00     0.121 A 
HETATM   18  C10 UNL     1       5.601   0.311   0.453  1.00  0.00     0.034 A 
HETATM   19  C11 UNL     1       5.215  -0.720   1.492  1.00  0.00     0.034 A 
ENDBRANCH  16  17
ENDBRANCH  15  16
ENDBRANCH  14  15
ENDBRANCH  13  14
ENDBRANCH  12  13
BRANCH   3  20
HETATM   20  C2  UNL     1      -4.672   2.615  -0.014  1.00  0.00     0.172 C 
HETATM   21  S1  UNL     1      -4.972   4.042   0.693  1.00  0.00    -0.074 SA
ENDBRANCH   3  20
TORSDOF 6
