REMARK  4 active torsions:
REMARK  status: ('A' for Active; 'I' for Inactive)
REMARK    1  A    between atoms: C2_2  and  C4_4 
REMARK    2  A    between atoms: C4_4  and  C6_12 
REMARK    3  A    between atoms: N1_5  and  N2_7 
REMARK       I    between atoms: C6_12  and  N5_14 
REMARK    4  A    between atoms: N5_14  and  C7_16 
ROOT
HETATM    1  C4  UNL     1      -2.141  -0.335  -0.274  1.00  0.00     0.096 C 
HETATM    2  N1  UNL     1      -3.019  -1.257  -0.110  1.00  0.00    -0.297 N 
ATOM      3  H1  UNL     1      -2.676  -2.202   0.064  1.00  0.00     0.187 HD
ENDROOT
BRANCH   1   4
HETATM    4  C2  UNL     1      -2.522   1.065  -0.531  1.00  0.00     0.035 C 
HETATM    5  C1  UNL     1      -2.053   1.602  -1.861  1.00  0.00     0.016 C 
HETATM    6  C3  UNL     1      -2.107   2.008   0.550  1.00  0.00     0.016 C 
ENDBRANCH   1   4
BRANCH   1   7
HETATM    7  C6  UNL     1      -0.744  -0.705  -0.208  1.00  0.00     0.266 C 
HETATM    8  O1  UNL     1      -0.484  -1.941   0.009  1.00  0.00    -0.266 OA
HETATM    9  N5  UNL     1       0.349   0.206  -0.366  1.00  0.00    -0.350 N 
ATOM     10  H5  UNL     1       0.184   1.198  -0.539  1.00  0.00     0.163 HD
BRANCH   9  11
HETATM   11  C7  UNL     1       1.678  -0.314  -0.275  1.00  0.00     0.112 C 
HETATM   12  C8  UNL     1       2.470  -0.109  -1.573  1.00  0.00     0.055 C 
HETATM   13  C9  UNL     1       3.874  -0.358  -1.046  1.00  0.00     0.238 C 
HETATM   14  N6  UNL     1       3.904   0.091   0.312  1.00  0.00    -0.073 N 
HETATM   15  C10 UNL     1       4.336  -0.963   1.230  1.00  0.00     0.272 C 
HETATM   16  C11 UNL     1       4.790   1.239   0.399  1.00  0.00     0.272 C 
HETATM   17  C12 UNL     1       2.555   0.445   0.695  1.00  0.00     0.261 C 
ENDBRANCH   9  11
ENDBRANCH   1   7
BRANCH   2  18
HETATM   18  N2  UNL     1      -4.380  -1.080  -0.149  1.00  0.00    -0.276 N 
HETATM   19  C5  UNL     1      -5.170  -1.704   0.674  1.00  0.00     0.215 C 
HETATM   20  N3  UNL     1      -6.560  -1.440   0.537  1.00  0.00    -0.065 NA
HETATM   21  N4  UNL     1      -4.616  -2.578   1.625  1.00  0.00    -0.065 NA
ATOM     22  H2  UNL     1      -4.780  -0.445  -0.839  1.00  0.00     0.189 HD
ENDBRANCH   2  18
TORSDOF 4
