REMARK  8 active torsions:
REMARK  status: ('A' for Active; 'I' for Inactive)
REMARK    1  A    between atoms: C2_2  and  C4_4 
REMARK    2  A    between atoms: C4_4  and  N1_5 
REMARK    3  A    between atoms: C4_4  and  C9_13 
REMARK       I    between atoms: N1_5  and  C5_7 
REMARK    4  A    between atoms: C5_7  and  C6_9 
REMARK       I    between atoms: C9_13  and  N2_15 
REMARK    5  A    between atoms: C13_19  and  C14_20 
REMARK       I    between atoms: C14_20  and  N3_22 
REMARK    6  A    between atoms: N3_22  and  C15_24 
REMARK    7  A    between atoms: C15_24  and  C16_25 
REMARK    8  A    between atoms: C16_25  and  C17_26 
ROOT
HETATM    1  C9  UNL     1      -1.397  -0.550   0.053  1.00  0.00     0.243 C 
HETATM    2  O2  UNL     1      -1.060  -0.066   1.196  1.00  0.00    -0.271 OA
HETATM    3  N2  UNL     1      -0.325  -1.122  -0.684  1.00  0.00    -0.350 N 
HETATM    4  C10 UNL     1      -0.442  -1.652  -2.025  1.00  0.00     0.126 C 
HETATM    5  C11 UNL     1       0.480  -0.810  -2.903  1.00  0.00     0.021 C 
HETATM    6  C12 UNL     1       1.887  -1.075  -2.420  1.00  0.00     0.017 C 
HETATM    7  C13 UNL     1       2.059  -0.678  -0.973  1.00  0.00     0.096 C 
HETATM    8  C20 UNL     1       1.013  -1.236  -0.079  1.00  0.00     0.139 C 
ENDROOT
BRANCH   1   9
HETATM    9  C4  UNL     1      -2.802  -0.466  -0.367  1.00  0.00     0.180 C 
BRANCH   9  10
HETATM   10  C2  UNL     1      -3.656  -1.624   0.180  1.00  0.00     0.009 C 
HETATM   11  C1  UNL     1      -3.514  -1.755   1.674  1.00  0.00     0.012 C 
HETATM   12  C3  UNL     1      -3.459  -2.911  -0.541  1.00  0.00     0.012 C 
ENDBRANCH   9  10
BRANCH   9  13
HETATM   13  N1  UNL     1      -3.366   0.699   0.352  1.00  0.00    -0.346 N 
HETATM   14  C5  UNL     1      -4.056   1.739  -0.297  1.00  0.00     0.237 C 
HETATM   15  O1  UNL     1      -4.257   1.775  -1.541  1.00  0.00    -0.272 OA
ATOM     16  H1  UNL     1      -3.249   0.750   1.364  1.00  0.00     0.163 HD
BRANCH  14  17
HETATM   17  C6  UNL     1      -4.585   2.866   0.509  1.00  0.00     0.091 C 
HETATM   18  C7  UNL     1      -5.566   2.249   1.511  1.00  0.00     0.037 C 
HETATM   19  C8  UNL     1      -5.377   3.841  -0.335  1.00  0.00     0.037 C 
HETATM   20 BR1  UNL     1      -3.158   3.794   1.425  1.00  0.00    -0.076 Br
ENDBRANCH  14  17
ENDBRANCH   9  13
ENDBRANCH   1   9
BRANCH   7  21
HETATM   21  C14 UNL     1       3.417  -1.004  -0.547  1.00  0.00     0.223 C 
HETATM   22  O3  UNL     1       4.218  -1.526  -1.361  1.00  0.00    -0.273 OA
HETATM   23  N3  UNL     1       3.924  -0.771   0.763  1.00  0.00    -0.361 N 
ATOM     24  H3  UNL     1       3.293  -0.349   1.445  1.00  0.00     0.162 HD
BRANCH  23  25
HETATM   25  C15 UNL     1       5.245  -1.083   1.193  1.00  0.00     0.123 C 
BRANCH  25  26
HETATM   26  C16 UNL     1       6.365  -0.436   0.481  1.00  0.00     0.024 C 
BRANCH  26  27
HETATM   27  C17 UNL     1       6.446   1.044   0.502  1.00  0.00    -0.013 A 
HETATM   28  C18 UNL     1       6.571   1.814   1.762  1.00  0.00     0.005 A 
HETATM   29  C19 UNL     1       5.373   1.972   0.847  1.00  0.00     0.005 A 
ENDBRANCH  26  27
ENDBRANCH  25  26
ENDBRANCH  23  25
ENDBRANCH   7  21
TORSDOF 8
