REMARK  8 active torsions:
REMARK  status: ('A' for Active; 'I' for Inactive)
REMARK       I    between atoms: N1_4  and  C4_6 
REMARK    1  A    between atoms: C4_6  and  C5_8 
REMARK       I    between atoms: N2_12  and  C9_13 
REMARK    2  A    between atoms: C9_13  and  C10_15 
REMARK    3  A    between atoms: C10_15  and  C11_16 
REMARK    4  A    between atoms: C10_15  and  N3_23 
REMARK    5  A    between atoms: C11_16  and  C12_17 
REMARK       I    between atoms: N3_23  and  C18_25 
REMARK    6  A    between atoms: C18_25  and  C19_27 
REMARK    7  A    between atoms: C19_27  and  N4_28 
REMARK       I    between atoms: N4_28  and  C20_30 
REMARK    8  A    between atoms: C20_30  and  C21_32 
ROOT
HETATM    1  C10 UNL     1       0.742   0.174   0.196  1.00  0.00     0.177 C 
ENDROOT
BRANCH   1   2
HETATM    2  C9  UNL     1      -0.562  -0.409   0.561  1.00  0.00     0.243 C 
HETATM    3  N2  UNL     1      -1.671  -0.629  -0.254  1.00  0.00    -0.337 N 
HETATM    4  C5  UNL     1      -2.939  -1.176   0.172  1.00  0.00     0.179 C 
HETATM    5  C8  UNL     1      -1.791  -0.396  -1.663  1.00  0.00     0.127 C 
HETATM    6  C6  UNL     1      -3.290  -2.106  -0.944  1.00  0.00     0.037 C 
HETATM    7  C7  UNL     1      -2.449  -1.691  -2.136  1.00  0.00     0.022 C 
HETATM    8  O2  UNL     1      -0.677  -0.759   1.799  1.00  0.00    -0.271 OA
BRANCH   4   9
HETATM    9  C4  UNL     1      -3.954  -0.128   0.397  1.00  0.00     0.244 C 
HETATM   10  N1  UNL     1      -5.274  -0.316   0.804  1.00  0.00    -0.333 N 
HETATM   11  C2  UNL     1      -5.713  -0.866   1.859  1.00  0.00    -0.018 C 
ATOM     12  H1  UNL     1      -5.985   0.038   0.164  1.00  0.00     0.168 HD
HETATM   13  C1  UNL     1      -7.213  -0.910   2.001  1.00  0.00     0.062 C 
HETATM   14  C3  UNL     1      -4.875  -1.452   2.930  1.00  0.00     0.062 C 
HETATM   15  O1  UNL     1      -3.588   1.085   0.199  1.00  0.00    -0.271 OA
ENDBRANCH   4   9
ENDBRANCH   1   2
BRANCH   1  16
HETATM   16  C11 UNL     1       0.961   1.564   0.717  1.00  0.00     0.039 C 
BRANCH  16  17
HETATM   17  C12 UNL     1       0.060   2.634   0.287  1.00  0.00    -0.012 C 
HETATM   18  C13 UNL     1       0.014   2.965  -1.165  1.00  0.00     0.005 C 
HETATM   19  C14 UNL     1      -1.218   3.855  -1.367  1.00  0.00     0.000 C 
HETATM   20  C15 UNL     1      -0.983   5.148  -0.633  1.00  0.00     0.000 C 
HETATM   21  C16 UNL     1       0.324   5.130   0.116  1.00  0.00     0.000 C 
HETATM   22  C17 UNL     1       0.492   3.922   1.006  1.00  0.00     0.005 C 
ENDBRANCH  16  17
ENDBRANCH   1  16
BRANCH   1  23
HETATM   23  N3  UNL     1       1.759  -0.630   0.926  1.00  0.00    -0.346 N 
HETATM   24  C18 UNL     1       2.812  -1.255   0.226  1.00  0.00     0.236 C 
HETATM   25  O3  UNL     1       2.891  -1.129  -1.024  1.00  0.00    -0.272 OA
ATOM     26  H3  UNL     1       1.694  -0.730   1.939  1.00  0.00     0.163 HD
BRANCH  24  27
HETATM   27  C19 UNL     1       3.821  -2.054   0.952  1.00  0.00     0.225 C 
BRANCH  27  28
HETATM   28  N4  UNL     1       4.843  -2.611   0.119  1.00  0.00    -0.352 N 
HETATM   29  C20 UNL     1       5.748  -1.844  -0.657  1.00  0.00     0.222 C 
HETATM   30  O4  UNL     1       5.647  -0.586  -0.605  1.00  0.00    -0.273 OA
ATOM     31  H4  UNL     1       4.926  -3.627   0.081  1.00  0.00     0.162 HD
BRANCH  29  32
HETATM   32  C21 UNL     1       6.785  -2.480  -1.509  1.00  0.00     0.078 A 
HETATM   33  C22 UNL     1       7.469  -3.724  -0.994  1.00  0.00     0.015 A 
HETATM   34  C23 UNL     1       6.524  -3.798  -2.142  1.00  0.00     0.015 A 
ENDBRANCH  29  32
ENDBRANCH  27  28
ENDBRANCH  24  27
ENDBRANCH   1  23
TORSDOF 8
