REMARK  11 active torsions:
REMARK  status: ('A' for Active; 'I' for Inactive)
REMARK    1  A    between atoms: N1_2  and  C2_5 
REMARK    2  A    between atoms: C2_5  and  C4_7 
REMARK       I    between atoms: C4_7  and  N2_9 
REMARK    3  A    between atoms: N2_9  and  C5_11 
REMARK    4  A    between atoms: C5_11  and  C7_13 
REMARK    5  A    between atoms: C7_13  and  N4_23 
REMARK    6  A    between atoms: N3_14  and  C8_16 
REMARK    7  A    between atoms: C8_16  and  C9_17 
REMARK    8  A    between atoms: C10_18  and  C11_19 
REMARK    9  A    between atoms: C17_26  and  N5_27 
REMARK   10  A    between atoms: N5_27  and  C20_30 
REMARK   11  A    between atoms: C20_30  and  C21_31 
ROOT
HETATM    1  C7  UNL     1      -1.181   0.072   0.657  1.00  0.00     0.098 C 
HETATM    2  N3  UNL     1      -1.156  -0.935   1.406  1.00  0.00    -0.368 N 
ATOM      3  H3  UNL     1      -0.240  -1.323   1.630  1.00  0.00     0.161 HD
ENDROOT
BRANCH   1   4
HETATM    4  C5  UNL     1      -2.465   0.713   0.270  1.00  0.00     0.147 C 
HETATM    5  C6  UNL     1      -2.827   0.381  -1.156  1.00  0.00     0.040 C 
BRANCH   4   6
HETATM    6  N2  UNL     1      -2.391   2.161   0.509  1.00  0.00    -0.348 N 
HETATM    7  C4  UNL     1      -3.242   2.842   1.421  1.00  0.00     0.248 C 
HETATM    8  O1  UNL     1      -4.092   2.138   2.032  1.00  0.00    -0.271 OA
ATOM      9  H2  UNL     1      -1.696   2.703  -0.004  1.00  0.00     0.163 HD
BRANCH   7  10
HETATM   10  C2  UNL     1      -3.144   4.305   1.653  1.00  0.00     0.272 C 
HETATM   11  C3  UNL     1      -1.742   4.599   2.161  1.00  0.00     0.050 C 
BRANCH  10  12
HETATM   12  N1  UNL     1      -4.137   4.671   2.635  1.00  0.00    -0.067 N 
HETATM   13  C1  UNL     1      -4.131   6.091   2.928  1.00  0.00     0.267 C 
ATOM     14  H12 UNL     1      -4.031   4.120   3.487  1.00  0.00     0.277 HD
ATOM     15  H11 UNL     1      -5.066   4.359   2.352  1.00  0.00     0.277 HD
ENDBRANCH  10  12
ENDBRANCH   7  10
ENDBRANCH   4   6
ENDBRANCH   1   4
BRANCH   1  16
HETATM   16  N4  UNL     1       0.070   0.591   0.185  1.00  0.00    -0.369 N 
HETATM   17  C15 UNL     1       1.042   0.952   1.199  1.00  0.00     0.126 C 
HETATM   18  C16 UNL     1       2.406   1.163   0.611  1.00  0.00     0.053 C 
HETATM   19  C17 UNL     1       2.717   0.055  -0.382  1.00  0.00     0.192 C 
HETATM   20  C24 UNL     1       1.774   0.146  -1.529  1.00  0.00     0.053 C 
HETATM   21  C25 UNL     1       0.443   0.791  -1.172  1.00  0.00     0.126 C 
BRANCH  19  22
HETATM   22  N5  UNL     1       4.117   0.159  -0.740  1.00  0.00    -0.070 N 
HETATM   23  C18 UNL     1       4.855  -0.562   0.268  1.00  0.00     0.272 C 
HETATM   24  C19 UNL     1       4.440   1.572  -0.776  1.00  0.00     0.272 C 
BRANCH  22  25
HETATM   25  C20 UNL     1       4.414  -0.392  -2.029  1.00  0.00     0.241 C 
BRANCH  25  26
HETATM   26  C21 UNL     1       5.622  -1.263  -2.095  1.00  0.00     0.012 A 
HETATM   27  C22 UNL     1       6.977  -0.795  -1.757  1.00  0.00     0.007 A 
HETATM   28  C23 UNL     1       6.591  -0.967  -3.227  1.00  0.00     0.007 A 
ENDBRANCH  25  26
ENDBRANCH  22  25
ENDBRANCH  19  22
ENDBRANCH   1  16
BRANCH   2  29
HETATM   29  C8  UNL     1      -2.283  -1.582   1.968  1.00  0.00     0.215 C 
BRANCH  29  30
HETATM   30  C9  UNL     1      -2.746  -2.720   1.122  1.00  0.00    -0.086 C 
HETATM   31  C10 UNL     1      -3.112  -3.657   0.457  1.00  0.00    -0.096 C 
BRANCH  31  32
HETATM   32  C11 UNL     1      -3.548  -4.811  -0.328  1.00  0.00     0.013 C 
HETATM   33  C12 UNL     1      -4.729  -5.440   0.403  1.00  0.00     0.028 C 
HETATM   34  C13 UNL     1      -2.414  -5.838  -0.442  1.00  0.00     0.028 C 
HETATM   35  C14 UNL     1      -3.983  -4.327  -1.685  1.00  0.00     0.028 C 
ENDBRANCH  31  32
ENDBRANCH  29  30
ENDBRANCH   2  29
TORSDOF 11
