REMARK  8 active torsions:
REMARK  status: ('A' for Active; 'I' for Inactive)
REMARK    1  A    between atoms: C2_2  and  C3_3 
REMARK    2  A    between atoms: C3_3  and  N1_4 
REMARK    3  A    between atoms: N1_4  and  C4_5 
REMARK       I    between atoms: N1_4  and  C9_13 
REMARK    4  A    between atoms: C4_5  and  C5_6 
REMARK       I    between atoms: C5_6  and  N2_8 
REMARK    5  A    between atoms: N2_8  and  C6_10 
REMARK       I    between atoms: C9_13  and  N3_15 
REMARK    6  A    between atoms: N3_15  and  C10_17 
REMARK    7  A    between atoms: C10_17  and  C11_18 
REMARK       I    between atoms: N4_21  and  C14_22 
REMARK    8  A    between atoms: C14_22  and  C15_24 
ROOT
HETATM    1  C10 UNL     1      -0.466  -0.661   1.251  1.00  0.00     0.130 C 
ENDROOT
BRANCH   1   2
HETATM    2  N3  UNL     1      -1.420  -0.028   0.376  1.00  0.00    -0.343 N 
HETATM    3  C9  UNL     1      -2.411  -0.789  -0.287  1.00  0.00     0.318 C 
HETATM    4  N1  UNL     1      -3.362  -0.191  -1.124  1.00  0.00    -0.326 N 
HETATM    5  O2  UNL     1      -2.445  -2.021  -0.122  1.00  0.00    -0.247 OA
ATOM      6  H3  UNL     1      -1.380   0.981   0.233  1.00  0.00     0.164 HD
BRANCH   4   7
HETATM    7  C3  UNL     1      -3.395   1.234  -1.330  1.00  0.00     0.127 C 
BRANCH   7   8
HETATM    8  C2  UNL     1      -2.598   1.729  -2.489  1.00  0.00     0.015 C 
HETATM    9  C1  UNL     1      -2.736   3.257  -2.579  1.00  0.00     0.006 C 
ENDBRANCH   7   8
ENDBRANCH   4   7
BRANCH   4  10
HETATM   10  C4  UNL     1      -4.346  -1.045  -1.804  1.00  0.00     0.230 C 
BRANCH  10  11
HETATM   11  C5  UNL     1      -5.559  -1.215  -0.971  1.00  0.00     0.235 C 
HETATM   12  O1  UNL     1      -6.500  -1.918  -1.406  1.00  0.00    -0.272 OA
HETATM   13  N2  UNL     1      -5.703  -0.614   0.305  1.00  0.00    -0.355 N 
ATOM     14  H2  UNL     1      -4.942  -0.040   0.667  1.00  0.00     0.162 HD
BRANCH  13  15
HETATM   15  C6  UNL     1      -6.877  -0.784   1.101  1.00  0.00     0.084 A 
HETATM   16  C7  UNL     1      -7.407   0.296   1.965  1.00  0.00     0.027 A 
HETATM   17  C8  UNL     1      -6.679  -0.887   2.573  1.00  0.00     0.027 A 
ENDBRANCH  13  15
ENDBRANCH  10  11
ENDBRANCH   4  10
ENDBRANCH   1   2
BRANCH   1  18
HETATM   18  C11 UNL     1       0.410  -1.652   0.586  1.00  0.00     0.014 C 
HETATM   19  C12 UNL     1       1.308  -2.243   1.690  1.00  0.00     0.027 C 
HETATM   20  C13 UNL     1       2.210  -1.218   2.295  1.00  0.00     0.126 C 
HETATM   21  N4  UNL     1       2.940  -0.521   1.258  1.00  0.00    -0.351 N 
HETATM   22  C14 UNL     1       4.339  -0.369   1.337  1.00  0.00     0.224 C 
HETATM   23  C20 UNL     1       2.214   0.016   0.136  1.00  0.00     0.135 C 
HETATM   24  O3  UNL     1       4.944  -0.871   2.315  1.00  0.00    -0.273 OA
HETATM   25  C21 UNL     1       1.353  -1.103  -0.449  1.00  0.00    -0.026 C 
HETATM   26  C22 UNL     1       2.327  -2.231  -0.786  1.00  0.00     0.017 C 
HETATM   27  C23 UNL     1       0.698  -0.640  -1.695  1.00  0.00     0.017 C 
BRANCH  22  28
HETATM   28  C15 UNL     1       5.083   0.352   0.320  1.00  0.00     0.082 C 
HETATM   29  C16 UNL     1       4.815   1.830   0.238  1.00  0.00     0.040 C 
HETATM   30  C17 UNL     1       5.971   2.674   0.730  1.00  0.00     0.168 C 
HETATM   31  O4  UNL     1       7.117   2.478  -0.032  1.00  0.00    -0.391 OA
HETATM   32  C18 UNL     1       7.216   1.175  -0.509  1.00  0.00     0.168 C 
HETATM   33  C19 UNL     1       6.593   0.183   0.471  1.00  0.00     0.040 C 
ENDBRANCH  22  28
ENDBRANCH   1  18
TORSDOF 8
