REMARK  8 active torsions:
REMARK  status: ('A' for Active; 'I' for Inactive)
REMARK    1  A    between atoms: C2_2  and  C4_4 
REMARK    2  A    between atoms: C4_4  and  C5_5 
REMARK    3  A    between atoms: C5_5  and  N1_6 
REMARK    4  A    between atoms: C5_5  and  C11_14 
REMARK       I    between atoms: N1_6  and  C6_8 
REMARK    5  A    between atoms: C6_8  and  C7_10 
REMARK       I    between atoms: C11_14  and  N2_16 
REMARK    6  A    between atoms: C15_21  and  C16_22 
REMARK    7  A    between atoms: C16_22  and  N3_23 
REMARK       I    between atoms: N3_23  and  C17_25 
REMARK    8  A    between atoms: C17_25  and  C18_27 
ROOT
HETATM    1  C11 UNL     1      -0.631   0.229  -0.784  1.00  0.00     0.243 C 
HETATM    2  O2  UNL     1      -1.250  -0.829  -0.545  1.00  0.00    -0.271 OA
HETATM    3  N2  UNL     1       0.772   0.154  -0.912  1.00  0.00    -0.343 N 
HETATM    4  C12 UNL     1       1.729   1.175  -1.287  1.00  0.00     0.142 C 
HETATM    5  C13 UNL     1       2.847   0.415  -1.990  1.00  0.00     0.078 C 
HETATM    6 BR1  UNL     1       2.963   0.966  -3.855  1.00  0.00    -0.089 Br
HETATM    7  C14 UNL     1       2.483  -1.043  -1.877  1.00  0.00     0.044 C 
HETATM    8  C15 UNL     1       1.633  -1.025  -0.622  1.00  0.00     0.106 C 
ENDROOT
BRANCH   1   9
HETATM    9  C5  UNL     1      -1.407   1.490  -0.915  1.00  0.00     0.177 C 
BRANCH   9  10
HETATM   10  C4  UNL     1      -1.030   2.612  -0.069  1.00  0.00     0.038 C 
BRANCH  10  11
HETATM   11  C2  UNL     1      -1.301   2.615   1.377  1.00  0.00    -0.020 C 
HETATM   12  C1  UNL     1      -0.770   3.969   1.894  1.00  0.00     0.009 C 
HETATM   13  C3  UNL     1      -0.629   1.570   2.191  1.00  0.00     0.009 C 
ENDBRANCH  10  11
ENDBRANCH   9  10
BRANCH   9  14
HETATM   14  N1  UNL     1      -2.829   1.200  -0.948  1.00  0.00    -0.347 N 
HETATM   15  C6  UNL     1      -3.602   0.751  -1.991  1.00  0.00     0.222 C 
HETATM   16  O1  UNL     1      -3.057   0.529  -3.130  1.00  0.00    -0.273 OA
ATOM     17  H1  UNL     1      -3.326   1.351  -0.070  1.00  0.00     0.163 HD
BRANCH  15  18
HETATM   18  C7  UNL     1      -5.050   0.505  -1.895  1.00  0.00     0.078 C 
HETATM   19  C8  UNL     1      -5.906   1.751  -1.788  1.00  0.00     0.014 C 
HETATM   20  C9  UNL     1      -6.070   1.488  -0.320  1.00  0.00     0.002 C 
HETATM   21  C10 UNL     1      -5.545   0.081  -0.540  1.00  0.00     0.014 C 
ENDBRANCH  15  18
ENDBRANCH   9  14
ENDBRANCH   1   9
BRANCH   8  22
HETATM   22  C16 UNL     1       2.503  -0.720   0.560  1.00  0.00     0.147 C 
BRANCH  22  23
HETATM   23  N3  UNL     1       3.353  -1.840   0.864  1.00  0.00    -0.359 N 
HETATM   24  C17 UNL     1       2.888  -3.121   1.236  1.00  0.00     0.221 C 
HETATM   25  O3  UNL     1       1.684  -3.398   1.324  1.00  0.00    -0.273 OA
ATOM     26  H3  UNL     1       4.362  -1.699   0.807  1.00  0.00     0.162 HD
BRANCH  24  27
HETATM   27  C18 UNL     1       3.857  -4.218   1.544  1.00  0.00     0.070 C 
HETATM   28  C19 UNL     1       4.882  -3.755   2.539  1.00  0.00     0.019 C 
HETATM   29  C20 UNL     1       4.489  -4.655   0.272  1.00  0.00     0.019 C 
ENDBRANCH  24  27
ENDBRANCH  22  23
ENDBRANCH   8  22
TORSDOF 8
