REMARK  11 active torsions:
REMARK  status: ('A' for Active; 'I' for Inactive)
REMARK    1  A    between atoms: C2_2  and  C3_3 
REMARK    2  A    between atoms: C3_3  and  N1_4 
REMARK    3  A    between atoms: N1_4  and  C4_6 
REMARK    4  A    between atoms: C5_9  and  N3_10 
REMARK    5  A    between atoms: N3_10  and  C7_12 
REMARK    6  A    between atoms: C7_12  and  C8_13 
REMARK    7  A    between atoms: C8_13  and  C9_14 
REMARK    8  A    between atoms: C9_14  and  N4_15 
REMARK    9  A    between atoms: C9_14  and  C10_19 
REMARK   10  A    between atoms: C10_19  and  O1_20 
REMARK   11  A    between atoms: C12_24  and  N6_25 
ROOT
HETATM    1  C4  UNL     1       0.740   1.809  -0.713  1.00  0.00     0.681 A 
HETATM    2  N2  UNL     1      -0.332   1.072  -0.374  1.00  0.00    -0.175 N 
ATOM      3  H2  UNL     1      -1.259   1.473  -0.515  1.00  0.00     0.186 HD
HETATM    4  C5  UNL     1      -0.244  -0.159   0.138  1.00  0.00     0.147 A 
HETATM    5  C11 UNL     1       0.996  -0.705   0.330  1.00  0.00     0.135 A 
HETATM    6  N5  UNL     1       1.104  -1.996   0.868  1.00  0.00    -0.094 NA
HETATM    7  C12 UNL     1       2.150   0.020  -0.008  1.00  0.00     0.147 A 
HETATM    8  N7  UNL     1       1.957   1.249  -0.515  1.00  0.00    -0.175 N 
ATOM      9  H7  UNL     1       2.780   1.796  -0.767  1.00  0.00     0.186 HD
ENDROOT
BRANCH   4  10
HETATM   10  N3  UNL     1      -1.484  -0.840   0.480  1.00  0.00    -0.369 N 
HETATM   11  C6  UNL     1      -1.672  -2.167  -0.039  1.00  0.00     0.151 C 
BRANCH  10  12
HETATM   12  C7  UNL     1      -2.386  -0.094   1.278  1.00  0.00     0.126 C 
BRANCH  12  13
HETATM   13  C8  UNL     1      -3.609   0.472   0.682  1.00  0.00     0.055 C 
BRANCH  13  14
HETATM   14  C9  UNL     1      -4.606  -0.449   0.082  1.00  0.00     0.208 C 
BRANCH  14  15
HETATM   15  N4  UNL     1      -5.723   0.380  -0.411  1.00  0.00    -0.073 N 
ATOM     16  H43 UNL     1      -6.120   0.985   0.308  1.00  0.00     0.274 HD
ATOM     17  H42 UNL     1      -5.423   1.116  -1.050  1.00  0.00     0.274 HD
ATOM     18  H41 UNL     1      -6.408  -0.253  -0.823  1.00  0.00     0.274 HD
ENDBRANCH  14  15
BRANCH  14  19
HETATM   19  C10 UNL     1      -5.197  -1.390   1.098  1.00  0.00     0.197 C 
BRANCH  19  20
HETATM   20  O1  UNL     1      -5.783  -0.652   2.145  1.00  0.00    -0.399 OA
ATOM     21  H1  UNL     1      -6.156  -1.246   2.786  1.00  0.00     0.209 HD
ENDBRANCH  19  20
ENDBRANCH  14  19
ENDBRANCH  13  14
ENDBRANCH  12  13
ENDBRANCH  10  12
ENDBRANCH   4  10
BRANCH   1  22
HETATM   22  N1  UNL     1       0.633   3.022  -1.205  1.00  0.00    -0.223 N 
ATOM     23  H1  UNL     1       1.440   3.589  -1.467  1.00  0.00     0.178 HD
BRANCH  22  24
HETATM   24  C3  UNL     1      -0.754   3.490  -1.345  1.00  0.00     0.164 C 
BRANCH  24  25
HETATM   25  C2  UNL     1      -0.839   4.816  -1.958  1.00  0.00    -0.017 C 
HETATM   26  C1  UNL     1      -1.494   5.018  -3.089  1.00  0.00     0.008 C 
ENDBRANCH  24  25
ENDBRANCH  22  24
ENDBRANCH   1  22
BRANCH   7  27
HETATM   27  N6  UNL     1       3.443  -0.540   0.178  1.00  0.00    -0.365 N 
HETATM   28  C13 UNL     1       4.072  -1.152  -0.952  1.00  0.00     0.124 C 
HETATM   29  C14 UNL     1       4.912  -2.351  -0.582  1.00  0.00     0.020 C 
HETATM   30  C15 UNL     1       5.790  -2.107   0.605  1.00  0.00     0.003 C 
HETATM   31  C16 UNL     1       5.507  -0.846   1.341  1.00  0.00     0.020 C 
HETATM   32  C17 UNL     1       4.066  -0.484   1.478  1.00  0.00     0.124 C 
ENDBRANCH   7  27
TORSDOF 11
