REMARK  13 active torsions:
REMARK  status: ('A' for Active; 'I' for Inactive)
REMARK    1  A    between atoms: O1_1  and  C1_3 
REMARK    2  A    between atoms: C1_3  and  C2_4 
REMARK    3  A    between atoms: C3_6  and  O3_7 
REMARK    4  A    between atoms: O3_7  and  C4_8 
REMARK    5  A    between atoms: C4_8  and  O4_9 
REMARK    6  A    between atoms: O4_9  and  C5_10 
REMARK    7  A    between atoms: C5_10  and  O5_11 
REMARK    8  A    between atoms: O5_11  and  C6_12 
REMARK    9  A    between atoms: C6_12  and  C7_13 
REMARK   10  A    between atoms: C7_13  and  C8_14 
REMARK   11  A    between atoms: C14_20  and  O6_21 
REMARK   12  A    between atoms: C15_23  and  O7_24 
REMARK   13  A    between atoms: C16_26  and  O8_27 
ROOT
HETATM    1  C2  UNL     1      -4.224   0.877   2.090  1.00  0.00     0.179 C 
HETATM    2  O2  UNL     1      -3.631  -0.348   2.305  1.00  0.00    -0.348 OA
HETATM    3  C3  UNL     1      -2.945  -0.827   1.180  1.00  0.00     0.294 C 
HETATM    4  C14 UNL     1      -3.783  -0.891  -0.036  1.00  0.00     0.204 C 
HETATM    5  C15 UNL     1      -4.909   0.075  -0.134  1.00  0.00     0.183 C 
HETATM    6  C16 UNL     1      -5.384   0.675   1.142  1.00  0.00     0.180 C 
ENDROOT
BRANCH   3   7
HETATM    7  O3  UNL     1      -2.416  -2.064   1.544  1.00  0.00    -0.334 OA
BRANCH   7   8
HETATM    8  C4  UNL     1      -1.012  -2.034   1.696  1.00  0.00     0.343 C 
BRANCH   8   9
HETATM    9  O4  UNL     1      -0.246  -1.729   0.766  1.00  0.00    -0.343 OA
BRANCH   9  10
HETATM   10  C5  UNL     1       0.418  -1.624  -0.283  1.00  0.00     0.340 C 
BRANCH  10  11
HETATM   11  O5  UNL     1       1.358  -0.533  -0.354  1.00  0.00    -0.367 OA
BRANCH  11  12
HETATM   12  C6  UNL     1       2.231  -0.761   0.710  1.00  0.00     0.171 C 
BRANCH  12  13
HETATM   13  C7  UNL     1       3.288   0.302   0.812  1.00  0.00     0.031 C 
BRANCH  13  14
HETATM   14  C8  UNL     1       4.160   0.417  -0.392  1.00  0.00    -0.013 C 
HETATM   15  C9  UNL     1       4.932  -0.805  -0.738  1.00  0.00     0.005 C 
HETATM   16  C10 UNL     1       5.330  -0.858  -2.201  1.00  0.00     0.000 C 
HETATM   17  C11 UNL     1       5.536   0.512  -2.784  1.00  0.00     0.000 C 
HETATM   18  C12 UNL     1       4.398   1.463  -2.576  1.00  0.00     0.000 C 
HETATM   19  C13 UNL     1       3.382   0.825  -1.636  1.00  0.00     0.005 C 
ENDBRANCH  13  14
ENDBRANCH  12  13
ENDBRANCH  11  12
ENDBRANCH  10  11
ENDBRANCH   9  10
ENDBRANCH   8   9
ENDBRANCH   7   8
ENDBRANCH   3   7
BRANCH   4  20
HETATM   20  O6  UNL     1      -2.956  -0.639  -1.158  1.00  0.00    -0.388 OA
ATOM     21  H6  UNL     1      -3.495  -0.680  -1.940  1.00  0.00     0.210 HD
ENDBRANCH   4  20
BRANCH   1  22
HETATM   22  C1  UNL     1      -3.287   1.937   1.566  1.00  0.00     0.198 C 
BRANCH  22  23
HETATM   23  O1  UNL     1      -3.955   3.148   1.386  1.00  0.00    -0.398 OA
ATOM     24  H1  UNL     1      -3.365   3.815   1.056  1.00  0.00     0.209 HD
ENDBRANCH  22  23
ENDBRANCH   1  22
BRANCH   5  25
HETATM   25  O7  UNL     1      -6.021  -0.580  -0.719  1.00  0.00    -0.390 OA
ATOM     26  H7  UNL     1      -6.740   0.037  -0.782  1.00  0.00     0.210 HD
ENDBRANCH   5  25
BRANCH   6  27
HETATM   27  O8  UNL     1      -5.973   1.924   0.825  1.00  0.00    -0.390 OA
ATOM     28  H8  UNL     1      -6.702   1.797   0.229  1.00  0.00     0.210 HD
ENDBRANCH   6  27
TORSDOF 13
