REMARK  11 active torsions:
REMARK  status: ('A' for Active; 'I' for Inactive)
REMARK    1  A    between atoms: C2_2  and  N1_3 
REMARK    2  A    between atoms: N1_3  and  C3_4 
REMARK    3  A    between atoms: N1_3  and  C5_6 
REMARK    4  A    between atoms: C5_6  and  C6_7 
REMARK    5  A    between atoms: C6_7  and  N2_8 
REMARK    6  A    between atoms: N2_8  and  C7_9 
REMARK    7  A    between atoms: N2_8  and  C9_13 
REMARK    8  A    between atoms: C7_9  and  C8_10 
REMARK    9  A    between atoms: C8_10  and  O1_11 
REMARK   10  A    between atoms: C9_13  and  C10_14 
REMARK   11  A    between atoms: C13_19  and  N4_20 
ROOT
HETATM    1  C10 UNL     1       2.356  -0.386  -0.464  1.00  0.00     0.030 A 
HETATM    2  C11 UNL     1       3.043  -0.688  -1.649  1.00  0.00     0.021 A 
HETATM    3  C12 UNL     1       2.684  -1.846  -2.472  1.00  0.00     0.069 C 
HETATM    4  N3  UNL     1       4.117   0.047  -1.996  1.00  0.00    -0.344 N 
ATOM      5  H3  UNL     1       4.603  -0.176  -2.864  1.00  0.00     0.167 HD
HETATM    6  C13 UNL     1       4.572   1.060  -1.246  1.00  0.00     0.128 A 
HETATM    7  C14 UNL     1       3.925   1.363  -0.064  1.00  0.00     0.106 A 
HETATM    8  N5  UNL     1       4.174   2.202   0.920  1.00  0.00    -0.329 N 
ATOM      9  H5  UNL     1       4.944   2.871   0.906  1.00  0.00     0.168 HD
HETATM   10  C15 UNL     1       3.308   2.089   1.950  1.00  0.00     0.189 A 
HETATM   11  C16 UNL     1       3.327   2.808   3.206  1.00  0.00     0.137 C 
HETATM   12  N6  UNL     1       3.399   3.376   4.240  1.00  0.00    -0.188 NA
HETATM   13  N7  UNL     1       2.461   1.109   1.562  1.00  0.00    -0.331 N 
ATOM     14  H7  UNL     1       1.673   0.772   2.115  1.00  0.00     0.168 HD
HETATM   15  C17 UNL     1       2.798   0.638   0.348  1.00  0.00     0.078 A 
ENDROOT
BRANCH   6  16
HETATM   16  N4  UNL     1       5.598   1.782  -1.605  1.00  0.00    -0.384 N 
ATOM     17  H42 UNL     1       6.076   1.558  -2.478  1.00  0.00     0.157 HD
ATOM     18  H41 UNL     1       5.944   2.553  -1.034  1.00  0.00     0.157 HD
ENDBRANCH   6  16
BRANCH   1  19
HETATM   19  C9  UNL     1       1.289  -1.281  -0.065  1.00  0.00     0.101 C 
BRANCH  19  20
HETATM   20  N2  UNL     1      -0.021  -1.031  -0.052  1.00  0.00    -0.385 N 
BRANCH  20  21
HETATM   21  C6  UNL     1      -0.759   0.032   0.450  1.00  0.00     0.152 C 
BRANCH  21  22
HETATM   22  C5  UNL     1      -2.046   0.174  -0.385  1.00  0.00     0.292 C 
BRANCH  22  23
HETATM   23  N1  UNL     1      -3.005   1.155   0.021  1.00  0.00     0.089 N 
BRANCH  23  24
HETATM   24  C2  UNL     1      -4.282   0.608  -0.576  1.00  0.00     0.268 C 
HETATM   25  C1  UNL     1      -4.596  -0.668   0.164  1.00  0.00     0.037 C 
ENDBRANCH  23  24
BRANCH  23  26
HETATM   26  C3  UNL     1      -2.774   2.414  -0.723  1.00  0.00     0.268 C 
HETATM   27  C4  UNL     1      -3.813   3.445  -0.489  1.00  0.00     0.037 C 
ENDBRANCH  23  26
ENDBRANCH  22  23
ENDBRANCH  21  22
ENDBRANCH  20  21
BRANCH  20  28
HETATM   28  C7  UNL     1      -0.846  -2.250   0.002  1.00  0.00     0.148 C 
BRANCH  28  29
HETATM   29  C8  UNL     1      -0.175  -3.536   0.031  1.00  0.00     0.183 C 
BRANCH  29  30
HETATM   30  O1  UNL     1       0.666  -3.727   1.122  1.00  0.00    -0.399 OA
ATOM     31  H1  UNL     1       1.105  -4.569   1.141  1.00  0.00     0.209 HD
ENDBRANCH  29  30
ENDBRANCH  28  29
ENDBRANCH  20  28
ENDBRANCH  19  20
ENDBRANCH   1  19
TORSDOF 11
