REMARK  14 active torsions:
REMARK  status: ('A' for Active; 'I' for Inactive)
REMARK    1  A    between atoms: C2_2  and  C3_3 
REMARK    2  A    between atoms: C3_3  and  C4_4 
REMARK    3  A    between atoms: C4_4  and  C5_5 
REMARK    4  A    between atoms: C5_5  and  C6_6 
REMARK    5  A    between atoms: C7_7  and  C8_8 
REMARK    6  A    between atoms: C11_15  and  N3_16 
REMARK    7  A    between atoms: N4_19  and  C12_20 
REMARK    8  A    between atoms: C12_20  and  C13_21 
REMARK    9  A    between atoms: C13_21  and  O1_22 
REMARK   10  A    between atoms: N5_26  and  C15_27 
REMARK   11  A    between atoms: C15_27  and  C16_28 
REMARK   12  A    between atoms: C16_28  and  C17_29 
REMARK   13  A    between atoms: C17_29  and  C18_30 
REMARK   14  A    between atoms: C18_30  and  N6_31 
ROOT
HETATM    1  C8  UNL     1       0.613  -0.390   0.017  1.00  0.00     0.132 A 
HETATM    2  N1  UNL     1      -0.677  -0.051  -0.162  1.00  0.00    -0.329 N 
ATOM      3  H1  UNL     1      -0.915   0.941  -0.180  1.00  0.00     0.168 HD
HETATM    4  C9  UNL     1      -1.669  -0.944  -0.318  1.00  0.00     0.158 A 
HETATM    5  C10 UNL     1      -1.354  -2.310  -0.294  1.00  0.00     0.158 A 
HETATM    6  N2  UNL     1      -0.072  -2.670  -0.117  1.00  0.00    -0.323 N 
ATOM      7  H2  UNL     1       0.170  -3.661  -0.098  1.00  0.00     0.169 HD
HETATM    8  C11 UNL     1       0.897  -1.753   0.036  1.00  0.00     0.136 A 
HETATM    9  N4  UNL     1      -2.508  -3.006  -0.470  1.00  0.00    -0.280 N 
HETATM   10  C14 UNL     1      -3.486  -2.074  -0.596  1.00  0.00     0.332 A 
HETATM   11  O2  UNL     1      -4.692  -2.351  -0.773  1.00  0.00    -0.246 OA
HETATM   12  N5  UNL     1      -2.995  -0.851  -0.507  1.00  0.00    -0.282 N 
ENDROOT
BRANCH  12  13
HETATM   13  C15 UNL     1      -3.742   0.420  -0.594  1.00  0.00     0.135 C 
BRANCH  13  14
HETATM   14  C16 UNL     1      -4.210   0.858   0.748  1.00  0.00     0.022 C 
BRANCH  14  15
HETATM   15  C17 UNL     1      -4.994   2.125   0.649  1.00  0.00     0.029 C 
BRANCH  15  16
HETATM   16  C18 UNL     1      -4.162   3.237   0.072  1.00  0.00     0.229 C 
BRANCH  16  17
HETATM   17  N6  UNL     1      -4.931   4.486   0.010  1.00  0.00    -0.079 N 
ATOM     18  H63 UNL     1      -5.806   4.365  -0.500  1.00  0.00     0.274 HD
ATOM     19  H62 UNL     1      -5.317   4.737   0.920  1.00  0.00     0.274 HD
ATOM     20  H61 UNL     1      -4.367   5.240  -0.381  1.00  0.00     0.274 HD
ENDBRANCH  16  17
ENDBRANCH  15  16
ENDBRANCH  14  15
ENDBRANCH  13  14
ENDBRANCH  12  13
BRANCH   9  21
HETATM   21  C12 UNL     1      -2.660  -4.448  -0.514  1.00  0.00     0.161 C 
BRANCH  21  22
HETATM   22  C13 UNL     1      -2.918  -5.030   0.853  1.00  0.00     0.184 C 
BRANCH  22  23
HETATM   23  O1  UNL     1      -4.083  -4.514   1.424  1.00  0.00    -0.399 OA
ATOM     24  H1  UNL     1      -4.246  -4.881   2.285  1.00  0.00     0.209 HD
ENDBRANCH  22  23
ENDBRANCH  21  22
ENDBRANCH   9  21
BRANCH   1  25
HETATM   25  C7  UNL     1       1.660   0.590   0.182  1.00  0.00    -0.045 C 
HETATM   26  C6  UNL     1       2.551   1.395   0.320  1.00  0.00    -0.100 C 
BRANCH  26  27
HETATM   27  C5  UNL     1       3.660   2.362   0.483  1.00  0.00     0.094 C 
BRANCH  27  28
HETATM   28  C4  UNL     1       4.921   1.665   0.021  1.00  0.00     0.012 C 
BRANCH  28  29
HETATM   29  C3  UNL     1       6.116   2.585   0.152  1.00  0.00     0.000 C 
BRANCH  29  30
HETATM   30  C2  UNL     1       7.384   1.902  -0.306  1.00  0.00    -0.005 C 
HETATM   31  C1  UNL     1       7.693   0.668   0.487  1.00  0.00     0.005 C 
ENDBRANCH  29  30
ENDBRANCH  28  29
ENDBRANCH  27  28
ENDBRANCH  26  27
ENDBRANCH   1  25
BRANCH   8  32
HETATM   32  N3  UNL     1       2.128  -2.084   0.207  1.00  0.00    -0.383 N 
ATOM     33  H32 UNL     1       2.864  -1.387   0.323  1.00  0.00     0.157 HD
ATOM     34  H31 UNL     1       2.336  -3.082   0.221  1.00  0.00     0.157 HD
ENDBRANCH   8  32
TORSDOF 14
