REMARK  17 active torsions:
REMARK  status: ('A' for Active; 'I' for Inactive)
REMARK    1  A    between atoms: C4_4  and  C5_5 
REMARK    2  A    between atoms: C5_5  and  O1_6 
REMARK    3  A    between atoms: O1_6  and  C6_7 
REMARK    4  A    between atoms: C8_10  and  C9_11 
REMARK    5  A    between atoms: C9_11  and  O3_12 
REMARK    6  A    between atoms: C9_11  and  C10_14 
REMARK    7  A    between atoms: C10_14  and  O4_15 
REMARK    8  A    between atoms: O4_15  and  C11_16 
REMARK    9  A    between atoms: C11_16  and  C12_17 
REMARK   10  A    between atoms: C12_17  and  O5_18 
REMARK   11  A    between atoms: C12_17  and  C13_20 
REMARK   12  A    between atoms: C16_23  and  C17_24 
REMARK   13  A    between atoms: C18_25  and  C19_26 
REMARK   14  A    between atoms: C19_26  and  O6_27 
REMARK   15  A    between atoms: C19_26  and  C20_29 
REMARK   16  A    between atoms: C20_29  and  C21_30 
REMARK   17  A    between atoms: C21_30  and  O7_31 
ROOT
HETATM    1  C6  UNL     1      -2.147  -0.964   0.691  1.00  0.00     0.277 C 
HETATM    2  O2  UNL     1      -1.334  -2.052   0.162  1.00  0.00    -0.331 OA
HETATM    3  C7  UNL     1      -0.060  -1.564  -0.047  1.00  0.00     0.144 C 
HETATM    4  C8  UNL     1       0.146  -0.472   0.664  1.00  0.00    -0.015 C 
HETATM    5  C16 UNL     1      -1.125  -0.194   1.426  1.00  0.00     0.097 C 
ENDROOT
BRANCH   4   6
HETATM    6  C9  UNL     1       1.342   0.384   0.759  1.00  0.00     0.173 C 
BRANCH   6   7
HETATM    7  O3  UNL     1       1.135   1.663   0.195  1.00  0.00    -0.389 OA
ATOM      8  H3  UNL     1       1.906   2.215   0.256  1.00  0.00     0.210 HD
ENDBRANCH   6   7
BRANCH   6   9
HETATM    9  C10 UNL     1       2.487  -0.208  -0.094  1.00  0.00     0.204 C 
BRANCH   9  10
HETATM   10  O4  UNL     1       3.536   0.645   0.068  1.00  0.00    -0.386 OA
BRANCH  10  11
HETATM   11  C11 UNL     1       4.692   0.458  -0.613  1.00  0.00     0.199 C 
BRANCH  11  12
HETATM   12  C12 UNL     1       5.336  -0.859  -0.307  1.00  0.00     0.145 C 
BRANCH  12  13
HETATM   13  O5  UNL     1       4.576  -1.937  -0.689  1.00  0.00    -0.393 OA
ATOM     14  H5  UNL     1       4.985  -2.772  -0.495  1.00  0.00     0.210 HD
ENDBRANCH  12  13
BRANCH  12  15
HETATM   15  C13 UNL     1       6.751  -0.938  -0.863  1.00  0.00     0.008 C 
HETATM   16  C14 UNL     1       7.298  -2.310  -0.492  1.00  0.00     0.012 C 
HETATM   17  C15 UNL     1       7.586   0.088  -0.130  1.00  0.00     0.012 C 
ENDBRANCH  12  15
ENDBRANCH  11  12
ENDBRANCH  10  11
ENDBRANCH   9  10
ENDBRANCH   6   9
ENDBRANCH   4   6
BRANCH   5  18
HETATM   18  C17 UNL     1      -1.340   1.242   1.415  1.00  0.00    -0.014 C 
HETATM   19  C18 UNL     1      -2.365   1.847   0.903  1.00  0.00     0.001 C 
BRANCH  19  20
HETATM   20  C19 UNL     1      -2.474   3.363   0.956  1.00  0.00     0.142 C 
BRANCH  20  21
HETATM   21  O6  UNL     1      -3.647   3.631   1.644  1.00  0.00    -0.392 OA
ATOM     22  H6  UNL     1      -3.715   4.578   1.677  1.00  0.00     0.210 HD
ENDBRANCH  20  21
BRANCH  20  23
HETATM   23  C20 UNL     1      -2.544   3.814  -0.489  1.00  0.00     0.061 C 
BRANCH  23  24
HETATM   24  C21 UNL     1      -2.656   5.315  -0.582  1.00  0.00     0.167 C 
BRANCH  24  25
HETATM   25  O7  UNL     1      -2.714   5.654  -1.928  1.00  0.00    -0.401 OA
ATOM     26  H7  UNL     1      -2.785   6.600  -1.987  1.00  0.00     0.209 HD
ENDBRANCH  24  25
ENDBRANCH  23  24
ENDBRANCH  20  23
ENDBRANCH  19  20
ENDBRANCH   5  18
BRANCH   1  27
HETATM   27  O1  UNL     1      -3.047  -1.634   1.522  1.00  0.00    -0.356 OA
BRANCH  27  28
HETATM   28  C5  UNL     1      -4.330  -1.442   1.039  1.00  0.00     0.198 C 
BRANCH  28  29
HETATM   29  C4  UNL     1      -4.476  -1.970  -0.368  1.00  0.00     0.001 C 
HETATM   30  C2  UNL     1      -5.354  -2.920  -0.630  1.00  0.00    -0.089 C 
HETATM   31  C1  UNL     1      -5.502  -3.446  -2.025  1.00  0.00     0.042 C 
HETATM   32  C3  UNL     1      -6.186  -3.452   0.485  1.00  0.00     0.042 C 
ENDBRANCH  28  29
ENDBRANCH  27  28
ENDBRANCH   1  27
TORSDOF 17
