REMARK  9 active torsions:
REMARK  status: ('A' for Active; 'I' for Inactive)
REMARK    1  A    between atoms: O1_2  and  C2_3 
REMARK    2  A    between atoms: C6_9  and  C7_10 
REMARK    3  A    between atoms: C7_10  and  C8_11 
REMARK    4  A    between atoms: C8_11  and  C9_12 
REMARK    5  A    between atoms: C9_12  and  C10_13 
REMARK    6  A    between atoms: C9_12  and  C24_41 
REMARK    7  A    between atoms: C12_17  and  C13_18 
REMARK    8  A    between atoms: N6_28  and  C17_30 
REMARK    9  A    between atoms: C17_30  and  C18_31 
ROOT
HETATM    1  C10 UNL     1      -0.640  -2.828  -0.025  1.00  0.00     0.190 A 
HETATM    2  N2  UNL     1       0.330  -1.803  -0.030  1.00  0.00    -0.342 N 
ATOM      3  H2  UNL     1       0.017  -0.833  -0.062  1.00  0.00     0.167 HD
HETATM    4  C11 UNL     1       1.616  -2.047   0.005  1.00  0.00     0.124 A 
HETATM    5  C12 UNL     1       2.131  -3.406   0.053  1.00  0.00     0.100 A 
HETATM    6  N7  UNL     1       1.151  -4.440   0.058  1.00  0.00    -0.256 N 
ATOM      7  H7  UNL     1       1.442  -5.417   0.090  1.00  0.00     0.195 HD
HETATM    8  O2  UNL     1      -0.177  -4.125   0.020  1.00  0.00    -0.218 OA
ENDROOT
BRANCH   1   9
HETATM    9  C9  UNL     1      -1.923  -2.607  -0.061  1.00  0.00     0.081 C 
BRANCH   9  10
HETATM   10  C8  UNL     1      -2.414  -1.264  -0.109  1.00  0.00    -0.055 C 
BRANCH  10  11
HETATM   11  C7  UNL     1      -2.857  -0.145  -0.150  1.00  0.00    -0.043 C 
BRANCH  11  12
HETATM   12  C6  UNL     1      -3.418   1.173  -0.200  1.00  0.00     0.088 A 
HETATM   13  C5  UNL     1      -2.710   2.319  -0.441  1.00  0.00     0.041 A 
HETATM   14  C4  UNL     1      -3.281   3.571  -0.488  1.00  0.00     0.036 A 
HETATM   15  C3  UNL     1      -4.657   3.664  -0.276  1.00  0.00     0.080 A 
HETATM   16  N1  UNL     1      -5.527   4.685  -0.252  1.00  0.00    -0.319 N 
HETATM   17  C30 UNL     1      -5.379   2.509  -0.032  1.00  0.00     0.136 A 
HETATM   18  C2  UNL     1      -6.762   4.229  -0.003  1.00  0.00     0.225 A 
ATOM     19  H1  UNL     1      -5.284   5.664  -0.401  1.00  0.00     0.169 HD
HETATM   20  N9  UNL     1      -6.652   2.885   0.129  1.00  0.00    -0.306 N 
ATOM     21  H9  UNL     1      -7.428   2.252   0.323  1.00  0.00     0.171 HD
HETATM   22  N8  UNL     1      -4.758   1.328  -0.002  1.00  0.00    -0.334 N 
ATOM     23  H8  UNL     1      -5.317   0.495   0.179  1.00  0.00     0.168 HD
BRANCH  18  24
HETATM   24  O1  UNL     1      -7.966   4.951   0.108  1.00  0.00    -0.327 OA
HETATM   25  C1  UNL     1      -7.922   6.347  -0.055  1.00  0.00     0.213 C 
ENDBRANCH  18  24
ENDBRANCH  11  12
ENDBRANCH  10  11
ENDBRANCH   9  10
BRANCH   9  26
HETATM   26  C24 UNL     1      -2.877  -3.714  -0.042  1.00  0.00    -0.013 A 
HETATM   27  C25 UNL     1      -3.973  -3.660  -0.894  1.00  0.00     0.013 A 
HETATM   28  C26 UNL     1      -4.931  -4.639  -0.949  1.00  0.00     0.001 A 
HETATM   29  C27 UNL     1      -4.815  -5.735  -0.124  1.00  0.00     0.000 A 
HETATM   30  C28 UNL     1      -3.735  -5.800   0.724  1.00  0.00     0.001 A 
HETATM   31  C29 UNL     1      -2.776  -4.814   0.774  1.00  0.00     0.013 A 
ENDBRANCH   9  26
ENDBRANCH   1   9
BRANCH   5  32
HETATM   32  C13 UNL     1       3.434  -3.694   0.088  1.00  0.00     0.107 A 
HETATM   33  N3  UNL     1       3.904  -4.958   0.133  1.00  0.00    -0.295 N 
HETATM   34  N4  UNL     1       5.229  -4.910   0.160  1.00  0.00    -0.291 N 
ATOM     35  H3  UNL     1       3.337  -5.806   0.144  1.00  0.00     0.187 HD
HETATM   36  C14 UNL     1       5.610  -3.631   0.133  1.00  0.00     0.121 A 
ATOM     37  H4  UNL     1       5.853  -5.716   0.195  1.00  0.00     0.187 HD
HETATM   38  C15 UNL     1       4.520  -2.801   0.087  1.00  0.00     0.100 A 
HETATM   39  S1  UNL     1       7.021  -2.517   0.139  1.00  0.00    -0.033 SA
HETATM   40  N5  UNL     1       4.716  -1.573   0.055  1.00  0.00    -0.332 N 
HETATM   41  C16 UNL     1       6.001  -1.061   0.068  1.00  0.00     0.147 A 
ATOM     42  H5  UNL     1       3.920  -0.936   0.019  1.00  0.00     0.168 HD
HETATM   43  N6  UNL     1       6.400   0.131   0.035  1.00  0.00    -0.366 N 
ATOM     44  H6  UNL     1       7.395   0.355   0.052  1.00  0.00     0.162 HD
BRANCH  43  45
HETATM   45  C17 UNL     1       5.390   1.182  -0.029  1.00  0.00     0.160 C 
BRANCH  45  46
HETATM   46  C18 UNL     1       5.955   2.515   0.146  1.00  0.00    -0.041 A 
HETATM   47  C19 UNL     1       7.296   2.679   0.381  1.00  0.00     0.009 A 
HETATM   48  C20 UNL     1       7.858   3.930   0.549  1.00  0.00     0.001 A 
HETATM   49  C21 UNL     1       7.066   5.042   0.483  1.00  0.00     0.000 A 
HETATM   50  C22 UNL     1       5.705   4.906   0.247  1.00  0.00     0.001 A 
HETATM   51  C23 UNL     1       5.156   3.627   0.079  1.00  0.00     0.009 A 
ENDBRANCH  45  46
ENDBRANCH  43  45
ENDBRANCH   5  32
TORSDOF 9
