REMARK  6 active torsions:
REMARK  status: ('A' for Active; 'I' for Inactive)
REMARK    1  A    between atoms: C4_5  and  N2_6 
REMARK    2  A    between atoms: N2_6  and  C5_8 
REMARK    3  A    between atoms: C6_11  and  N4_12 
REMARK    4  A    between atoms: N4_12  and  C7_14 
REMARK    5  A    between atoms: N6_24  and  C14_25 
REMARK    6  A    between atoms: C15_28  and  N8_29 
ROOT
HETATM    1  C5  UNL     1      -1.450   0.155   0.194  1.00  0.00     0.718 A 
HETATM    2  N3  UNL     1      -2.514  -0.465  -0.329  1.00  0.00    -0.021 N 
ATOM      3  H3  UNL     1      -3.298   0.117  -0.622  1.00  0.00     0.203 HD
HETATM    4  C6  UNL     1      -2.634  -1.800  -0.500  1.00  0.00     0.697 A 
HETATM    5  N5  UNL     1      -1.600  -2.562  -0.112  1.00  0.00    -0.139 N 
ATOM      6  H5  UNL     1      -1.649  -3.575  -0.223  1.00  0.00     0.189 HD
HETATM    7  C13 UNL     1      -0.496  -2.000   0.424  1.00  0.00     0.376 A 
HETATM    8  O1  UNL     1       0.491  -2.721   0.795  1.00  0.00    -0.244 OA
HETATM    9  N6  UNL     1      -0.418  -0.673   0.575  1.00  0.00     0.077 N 
ENDROOT
BRANCH   9  10
HETATM   10  C14 UNL     1       0.746  -0.100   1.138  1.00  0.00     0.711 A 
HETATM   11  N7  UNL     1       1.900  -0.027   0.473  1.00  0.00    -0.174 N 
HETATM   12  C15 UNL     1       3.018   0.512   0.984  1.00  0.00     0.134 A 
ATOM     13  H7  UNL     1       1.935  -0.401  -0.475  1.00  0.00     0.186 HD
HETATM   14  C24 UNL     1       2.942   1.010   2.271  1.00  0.00     0.054 A 
HETATM   15  C25 UNL     1       3.828   1.618   3.126  1.00  0.00     0.036 A 
HETATM   16  C27 UNL     1       1.758   0.952   2.995  1.00  0.00     0.135 A 
HETATM   17  C26 UNL     1       3.188   1.906   4.307  1.00  0.00     0.091 A 
HETATM   18  N9  UNL     1       1.922   1.492   4.210  1.00  0.00    -0.351 N 
ATOM     19  H9  UNL     1       1.207   1.573   4.933  1.00  0.00     0.166 HD
HETATM   20  N10 UNL     1       0.696   0.390   2.385  1.00  0.00    -0.174 N 
ATOM     21  H10 UNL     1      -0.186   0.335   2.895  1.00  0.00     0.186 HD
BRANCH  12  22
HETATM   22  N8  UNL     1       4.222   0.592   0.272  1.00  0.00    -0.352 N 
HETATM   23  C16 UNL     1       4.731   1.940  -0.031  1.00  0.00     0.151 C 
HETATM   24  C17 UNL     1       6.224   1.951   0.034  1.00  0.00     0.187 C 
HETATM   25  O2  UNL     1       6.718   0.884   0.818  1.00  0.00    -0.387 OA
HETATM   26  C18 UNL     1       6.452  -0.313   0.168  1.00  0.00     0.198 C 
HETATM   27  C19 UNL     1       5.008  -0.502  -0.191  1.00  0.00     0.055 C 
HETATM   28  C20 UNL     1       4.499  -1.867   0.209  1.00  0.00     0.033 C 
HETATM   29  C23 UNL     1       4.871  -0.605  -1.715  1.00  0.00     0.033 C 
HETATM   30  C21 UNL     1       5.402  -2.746  -0.677  1.00  0.00     0.003 C 
HETATM   31  C22 UNL     1       5.526  -1.957  -1.975  1.00  0.00     0.003 C 
ENDBRANCH  12  22
ENDBRANCH   9  10
BRANCH   1  32
HETATM   32  N2  UNL     1      -1.258   1.368   0.387  1.00  0.00    -0.220 N 
ATOM     33  H2  UNL     1      -0.337   1.501   0.805  1.00  0.00     0.178 HD
BRANCH  32  34
HETATM   34  C4  UNL     1      -1.867   2.596   0.228  1.00  0.00     0.102 C 
HETATM   35  C3  UNL     1      -1.290   3.306  -0.998  1.00  0.00     0.045 C 
HETATM   36  C2  UNL     1      -2.268   4.352  -1.500  1.00  0.00     0.118 C 
HETATM   37  N1  UNL     1      -3.042   4.961  -0.464  1.00  0.00    -0.416 N 
HETATM   38  C1  UNL     1      -2.367   6.006   0.254  1.00  0.00     0.143 C 
HETATM   39  C29 UNL     1      -3.810   4.073   0.348  1.00  0.00     0.118 C 
HETATM   40  C28 UNL     1      -3.367   2.635   0.035  1.00  0.00     0.045 C 
ENDBRANCH  32  34
ENDBRANCH   1  32
BRANCH   4  41
HETATM   41  N4  UNL     1      -3.723  -2.298  -1.024  1.00  0.00    -0.221 N 
ATOM     42  H4  UNL     1      -4.457  -1.642  -1.290  1.00  0.00     0.178 HD
BRANCH  41  43
HETATM   43  C7  UNL     1      -3.967  -3.681  -1.253  1.00  0.00     0.099 C 
HETATM   44  C8  UNL     1      -4.452  -4.428  -0.029  1.00  0.00     0.026 C 
HETATM   45  C9  UNL     1      -5.768  -3.878   0.479  1.00  0.00     0.002 C 
HETATM   46  C10 UNL     1      -6.655  -3.415  -0.655  1.00  0.00     0.000 C 
HETATM   47  C11 UNL     1      -6.317  -4.256  -1.876  1.00  0.00     0.002 C 
HETATM   48  C12 UNL     1      -4.985  -3.781  -2.384  1.00  0.00     0.026 C 
ENDBRANCH  41  43
ENDBRANCH   4  41
TORSDOF 6
