REMARK  5 active torsions:
REMARK  status: ('A' for Active; 'I' for Inactive)
REMARK    1  A    between atoms: C3_3  and  C4_4 
REMARK    2  A    between atoms: C4_4  and  N1_5 
REMARK    3  A    between atoms: C14_21  and  N5_22 
REMARK    4  A    between atoms: N5_22  and  C15_23 
REMARK    5  A    between atoms: C21_32  and  C22_33 
ROOT
HETATM    1  C22 UNL     1      -3.000  -0.995  -0.524  1.00  0.00    -0.008 A 
HETATM    2  C23 UNL     1      -4.322  -0.504  -0.625  1.00  0.00     0.016 A 
HETATM    3  C24 UNL     1      -5.405  -1.346  -0.522  1.00  0.00     0.032 A 
HETATM    4  C25 UNL     1      -5.263  -2.697  -0.304  1.00  0.00     0.059 A 
HETATM    5  C26 UNL     1      -3.995  -3.199  -0.202  1.00  0.00    -0.029 A 
HETATM    6  C27 UNL     1      -2.943  -2.337  -0.327  1.00  0.00     0.023 A 
HETATM    7  C28 UNL     1      -3.737  -4.688   0.100  1.00  0.00     0.050 C 
HETATM    8  C29 UNL     1      -4.917  -5.272   0.836  1.00  0.00     0.109 C 
HETATM    9  C30 UNL     1      -6.207  -4.878   0.227  1.00  0.00     0.237 C 
HETATM   10  O2  UNL     1      -7.084  -5.721   0.022  1.00  0.00    -0.272 OA
HETATM   11  N8  UNL     1      -6.399  -3.524  -0.100  1.00  0.00    -0.218 N 
HETATM   12  C31 UNL     1      -7.692  -2.971  -0.230  1.00  0.00     0.192 C 
HETATM   13  N9  UNL     1      -8.732  -2.511  -0.321  1.00  0.00    -0.171 NA
ENDROOT
BRANCH   1  14
HETATM   14  C21 UNL     1      -1.921  -0.060  -0.657  1.00  0.00     0.054 A 
HETATM   15  C12 UNL     1      -0.639  -0.358  -0.161  1.00  0.00     0.002 A 
HETATM   16  C11 UNL     1      -0.457  -1.343   0.962  1.00  0.00     0.063 C 
HETATM   17  C13 UNL     1       0.396   0.562  -0.375  1.00  0.00     0.089 A 
HETATM   18  C10 UNL     1       0.897  -1.655   1.413  1.00  0.00     0.135 C 
HETATM   19  N3  UNL     1       1.921  -0.708   1.080  1.00  0.00    -0.333 N 
HETATM   20  C2  UNL     1       3.197  -0.766   1.454  1.00  0.00     0.034 A 
HETATM   21  C9  UNL     1       1.696   0.324   0.272  1.00  0.00     0.136 A 
HETATM   22  C1  UNL     1       3.726  -1.806   2.421  1.00  0.00     0.070 C 
HETATM   23  C3  UNL     1       3.856   0.295   0.851  1.00  0.00     0.051 A 
HETATM   24  N2  UNL     1       2.915   0.934   0.135  1.00  0.00    -0.341 N 
ATOM     25  H2  UNL     1       3.086   1.763  -0.435  1.00  0.00     0.167 HD
HETATM   26  N4  UNL     1       0.155   1.743  -0.994  1.00  0.00    -0.312 N 
HETATM   27  C14 UNL     1      -1.078   2.076  -1.437  1.00  0.00     0.260 A 
ATOM     28  H4  UNL     1       0.925   2.398  -1.129  1.00  0.00     0.170 HD
HETATM   29  N7  UNL     1      -2.089   1.131  -1.266  1.00  0.00    -0.315 N 
ATOM     30  H7  UNL     1      -3.017   1.356  -1.625  1.00  0.00     0.170 HD
BRANCH  23  31
HETATM   31  C4  UNL     1       5.261   0.620   1.080  1.00  0.00     0.176 C 
BRANCH  31  32
HETATM   32  N1  UNL     1       6.162   0.239   0.010  1.00  0.00    -0.403 N 
HETATM   33  C5  UNL     1       5.875   0.283  -1.343  1.00  0.00     0.143 C 
HETATM   34  C6  UNL     1       6.600  -0.886  -2.027  1.00  0.00     0.187 C 
HETATM   35  O1  UNL     1       6.347  -2.127  -1.437  1.00  0.00    -0.388 OA
HETATM   36  C7  UNL     1       6.628  -2.207  -0.089  1.00  0.00     0.187 C 
HETATM   37  C8  UNL     1       7.005  -0.879   0.468  1.00  0.00     0.143 C 
ENDBRANCH  31  32
ENDBRANCH  23  31
BRANCH  27  38
HETATM   38  N5  UNL     1      -1.445   3.283  -1.289  1.00  0.00    -0.371 NA
BRANCH  38  39
HETATM   39  C15 UNL     1      -1.839   4.489  -1.153  1.00  0.00     0.113 A 
HETATM   40  C16 UNL     1      -2.444   4.810   0.150  1.00  0.00     0.045 A 
HETATM   41  C17 UNL     1      -2.854   6.032   0.513  1.00  0.00     0.005 A 
HETATM   42  C18 UNL     1      -2.725   7.093  -0.332  1.00  0.00     0.027 A 
HETATM   43  C19 UNL     1      -2.149   6.874  -1.614  1.00  0.00     0.049 A 
HETATM   44  N6  UNL     1      -2.015   8.071  -2.337  1.00  0.00    -0.102 NA
HETATM   45  C20 UNL     1      -1.732   5.588  -1.978  1.00  0.00     0.071 A 
ENDBRANCH  38  39
ENDBRANCH  27  38
ENDBRANCH   1  14
TORSDOF 5
