REMARK  4 active torsions:
REMARK  status: ('A' for Active; 'I' for Inactive)
REMARK    1  A    between atoms: N2_6  and  C5_7 
REMARK    2  A    between atoms: C5_7  and  C6_8 
REMARK    3  A    between atoms: N3_26  and  C22_27 
REMARK       I    between atoms: C24_33  and  N5_34 
REMARK    4  A    between atoms: C27_39  and  N7_40 
ROOT
HETATM    1  C1  UNL     1      -2.625   0.900  -3.023  1.00  0.00     0.315 C 
HETATM    2  N1  UNL     1      -1.916   0.865  -1.781  1.00  0.00     0.135 N 
HETATM    3  C2  UNL     1      -0.644   1.535  -1.817  1.00  0.00     0.278 C 
HETATM    4  C3  UNL     1       0.429   0.468  -1.859  1.00  0.00     0.060 C 
HETATM    5  C4  UNL     1       1.498   0.715  -0.828  1.00  0.00     0.274 C 
HETATM    6  N2  UNL     1       1.744  -0.420   0.013  1.00  0.00     0.094 N 
HETATM    7  C16 UNL     1       2.303  -1.550  -0.653  1.00  0.00     0.299 C 
HETATM    8  C17 UNL     1       2.158  -2.792   0.195  1.00  0.00     0.198 C 
HETATM    9  O1  UNL     1       0.994  -2.773   0.956  1.00  0.00    -0.387 OA
HETATM   10  C18 UNL     1       1.077  -3.802   1.894  1.00  0.00     0.193 C 
HETATM   11  C19 UNL     1      -0.095  -4.769   1.738  1.00  0.00     0.193 C 
HETATM   12  O2  UNL     1      -0.789  -4.505   0.574  1.00  0.00    -0.387 OA
HETATM   13  C20 UNL     1      -1.838  -3.624   0.833  1.00  0.00     0.187 C 
HETATM   14  C21 UNL     1      -2.684  -3.483  -0.410  1.00  0.00     0.153 C 
HETATM   15  N3  UNL     1      -3.589  -2.374  -0.362  1.00  0.00    -0.334 N 
HETATM   16  C23 UNL     1      -3.260  -1.160  -1.080  1.00  0.00     0.363 C 
HETATM   17  N4  UNL     1      -3.551   0.025  -0.313  1.00  0.00    -0.009 N 
ATOM     18  H41 UNL     1      -3.520  -0.178   0.686  1.00  0.00     0.283 HD
ATOM     19  H42 UNL     1      -4.534   0.280  -0.406  1.00  0.00     0.283 HD
HETATM   20  C24 UNL     1      -2.700   1.154  -0.630  1.00  0.00     0.532 C 
HETATM   21  N5  UNL     1      -3.446   2.392  -0.711  1.00  0.00    -0.273 N 
HETATM   22  C25 UNL     1      -3.323   3.434  -1.530  1.00  0.00     0.189 A 
HETATM   23  N6  UNL     1      -4.269   4.344  -1.191  1.00  0.00    -0.346 N 
ATOM     24  H6  UNL     1      -4.412   5.244  -1.648  1.00  0.00     0.167 HD
HETATM   25  C26 UNL     1      -4.988   3.873  -0.158  1.00  0.00     0.122 A 
HETATM   26  C27 UNL     1      -6.049   4.338   0.593  1.00  0.00     0.131 A 
HETATM   27  N8  UNL     1      -6.561   3.599   1.598  1.00  0.00    -0.337 N 
ATOM     28  H8  UNL     1      -7.346   3.962   2.139  1.00  0.00     0.168 HD
HETATM   29  C28 UNL     1      -6.056   2.397   1.896  1.00  0.00     0.183 A 
HETATM   30  N9  UNL     1      -5.025   1.937   1.171  1.00  0.00    -0.336 N 
ATOM     31  H9  UNL     1      -4.639   1.020   1.396  1.00  0.00     0.168 HD
HETATM   32  C29 UNL     1      -4.474   2.643   0.150  1.00  0.00     0.143 A 
ENDROOT
BRANCH  15  33
HETATM   33  C22 UNL     1      -4.789  -2.460   0.375  1.00  0.00     0.352 C 
HETATM   34  O3  UNL     1      -5.572  -1.490   0.411  1.00  0.00    -0.283 OA
ENDBRANCH  15  33
BRANCH  26  35
HETATM   35  N7  UNL     1      -6.521   5.507   0.285  1.00  0.00    -0.383 N 
ATOM     36  H72 UNL     1      -6.134   6.066  -0.475  1.00  0.00     0.157 HD
ATOM     37  H71 UNL     1      -7.305   5.851   0.840  1.00  0.00     0.157 HD
ENDBRANCH  26  35
BRANCH   6  38
HETATM   38  C5  UNL     1       2.454  -0.068   1.203  1.00  0.00     0.311 C 
BRANCH  38  39
HETATM   39  C6  UNL     1       3.783   0.541   0.952  1.00  0.00    -0.029 A 
HETATM   40  C7  UNL     1       3.935   1.906   0.799  1.00  0.00     0.010 A 
HETATM   41  C8  UNL     1       5.176   2.462   0.566  1.00  0.00     0.013 A 
HETATM   42  C9  UNL     1       6.333   1.697   0.472  1.00  0.00    -0.026 A 
HETATM   43  C10 UNL     1       7.563   2.262   0.239  1.00  0.00     0.012 A 
HETATM   44  C14 UNL     1       6.170   0.328   0.626  1.00  0.00    -0.025 A 
HETATM   45  C11 UNL     1       8.692   1.490   0.150  1.00  0.00     0.001 A 
HETATM   46  C12 UNL     1       8.549   0.128   0.301  1.00  0.00     0.001 A 
HETATM   47  C13 UNL     1       7.315  -0.446   0.535  1.00  0.00     0.012 A 
HETATM   48  C15 UNL     1       4.928  -0.223   0.859  1.00  0.00     0.021 A 
ENDBRANCH  38  39
ENDBRANCH   6  38
TORSDOF 4
