REMARK  4 active torsions:
REMARK  status: ('A' for Active; 'I' for Inactive)
REMARK    1  A    between atoms: C3_3  and  N1_4 
REMARK    2  A    between atoms: C10_13  and  N3_14 
REMARK       I    between atoms: N3_14  and  C11_16 
REMARK    3  A    between atoms: C11_16  and  C12_18 
REMARK    4  A    between atoms: N5_26  and  C18_27 
ROOT
HETATM    1  C1  UNL     1       8.864   3.507  -1.122  1.00  0.00     0.014 C 
HETATM    2  C2  UNL     1       8.373   2.504  -1.600  1.00  0.00    -0.096 C 
HETATM    3  C3  UNL     1       7.768   1.308  -2.191  1.00  0.00     0.243 C 
ENDROOT
BRANCH   3   4
HETATM    4  N1  UNL     1       7.450   0.407  -1.080  1.00  0.00    -0.264 N 
HETATM    5  N2  UNL     1       8.252  -0.498  -0.599  1.00  0.00    -0.295 N 
HETATM    6  C4  UNL     1       7.678  -1.180   0.431  1.00  0.00     0.062 A 
ATOM      7  H2  UNL     1       9.193  -0.675  -0.950  1.00  0.00     0.187 HD
HETATM    8  C5  UNL     1       8.098  -2.201   1.247  1.00  0.00     0.032 A 
HETATM    9  C9  UNL     1       6.411  -0.601   0.550  1.00  0.00     0.038 A 
HETATM   10  C6  UNL     1       7.278  -2.700   2.227  1.00  0.00     0.002 A 
HETATM   11  C7  UNL     1       6.019  -2.141   2.363  1.00  0.00     0.001 A 
HETATM   12  C8  UNL     1       5.608  -1.118   1.538  1.00  0.00     0.017 A 
HETATM   13  C10 UNL     1       6.290   0.385  -0.400  1.00  0.00     0.138 A 
BRANCH  13  14
HETATM   14  N3  UNL     1       5.321   1.141  -0.633  1.00  0.00    -0.307 N 
HETATM   15  C11 UNL     1       4.070   1.266  -0.053  1.00  0.00     0.257 C 
HETATM   16  O1  UNL     1       3.891   1.978   0.946  1.00  0.00    -0.267 OA
ATOM     17  H3  UNL     1       5.484   1.793  -1.400  1.00  0.00     0.170 HD
BRANCH  15  18
HETATM   18  C12 UNL     1       2.935   0.529  -0.654  1.00  0.00     0.033 A 
HETATM   19  C13 UNL     1       3.127  -0.264  -1.765  1.00  0.00     0.017 A 
HETATM   20  C14 UNL     1       2.080  -0.955  -2.335  1.00  0.00     0.002 A 
HETATM   21  C15 UNL     1       0.827  -0.836  -1.762  1.00  0.00     0.014 A 
HETATM   22  C16 UNL     1       0.594  -0.048  -0.643  1.00  0.00    -0.006 A 
HETATM   23  C17 UNL     1      -0.769   0.041  -0.172  1.00  0.00     0.076 A 
HETATM   24  C30 UNL     1       1.670   0.616  -0.122  1.00  0.00     0.030 A 
HETATM   25  N4  UNL     1      -1.849   0.444  -0.930  1.00  0.00    -0.295 N 
HETATM   26  C29 UNL     1      -1.243  -0.278   1.070  1.00  0.00     0.082 A 
HETATM   27  N5  UNL     1      -2.950   0.397  -0.244  1.00  0.00    -0.268 N 
ATOM     28  H4  UNL     1      -1.790   0.741  -1.904  1.00  0.00     0.187 HD
HETATM   29  C26 UNL     1      -2.623  -0.042   0.994  1.00  0.00     0.140 A 
HETATM   30  N6  UNL     1      -3.346  -0.289   2.097  1.00  0.00    -0.337 N 
HETATM   31  C27 UNL     1      -2.811  -0.745   3.247  1.00  0.00     0.183 A 
ATOM     32  H6  UNL     1      -4.352  -0.123   2.063  1.00  0.00     0.168 HD
HETATM   33  N7  UNL     1      -1.479  -0.965   3.289  1.00  0.00    -0.338 N 
HETATM   34  C28 UNL     1      -0.675  -0.746   2.234  1.00  0.00     0.116 A 
ATOM     35  H7  UNL     1      -1.067  -1.311   4.155  1.00  0.00     0.168 HD
HETATM   36  N8  UNL     1       0.595  -1.004   2.329  1.00  0.00    -0.385 N 
ATOM     37  H82 UNL     1       1.016  -1.351   3.191  1.00  0.00     0.157 HD
ATOM     38  H81 UNL     1       1.205  -0.838   1.529  1.00  0.00     0.157 HD
BRANCH  27  39
HETATM   39  C18 UNL     1      -4.317   0.728  -0.632  1.00  0.00     0.134 C 
HETATM   40  C19 UNL     1      -5.208  -0.414  -0.273  1.00  0.00     0.035 C 
HETATM   41  C20 UNL     1      -6.360  -0.618  -1.226  1.00  0.00     0.073 C 
HETATM   42  C21 UNL     1      -7.262   0.613  -1.130  1.00  0.00     0.185 C 
HETATM   43  C22 UNL     1      -6.471   1.732  -1.821  1.00  0.00     0.236 C 
HETATM   44  O3  UNL     1      -7.561   0.917   0.173  1.00  0.00    -0.351 OA
HETATM   45  O4  UNL     1      -8.429   0.327  -1.796  1.00  0.00    -0.351 OA
HETATM   46  O2  UNL     1      -5.523   1.225  -2.675  1.00  0.00    -0.384 OA
HETATM   47  C23 UNL     1      -4.303   0.944  -2.117  1.00  0.00     0.195 C 
HETATM   48  C24 UNL     1      -8.893   0.655   0.389  1.00  0.00     0.198 C 
HETATM   49  C25 UNL     1      -9.387  -0.028  -0.849  1.00  0.00     0.198 C 
ENDBRANCH  27  39
ENDBRANCH  15  18
ENDBRANCH  13  14
ENDBRANCH   3   4
TORSDOF 4
