REMARK  8 active torsions:
REMARK  status: ('A' for Active; 'I' for Inactive)
REMARK    1  A    between atoms: N1_4  and  C4_5 
REMARK    2  A    between atoms: C4_5  and  C5_6 
REMARK    3  A    between atoms: C6_9  and  N3_10 
REMARK    4  A    between atoms: N5_16  and  N6_18 
REMARK    5  A    between atoms: N6_18  and  C8_20 
REMARK    6  A    between atoms: C9_25  and  C10_26 
REMARK    7  A    between atoms: C10_26  and  N9_27 
REMARK    8  A    between atoms: C10_26  and  O1_31 
ROOT
HETATM    1  C5  UNL     1      -2.753   1.558  -0.222  1.00  0.00     0.090 A 
HETATM    2  N2  UNL     1      -2.314   1.965   0.955  1.00  0.00    -0.188 N 
ATOM      3  H2  UNL     1      -3.021   2.167   1.662  1.00  0.00     0.184 HD
HETATM    4  C6  UNL     1      -1.039   2.139   1.314  1.00  0.00     0.678 A 
HETATM    5  N4  UNL     1       0.036   1.940   0.569  1.00  0.00    -0.169 N 
ATOM      6  H4  UNL     1       0.939   2.123   1.006  1.00  0.00     0.186 HD
HETATM    7  C7  UNL     1       0.054   1.519  -0.711  1.00  0.00     0.180 A 
HETATM    8  N5  UNL     1       1.102   1.334  -1.407  1.00  0.00    -0.265 N 
ATOM      9  H5  UNL     1       1.005   1.013  -2.370  1.00  0.00     0.189 HD
HETATM   10  S1  UNL     1      -1.508   1.238  -1.358  1.00  0.00    -0.036 SA
ENDROOT
BRANCH   8  11
HETATM   11  N6  UNL     1       2.380   1.557  -0.894  1.00  0.00    -0.129 N 
ATOM     12  H6  UNL     1       2.652   2.477  -0.548  1.00  0.00     0.205 HD
BRANCH  11  13
HETATM   13  C8  UNL     1       3.218   0.558  -0.869  1.00  0.00     0.713 A 
HETATM   14  N7  UNL     1       3.005  -0.700  -1.288  1.00  0.00    -0.129 N 
HETATM   15  N8  UNL     1       4.122  -1.374  -1.077  1.00  0.00    -0.271 N 
ATOM     16  H7  UNL     1       2.143  -1.066  -1.693  1.00  0.00     0.205 HD
HETATM   17  C9  UNL     1       5.051  -0.574  -0.529  1.00  0.00     0.169 A 
ATOM     18  H8  UNL     1       4.259  -2.360  -1.299  1.00  0.00     0.189 HD
HETATM   19  N10 UNL     1       4.473   0.632  -0.404  1.00  0.00    -0.172 N 
ATOM     20  H10 UNL     1       4.916   1.466  -0.019  1.00  0.00     0.185 HD
BRANCH  17  21
HETATM   21  C10 UNL     1       6.455  -0.934  -0.130  1.00  0.00     0.386 C 
BRANCH  21  22
HETATM   22  N9  UNL     1       6.506  -2.190   0.582  1.00  0.00    -0.046 N 
ATOM     23  H93 UNL     1       5.881  -2.185   1.388  1.00  0.00     0.277 HD
ATOM     24  H92 UNL     1       6.069  -2.939   0.045  1.00  0.00     0.277 HD
ATOM     25  H91 UNL     1       7.459  -2.434   0.853  1.00  0.00     0.277 HD
ENDBRANCH  21  22
BRANCH  21  26
HETATM   26  O1  UNL     1       6.913   0.056   0.714  1.00  0.00    -0.364 OA
ATOM     27  H1  UNL     1       7.800  -0.171   0.966  1.00  0.00     0.212 HD
ENDBRANCH  21  26
ENDBRANCH  17  21
ENDBRANCH  11  13
ENDBRANCH   8  11
BRANCH   4  28
HETATM   28  N3  UNL     1      -0.862   2.550   2.537  1.00  0.00    -0.234 N 
ATOM     29  H32 UNL     1      -1.691   2.703   3.111  1.00  0.00     0.174 HD
ATOM     30  H31 UNL     1       0.111   2.683   2.811  1.00  0.00     0.174 HD
ENDBRANCH   4  28
BRANCH   1  31
HETATM   31  C4  UNL     1      -4.181   1.377  -0.580  1.00  0.00     0.215 C 
BRANCH  31  32
HETATM   32  N1  UNL     1      -4.674   0.062  -0.316  1.00  0.00    -0.281 N 
HETATM   33  C3  UNL     1      -5.249  -0.453   0.787  1.00  0.00     0.138 A 
HETATM   34  C2  UNL     1      -5.554  -1.779   0.554  1.00  0.00     0.040 A 
HETATM   35  C1  UNL     1      -6.197  -2.665   1.543  1.00  0.00     0.071 C 
HETATM   36  N12 UNL     1      -5.155  -2.033  -0.687  1.00  0.00    -0.289 N 
HETATM   37  N11 UNL     1      -4.639  -0.938  -1.184  1.00  0.00    -0.240 N 
ATOM     38  H12 UNL     1      -5.237  -2.928  -1.170  1.00  0.00     0.188 HD
ATOM     39  H11 UNL     1      -4.256  -0.863  -2.126  1.00  0.00     0.208 HD
ENDBRANCH  31  32
ENDBRANCH   1  31
TORSDOF 8
