REMARK  6 active torsions:
REMARK  status: ('A' for Active; 'I' for Inactive)
REMARK    1  A    between atoms: C5_6  and  S1_7 
REMARK    2  A    between atoms: C7_12  and  O4_13 
REMARK    3  A    between atoms: O4_13  and  N2_14 
REMARK    4  A    between atoms: N2_14  and  C8_16 
REMARK       I    between atoms: N4_19  and  C9_20 
REMARK    5  A    between atoms: C10_23  and  N6_24 
REMARK    6  A    between atoms: N7_27  and  N8_28 
ROOT
HETATM    1  C8  UNL     1       2.060   0.354   0.177  1.00  0.00     0.753 A 
HETATM    2  N3  UNL     1       2.939   1.384   0.085  1.00  0.00    -0.103 N 
ATOM      3  H3  UNL     1       2.689   2.373   0.099  1.00  0.00     0.207 HD
HETATM    4  N4  UNL     1       4.156   0.915  -0.025  1.00  0.00    -0.018 N 
HETATM    5  C9  UNL     1       5.354   1.669  -0.145  1.00  0.00     0.369 C 
HETATM    6  N5  UNL     1       5.265   3.078  -0.151  1.00  0.00    -0.037 NA
HETATM    7  O5  UNL     1       6.476   1.089  -0.244  1.00  0.00    -0.248 OA
HETATM    8  C10 UNL     1       4.104  -0.449  -0.006  1.00  0.00     0.737 A 
HETATM    9  N7  UNL     1       2.804  -0.763   0.119  1.00  0.00     0.088 N 
ENDROOT
BRANCH   1  10
HETATM   10  N2  UNL     1       0.780   0.425   0.297  1.00  0.00    -0.087 N 
ATOM     11  H2  UNL     1       0.306   1.327   0.333  1.00  0.00     0.214 HD
BRANCH  10  12
HETATM   12  O4  UNL     1       0.072  -0.748   0.375  1.00  0.00    -0.223 OA
BRANCH  12  13
HETATM   13  C7  UNL     1      -1.329  -0.667   0.344  1.00  0.00     0.107 A 
HETATM   14  C2  UNL     1      -2.077  -1.814   0.420  1.00  0.00    -0.024 A 
HETATM   15  C1  UNL     1      -1.390  -3.131   0.534  1.00  0.00     0.051 C 
HETATM   16  C3  UNL     1      -3.453  -1.731   0.389  1.00  0.00     0.037 A 
HETATM   17  C4  UNL     1      -4.094  -0.503   0.284  1.00  0.00     0.071 A 
HETATM   18  N1  UNL     1      -5.510  -0.388   0.250  1.00  0.00    -0.101 NA
HETATM   19  C5  UNL     1      -3.357   0.658   0.207  1.00  0.00     0.107 A 
HETATM   20  C6  UNL     1      -1.983   0.555   0.239  1.00  0.00     0.068 A 
BRANCH  19  21
HETATM   21  S1  UNL     1      -4.166   2.207   0.073  1.00  0.00     0.139 S 
HETATM   22  O1  UNL     1      -5.025   2.252  -1.157  1.00  0.00    -0.591 OA
HETATM   23  O2  UNL     1      -4.983   2.385   1.323  1.00  0.00    -0.591 OA
HETATM   24  O3  UNL     1      -3.007   3.423  -0.001  1.00  0.00    -0.591 OA
ENDBRANCH  19  21
ENDBRANCH  12  13
ENDBRANCH  10  12
ENDBRANCH   1  10
BRANCH   9  25
HETATM   25  N8  UNL     1       2.288  -2.070   0.180  1.00  0.00    -0.309 N 
ATOM     26  H82 UNL     1       1.301  -2.308   0.275  1.00  0.00     0.178 HD
ATOM     27  H81 UNL     1       2.853  -2.918   0.136  1.00  0.00     0.178 HD
ENDBRANCH   9  25
BRANCH   8  28
HETATM   28  N6  UNL     1       5.139  -1.219  -0.096  1.00  0.00    -0.230 N 
ATOM     29  H62 UNL     1       6.126  -0.981  -0.191  1.00  0.00     0.174 HD
ATOM     30  H61 UNL     1       5.100  -2.238  -0.082  1.00  0.00     0.174 HD
ENDBRANCH   8  28
TORSDOF 6
