REMARK  8 active torsions:
REMARK  status: ('A' for Active; 'I' for Inactive)
REMARK    1  A    between atoms: C2_2  and  O1_4 
REMARK    2  A    between atoms: C2_2  and  C4_6 
REMARK    3  A    between atoms: C5_11  and  N3_12 
REMARK    4  A    between atoms: N3_12  and  N4_13 
REMARK    5  A    between atoms: N4_13  and  C6_15 
REMARK    6  A    between atoms: C7_18  and  N6_19 
REMARK    7  A    between atoms: C12_27  and  N8_28 
REMARK    8  A    between atoms: N10_33  and  N11_34 
ROOT
HETATM    1  C6  UNL     1      -1.083   0.124   0.509  1.00  0.00     0.736 A 
HETATM    2  N5  UNL     1      -2.328   0.505   0.114  1.00  0.00    -0.019 N 
ATOM      3  H5  UNL     1      -2.414   1.260  -0.566  1.00  0.00     0.203 HD
HETATM    4  C7  UNL     1      -3.439  -0.066   0.577  1.00  0.00     0.709 A 
HETATM    5  N7  UNL     1      -3.241  -1.069   1.485  1.00  0.00    -0.022 N 
ATOM      6  H7  UNL     1      -4.059  -1.540   1.872  1.00  0.00     0.203 HD
HETATM    7  C12 UNL     1      -2.030  -1.464   1.892  1.00  0.00     0.705 A 
HETATM    8  N9  UNL     1      -0.934  -0.848   1.387  1.00  0.00    -0.019 N 
ATOM      9  H9  UNL     1      -0.001  -1.134   1.684  1.00  0.00     0.203 HD
ENDROOT
BRANCH   1  10
HETATM   10  N4  UNL     1      -0.069   0.723  -0.008  1.00  0.00    -0.060 N 
ATOM     11  H4  UNL     1      -0.247   1.458  -0.692  1.00  0.00     0.221 HD
BRANCH  10  12
HETATM   12  N3  UNL     1       1.175   0.451   0.286  1.00  0.00    -0.269 NA
BRANCH  12  13
HETATM   13  C5  UNL     1       2.472   0.159   0.589  1.00  0.00     0.319 A 
HETATM   14  N2  UNL     1       2.954  -0.336   1.778  1.00  0.00    -0.255 N 
HETATM   15  N1  UNL     1       4.242  -0.464   1.727  1.00  0.00    -0.281 N 
ATOM     16  H2  UNL     1       2.378  -0.570   2.587  1.00  0.00     0.191 HD
HETATM   17  C4  UNL     1       4.671  -0.066   0.515  1.00  0.00     0.156 A 
ATOM     18  H1  UNL     1       4.834  -0.810   2.482  1.00  0.00     0.188 HD
HETATM   19  N10 UNL     1       3.602   0.309  -0.171  1.00  0.00    -0.200 N 
BRANCH  17  20
HETATM   20  C2  UNL     1       6.076  -0.059   0.053  1.00  0.00     0.112 C 
HETATM   21  C1  UNL     1       6.341  -0.963  -1.117  1.00  0.00     0.054 C 
HETATM   22  C3  UNL     1       6.591   1.333  -0.200  1.00  0.00     0.054 C 
BRANCH  20  23
HETATM   23  O1  UNL     1       6.867  -0.557   1.104  1.00  0.00    -0.383 OA
ATOM     24  H1  UNL     1       6.699   0.015   1.844  1.00  0.00     0.211 HD
ENDBRANCH  20  23
ENDBRANCH  17  20
BRANCH  19  25
HETATM   25  N11 UNL     1       3.554   0.793  -1.460  1.00  0.00    -0.333 N 
ATOM     26 2H11 UNL     1       4.395   0.905  -2.026  1.00  0.00     0.177 HD
ATOM     27 1H11 UNL     1       2.731   1.082  -1.988  1.00  0.00     0.177 HD
ENDBRANCH  19  25
ENDBRANCH  12  13
ENDBRANCH  10  12
ENDBRANCH   1  10
BRANCH   4  28
HETATM   28  N6  UNL     1      -4.761   0.275   0.215  1.00  0.00    -0.213 N 
HETATM   29  C8  UNL     1      -5.861  -0.497   0.778  1.00  0.00     0.167 C 
HETATM   30  C9  UNL     1      -6.920  -0.660  -0.301  1.00  0.00     0.188 C 
HETATM   31  O2  UNL     1      -7.334   0.597  -0.757  1.00  0.00    -0.388 OA
HETATM   32  C10 UNL     1      -6.332   1.251  -1.417  1.00  0.00     0.188 C 
HETATM   33  C11 UNL     1      -5.039   1.356  -0.668  1.00  0.00     0.167 C 
ENDBRANCH   4  28
BRANCH   7  34
HETATM   34  N8  UNL     1      -1.863  -2.407   2.746  1.00  0.00    -0.234 N 
ATOM     35  H82 UNL     1      -2.688  -2.871   3.126  1.00  0.00     0.174 HD
ATOM     36  H81 UNL     1      -0.939  -2.708   3.056  1.00  0.00     0.174 HD
ENDBRANCH   7  34
TORSDOF 8
