REMARK  10 active torsions:
REMARK  status: ('A' for Active; 'I' for Inactive)
REMARK    1  A    between atoms: C3_6  and  N3_7 
REMARK    2  A    between atoms: C4_10  and  N4_11 
REMARK    3  A    between atoms: C9_16  and  N5_17 
REMARK    4  A    between atoms: N5_17  and  N6_19 
REMARK    5  A    between atoms: C10_20  and  N7_21 
REMARK    6  A    between atoms: C11_26  and  C12_27 
REMARK    7  A    between atoms: C12_27  and  N9_28 
REMARK    8  A    between atoms: N9_28  and  N10_29 
REMARK    9  A    between atoms: N11_32  and  C15_33 
REMARK   10  A    between atoms: C21_45  and  N15_46 
ROOT
HETATM    1  N1  UNL     1      -7.672  -3.591   2.748  1.00  0.00    -0.188 NA
HETATM    2  C1  UNL     1      -7.261  -2.727   2.086  1.00  0.00     0.137 C 
HETATM    3  C2  UNL     1      -6.772  -1.644   1.274  1.00  0.00     0.191 A 
HETATM    4  N2  UNL     1      -7.605  -1.074   0.391  1.00  0.00    -0.318 N 
ATOM      5  H2  UNL     1      -8.564  -1.411   0.302  1.00  0.00     0.169 HD
HETATM    6  C3  UNL     1      -7.178  -0.065  -0.371  1.00  0.00     0.132 A 
HETATM    7  C4  UNL     1      -5.877   0.425  -0.280  1.00  0.00     0.128 A 
HETATM    8  C9  UNL     1      -5.046  -0.169   0.626  1.00  0.00     0.155 A 
HETATM    9  N16 UNL     1      -5.519  -1.206   1.395  1.00  0.00    -0.317 N 
ATOM     10  H16 UNL     1      -4.898  -1.649   2.072  1.00  0.00     0.169 HD
ENDROOT
BRANCH   6  11
HETATM   11  N3  UNL     1      -7.986   0.499  -1.237  1.00  0.00    -0.383 N 
ATOM     12  H32 UNL     1      -8.939   0.140  -1.304  1.00  0.00     0.157 HD
ATOM     13  H31 UNL     1      -7.660   1.270  -1.819  1.00  0.00     0.157 HD
ENDBRANCH   6  11
BRANCH   8  14
HETATM   14  N5  UNL     1      -3.721   0.285   0.769  1.00  0.00    -0.247 N 
ATOM     15  H5  UNL     1      -3.629   1.208   1.194  1.00  0.00     0.190 HD
BRANCH  14  16
HETATM   16  N6  UNL     1      -2.538  -0.310   0.431  1.00  0.00     0.091 N 
HETATM   17  C10 UNL     1      -2.444  -1.483  -0.196  1.00  0.00     0.713 A 
HETATM   18  N8  UNL     1      -1.208  -2.040  -0.417  1.00  0.00    -0.177 N 
HETATM   19  C11 UNL     1      -0.076  -1.461  -0.033  1.00  0.00     0.129 A 
ATOM     20  H8  UNL     1      -1.157  -2.938  -0.897  1.00  0.00     0.185 HD
HETATM   21  N14 UNL     1      -0.155  -0.264   0.605  1.00  0.00    -0.177 N 
HETATM   22  C21 UNL     1      -1.359   0.279   0.820  1.00  0.00     0.713 A 
ATOM     23  H14 UNL     1       0.691   0.214   0.916  1.00  0.00     0.185 HD
BRANCH  17  24
HETATM   24  N7  UNL     1      -3.489  -2.087  -0.613  1.00  0.00    -0.232 N 
ATOM     25  H72 UNL     1      -4.407  -1.673  -0.449  1.00  0.00     0.174 HD
ATOM     26  H71 UNL     1      -3.417  -2.984  -1.093  1.00  0.00     0.174 HD
ENDBRANCH  17  24
BRANCH  19  27
HETATM   27  C12 UNL     1       1.235  -2.114  -0.251  1.00  0.00     0.206 C 
BRANCH  27  28
HETATM   28  N9  UNL     1       2.339  -1.297   0.140  1.00  0.00    -0.158 NA
BRANCH  28  29
HETATM   29  N10 UNL     1       3.535  -1.959  -0.016  1.00  0.00    -0.231 NA
HETATM   30  C13 UNL     1       4.266  -1.820   1.237  1.00  0.00     0.130 C 
HETATM   31  C14 UNL     1       4.877  -0.423   1.268  1.00  0.00     0.157 C 
HETATM   32  N11 UNL     1       5.802  -0.368   0.164  1.00  0.00    -0.215 N 
HETATM   33  C19 UNL     1       5.783  -1.472  -0.768  1.00  0.00     0.157 C 
HETATM   34  C20 UNL     1       4.304  -1.624  -1.170  1.00  0.00     0.130 C 
BRANCH  32  35
HETATM   35  C15 UNL     1       6.675   0.699  -0.011  1.00  0.00     0.679 A 
HETATM   36  N12 UNL     1       7.693   0.742  -0.876  1.00  0.00    -0.202 N 
HETATM   37  C16 UNL     1       8.522   1.785  -1.036  1.00  0.00     0.107 A 
ATOM     38  H12 UNL     1       7.852  -0.080  -1.459  1.00  0.00     0.183 HD
HETATM   39  C17 UNL     1       8.314   2.900  -0.254  1.00  0.00     0.035 A 
HETATM   40  C18 UNL     1       7.273   2.883   0.645  1.00  0.00     0.107 A 
HETATM   41  N13 UNL     1       6.485   1.810   0.755  1.00  0.00    -0.202 N 
ATOM     42  H13 UNL     1       5.721   1.823   1.430  1.00  0.00     0.183 HD
ENDBRANCH  32  35
ENDBRANCH  28  29
ENDBRANCH  27  28
ENDBRANCH  19  27
BRANCH  22  43
HETATM   43  N15 UNL     1      -1.394   1.426   1.431  1.00  0.00    -0.232 N 
ATOM     44 2H15 UNL     1      -2.312   1.840   1.595  1.00  0.00     0.174 HD
ATOM     45 1H15 UNL     1      -0.519   1.863   1.720  1.00  0.00     0.174 HD
ENDBRANCH  22  43
ENDBRANCH  14  16
ENDBRANCH   8  14
BRANCH   7  46
HETATM   46  N4  UNL     1      -5.548   1.540  -1.118  1.00  0.00    -0.327 N 
HETATM   47  C5  UNL     1      -6.038   2.775  -0.793  1.00  0.00     0.097 A 
HETATM   48  C6  UNL     1      -5.599   3.643  -1.759  1.00  0.00     0.019 A 
HETATM   49  C7  UNL     1      -4.845   2.932  -2.668  1.00  0.00     0.019 A 
HETATM   50  C8  UNL     1      -4.835   1.628  -2.236  1.00  0.00     0.097 A 
ENDBRANCH   7  46
TORSDOF 10
