REMARK  12 active torsions:
REMARK  status: ('A' for Active; 'I' for Inactive)
REMARK    1  A    between atoms: C2_7  and  N3_8 
REMARK    2  A    between atoms: N3_8  and  O1_10 
REMARK    3  A    between atoms: N4_12  and  C3_13 
REMARK    4  A    between atoms: C9_19  and  N5_20 
REMARK    5  A    between atoms: N5_20  and  O2_21 
REMARK    6  A    between atoms: O2_21  and  C10_22 
REMARK    7  A    between atoms: C10_22  and  C11_23 
REMARK       I    between atoms: C11_23  and  N6_25 
REMARK    8  A    between atoms: N6_25  and  N7_27 
REMARK    9  A    between atoms: C12_29  and  C13_30 
REMARK   10  A    between atoms: C15_32  and  N8_33 
REMARK   11  A    between atoms: C17_37  and  N9_38 
REMARK   12  A    between atoms: C18_41  and  O8_42 
ROOT
HETATM    1  O2  UNL     1      -1.620  -1.109  -0.197  1.00  0.00    -0.197 OA
ENDROOT
BRANCH   1   2
HETATM    2  N5  UNL     1      -2.255  -0.020  -0.055  1.00  0.00    -0.240 NA
BRANCH   2   3
HETATM    3  C9  UNL     1      -3.089   0.836   0.009  1.00  0.00     0.325 A 
HETATM    4  N4  UNL     1      -4.431   0.690  -0.221  1.00  0.00    -0.099 N 
HETATM    5  C2  UNL     1      -5.186   1.763  -0.306  1.00  0.00     0.727 A 
HETATM    6  N2  UNL     1      -4.704   2.997  -0.168  1.00  0.00    -0.020 N 
HETATM    7  C1  UNL     1      -3.354   3.186   0.071  1.00  0.00     0.694 A 
ATOM      8  H2  UNL     1      -5.328   3.801  -0.238  1.00  0.00     0.203 HD
HETATM    9  N1  UNL     1      -2.865   4.314   0.167  1.00  0.00    -0.234 N 
HETATM   10  N10 UNL     1      -2.565   2.106   0.156  1.00  0.00    -0.146 N 
ATOM     11  H12 UNL     1      -3.465   5.136   0.102  1.00  0.00     0.174 HD
ATOM     12  H11 UNL     1      -1.870   4.453   0.343  1.00  0.00     0.174 HD
ATOM     13  H10 UNL     1      -1.567   2.223   0.331  1.00  0.00     0.188 HD
BRANCH   4  14
HETATM   14  C3  UNL     1      -4.851  -0.669  -0.320  1.00  0.00     0.061 A 
HETATM   15  C4  UNL     1      -4.709  -1.351  -1.496  1.00  0.00     0.030 A 
HETATM   16  C5  UNL     1      -5.052  -2.721  -1.552  1.00  0.00     0.002 A 
HETATM   17  C6  UNL     1      -5.525  -3.347  -0.426  1.00  0.00     0.000 A 
HETATM   18  C7  UNL     1      -5.671  -2.648   0.784  1.00  0.00     0.002 A 
HETATM   19  C8  UNL     1      -5.321  -1.294   0.809  1.00  0.00     0.030 A 
ENDBRANCH   4  14
BRANCH   5  20
HETATM   20  N3  UNL     1      -6.468   1.578  -0.531  1.00  0.00    -0.097 N 
ATOM     21  H3  UNL     1      -6.837   0.634  -0.641  1.00  0.00     0.213 HD
BRANCH  20  22
HETATM   22  O1  UNL     1      -7.307   2.659  -0.617  1.00  0.00    -0.276 OA
ATOM     23  H1  UNL     1      -8.233   2.525  -0.780  1.00  0.00     0.245 HD
ENDBRANCH  20  22
ENDBRANCH   5  20
ENDBRANCH   2   3
ENDBRANCH   1   2
BRANCH   1  24
HETATM   24  C10 UNL     1      -0.764  -1.522   0.947  1.00  0.00     0.322 C 
BRANCH  24  25
HETATM   25  C11 UNL     1       0.622  -1.479   0.263  1.00  0.00     0.263 C 
HETATM   26  O3  UNL     1       0.684  -1.506  -0.982  1.00  0.00    -0.269 OA
HETATM   27  N6  UNL     1       1.686  -1.383   1.080  1.00  0.00    -0.269 N 
ATOM     28  H6  UNL     1       1.475  -1.416   2.077  1.00  0.00     0.190 HD
BRANCH  27  29
HETATM   29  N7  UNL     1       3.029  -1.246   0.762  1.00  0.00    -0.308 N 
HETATM   30  C12 UNL     1       3.500  -0.138   0.306  1.00  0.00     0.121 C 
ATOM     31  H7  UNL     1       3.657  -2.040   0.892  1.00  0.00     0.186 HD
BRANCH  30  32
HETATM   32  C13 UNL     1       4.896  -0.012  -0.005  1.00  0.00     0.019 A 
HETATM   33  C14 UNL     1       5.302   1.272  -0.484  1.00  0.00     0.052 A 
HETATM   34  C15 UNL     1       6.592   1.575  -0.821  1.00  0.00     0.106 A 
HETATM   35  C16 UNL     1       7.538   0.547  -0.678  1.00  0.00     0.075 A 
HETATM   36  C17 UNL     1       7.212  -0.682  -0.226  1.00  0.00     0.139 A 
HETATM   37  C18 UNL     1       5.861  -0.954   0.115  1.00  0.00     0.110 A 
BRANCH  34  38
HETATM   38  N8  UNL     1       6.954   2.869  -1.284  1.00  0.00    -0.116 N 
HETATM   39  O4  UNL     1       6.073   3.735  -1.268  1.00  0.00    -0.532 OA
HETATM   40  O5  UNL     1       8.201   3.138  -1.696  1.00  0.00    -0.532 OA
ENDBRANCH  34  38
BRANCH  36  41
HETATM   41  N9  UNL     1       8.153  -1.707  -0.087  1.00  0.00    -0.113 N 
HETATM   42  O6  UNL     1       8.110  -2.587   0.797  1.00  0.00    -0.532 OA
HETATM   43  O7  UNL     1       9.209  -1.756  -0.966  1.00  0.00    -0.532 OA
ENDBRANCH  36  41
BRANCH  37  44
HETATM   44  O8  UNL     1       5.603  -2.175   0.562  1.00  0.00    -0.357 OA
ATOM     45  H8  UNL     1       6.280  -2.836   0.646  1.00  0.00     0.217 HD
ENDBRANCH  37  44
ENDBRANCH  30  32
ENDBRANCH  27  29
ENDBRANCH  24  25
ENDBRANCH   1  24
TORSDOF 12
