REMARK  4 active torsions:
REMARK  status: ('A' for Active; 'I' for Inactive)
REMARK       I    between atoms: C2_2  and  N1_4 
REMARK       I    between atoms: N2_7  and  C5_8 
REMARK    1  A    between atoms: C5_8  and  C6_10 
REMARK       I    between atoms: C6_10  and  N3_12 
REMARK    2  A    between atoms: N3_12  and  C7_14 
REMARK    3  A    between atoms: C7_14  and  C8_15 
REMARK    4  A    between atoms: C8_15  and  N4_16 
REMARK       I    between atoms: N4_16  and  C9_18 
REMARK       I    between atoms: C9_18  and  N6_22 
ROOT
HETATM    1  C8  UNL     1       0.171   0.917   1.123  1.00  0.00     0.157 C 
ENDROOT
BRANCH   1   2
HETATM    2  C7  UNL     1       0.919   0.310   2.274  1.00  0.00     0.143 C 
BRANCH   2   3
HETATM    3  N3  UNL     1       1.944  -0.572   1.787  1.00  0.00    -0.351 N 
HETATM    4  C6  UNL     1       3.006  -0.062   0.997  1.00  0.00     0.309 C 
HETATM    5  O3  UNL     1       3.058   1.154   0.730  1.00  0.00    -0.262 OA
ATOM      6  H3  UNL     1       1.908  -1.567   2.010  1.00  0.00     0.162 HD
BRANCH   4   7
HETATM    7  C5  UNL     1       4.010  -1.013   0.525  1.00  0.00     0.311 C 
HETATM    8  N2  UNL     1       5.097  -0.586  -0.263  1.00  0.00    -0.341 N 
HETATM    9  C4  UNL     1       5.312   0.806  -0.666  1.00  0.00     0.146 C 
HETATM   10  C19 UNL     1       6.071  -1.602  -0.708  1.00  0.00     0.146 C 
HETATM   11  C3  UNL     1       6.649   0.930  -1.388  1.00  0.00     0.145 C 
HETATM   12  N1  UNL     1       7.612   0.245  -0.554  1.00  0.00    -0.349 N 
HETATM   13  C2  UNL     1       8.636   0.994   0.079  1.00  0.00     0.215 C 
HETATM   14  C20 UNL     1       7.489  -1.184  -0.401  1.00  0.00     0.145 C 
HETATM   15  C1  UNL     1       9.627   0.294   0.936  1.00  0.00     0.117 C 
HETATM   16  O1  UNL     1       8.752   2.237  -0.046  1.00  0.00    -0.274 OA
HETATM   17  O2  UNL     1       3.899  -2.223   0.827  1.00  0.00    -0.262 OA
ENDBRANCH   4   7
ENDBRANCH   2   3
ENDBRANCH   1   2
BRANCH   1  18
HETATM   18  N4  UNL     1      -0.445  -0.129   0.299  1.00  0.00    -0.225 N 
HETATM   19  C9  UNL     1      -1.189   0.294  -0.829  1.00  0.00     0.669 C 
HETATM   20  N5  UNL     1      -0.634   0.745  -1.903  1.00  0.00    -0.235 N 
HETATM   21  N6  UNL     1      -2.608   0.204  -0.740  1.00  0.00    -0.215 N 
ATOM     22  H52 UNL     1       0.382   0.809  -1.967  1.00  0.00     0.174 HD
ATOM     23  H51 UNL     1      -1.170   1.050  -2.716  1.00  0.00     0.174 HD
HETATM   24  C10 UNL     1      -3.307  -1.031  -1.004  1.00  0.00     0.169 C 
HETATM   25  C18 UNL     1      -3.426   1.356  -0.378  1.00  0.00     0.169 C 
HETATM   26  C11 UNL     1      -4.469  -1.107  -0.043  1.00  0.00     0.257 C 
HETATM   27  N7  UNL     1      -5.439  -0.049  -0.265  1.00  0.00    -0.064 N 
HETATM   28  C12 UNL     1      -6.408  -0.561  -1.214  1.00  0.00     0.237 C 
HETATM   29  C16 UNL     1      -6.041   0.239   1.021  1.00  0.00     0.237 C 
HETATM   30  C17 UNL     1      -4.855   1.156  -0.775  1.00  0.00     0.257 C 
HETATM   31  C13 UNL     1      -7.481  -1.304  -0.427  1.00  0.00     0.028 C 
HETATM   32  C14 UNL     1      -8.364  -0.238   0.197  1.00  0.00     0.003 C 
HETATM   33  C15 UNL     1      -7.457   0.743   0.893  1.00  0.00     0.028 C 
ATOM     34  H4  UNL     1      -0.342  -1.117   0.529  1.00  0.00     0.177 HD
ENDBRANCH   1  18
TORSDOF 4
