REMARK  6 active torsions:
REMARK  status: ('A' for Active; 'I' for Inactive)
REMARK       I    between atoms: N1_2  and  C2_4 
REMARK    1  A    between atoms: C2_4  and  C3_6 
REMARK    2  A    between atoms: C11_18  and  N4_19 
REMARK    3  A    between atoms: N4_19  and  C12_21 
REMARK    4  A    between atoms: C12_21  and  C13_23 
REMARK    5  A    between atoms: C14_24  and  C15_25 
REMARK    6  A    between atoms: C15_25  and  N5_26 
ROOT
HETATM    1  C3  UNL     1      -2.562   0.903   0.270  1.00  0.00     0.041 C 
HETATM    2  C4  UNL     1      -2.624   1.643   1.641  1.00  0.00     0.025 C 
HETATM    3  C5  UNL     1      -3.875   0.333   0.006  1.00  0.00     0.048 C 
HETATM    4  C6  UNL     1      -4.095  -0.702  -1.046  1.00  0.00     0.255 C 
HETATM    5  N2  UNL     1      -3.688  -2.043  -0.631  1.00  0.00    -0.004 N 
HETATM    6  C7  UNL     1      -4.494  -3.045  -1.138  1.00  0.00     0.290 C 
HETATM    7  C8  UNL     1      -3.570  -2.120   0.725  1.00  0.00     0.139 C 
HETATM    8  C9  UNL     1      -3.232  -2.062   1.702  1.00  0.00     0.043 C 
HETATM    9  N3  UNL     1      -2.421  -1.792   2.772  1.00  0.00    -0.282 N 
ATOM     10  H3  UNL     1      -2.630  -1.976   3.753  1.00  0.00     0.179 HD
HETATM   11  C10 UNL     1      -1.132  -1.157   2.214  1.00  0.00     0.257 C 
HETATM   12  O2  UNL     1      -0.436  -0.807   3.076  1.00  0.00    -0.270 OA
HETATM   13  C11 UNL     1      -0.817  -1.009   0.732  1.00  0.00     0.116 C 
HETATM   14  C19 UNL     1      -1.213  -2.185  -0.101  1.00  0.00     0.070 C 
HETATM   15  C20 UNL     1      -2.275  -2.236  -1.091  1.00  0.00     0.256 C 
HETATM   16  C21 UNL     1      -1.299   0.207   0.094  1.00  0.00     0.060 C 
ENDROOT
BRANCH  13  17
HETATM   17  N4  UNL     1       0.650  -0.985   0.719  1.00  0.00    -0.356 N 
ATOM     18  H4  UNL     1       1.099  -1.096   1.628  1.00  0.00     0.162 HD
BRANCH  17  19
HETATM   19  C12 UNL     1       1.509  -0.833  -0.354  1.00  0.00     0.152 C 
HETATM   20  S1  UNL     1       1.161  -0.629  -1.930  1.00  0.00    -0.051 SA
BRANCH  19  21
HETATM   21  C13 UNL     1       2.953  -0.847  -0.088  1.00  0.00    -0.035 C 
HETATM   22  C14 UNL     1       4.140  -0.861   0.154  1.00  0.00    -0.071 C 
BRANCH  22  23
HETATM   23  C15 UNL     1       5.573  -0.894   0.450  1.00  0.00     0.329 C 
BRANCH  23  24
HETATM   24  N5  UNL     1       6.098   0.418   0.213  1.00  0.00    -0.069 N 
HETATM   25  C16 UNL     1       7.565   0.307   0.261  1.00  0.00     0.272 C 
HETATM   26  C17 UNL     1       5.759   0.932  -1.078  1.00  0.00     0.272 C 
HETATM   27  C18 UNL     1       5.741   1.346   1.272  1.00  0.00     0.272 C 
ENDBRANCH  23  24
ENDBRANCH  22  23
ENDBRANCH  19  21
ENDBRANCH  17  19
ENDBRANCH  13  17
BRANCH   1  28
HETATM   28  C2  UNL     1      -2.433   2.106  -0.670  1.00  0.00     0.225 C 
HETATM   29  N1  UNL     1      -3.367   3.154  -0.673  1.00  0.00    -0.365 N 
HETATM   30  C1  UNL     1      -3.271   4.303  -1.552  1.00  0.00     0.149 C 
ATOM     31  H1  UNL     1      -4.153   3.105  -0.024  1.00  0.00     0.161 HD
HETATM   32  O1  UNL     1      -1.478   2.156  -1.449  1.00  0.00    -0.273 OA
ENDBRANCH   1  28
TORSDOF 6
