REMARK  3 active torsions:
REMARK  status: ('A' for Active; 'I' for Inactive)
REMARK    1  A    between atoms: C2_2  and  N1_3 
REMARK       I    between atoms: N1_3  and  C3_5 
REMARK       I    between atoms: C3_5  and  N2_7 
REMARK       I    between atoms: N3_14  and  C10_15 
REMARK       I    between atoms: C10_15  and  N4_17 
REMARK    2  A    between atoms: N4_17  and  C11_19 
REMARK    3  A    between atoms: C11_19  and  C13_21 
REMARK       I    between atoms: C13_21  and  N5_23 
ROOT
HETATM    1  N1  UNL     1       7.624  -0.374  -0.508  1.00  0.00    -0.343 N 
ATOM      2  H1  UNL     1       7.802   0.628  -0.434  1.00  0.00     0.164 HD
HETATM    3  C3  UNL     1       6.413  -0.882   0.016  1.00  0.00     0.318 C 
HETATM    4  O1  UNL     1       6.247  -2.141  -0.105  1.00  0.00    -0.247 OA
HETATM    5  N2  UNL     1       5.405  -0.125   0.646  1.00  0.00    -0.333 N 
HETATM    6  C4  UNL     1       5.535   1.299   0.809  1.00  0.00     0.127 C 
HETATM    7  C5  UNL     1       4.243   1.938   0.325  1.00  0.00     0.021 C 
HETATM    8  C6  UNL     1       3.034   1.366   0.994  1.00  0.00     0.014 C 
HETATM    9  C7  UNL     1       2.949  -0.134   0.862  1.00  0.00    -0.006 C 
HETATM   10  C8  UNL     1       2.572  -0.408  -0.600  1.00  0.00     0.033 C 
HETATM   11  C9  UNL     1       1.110  -0.047  -0.577  1.00  0.00     0.128 C 
HETATM   12  N3  UNL     1       0.646  -0.308   0.771  1.00  0.00    -0.333 N 
HETATM   13  C10 UNL     1      -0.710  -0.198   1.170  1.00  0.00     0.319 C 
HETATM   14  O2  UNL     1      -1.019  -0.446   2.349  1.00  0.00    -0.247 OA
HETATM   15  N4  UNL     1      -1.717   0.188   0.248  1.00  0.00    -0.330 N 
ATOM     16  H4  UNL     1      -1.445   0.387  -0.715  1.00  0.00     0.165 HD
HETATM   17  C19 UNL     1       1.779  -0.687   1.600  1.00  0.00     0.138 C 
HETATM   18  C20 UNL     1       4.231  -0.830   1.130  1.00  0.00     0.138 C 
ENDROOT
BRANCH  15  19
HETATM   19  C11 UNL     1      -3.122   0.313   0.615  1.00  0.00     0.174 C 
HETATM   20  C12 UNL     1      -3.595   1.742   0.480  1.00  0.00     0.042 C 
BRANCH  19  21
HETATM   21  C13 UNL     1      -3.938  -0.626  -0.174  1.00  0.00     0.249 C 
HETATM   22  O3  UNL     1      -3.306  -1.362  -1.007  1.00  0.00    -0.271 OA
HETATM   23  N5  UNL     1      -5.337  -0.790  -0.100  1.00  0.00    -0.280 N 
HETATM   24  C14 UNL     1      -6.116  -1.736  -0.926  1.00  0.00     0.163 C 
HETATM   25  C18 UNL     1      -6.318  -0.155   0.709  1.00  0.00     0.282 C 
HETATM   26  C15 UNL     1      -7.555  -1.315  -0.741  1.00  0.00     0.267 C 
HETATM   27  N6  UNL     1      -7.523  -0.031  -0.089  1.00  0.00    -0.013 N 
HETATM   28  C16 UNL     1      -7.468   1.087  -0.975  1.00  0.00     0.283 C 
HETATM   29  C17 UNL     1      -8.614   0.025   0.854  1.00  0.00     0.283 C 
HETATM   30  N7  UNL     1      -6.148   0.218   1.909  1.00  0.00    -0.365 N 
ATOM     31  H72 UNL     1      -5.301   0.131   2.470  1.00  0.00     0.159 HD
ATOM     32  H71 UNL     1      -6.852   0.674   2.490  1.00  0.00     0.159 HD
ENDBRANCH  19  21
ENDBRANCH  15  19
BRANCH   1  33
HETATM   33  C2  UNL     1       8.614  -1.197  -1.138  1.00  0.00     0.120 C 
HETATM   34  C1  UNL     1       9.775  -0.364  -1.584  1.00  0.00     0.026 C 
ENDBRANCH   1  33
TORSDOF 3
