REMARK  7 active torsions:
REMARK  status: ('A' for Active; 'I' for Inactive)
REMARK    1  A    between atoms: C3_3  and  C4_4 
REMARK    2  A    between atoms: N1_6  and  C6_7 
REMARK    3  A    between atoms: C6_7  and  C7_8 
REMARK    4  A    between atoms: N2_13  and  C10_14 
REMARK    5  A    between atoms: C10_14  and  C11_15 
REMARK       I    between atoms: C11_15  and  N3_17 
REMARK    6  A    between atoms: C16_22  and  C17_23 
REMARK    7  A    between atoms: C17_23  and  O4_24 
ROOT
HETATM    1  C1  UNL     1      -2.040  -2.953  -3.083  1.00  0.00     0.112 C 
HETATM    2  C2  UNL     1      -1.995  -2.326  -1.759  1.00  0.00    -0.109 C 
HETATM    3  C3  UNL     1      -1.938  -1.806  -0.674  1.00  0.00    -0.071 C 
ENDROOT
BRANCH   3   4
HETATM    4  C4  UNL     1      -1.868  -1.207   0.634  1.00  0.00     0.300 C 
HETATM    5  C5  UNL     1      -3.192  -0.857   1.240  1.00  0.00     0.285 C 
HETATM    6  N1  UNL     1      -3.553   0.500   0.906  1.00  0.00    -0.051 N 
HETATM    7  C8  UNL     1      -2.757   1.321   1.846  1.00  0.00     0.266 C 
HETATM    8  C20 UNL     1      -3.051   0.900  -0.393  1.00  0.00     0.266 C 
HETATM    9  C9  UNL     1      -1.418   0.690   1.888  1.00  0.00     0.272 C 
HETATM   10  N2  UNL     1      -1.053   0.028   0.612  1.00  0.00    -0.022 N 
HETATM   11  C19 UNL     1      -1.520   0.877  -0.415  1.00  0.00     0.272 C 
BRANCH   6  12
HETATM   12  C6  UNL     1      -4.918   0.834   1.094  1.00  0.00     0.350 C 
BRANCH  12  13
HETATM   13  C7  UNL     1      -5.893   0.159   0.250  1.00  0.00     0.199 C 
HETATM   14  O1  UNL     1      -5.585  -0.689  -0.618  1.00  0.00    -0.647 OA
HETATM   15  O2  UNL     1      -7.241   0.454   0.396  1.00  0.00    -0.647 OA
ENDBRANCH  12  13
ENDBRANCH   6  12
BRANCH  10  16
HETATM   16  C10 UNL     1       0.322  -0.257   0.724  1.00  0.00     0.278 C 
BRANCH  16  17
HETATM   17  C11 UNL     1       1.294   0.405  -0.124  1.00  0.00     0.268 C 
HETATM   18  O3  UNL     1       1.027   1.253  -1.001  1.00  0.00    -0.267 OA
HETATM   19  N3  UNL     1       2.676   0.106   0.005  1.00  0.00    -0.329 N 
HETATM   20  C12 UNL     1       3.003  -0.869   1.041  1.00  0.00     0.129 C 
HETATM   21  C16 UNL     1       3.741   0.658  -0.767  1.00  0.00     0.111 C 
HETATM   22  C13 UNL     1       4.428  -1.196   1.210  1.00  0.00     0.045 C 
HETATM   23  C14 UNL     1       5.422  -0.285   0.566  1.00  0.00     0.086 C 
HETATM   24  C15 UNL     1       4.825   1.069   0.228  1.00  0.00     0.066 C 
HETATM   25  N4  UNL     1       5.620  -0.790  -0.806  1.00  0.00    -0.377 N 
HETATM   26  C18 UNL     1       4.447  -0.454  -1.519  1.00  0.00     0.104 C 
ATOM     27  H4  UNL     1       6.438  -1.282  -1.167  1.00  0.00     0.160 HD
HETATM   28  S1  UNL     1       3.981  -1.172  -2.905  1.00  0.00    -0.063 SA
BRANCH  21  29
HETATM   29  C17 UNL     1       3.403   1.763  -1.698  1.00  0.00     0.202 C 
BRANCH  29  30
HETATM   30  O4  UNL     1       4.640   2.146  -2.302  1.00  0.00    -0.398 OA
ATOM     31  H4  UNL     1       4.424   2.853  -2.898  1.00  0.00     0.209 HD
ENDBRANCH  29  30
ENDBRANCH  21  29
ENDBRANCH  16  17
ENDBRANCH  10  16
ENDBRANCH   3   4
TORSDOF 7
