REMARK  11 active torsions:
REMARK  status: ('A' for Active; 'I' for Inactive)
REMARK    1  A    between atoms: C3_3  and  C4_4 
REMARK    2  A    between atoms: C5_5  and  C6_6 
REMARK    3  A    between atoms: C7_7  and  C8_8 
REMARK    4  A    between atoms: C9_9  and  C10_10 
REMARK    5  A    between atoms: C11_11  and  C12_12 
REMARK    6  A    between atoms: C13_13  and  C14_14 
REMARK       I    between atoms: N1_15  and  C15_17 
REMARK    7  A    between atoms: C15_17  and  C16_19 
REMARK    8  A    between atoms: C16_19  and  N2_22 
REMARK       I    between atoms: N2_22  and  C19_24 
REMARK    9  A    between atoms: C19_24  and  C20_26 
REMARK   10  A    between atoms: C20_26  and  N3_27 
REMARK   11  A    between atoms: C20_26  and  C21_31 
REMARK       I    between atoms: N4_35  and  C25_36 
ROOT
HETATM    1  C1  UNL     1      14.410  -1.308  -0.194  1.00  0.00     0.013 C 
HETATM    2  C2  UNL     1      13.348  -1.851   0.037  1.00  0.00    -0.105 C 
HETATM    3  C3  UNL     1      12.044  -2.508   0.296  1.00  0.00     0.187 C 
ENDROOT
BRANCH   3   4
HETATM    4  C4  UNL     1      10.999  -1.484   0.241  1.00  0.00    -0.081 C 
HETATM    5  C5  UNL     1      10.158  -0.621   0.193  1.00  0.00    -0.014 C 
BRANCH   5   6
HETATM    6  C6  UNL     1       9.167   0.375   0.125  1.00  0.00    -0.010 C 
HETATM    7  C7  UNL     1       8.312   1.221   0.091  1.00  0.00    -0.065 C 
BRANCH   7   8
HETATM    8  C8  UNL     1       7.283   2.215   0.064  1.00  0.00     0.065 C 
HETATM    9  C9  UNL     1       6.041   1.878   0.272  1.00  0.00     0.009 C 
BRANCH   9  10
HETATM   10  C10 UNL     1       5.711   0.472   0.533  1.00  0.00     0.009 C 
HETATM   11  C11 UNL     1       4.468   0.087   0.757  1.00  0.00     0.065 C 
BRANCH  11  12
HETATM   12  C12 UNL     1       3.469   1.125   0.731  1.00  0.00    -0.072 C 
HETATM   13  C13 UNL     1       2.660   2.012   0.729  1.00  0.00    -0.057 C 
BRANCH  13  14
HETATM   14  C14 UNL     1       1.725   3.085   0.752  1.00  0.00     0.156 C 
HETATM   15  N1  UNL     1       0.513   3.091   0.409  1.00  0.00    -0.327 N 
HETATM   16  C15 UNL     1      -0.154   1.956  -0.086  1.00  0.00     0.256 C 
ATOM     17  H1  UNL     1      -0.011   3.962   0.494  1.00  0.00     0.168 HD
HETATM   18  O1  UNL     1       0.082   1.397  -1.164  1.00  0.00    -0.270 OA
BRANCH  16  19
HETATM   19  C16 UNL     1      -1.254   1.377   0.769  1.00  0.00     0.256 C 
HETATM   20  C17 UNL     1      -0.688   0.403   1.692  1.00  0.00    -0.082 C 
HETATM   21  C18 UNL     1      -0.199  -0.401   2.444  1.00  0.00     0.015 C 
BRANCH  19  22
HETATM   22  N2  UNL     1      -2.138   0.639  -0.152  1.00  0.00    -0.336 N 
HETATM   23  C19 UNL     1      -3.393   1.214  -0.532  1.00  0.00     0.250 C 
HETATM   24  O2  UNL     1      -3.671   2.348  -0.035  1.00  0.00    -0.271 OA
ATOM     25  H2  UNL     1      -1.858  -0.272  -0.515  1.00  0.00     0.164 HD
BRANCH  23  26
HETATM   26  C20 UNL     1      -4.335   0.550  -1.451  1.00  0.00     0.280 C 
BRANCH  26  27
HETATM   27  N3  UNL     1      -5.404   1.447  -1.865  1.00  0.00    -0.066 N 
ATOM     28  H33 UNL     1      -5.888   1.846  -1.060  1.00  0.00     0.275 HD
ATOM     29  H32 UNL     1      -5.033   2.307  -2.270  1.00  0.00     0.275 HD
ATOM     30  H31 UNL     1      -6.056   0.988  -2.501  1.00  0.00     0.275 HD
ENDBRANCH  26  27
BRANCH  26  31
HETATM   31  C21 UNL     1      -4.959  -0.634  -0.692  1.00  0.00     0.043 C 
HETATM   32  C22 UNL     1      -5.914  -1.262  -1.678  1.00  0.00     0.010 C 
HETATM   33  C23 UNL     1      -6.501  -2.529  -1.124  1.00  0.00     0.020 C 
HETATM   34  C24 UNL     1      -6.968  -2.343   0.309  1.00  0.00     0.127 C 
HETATM   35  N4  UNL     1      -6.904  -0.944   0.700  1.00  0.00    -0.336 N 
HETATM   36  C25 UNL     1      -8.016  -0.315   1.315  1.00  0.00     0.330 C 
HETATM   37  C26 UNL     1      -5.717  -0.149   0.500  1.00  0.00     0.134 C 
HETATM   38  N5  UNL     1      -9.184  -1.074   1.564  1.00  0.00    -0.040 NA
HETATM   39  O3  UNL     1      -7.965   0.904   1.638  1.00  0.00    -0.251 OA
ENDBRANCH  26  31
ENDBRANCH  23  26
ENDBRANCH  19  22
ENDBRANCH  16  19
ENDBRANCH  13  14
ENDBRANCH  11  12
ENDBRANCH   9  10
ENDBRANCH   7   8
ENDBRANCH   5   6
ENDBRANCH   3   4
TORSDOF 11
