REMARK  7 active torsions:
REMARK  status: ('A' for Active; 'I' for Inactive)
REMARK    1  A    between atoms: C2_2  and  N1_3 
REMARK    2  A    between atoms: C2_2  and  C16_25 
REMARK       I    between atoms: N1_3  and  C3_5 
REMARK    3  A    between atoms: C3_5  and  C4_7 
REMARK    4  A    between atoms: C9_15  and  N3_16 
REMARK    5  A    between atoms: N3_16  and  C10_17 
REMARK    6  A    between atoms: C10_17  and  C11_18 
REMARK    7  A    between atoms: C11_18  and  O2_19 
REMARK       I    between atoms: C16_25  and  N4_27 
ROOT
HETATM    1  C4  UNL     1      -2.248   1.406  -1.449  1.00  0.00     0.308 C 
HETATM    2  N2  UNL     1      -2.283   2.880  -1.697  1.00  0.00    -0.059 N 
ATOM      3  H21 UNL     1      -2.878   3.153  -2.479  1.00  0.00     0.278 HD
ATOM      4  H22 UNL     1      -1.413   3.256  -2.074  1.00  0.00     0.278 HD
HETATM    5  C5  UNL     1      -2.661   3.444  -0.474  1.00  0.00     0.244 C 
HETATM    6  C6  UNL     1      -3.380   2.355   0.377  1.00  0.00     0.008 C 
HETATM    7  C7  UNL     1      -2.548   2.174   1.569  1.00  0.00     0.019 C 
HETATM    8  C8  UNL     1      -4.637   3.116   0.779  1.00  0.00     0.019 C 
HETATM    9  C9  UNL     1      -3.515   1.301  -0.648  1.00  0.00     0.239 C 
ENDROOT
BRANCH   1  10
HETATM   10  C3  UNL     1      -0.938   1.169  -0.857  1.00  0.00     0.251 C 
HETATM   11  N1  UNL     1      -0.232   0.022  -0.614  1.00  0.00    -0.346 N 
ATOM     12  H1  UNL     1      -0.703  -0.818  -0.949  1.00  0.00     0.163 HD
HETATM   13  O1  UNL     1      -0.320   2.250  -0.491  1.00  0.00    -0.271 OA
BRANCH  11  14
HETATM   14  C2  UNL     1       1.040  -0.253   0.017  1.00  0.00     0.172 C 
HETATM   15  C1  UNL     1       1.716   1.060   0.470  1.00  0.00     0.042 C 
BRANCH  14  16
HETATM   16  C16 UNL     1       1.926  -1.055  -0.805  1.00  0.00     0.242 C 
HETATM   17  O3  UNL     1       1.614  -1.210  -2.020  1.00  0.00    -0.271 OA
HETATM   18  N4  UNL     1       3.098  -1.675  -0.370  1.00  0.00    -0.347 N 
HETATM   19  C17 UNL     1       3.977  -2.394  -1.339  1.00  0.00     0.154 C 
HETATM   20  C24 UNL     1       3.628  -1.788   0.970  1.00  0.00     0.154 C 
HETATM   21  C18 UNL     1       5.302  -1.686  -1.326  1.00  0.00     0.257 C 
HETATM   22  N5  UNL     1       5.837  -1.336  -0.068  1.00  0.00    -0.064 N 
HETATM   23  C19 UNL     1       6.900  -2.201   0.420  1.00  0.00     0.237 C 
HETATM   24  C22 UNL     1       6.594  -0.074  -0.256  1.00  0.00     0.237 C 
HETATM   25  C23 UNL     1       4.939  -1.068   1.001  1.00  0.00     0.257 C 
HETATM   26  C20 UNL     1       7.745  -1.332   1.326  1.00  0.00     0.029 C 
HETATM   27  C21 UNL     1       7.343   0.097   1.047  1.00  0.00     0.029 C 
ENDBRANCH  14  16
ENDBRANCH  11  14
ENDBRANCH   1  10
BRANCH   9  28
HETATM   28  N3  UNL     1      -4.239   0.125  -0.560  1.00  0.00    -0.058 N 
HETATM   29  C12 UNL     1      -4.847   0.027  -1.940  1.00  0.00     0.238 C 
HETATM   30  C13 UNL     1      -5.458  -1.290  -2.095  1.00  0.00     0.029 C 
HETATM   31  C14 UNL     1      -4.678  -2.134  -1.141  1.00  0.00     0.029 C 
HETATM   32  C15 UNL     1      -3.613  -1.160  -0.685  1.00  0.00     0.238 C 
BRANCH  28  33
HETATM   33  C10 UNL     1      -5.368   0.072   0.296  1.00  0.00     0.264 C 
BRANCH  33  34
HETATM   34  C11 UNL     1      -5.301  -0.262   1.719  1.00  0.00     0.192 C 
BRANCH  34  35
HETATM   35  O2  UNL     1      -4.791  -1.455   2.144  1.00  0.00    -0.399 OA
ATOM     36  H2  UNL     1      -4.747  -1.672   3.068  1.00  0.00     0.209 HD
ENDBRANCH  34  35
ENDBRANCH  33  34
ENDBRANCH  28  33
ENDBRANCH   9  28
TORSDOF 7
