REMARK  7 active torsions:
REMARK  status: ('A' for Active; 'I' for Inactive)
REMARK       I    between atoms: C2_2  and  N1_4 
REMARK    1  A    between atoms: C3_6  and  C4_7 
REMARK    2  A    between atoms: C6_11  and  C7_12 
REMARK    3  A    between atoms: C6_11  and  N4_18 
REMARK    4  A    between atoms: C8_13  and  N3_14 
REMARK    5  A    between atoms: C17_26  and  N6_27 
REMARK    6  A    between atoms: N6_27  and  N7_28 
REMARK    7  A    between atoms: C18_31  and  O2_33 
ROOT
HETATM    1  C4  UNL     1      -1.792   0.047  -0.199  1.00  0.00     0.124 C 
HETATM    2  N2  UNL     1      -0.766   0.157  -1.247  1.00  0.00    -0.354 N 
ATOM      3  H2  UNL     1      -0.937   0.309  -2.241  1.00  0.00     0.162 HD
HETATM    4  C5  UNL     1       0.493   0.016  -0.634  1.00  0.00     0.134 C 
HETATM    5  C6  UNL     1       1.673   0.562  -0.885  1.00  0.00     0.179 C 
HETATM    6  N5  UNL     1       0.264  -0.885   0.479  1.00  0.00    -0.356 N 
ATOM      7  H5  UNL     1       0.978  -1.304   1.074  1.00  0.00     0.162 HD
HETATM    8  C15 UNL     1      -1.166  -1.079   0.589  1.00  0.00     0.120 C 
HETATM    9  C16 UNL     1      -1.526  -1.040   2.043  1.00  0.00     0.050 C 
HETATM   10  C17 UNL     1      -1.510  -2.347  -0.069  1.00  0.00     0.155 C 
HETATM   11  C18 UNL     1      -2.929  -2.702  -0.254  1.00  0.00     0.138 C 
HETATM   12  C19 UNL     1      -3.546  -3.257   1.012  1.00  0.00     0.059 C 
HETATM   13  C20 UNL     1      -3.647  -1.516  -0.751  1.00  0.00    -0.008 A 
HETATM   14  C21 UNL     1      -4.935  -1.707  -1.277  1.00  0.00     0.011 A 
HETATM   15  C22 UNL     1      -5.696  -0.672  -1.771  1.00  0.00     0.001 A 
HETATM   16  C23 UNL     1      -5.159   0.598  -1.742  1.00  0.00     0.001 A 
HETATM   17  C24 UNL     1      -3.897   0.804  -1.230  1.00  0.00     0.011 A 
HETATM   18  C25 UNL     1      -3.123  -0.267  -0.725  1.00  0.00    -0.012 A 
ENDROOT
BRANCH   5  19
HETATM   19  C7  UNL     1       2.769   0.124   0.016  1.00  0.00     0.066 C 
HETATM   20  C8  UNL     1       3.990   0.454   0.035  1.00  0.00     0.203 C 
BRANCH  20  21
HETATM   21  N3  UNL     1       4.843  -0.142   1.042  1.00  0.00    -0.059 N 
HETATM   22  C9  UNL     1       4.766   0.551   2.296  1.00  0.00     0.277 C 
HETATM   23  C10 UNL     1       4.440  -1.522   1.276  1.00  0.00     0.277 C 
HETATM   24  C11 UNL     1       6.214  -0.165   0.581  1.00  0.00     0.277 C 
ENDBRANCH  20  21
ENDBRANCH   5  19
BRANCH   5  25
HETATM   25  N4  UNL     1       1.988   1.513  -1.869  1.00  0.00    -0.045 N 
HETATM   26  C12 UNL     1       3.010   1.003  -2.802  1.00  0.00     0.278 C 
HETATM   27  C13 UNL     1       0.894   1.908  -2.754  1.00  0.00     0.278 C 
HETATM   28  C14 UNL     1       2.565   2.743  -1.294  1.00  0.00     0.278 C 
ENDBRANCH   5  25
BRANCH   1  29
HETATM   29  C3  UNL     1      -1.869   1.297   0.595  1.00  0.00     0.103 C 
HETATM   30  N1  UNL     1      -2.933   1.539   1.277  1.00  0.00    -0.338 N 
HETATM   31  C2  UNL     1      -3.151   2.670   2.070  1.00  0.00     0.217 C 
ATOM     32  H1  UNL     1      -3.681   0.847   1.236  1.00  0.00     0.167 HD
HETATM   33  C1  UNL     1      -4.277   2.720   3.028  1.00  0.00     0.117 C 
HETATM   34  O1  UNL     1      -2.387   3.658   1.974  1.00  0.00    -0.274 OA
ENDBRANCH   1  29
BRANCH  10  35
HETATM   35  N6  UNL     1      -0.627  -3.119  -0.469  1.00  0.00    -0.336 NA
BRANCH  35  36
HETATM   36  N7  UNL     1       0.202  -3.973  -0.859  1.00  0.00    -0.280 N 
ATOM     37  H72 UNL     1      -0.608  -4.552  -0.636  1.00  0.00     0.191 HD
ATOM     38  H71 UNL     1       0.929  -4.608  -1.188  1.00  0.00     0.191 HD
ENDBRANCH  35  36
ENDBRANCH  10  35
BRANCH  11  39
HETATM   39  O2  UNL     1      -3.065  -3.725  -1.227  1.00  0.00    -0.378 OA
ATOM     40  H2  UNL     1      -3.979  -3.954  -1.346  1.00  0.00     0.211 HD
ENDBRANCH  11  39
TORSDOF 7
