REMARK  7 active torsions:
REMARK  status: ('A' for Active; 'I' for Inactive)
REMARK    1  A    between atoms: C2_2  and  N1_3 
REMARK    2  A    between atoms: C3_5  and  N2_6 
REMARK    3  A    between atoms: C3_5  and  C9_16 
REMARK    4  A    between atoms: N2_6  and  C4_8 
REMARK    5  A    between atoms: C4_8  and  C5_9 
REMARK    6  A    between atoms: C5_9  and  C6_10 
REMARK    7  A    between atoms: C6_10  and  N3_11 
REMARK       I    between atoms: N3_11  and  C7_13 
REMARK       I    between atoms: C9_16  and  N4_18 
REMARK       I    between atoms: C10_20  and  N5_21 
REMARK       I    between atoms: C10_20  and  N8_36 
REMARK       I    between atoms: N5_21  and  C11_23 
REMARK       I    between atoms: C11_23  and  N6_25 
ROOT
HETATM    1  C9  UNL     1       1.831  -0.645  -0.795  1.00  0.00     0.303 C 
HETATM    2  O2  UNL     1       2.003  -1.864  -0.411  1.00  0.00    -0.263 OA
HETATM    3  N4  UNL     1       0.515  -0.281  -1.066  1.00  0.00    -0.153 N 
ATOM      4  H4  UNL     1       0.366   0.153  -1.977  1.00  0.00     0.187 HD
HETATM    5  C10 UNL     1      -0.535  -0.407  -0.349  1.00  0.00     0.686 C 
HETATM    6  N5  UNL     1      -1.769   0.057  -0.876  1.00  0.00    -0.141 N 
ATOM      7  H5  UNL     1      -1.754   0.463  -1.812  1.00  0.00     0.189 HD
HETATM    8  C11 UNL     1      -3.016   0.004  -0.214  1.00  0.00     0.341 C 
HETATM    9  O3  UNL     1      -3.031  -0.486   0.923  1.00  0.00    -0.246 OA
HETATM   10  N6  UNL     1      -4.178   0.487  -0.825  1.00  0.00    -0.299 N 
HETATM   11  C12 UNL     1      -4.300   0.924  -2.213  1.00  0.00     0.134 C 
HETATM   12  C13 UNL     1      -5.281  -0.092  -2.826  1.00  0.00     0.025 C 
HETATM   13  C14 UNL     1      -6.644   0.005  -2.237  1.00  0.00     0.044 C 
HETATM   14  C15 UNL     1      -6.599   0.296  -0.803  1.00  0.00    -0.015 A 
HETATM   15  C16 UNL     1      -7.767   0.354  -0.045  1.00  0.00     0.099 A 
HETATM   16  N7  UNL     1      -7.767   0.629   1.277  1.00  0.00    -0.370 N 
HETATM   17  C17 UNL     1      -9.044   0.670   2.001  1.00  0.00     0.154 C 
HETATM   18  C18 UNL     1      -6.632   0.869   1.956  1.00  0.00     0.092 A 
HETATM   19  C19 UNL     1      -5.424   0.826   1.253  1.00  0.00     0.047 A 
HETATM   20  C20 UNL     1      -5.418   0.546  -0.090  1.00  0.00     0.047 A 
HETATM   21  N8  UNL     1      -0.441  -0.997   0.931  1.00  0.00    -0.226 N 
HETATM   22  C21 UNL     1      -0.557  -2.431   1.184  1.00  0.00     0.168 C 
HETATM   23  C22 UNL     1      -0.207  -0.183   2.136  1.00  0.00     0.168 C 
ENDROOT
BRANCH   1  24
HETATM   24  C3  UNL     1       3.020   0.158  -0.889  1.00  0.00     0.167 C 
HETATM   25  N1  UNL     1       3.062   1.352  -1.245  1.00  0.00    -0.372 N 
ATOM     26  H1  UNL     1       3.999   1.755  -1.245  1.00  0.00     0.161 HD
BRANCH  25  27
HETATM   27  C2  UNL     1       2.049   2.246  -1.647  1.00  0.00     0.117 C 
HETATM   28  C1  UNL     1       1.390   2.932  -0.445  1.00  0.00     0.026 C 
ENDBRANCH  25  27
BRANCH  24  29
HETATM   29  N2  UNL     1       4.290  -0.445  -0.543  1.00  0.00    -0.372 N 
ATOM     30  H2  UNL     1       4.781  -1.044  -1.207  1.00  0.00     0.161 HD
BRANCH  29  31
HETATM   31  C4  UNL     1       4.847  -0.179   0.763  1.00  0.00     0.123 C 
BRANCH  31  32
HETATM   32  C5  UNL     1       6.172  -0.904   0.900  1.00  0.00     0.039 C 
BRANCH  32  33
HETATM   33  C6  UNL     1       7.143  -0.432  -0.154  1.00  0.00     0.124 C 
BRANCH  33  34
HETATM   34  N3  UNL     1       8.400  -1.097  -0.059  1.00  0.00    -0.361 N 
HETATM   35  C7  UNL     1       9.238  -1.030   1.068  1.00  0.00     0.213 C 
HETATM   36  C8  UNL     1      10.540  -1.760   1.092  1.00  0.00     0.117 C 
HETATM   37  O1  UNL     1       8.945  -0.374   2.079  1.00  0.00    -0.274 OA
ATOM     38  H3  UNL     1       8.710  -1.654  -0.855  1.00  0.00     0.162 HD
ENDBRANCH  33  34
ENDBRANCH  32  33
ENDBRANCH  31  32
ENDBRANCH  29  31
ENDBRANCH  24  29
ENDBRANCH   1  24
TORSDOF 7
