REMARK  7 active torsions:
REMARK  status: ('A' for Active; 'I' for Inactive)
REMARK    1  A    between atoms: C2_2  and  N1_3 
REMARK    2  A    between atoms: C5_7  and  C6_8 
REMARK    3  A    between atoms: C9_13  and  C10_14 
REMARK    4  A    between atoms: C16_20  and  C17_21 
REMARK    5  A    between atoms: C17_21  and  C18_22 
REMARK    6  A    between atoms: N4_31  and  S1_33 
REMARK    7  A    between atoms: S1_33  and  N5_34 
ROOT
HETATM    1  N1  UNL     1       0.905   0.093  -1.890  1.00  0.00    -0.289 N 
HETATM    2  C3  UNL     1      -0.457   0.493  -2.127  1.00  0.00     0.263 A 
HETATM    3  O1  UNL     1      -0.880   0.964  -3.223  1.00  0.00    -0.267 OA
HETATM    4  C4  UNL     1      -1.300   0.281  -0.931  1.00  0.00     0.043 A 
HETATM    5  C5  UNL     1      -2.608   0.844  -0.892  1.00  0.00     0.048 C 
HETATM    6  C14 UNL     1      -0.517  -0.204  -0.030  1.00  0.00    -0.019 A 
HETATM    7  C15 UNL     1      -0.805  -0.592   1.380  1.00  0.00     0.052 C 
HETATM    8  C16 UNL     1       0.911  -0.350  -0.570  1.00  0.00     0.050 A 
ENDROOT
BRANCH   8   9
HETATM    9  C17 UNL     1       1.863  -0.685   0.239  1.00  0.00     0.046 C 
BRANCH   9  10
HETATM   10  C18 UNL     1       3.277  -0.765   0.259  1.00  0.00     0.017 A 
HETATM   11  C19 UNL     1       3.920  -2.006   0.269  1.00  0.00    -0.046 A 
HETATM   12  C20 UNL     1       3.095  -3.249   0.142  1.00  0.00     0.049 C 
HETATM   13  C21 UNL     1       5.288  -2.072   0.394  1.00  0.00     0.032 A 
HETATM   14  C22 UNL     1       6.067  -0.937   0.512  1.00  0.00     0.007 A 
HETATM   15  C23 UNL     1       7.544  -1.006   0.649  1.00  0.00     0.068 C 
HETATM   16  N3  UNL     1       5.440   0.253   0.502  1.00  0.00    -0.345 N 
HETATM   17  C24 UNL     1       4.111   0.357   0.382  1.00  0.00     0.127 A 
ATOM     18  H3  UNL     1       5.996   1.104   0.589  1.00  0.00     0.167 HD
HETATM   19  N4  UNL     1       3.517   1.484   0.370  1.00  0.00    -0.252 N 
ATOM     20  H4  UNL     1       2.502   1.453   0.273  1.00  0.00     0.182 HD
BRANCH  19  21
HETATM   21  S1  UNL     1       4.205   3.032   0.496  1.00  0.00     0.318 S 
HETATM   22  O2  UNL     1       5.231   3.179   1.562  1.00  0.00    -0.183 OA
HETATM   23  O3  UNL     1       3.078   3.991   0.871  1.00  0.00    -0.183 OA
BRANCH  21  24
HETATM   24  N5  UNL     1       4.832   3.622  -1.003  1.00  0.00    -0.311 N 
ATOM     25  H52 UNL     1       4.786   3.083  -1.867  1.00  0.00     0.170 HD
ATOM     26  H51 UNL     1       5.245   4.552  -0.927  1.00  0.00     0.170 HD
ENDBRANCH  21  24
ENDBRANCH  19  21
ENDBRANCH   9  10
ENDBRANCH   8   9
BRANCH   1  27
HETATM   27  C2  UNL     1       1.858   0.156  -2.915  1.00  0.00     0.090 C 
HETATM   28  C1  UNL     1       3.068  -0.125  -3.091  1.00  0.00     0.030 C 
ENDBRANCH   1  27
BRANCH   5  29
HETATM   29  C6  UNL     1      -3.745   0.674  -0.325  1.00  0.00     0.043 A 
HETATM   30  N2  UNL     1      -4.797   1.553  -0.559  1.00  0.00    -0.359 N 
HETATM   31  C7  UNL     1      -5.933   1.109  -0.077  1.00  0.00     0.013 A 
ATOM     32  H2  UNL     1      -4.697   2.442  -1.050  1.00  0.00     0.166 HD
HETATM   33  C8  UNL     1      -7.233   1.896  -0.209  1.00  0.00     0.068 C 
HETATM   34  C9  UNL     1      -5.750  -0.075   0.504  1.00  0.00    -0.025 A 
HETATM   35  C12 UNL     1      -4.375  -0.359   0.345  1.00  0.00    -0.011 A 
HETATM   36  C13 UNL     1      -3.958  -1.578   0.616  1.00  0.00     0.026 C 
BRANCH  34  37
HETATM   37  C10 UNL     1      -6.792  -0.888   1.168  1.00  0.00     0.037 C 
HETATM   38  C11 UNL     1      -7.119  -0.306   2.549  1.00  0.00     0.010 C 
ENDBRANCH  34  37
ENDBRANCH   5  29
TORSDOF 7
