REMARK  7 active torsions:
REMARK  status: ('A' for Active; 'I' for Inactive)
REMARK    1  A    between atoms: C2_2  and  C3_3 
REMARK    2  A    between atoms: C3_3  and  N1_4 
REMARK    3  A    between atoms: N1_4  and  C4_6 
REMARK    4  A    between atoms: C4_6  and  N2_8 
REMARK    5  A    between atoms: C11_15  and  N3_16 
REMARK       I    between atoms: N3_16  and  C12_18 
REMARK    6  A    between atoms: C12_18  and  C13_20 
REMARK    7  A    between atoms: C13_20  and  N4_21 
ROOT
HETATM    1  N2  UNL     1       3.476  -0.053  -1.019  1.00  0.00    -0.358 N 
HETATM    2  C5  UNL     1       2.121  -0.525  -1.364  1.00  0.00     0.126 C 
HETATM    3  C6  UNL     1       1.725  -1.527  -0.275  1.00  0.00     0.031 C 
HETATM    4  C7  UNL     1       1.786  -0.859   1.069  1.00  0.00    -0.017 C 
HETATM    5  C8  UNL     1       2.670  -1.689   1.978  1.00  0.00     0.012 C 
HETATM    6  C9  UNL     1       2.193  -1.333   3.346  1.00  0.00     0.003 C 
HETATM    7  C10 UNL     1       0.714  -1.188   3.203  1.00  0.00     0.026 C 
HETATM    8  C11 UNL     1       0.437  -1.009   1.736  1.00  0.00     0.093 C 
HETATM    9  C21 UNL     1       2.244   0.556   0.991  1.00  0.00     0.031 C 
HETATM   10  C22 UNL     1       3.582   0.604   0.241  1.00  0.00     0.126 C 
ENDROOT
BRANCH   8  11
HETATM   11  N3  UNL     1      -0.439   0.108   1.521  1.00  0.00    -0.354 N 
HETATM   12  C12 UNL     1      -1.705  -0.082   0.936  1.00  0.00     0.246 C 
HETATM   13  O1  UNL     1      -2.022  -1.265   0.618  1.00  0.00    -0.272 OA
ATOM     14  H3  UNL     1      -0.142   1.045   1.794  1.00  0.00     0.162 HD
BRANCH  12  15
HETATM   15  C13 UNL     1      -2.573   1.079   0.730  1.00  0.00     0.367 C 
BRANCH  15  16
HETATM   16  N4  UNL     1      -3.837   0.853   0.138  1.00  0.00     0.026 N 
HETATM   17  C14 UNL     1      -3.768   0.382  -1.234  1.00  0.00     0.293 C 
HETATM   18  C15 UNL     1      -5.114   0.341  -1.892  1.00  0.00     0.268 C 
HETATM   19  N5  UNL     1      -6.206   0.096  -1.006  1.00  0.00    -0.059 N 
HETATM   20  C16 UNL     1      -7.190  -0.721  -1.709  1.00  0.00     0.273 C 
HETATM   21  C17 UNL     1      -5.782  -0.646   0.145  1.00  0.00     0.268 C 
HETATM   22  C19 UNL     1      -6.914   1.322  -0.640  1.00  0.00     0.341 C 
HETATM   23  C18 UNL     1      -4.715   0.056   0.948  1.00  0.00     0.293 C 
HETATM   24  C20 UNL     1      -5.846   2.311  -0.270  1.00  0.00     0.268 C 
HETATM   25  O2  UNL     1      -6.271   3.495  -0.216  1.00  0.00    -0.270 OA
HETATM   26  N6  UNL     1      -4.462   2.129   0.024  1.00  0.00    -0.183 N 
ATOM     27  H6  UNL     1      -3.886   2.960   0.161  1.00  0.00     0.197 HD
ENDBRANCH  15  16
ENDBRANCH  12  15
ENDBRANCH   8  11
BRANCH   1  28
HETATM   28  C4  UNL     1       4.504  -0.258  -1.922  1.00  0.00     0.169 C 
HETATM   29  S1  UNL     1       4.073  -1.038  -3.369  1.00  0.00    -0.041 SA
BRANCH  28  30
HETATM   30  N1  UNL     1       5.834   0.109  -1.759  1.00  0.00    -0.367 N 
ATOM     31  H1  UNL     1       6.444  -0.117  -2.545  1.00  0.00     0.161 HD
BRANCH  30  32
HETATM   32  C3  UNL     1       6.474   0.750  -0.668  1.00  0.00     0.121 C 
BRANCH  32  33
HETATM   33  C2  UNL     1       7.955   1.024  -0.966  1.00  0.00     0.015 C 
HETATM   34  C1  UNL     1       8.713  -0.243  -1.239  1.00  0.00     0.006 C 
ENDBRANCH  32  33
ENDBRANCH  30  32
ENDBRANCH  28  30
ENDBRANCH   1  28
TORSDOF 7
