REMARK  8 active torsions:
REMARK  status: ('A' for Active; 'I' for Inactive)
REMARK    1  A    between atoms: C2_2  and  C3_3 
REMARK    2  A    between atoms: C3_3  and  N1_4 
REMARK       I    between atoms: N1_4  and  C5_6 
REMARK       I    between atoms: C5_6  and  N2_8 
REMARK    3  A    between atoms: N2_8  and  C6_10 
REMARK    4  A    between atoms: N3_12  and  C8_13 
REMARK    5  A    between atoms: C8_13  and  O2_14 
REMARK    6  A    between atoms: C8_13  and  N4_16 
REMARK    7  A    between atoms: C18_27  and  N6_28 
REMARK    8  A    between atoms: C18_27  and  C21_33 
REMARK       I    between atoms: N6_28  and  C19_30 
ROOT
HETATM    1  C6  UNL     1      -1.213  -0.341   0.437  1.00  0.00     0.143 C 
HETATM    2  C7  UNL     1      -0.471  -0.394   1.706  1.00  0.00     0.154 C 
HETATM    3  N3  UNL     1       0.942  -0.813   1.530  1.00  0.00    -0.345 N 
HETATM    4  C15 UNL     1       1.401  -2.139   1.353  1.00  0.00     0.126 C 
HETATM    5  C16 UNL     1       1.168  -2.671  -0.052  1.00  0.00     0.023 C 
HETATM    6  C17 UNL     1       0.453  -1.657  -0.847  1.00  0.00     0.046 C 
HETATM    7  C18 UNL     1      -0.979  -1.508  -0.529  1.00  0.00     0.143 C 
ENDROOT
BRANCH   3   8
HETATM    8  C8  UNL     1       1.806   0.266   1.574  1.00  0.00     0.217 C 
BRANCH   8   9
HETATM    9  O2  UNL     1       1.203   1.443   1.821  1.00  0.00    -0.333 OA
ATOM     10  H2  UNL     1       1.796   2.184   1.851  1.00  0.00     0.220 HD
ENDBRANCH   8   9
BRANCH   8  11
HETATM   11  N4  UNL     1       3.176   0.415   1.419  1.00  0.00    -0.344 N 
HETATM   12  C9  UNL     1       3.781   1.790   1.587  1.00  0.00     0.154 C 
HETATM   13  C10 UNL     1       4.333   2.129   0.229  1.00  0.00     0.256 C 
HETATM   14  N5  UNL     1       5.406   1.217  -0.125  1.00  0.00    -0.072 N 
HETATM   15  C11 UNL     1       6.651   1.958  -0.067  1.00  0.00     0.272 C 
HETATM   16  C12 UNL     1       5.194   0.784  -1.485  1.00  0.00     0.272 C 
HETATM   17  C13 UNL     1       5.509   0.118   0.787  1.00  0.00     0.256 C 
HETATM   18  C14 UNL     1       4.172  -0.558   1.086  1.00  0.00     0.154 C 
ENDBRANCH   8  11
ENDBRANCH   3   8
BRANCH   1  19
HETATM   19  N2  UNL     1      -2.626  -0.136   0.648  1.00  0.00    -0.334 N 
HETATM   20  C5  UNL     1      -3.239   1.078   0.269  1.00  0.00     0.318 C 
HETATM   21  N1  UNL     1      -4.629   1.331   0.451  1.00  0.00    -0.339 N 
HETATM   22  O1  UNL     1      -2.522   1.971  -0.252  1.00  0.00    -0.247 OA
HETATM   23  C4  UNL     1      -5.484   0.345   1.044  1.00  0.00     0.154 C 
ATOM     24  H2  UNL     1      -3.186  -0.874   1.074  1.00  0.00     0.164 HD
BRANCH  21  25
HETATM   25  C3  UNL     1      -5.198   2.590   0.040  1.00  0.00     0.127 C 
BRANCH  25  26
HETATM   26  C2  UNL     1      -5.691   2.565  -1.390  1.00  0.00     0.015 C 
HETATM   27  C1  UNL     1      -6.264   3.940  -1.695  1.00  0.00     0.006 C 
ENDBRANCH  25  26
ENDBRANCH  21  25
ENDBRANCH   1  19
BRANCH   7  28
HETATM   28  N6  UNL     1      -1.669  -2.676  -0.074  1.00  0.00    -0.341 N 
HETATM   29  C19 UNL     1      -1.711  -3.869  -0.809  1.00  0.00     0.214 C 
HETATM   30  C20 UNL     1      -2.464  -5.052  -0.240  1.00  0.00     0.117 C 
HETATM   31  O3  UNL     1      -1.183  -4.093  -1.925  1.00  0.00    -0.274 OA
ATOM     32  H6  UNL     1      -2.151  -2.639   0.824  1.00  0.00     0.163 HD
ENDBRANCH   7  28
BRANCH   7  33
HETATM   33  C21 UNL     1      -1.645  -1.111  -1.836  1.00  0.00     0.204 C 
HETATM   34  O4  UNL     1      -2.630  -1.721  -2.247  1.00  0.00    -0.646 OA
HETATM   35  O5  UNL     1      -1.125  -0.059  -2.553  1.00  0.00    -0.646 OA
ENDBRANCH   7  33
TORSDOF 8
