REMARK  5 active torsions:
REMARK  status: ('A' for Active; 'I' for Inactive)
REMARK       I    between atoms: C1_2  and  N2_4 
REMARK    1  A    between atoms: C5_8  and  C6_9 
REMARK       I    between atoms: C6_9  and  N3_11 
REMARK    2  A    between atoms: N3_11  and  C7_13 
REMARK    3  A    between atoms: N4_18  and  C12_19 
REMARK    4  A    between atoms: C12_19  and  C13_20 
REMARK    5  A    between atoms: C12_19  and  C15_27 
REMARK       I    between atoms: C13_20  and  N5_22 
ROOT
HETATM    1  C7  UNL     1       1.207  -1.495  -0.717  1.00  0.00     0.176 C 
HETATM    2  C8  UNL     1       1.231  -1.934  -2.140  1.00  0.00     0.035 C 
HETATM    3  C9  UNL     1      -0.086  -2.385  -2.669  1.00  0.00     0.004 C 
HETATM    4  C10 UNL     1      -0.923  -1.162  -2.949  1.00  0.00     0.020 C 
HETATM    5  C11 UNL     1      -1.742  -0.817  -1.711  1.00  0.00     0.127 C 
HETATM    6  N4  UNL     1      -0.970   0.016  -0.807  1.00  0.00    -0.337 N 
HETATM    7  C21 UNL     1       0.404  -0.272  -0.491  1.00  0.00     0.243 C 
HETATM    8  O4  UNL     1       1.034   0.654   0.065  1.00  0.00    -0.271 OA
ENDROOT
BRANCH   6   9
HETATM    9  C12 UNL     1      -1.559   1.163  -0.199  1.00  0.00     0.183 C 
BRANCH   9  10
HETATM   10  C13 UNL     1      -1.853   2.246  -1.206  1.00  0.00     0.247 C 
HETATM   11  O3  UNL     1      -1.515   2.157  -2.413  1.00  0.00    -0.271 OA
HETATM   12  N5  UNL     1      -2.537   3.435  -0.830  1.00  0.00    -0.302 N 
HETATM   13  C14 UNL     1      -3.409   3.971  -1.650  1.00  0.00     0.203 C 
ATOM     14  H5  UNL     1      -2.350   3.869   0.074  1.00  0.00     0.171 HD
HETATM   15  N6  UNL     1      -3.705   3.409  -2.914  1.00  0.00    -0.066 NA
HETATM   16  N7  UNL     1      -4.107   5.155  -1.290  1.00  0.00    -0.066 NA
ENDBRANCH   9  10
BRANCH   9  17
HETATM   17  C15 UNL     1      -2.695   0.940   0.729  1.00  0.00     0.018 C 
HETATM   18  C16 UNL     1      -3.906   0.270   0.167  1.00  0.00     0.007 C 
HETATM   19  C17 UNL     1      -5.002   0.362   1.225  1.00  0.00     0.000 C 
HETATM   20  C18 UNL     1      -4.500  -0.543   2.365  1.00  0.00     0.000 C 
HETATM   21  C19 UNL     1      -3.367   0.205   3.022  1.00  0.00     0.000 C 
HETATM   22  C20 UNL     1      -2.229   0.310   2.032  1.00  0.00     0.007 C 
ENDBRANCH   9  17
ENDBRANCH   6   9
BRANCH   1  23
HETATM   23  N3  UNL     1       2.508  -1.385  -0.111  1.00  0.00    -0.346 N 
HETATM   24  C6  UNL     1       2.886  -2.012   1.077  1.00  0.00     0.241 C 
HETATM   25  O2  UNL     1       2.043  -2.731   1.707  1.00  0.00    -0.271 OA
ATOM     26  H3  UNL     1       3.203  -0.807  -0.584  1.00  0.00     0.163 HD
BRANCH  24  27
HETATM   27  C5  UNL     1       4.230  -1.890   1.658  1.00  0.00     0.180 C 
HETATM   28  N2  UNL     1       5.178  -1.222   0.832  1.00  0.00    -0.323 N 
HETATM   29  C1  UNL     1       5.743  -1.681  -0.405  1.00  0.00     0.331 C 
HETATM   30  C2  UNL     1       5.539   0.043   1.402  1.00  0.00     0.128 C 
HETATM   31  N1  UNL     1       6.683  -0.914  -1.107  1.00  0.00    -0.040 NA
HETATM   32  O1  UNL     1       5.365  -2.791  -0.833  1.00  0.00    -0.251 OA
HETATM   33  C3  UNL     1       5.028   0.045   2.794  1.00  0.00     0.022 C 
HETATM   34  C4  UNL     1       4.271  -1.236   2.985  1.00  0.00     0.037 C 
ENDBRANCH  24  27
ENDBRANCH   1  23
TORSDOF 5
