REMARK  8 active torsions:
REMARK  status: ('A' for Active; 'I' for Inactive)
REMARK    1  A    between atoms: C5_5  and  C6_6 
REMARK    2  A    between atoms: C6_6  and  N1_7 
REMARK       I    between atoms: N1_7  and  C7_9 
REMARK    3  A    between atoms: C7_9  and  S1_11 
REMARK    4  A    between atoms: S1_11  and  N2_12 
REMARK    5  A    between atoms: N2_12  and  N3_13 
REMARK    6  A    between atoms: N2_12  and  C8_16 
REMARK    7  A    between atoms: C8_16  and  O2_17 
REMARK    8  A    between atoms: C8_16  and  N4_19 
REMARK       I    between atoms: N4_19  and  C9_21 
ROOT
HETATM    1  S1  UNL     1       1.787  -0.879  -0.925  1.00  0.00     0.070 SA
ENDROOT
BRANCH   1   2
HETATM    2  C7  UNL     1       0.560  -0.701   0.348  1.00  0.00     0.301 C 
HETATM    3  N1  UNL     1      -0.615   0.014   0.045  1.00  0.00    -0.348 N 
ATOM      4  H1  UNL     1      -0.753   0.416  -0.882  1.00  0.00     0.163 HD
HETATM    5  O1  UNL     1       0.691  -1.180   1.502  1.00  0.00    -0.259 OA
BRANCH   3   6
HETATM    6  C6  UNL     1      -1.623   0.168   1.072  1.00  0.00     0.156 C 
BRANCH   6   7
HETATM    7  C5  UNL     1      -2.784   0.949   0.559  1.00  0.00     0.206 C 
HETATM    8  C4  UNL     1      -3.463   0.318  -0.616  1.00  0.00     0.072 C 
HETATM    9  C2  UNL     1      -4.722   0.548   0.157  1.00  0.00     0.121 C 
HETATM   10  C1  UNL     1      -5.589  -0.677   0.354  1.00  0.00     0.046 C 
HETATM   11  C3  UNL     1      -5.538   1.682  -0.391  1.00  0.00     0.046 C 
HETATM   12  N7  UNL     1      -3.975   0.822   1.351  1.00  0.00    -0.061 N 
ATOM     13  H72 UNL     1      -4.261   1.577   1.974  1.00  0.00     0.278 HD
ATOM     14  H71 UNL     1      -4.003   0.171   2.136  1.00  0.00     0.278 HD
ENDBRANCH   6   7
ENDBRANCH   3   6
ENDBRANCH   1   2
BRANCH   1  15
HETATM   15  N2  UNL     1       3.181  -1.762  -0.468  1.00  0.00    -0.215 N 
BRANCH  15  16
HETATM   16  N3  UNL     1       2.958  -2.985   0.129  1.00  0.00    -0.333 N 
ATOM     17  H32 UNL     1       2.198  -3.524  -0.286  1.00  0.00     0.177 HD
ATOM     18  H31 UNL     1       3.788  -3.511   0.401  1.00  0.00     0.177 HD
ENDBRANCH  15  16
BRANCH  15  19
HETATM   19  C8  UNL     1       4.247  -1.006   0.114  1.00  0.00     0.358 C 
BRANCH  19  20
HETATM   20  O2  UNL     1       3.800  -0.381   1.268  1.00  0.00    -0.358 OA
ATOM     21  H2  UNL     1       4.508   0.121   1.654  1.00  0.00     0.214 HD
ENDBRANCH  19  20
BRANCH  19  22
HETATM   22  N4  UNL     1       4.845  -0.124  -0.835  1.00  0.00    -0.320 N 
HETATM   23  C9  UNL     1       5.925   0.721  -0.466  1.00  0.00     0.185 C 
HETATM   24  N5  UNL     1       7.028   0.169  -0.098  1.00  0.00    -0.374 N 
HETATM   25  N6  UNL     1       5.781   2.127  -0.505  1.00  0.00    -0.064 NA
ATOM     26  H52 UNL     1       7.132  -0.845  -0.070  1.00  0.00     0.158 HD
ATOM     27  H51 UNL     1       7.804   0.776   0.167  1.00  0.00     0.158 HD
ATOM     28  H4  UNL     1       4.492  -0.100  -1.792  1.00  0.00     0.166 HD
ENDBRANCH  19  22
ENDBRANCH  15  19
ENDBRANCH   1  15
TORSDOF 8
