REMARK  8 active torsions:
REMARK  status: ('A' for Active; 'I' for Inactive)
REMARK    1  A    between atoms: C3_4  and  N2_5 
REMARK    2  A    between atoms: C4_7  and  C5_8 
REMARK    3  A    between atoms: C5_8  and  C7_11 
REMARK    4  A    between atoms: C7_11  and  C9_14 
REMARK    5  A    between atoms: C9_14  and  N5_15 
REMARK    6  A    between atoms: C9_14  and  O1_19 
REMARK    7  A    between atoms: C10_23  and  N7_24 
REMARK    8  A    between atoms: C11_29  and  N9_30 
ROOT
HETATM    1  N1  UNL     1      -2.160   1.811  -3.145  1.00  0.00    -0.191 NA
HETATM    2  C1  UNL     1      -2.439   1.218  -2.182  1.00  0.00     0.107 C 
HETATM    3  C2  UNL     1      -2.801   0.479  -0.998  1.00  0.00     0.133 A 
HETATM    4  C3  UNL     1      -1.917   0.373   0.081  1.00  0.00     0.145 A 
HETATM    5  N6  UNL     1      -2.302  -0.324   1.156  1.00  0.00    -0.175 N 
ATOM      6  H6  UNL     1      -1.649  -0.395   1.936  1.00  0.00     0.186 HD
HETATM    7  C10 UNL     1      -3.492  -0.937   1.276  1.00  0.00     0.679 A 
HETATM    8  N8  UNL     1      -4.353  -0.844   0.247  1.00  0.00    -0.176 N 
ATOM      9  H8  UNL     1      -5.265  -1.297   0.304  1.00  0.00     0.186 HD
HETATM   10  C11 UNL     1      -4.014  -0.154  -0.858  1.00  0.00     0.139 A 
ENDROOT
BRANCH   4  11
HETATM   11  N2  UNL     1      -0.649   1.011  -0.016  1.00  0.00    -0.353 N 
HETATM   12  C4  UNL     1       0.449   0.374  -0.194  1.00  0.00     0.083 C 
ATOM     13  H2  UNL     1      -0.612   2.027   0.060  1.00  0.00     0.166 HD
BRANCH  12  14
HETATM   14  C5  UNL     1       1.719   1.124  -0.283  1.00  0.00     0.153 C 
HETATM   15  C6  UNL     1       1.536   2.415   0.410  1.00  0.00     0.070 C 
HETATM   16  N3  UNL     1       1.386   3.427   0.950  1.00  0.00    -0.197 NA
BRANCH  14  17
HETATM   17  C7  UNL     1       2.853   0.419   0.423  1.00  0.00     0.171 C 
HETATM   18  C8  UNL     1       4.048   1.275   0.254  1.00  0.00     0.070 C 
HETATM   19  N4  UNL     1       4.972   1.960   0.125  1.00  0.00    -0.197 NA
BRANCH  17  20
HETATM   20  C9  UNL     1       3.183  -0.912  -0.193  1.00  0.00     0.335 C 
BRANCH  20  21
HETATM   21  N5  UNL     1       4.278  -1.485   0.568  1.00  0.00    -0.052 N 
ATOM     22  H53 UNL     1       5.085  -0.865   0.632  1.00  0.00     0.277 HD
ATOM     23  H52 UNL     1       4.079  -1.547   1.566  1.00  0.00     0.277 HD
ATOM     24  H51 UNL     1       4.502  -2.388   0.150  1.00  0.00     0.277 HD
ENDBRANCH  20  21
BRANCH  20  25
HETATM   25  O1  UNL     1       3.581  -0.722  -1.513  1.00  0.00    -0.369 OA
ATOM     26  H1  UNL     1       3.790  -1.563  -1.902  1.00  0.00     0.212 HD
ENDBRANCH  20  25
ENDBRANCH  17  20
ENDBRANCH  14  17
ENDBRANCH  12  14
ENDBRANCH   4  11
BRANCH  10  27
HETATM   27  N9  UNL     1      -4.847  -0.059  -1.864  1.00  0.00    -0.384 N 
ATOM     28  H92 UNL     1      -4.590   0.464  -2.701  1.00  0.00     0.157 HD
ATOM     29  H91 UNL     1      -5.747  -0.528  -1.760  1.00  0.00     0.157 HD
ENDBRANCH  10  27
BRANCH   7  30
HETATM   30  N7  UNL     1      -3.819  -1.602   2.340  1.00  0.00    -0.234 N 
ATOM     31  H72 UNL     1      -3.166  -1.673   3.120  1.00  0.00     0.174 HD
ATOM     32  H71 UNL     1      -4.722  -2.067   2.431  1.00  0.00     0.174 HD
ENDBRANCH   7  30
TORSDOF 8
