REMARK  9 active torsions:
REMARK  status: ('A' for Active; 'I' for Inactive)
REMARK    1  A    between atoms: C2_2  and  C4_4 
REMARK    2  A    between atoms: C4_4  and  O2_6 
REMARK    3  A    between atoms: O2_6  and  N1_7 
REMARK    4  A    between atoms: N1_7  and  C5_9 
REMARK    5  A    between atoms: C5_9  and  C6_15 
REMARK    6  A    between atoms: N2_10  and  N3_12 
REMARK    7  A    between atoms: C7_16  and  N4_17 
REMARK    8  A    between atoms: N4_17  and  O3_19 
REMARK    9  A    between atoms: C9_23  and  N6_24 
ROOT
HETATM    1  C6  UNL     1      -1.399  -1.215  -0.742  1.00  0.00     0.126 A 
HETATM    2  C7  UNL     1      -2.227  -0.236  -0.259  1.00  0.00     0.160 A 
HETATM    3  N5  UNL     1      -3.558  -0.386  -0.399  1.00  0.00    -0.174 N 
ATOM      4  H5  UNL     1      -4.182   0.338  -0.043  1.00  0.00     0.186 HD
HETATM    5  C9  UNL     1      -4.080  -1.465  -0.995  1.00  0.00     0.680 A 
HETATM    6  N7  UNL     1      -3.273  -2.424  -1.467  1.00  0.00    -0.155 N 
ATOM      7  H7  UNL     1      -3.685  -3.241  -1.918  1.00  0.00     0.187 HD
HETATM    8  C10 UNL     1      -1.963  -2.343  -1.365  1.00  0.00     0.277 A 
HETATM    9  O4  UNL     1      -1.153  -3.213  -1.789  1.00  0.00    -0.266 OA
ENDROOT
BRANCH   1  10
HETATM   10  C5  UNL     1       0.057  -1.114  -0.656  1.00  0.00     0.159 C 
HETATM   11  N2  UNL     1       0.682  -2.186  -0.298  1.00  0.00    -0.290 N 
ATOM     12  H2  UNL     1       0.145  -3.024  -0.075  1.00  0.00     0.188 HD
BRANCH  10  13
HETATM   13  N1  UNL     1       0.811   0.043  -0.962  1.00  0.00    -0.239 N 
ATOM     14  H1  UNL     1       0.339   0.809  -1.443  1.00  0.00     0.196 HD
BRANCH  13  15
HETATM   15  O2  UNL     1       2.135   0.197  -0.652  1.00  0.00    -0.193 OA
BRANCH  15  16
HETATM   16  C4  UNL     1       2.669   1.287   0.004  1.00  0.00     0.309 C 
HETATM   17  O1  UNL     1       1.904   2.209   0.347  1.00  0.00    -0.258 OA
BRANCH  16  18
HETATM   18  C2  UNL     1       4.101   1.391   0.305  1.00  0.00     0.006 C 
HETATM   19  C1  UNL     1       4.939   0.432  -0.046  1.00  0.00     0.025 C 
HETATM   20  C3  UNL     1       4.642   2.574   1.009  1.00  0.00     0.054 C 
ENDBRANCH  16  18
ENDBRANCH  15  16
ENDBRANCH  13  15
ENDBRANCH  10  13
BRANCH  11  21
HETATM   21  N3  UNL     1       2.068  -2.225  -0.209  1.00  0.00    -0.344 N 
ATOM     22  H32 UNL     1       2.589  -1.378  -0.435  1.00  0.00     0.176 HD
ATOM     23  H31 UNL     1       2.562  -3.072   0.074  1.00  0.00     0.176 HD
ENDBRANCH  11  21
ENDBRANCH   1  10
BRANCH   2  24
HETATM   24  N4  UNL     1      -1.733   0.923   0.411  1.00  0.00    -0.249 N 
ATOM     25  H4  UNL     1      -0.736   1.041   0.591  1.00  0.00     0.196 HD
BRANCH  24  26
HETATM   26  O3  UNL     1      -2.635   1.868   0.803  1.00  0.00    -0.284 OA
HETATM   27  C8  UNL     1      -3.087   1.683   2.096  1.00  0.00     0.237 C 
ENDBRANCH  24  26
ENDBRANCH   2  24
BRANCH   5  28
HETATM   28  N6  UNL     1      -5.369  -1.613  -1.132  1.00  0.00    -0.234 N 
ATOM     29  H62 UNL     1      -5.984  -0.883  -0.773  1.00  0.00     0.174 HD
ATOM     30  H61 UNL     1      -5.767  -2.435  -1.586  1.00  0.00     0.174 HD
ENDBRANCH   5  28
TORSDOF 9
