REMARK  8 active torsions:
REMARK  status: ('A' for Active; 'I' for Inactive)
REMARK    1  A    between atoms: O1_3  and  N2_4 
REMARK    2  A    between atoms: N2_4  and  C2_6 
REMARK    3  A    between atoms: C2_6  and  O2_7 
REMARK    4  A    between atoms: C2_6  and  O3_9 
REMARK    5  A    between atoms: O3_9  and  C3_10 
REMARK    6  A    between atoms: C4_11  and  N3_12 
REMARK    7  A    between atoms: C8_18  and  N5_19 
REMARK    8  A    between atoms: C9_24  and  N7_25 
ROOT
HETATM    1  N1  UNL     1       5.248   2.105   1.588  1.00  0.00    -0.162 NA
HETATM    2  C1  UNL     1       4.512   1.512   0.929  1.00  0.00     0.252 C 
HETATM    3  O1  UNL     1       3.647   0.835   0.143  1.00  0.00    -0.160 OA
ENDROOT
BRANCH   3   4
HETATM    4  N2  UNL     1       3.552  -0.509   0.030  1.00  0.00    -0.232 N 
ATOM      5  H2  UNL     1       4.354  -1.126   0.160  1.00  0.00     0.194 HD
BRANCH   4   6
HETATM    6  C2  UNL     1       2.237  -1.010  -0.288  1.00  0.00     0.395 C 
BRANCH   6   7
HETATM    7  O2  UNL     1       2.303  -2.419  -0.370  1.00  0.00    -0.353 OA
ATOM      8  H2  UNL     1       1.437  -2.749  -0.579  1.00  0.00     0.214 HD
ENDBRANCH   6   7
BRANCH   6   9
HETATM    9  O3  UNL     1       1.249  -0.708   0.661  1.00  0.00    -0.295 OA
BRANCH   9  10
HETATM   10  C3  UNL     1      -0.012  -0.210   0.359  1.00  0.00     0.147 A 
HETATM   11  C4  UNL     1      -0.409   1.079   0.259  1.00  0.00     0.140 A 
HETATM   12  N4  UNL     1      -1.743   1.041  -0.057  1.00  0.00    -0.335 N 
HETATM   13  C7  UNL     1      -2.173  -0.226  -0.152  1.00  0.00     0.109 A 
ATOM     14  H4  UNL     1      -2.328   1.864  -0.200  1.00  0.00     0.168 HD
HETATM   15  C8  UNL     1      -3.410  -0.777  -0.442  1.00  0.00     0.144 A 
HETATM   16  C10 UNL     1      -1.110  -1.050   0.104  1.00  0.00     0.117 A 
HETATM   17  N6  UNL     1      -3.548  -2.096  -0.469  1.00  0.00    -0.175 N 
HETATM   18  C9  UNL     1      -2.502  -2.913  -0.217  1.00  0.00     0.678 A 
ATOM     19  H6  UNL     1      -4.459  -2.500  -0.684  1.00  0.00     0.186 HD
HETATM   20  N8  UNL     1      -1.292  -2.375   0.067  1.00  0.00    -0.187 N 
ATOM     21  H8  UNL     1      -0.503  -2.993   0.257  1.00  0.00     0.184 HD
BRANCH  11  22
HETATM   22  N3  UNL     1       0.336   2.272   0.425  1.00  0.00    -0.362 N 
HETATM   23  C5  UNL     1       0.922   3.361   1.280  1.00  0.00     0.144 A 
HETATM   24  C6  UNL     1       1.096   3.378  -0.175  1.00  0.00     0.144 A 
ENDBRANCH  11  22
BRANCH  15  25
HETATM   25  N5  UNL     1      -4.404   0.022  -0.682  1.00  0.00    -0.383 N 
ATOM     26  H52 UNL     1      -4.298   1.036  -0.661  1.00  0.00     0.157 HD
ATOM     27  H51 UNL     1      -5.315  -0.384  -0.896  1.00  0.00     0.157 HD
ENDBRANCH  15  25
BRANCH  18  28
HETATM   28  N7  UNL     1      -2.638  -4.197  -0.243  1.00  0.00    -0.234 N 
ATOM     29  H72 UNL     1      -3.549  -4.602  -0.457  1.00  0.00     0.174 HD
ATOM     30  H71 UNL     1      -1.848  -4.814  -0.053  1.00  0.00     0.174 HD
ENDBRANCH  18  28
ENDBRANCH   9  10
ENDBRANCH   6   9
ENDBRANCH   4   6
ENDBRANCH   3   4
TORSDOF 8
