REMARK  6 active torsions:
REMARK  status: ('A' for Active; 'I' for Inactive)
REMARK    1  A    between atoms: S1_2  and  C2_3 
REMARK    2  A    between atoms: C3_4  and  O1_5 
REMARK    3  A    between atoms: C4_7  and  O2_8 
REMARK    4  A    between atoms: C5_10  and  C6_11 
REMARK    5  A    between atoms: C7_15  and  C8_16 
REMARK    6  A    between atoms: C8_16  and  C11_19 
ROOT
HETATM    1  C2  UNL     1      -0.243   0.987  -0.210  1.00  0.00     0.108 C 
HETATM    2  C3  UNL     1       1.142   1.507  -0.342  1.00  0.00     0.166 C 
HETATM    3  C4  UNL     1       2.196   0.552  -0.744  1.00  0.00     0.187 C 
HETATM    4  C5  UNL     1       1.840  -0.835  -0.252  1.00  0.00     0.253 C 
HETATM    5  O5  UNL     1       0.559  -1.168  -0.602  1.00  0.00    -0.365 OA
HETATM    6  C7  UNL     1      -0.341  -0.435   0.214  1.00  0.00     0.147 C 
ENDROOT
BRANCH   6   7
HETATM    7  C8  UNL     1      -1.656  -1.097   0.014  1.00  0.00    -0.011 C 
HETATM    8  C9  UNL     1      -1.486  -2.533   0.531  1.00  0.00     0.018 C 
HETATM    9  C10 UNL     1      -1.933  -1.221  -1.469  1.00  0.00     0.018 C 
BRANCH   7  10
HETATM   10  C11 UNL     1      -2.824  -0.506   0.708  1.00  0.00     0.096 C 
HETATM   11 BR1  UNL     1      -4.429  -1.553   0.299  1.00  0.00    -0.096 Br
ENDBRANCH   7  10
ENDBRANCH   6   7
BRANCH   1  12
HETATM   12  S1  UNL     1      -1.062   2.115   0.987  1.00  0.00    -0.163 SA
HETATM   13  C1  UNL     1      -1.149   3.743   0.145  1.00  0.00     0.090 C 
ENDBRANCH   1  12
BRANCH   2  14
HETATM   14  O1  UNL     1       1.537   2.063   0.897  1.00  0.00    -0.392 OA
ATOM     15  H1  UNL     1       2.423   2.396   0.813  1.00  0.00     0.210 HD
ENDBRANCH   2  14
BRANCH   4  16
HETATM   16  C6  UNL     1       2.839  -1.760  -0.817  1.00  0.00     0.205 C 
HETATM   17  O3  UNL     1       2.458  -2.710  -1.526  1.00  0.00    -0.646 OA
HETATM   18  O4  UNL     1       4.176  -1.579  -0.565  1.00  0.00    -0.646 OA
ENDBRANCH   4  16
BRANCH   3  19
HETATM   19  O2  UNL     1       3.418   0.882  -0.125  1.00  0.00    -0.390 OA
ATOM     20  H2  UNL     1       4.095   0.268  -0.383  1.00  0.00     0.210 HD
ENDBRANCH   3  19
TORSDOF 6
