REMARK  6 active torsions:
REMARK  status: ('A' for Active; 'I' for Inactive)
REMARK    1  A    between atoms: O1_2  and  C2_3 
REMARK    2  A    between atoms: C8_11  and  O2_12 
REMARK    3  A    between atoms: C9_14  and  O3_15 
REMARK    4  A    between atoms: C11_17  and  C12_18 
REMARK    5  A    between atoms: C12_18  and  O4_19 
REMARK    6  A    between atoms: C13_21  and  C14_22 
ROOT
HETATM    1  C2  UNL     1       3.004  -0.182  -0.305  1.00  0.00     0.106 A 
HETATM    2  C3  UNL     1       2.332   0.898  -0.827  1.00  0.00     0.070 A 
HETATM    3  C4  UNL     1       0.957   1.070  -0.618  1.00  0.00     0.049 A 
HETATM    4  N1  UNL     1       0.090   2.018  -1.011  1.00  0.00    -0.350 N 
ATOM      5  H1  UNL     1       0.312   2.839  -1.575  1.00  0.00     0.166 HD
HETATM    6  C5  UNL     1      -1.120   1.693  -0.530  1.00  0.00     0.109 A 
HETATM    7  C6  UNL     1      -1.016   0.515   0.183  1.00  0.00    -0.002 A 
HETATM    8  C7  UNL     1       0.317   0.106   0.133  1.00  0.00     0.036 A 
HETATM    9  C8  UNL     1       0.977  -0.985   0.664  1.00  0.00     0.115 A 
HETATM   10  C9  UNL     1       2.325  -1.123   0.440  1.00  0.00     0.136 A 
HETATM   11  C11 UNL     1      -2.168  -0.130   0.855  1.00  0.00     0.069 C 
HETATM   12  C13 UNL     1      -3.421   0.266   0.105  1.00  0.00     0.109 C 
HETATM   13  N2  UNL     1      -3.512   1.708   0.010  1.00  0.00    -0.349 N 
ATOM     14  H2  UNL     1      -4.304   2.226   0.390  1.00  0.00     0.163 HD
HETATM   15  C15 UNL     1      -2.425   2.362  -0.648  1.00  0.00     0.269 C 
HETATM   16  O5  UNL     1      -2.593   3.437  -1.281  1.00  0.00    -0.266 OA
ENDROOT
BRANCH  11  17
HETATM   17  C12 UNL     1      -2.313   0.355   2.291  1.00  0.00     0.175 C 
BRANCH  17  18
HETATM   18  O4  UNL     1      -3.401  -0.267   2.893  1.00  0.00    -0.400 OA
ATOM     19  H4  UNL     1      -3.491   0.036   3.789  1.00  0.00     0.209 HD
ENDBRANCH  17  18
ENDBRANCH  11  17
BRANCH  12  20
HETATM   20  C14 UNL     1      -3.485  -0.393  -1.253  1.00  0.00     0.140 C 
HETATM   21 CL1  UNL     1      -4.978   0.123  -2.061  1.00  0.00    -0.128 Cl
ENDBRANCH  12  20
BRANCH   9  22
HETATM   22  O2  UNL     1       0.249  -1.912   1.412  1.00  0.00    -0.357 OA
ATOM     23  H2  UNL     1       0.703  -2.662   1.777  1.00  0.00     0.217 HD
ENDBRANCH   9  22
BRANCH  10  24
HETATM   24  O3  UNL     1       2.969  -2.211   0.973  1.00  0.00    -0.351 OA
HETATM   25  C10 UNL     1       3.049  -3.391   0.206  1.00  0.00     0.210 C 
ENDBRANCH  10  24
BRANCH   1  26
HETATM   26  O1  UNL     1       4.349  -0.348  -0.510  1.00  0.00    -0.353 OA
HETATM   27  C1  UNL     1       5.140   0.558  -1.259  1.00  0.00     0.210 C 
ENDBRANCH   1  26
TORSDOF 6
