REMARK  5 active torsions:
REMARK  status: ('A' for Active; 'I' for Inactive)
REMARK    1  A    between atoms: C2_2  and  C3_3 
REMARK       I    between atoms: N2_6  and  C4_7 
REMARK       I    between atoms: C4_7  and  N5_12 
REMARK    2  A    between atoms: N5_12  and  C6_14 
REMARK    3  A    between atoms: C6_14  and  C7_15 
REMARK    4  A    between atoms: C7_15  and  C8_16 
REMARK    5  A    between atoms: C8_16  and  N6_17 
REMARK       I    between atoms: N6_17  and  C9_19 
REMARK       I    between atoms: C9_19  and  N8_23 
ROOT
HETATM    1  C3  UNL     1      -3.928   0.840  -0.968  1.00  0.00     0.007 C 
HETATM    2  N1  UNL     1      -3.264   0.966   0.127  1.00  0.00    -0.290 N 
ATOM      3  H1  UNL     1      -3.271   1.799   0.715  1.00  0.00     0.187 HD
HETATM    4  N2  UNL     1      -2.529  -0.195   0.404  1.00  0.00    -0.098 N 
HETATM    5  C4  UNL     1      -1.378  -0.214   1.208  1.00  0.00     0.705 C 
HETATM    6  N3  UNL     1      -1.453  -0.157   2.469  1.00  0.00    -0.125 N 
ATOM      7  H3  UNL     1      -0.601  -0.173   3.030  1.00  0.00     0.197 HD
HETATM    8  C5  UNL     1      -2.696  -0.073   3.097  1.00  0.00     0.196 C 
HETATM    9  N4  UNL     1      -3.734   0.006   3.645  1.00  0.00    -0.171 NA
HETATM   10  N5  UNL     1      -0.109  -0.292   0.591  1.00  0.00    -0.224 N 
ATOM     11  H5  UNL     1       0.092   0.362  -0.165  1.00  0.00     0.177 HD
HETATM   12  C12 UNL     1      -3.215  -1.258  -0.307  1.00  0.00     0.148 C 
HETATM   13  C13 UNL     1      -4.452  -1.750   0.377  1.00  0.00     0.060 C 
HETATM   14 CL1  UNL     1      -2.166  -2.618  -0.702  1.00  0.00    -0.093 Cl
HETATM   15  C14 UNL     1      -3.681  -0.502  -1.549  1.00  0.00     0.104 C 
ENDROOT
BRANCH  10  16
HETATM   16  C6  UNL     1       0.915  -1.227   0.954  1.00  0.00     0.139 C 
BRANCH  16  17
HETATM   17  C7  UNL     1       2.127  -0.966   0.095  1.00  0.00     0.040 C 
BRANCH  17  18
HETATM   18  C8  UNL     1       2.596   0.444   0.368  1.00  0.00     0.139 C 
BRANCH  18  19
HETATM   19  N6  UNL     1       3.768   0.792  -0.414  1.00  0.00    -0.226 N 
HETATM   20  C9  UNL     1       5.009   0.146  -0.133  1.00  0.00     0.682 C 
HETATM   21  N7  UNL     1       5.280  -0.328   1.019  1.00  0.00    -0.230 N 
HETATM   22  N8  UNL     1       5.943   0.048  -1.195  1.00  0.00    -0.126 N 
HETATM   23  C10 UNL     1       6.529  -0.974   1.288  1.00  0.00     0.165 C 
ATOM     24  H7  UNL     1       4.591  -0.245   1.766  1.00  0.00     0.177 HD
HETATM   25  C11 UNL     1       7.204   0.622  -1.107  1.00  0.00     0.196 C 
ATOM     26  H8  UNL     1       5.683  -0.456  -2.043  1.00  0.00     0.197 HD
HETATM   27  N9  UNL     1       8.264   1.113  -1.033  1.00  0.00    -0.171 NA
ATOM     28  H6  UNL     1       3.705   1.490  -1.155  1.00  0.00     0.177 HD
ENDBRANCH  18  19
ENDBRANCH  17  18
ENDBRANCH  16  17
ENDBRANCH  10  16
BRANCH   1  29
HETATM   29  C2  UNL     1      -4.807   1.878  -1.552  1.00  0.00     0.049 C 
HETATM   30  C1  UNL     1      -4.810   3.116  -0.681  1.00  0.00     0.011 C 
ENDBRANCH   1  29
TORSDOF 5
