REMARK  5 active torsions:
REMARK  status: ('A' for Active; 'I' for Inactive)
REMARK    1  A    between atoms: N5_12  and  C6_13 
REMARK    2  A    between atoms: C6_13  and  C7_14 
REMARK    3  A    between atoms: C7_14  and  C8_15 
REMARK    4  A    between atoms: C8_15  and  C9_16 
REMARK    5  A    between atoms: C9_16  and  C10_17 
ROOT
HETATM    1  C1  UNL     1      -2.492  -2.107  -0.683  1.00  0.00     0.063 C 
HETATM    2  C2  UNL     1      -2.771  -0.625  -0.492  1.00  0.00     0.102 C 
HETATM    3  C3  UNL     1      -2.471   0.097  -1.806  1.00  0.00     0.063 C 
HETATM    4  N1  UNL     1      -4.186  -0.474  -0.233  1.00  0.00    -0.338 N 
ATOM      5  H1  UNL     1      -4.820  -0.965  -0.863  1.00  0.00     0.164 HD
HETATM    6  C4  UNL     1      -4.723   0.207   0.698  1.00  0.00     0.192 C 
HETATM    7  N2  UNL     1      -6.154   0.293   0.863  1.00  0.00    -0.063 NA
HETATM    8  N3  UNL     1      -3.853   0.862   1.627  1.00  0.00    -0.305 N 
ATOM      9  H3  UNL     1      -4.257   1.419   2.380  1.00  0.00     0.171 HD
HETATM   10  C5  UNL     1      -2.574   0.765   1.536  1.00  0.00     0.194 C 
HETATM   11  N4  UNL     1      -1.771   1.447   2.490  1.00  0.00    -0.063 NA
HETATM   12  N5  UNL     1      -1.927  -0.058   0.530  1.00  0.00    -0.329 N 
ENDROOT
BRANCH  12  13
HETATM   13  C6  UNL     1      -0.520  -0.251   0.660  1.00  0.00     0.128 C 
BRANCH  13  14
HETATM   14  C7  UNL     1       0.354   0.360  -0.369  1.00  0.00     0.020 C 
BRANCH  14  15
HETATM   15  C8  UNL     1       1.809   0.022  -0.009  1.00  0.00     0.007 C 
BRANCH  15  16
HETATM   16  C9  UNL     1       2.728   0.635  -1.043  1.00  0.00     0.057 C 
BRANCH  16  17
HETATM   17  C10 UNL     1       4.142   0.318  -0.723  1.00  0.00     0.010 A 
HETATM   18  C11 UNL     1       5.250   0.706  -1.428  1.00  0.00     0.045 A 
HETATM   19  C12 UNL     1       6.396   0.204  -0.800  1.00  0.00     0.028 A 
HETATM   20 BR1  UNL     1       8.218   0.414  -1.319  1.00  0.00    -0.050 Br
HETATM   21  C13 UNL     1       5.925  -0.490   0.295  1.00  0.00     0.107 A 
HETATM   22  N6  UNL     1       4.589  -0.402   0.310  1.00  0.00    -0.368 N 
ATOM     23  H6  UNL     1       3.991  -0.829   1.017  1.00  0.00     0.165 HD
ENDBRANCH  16  17
ENDBRANCH  15  16
ENDBRANCH  14  15
ENDBRANCH  13  14
ENDBRANCH  12  13
TORSDOF 5
