REMARK  3 active torsions:
REMARK  status: ('A' for Active; 'I' for Inactive)
REMARK       I    between atoms: C2_2  and  N1_4 
REMARK    1  A    between atoms: N1_4  and  C3_6 
REMARK    2  A    between atoms: C3_6  and  S2_8 
REMARK    3  A    between atoms: S2_8  and  C4_9 
ROOT
HETATM    1  C3  UNL     1       1.458  -0.165  -0.137  1.00  0.00     0.141 C 
HETATM    2  S1  UNL     1       1.334   1.117  -1.118  1.00  0.00    -0.052 SA
ENDROOT
BRANCH   1   3
HETATM    3  N1  UNL     1       2.721  -0.529   0.401  1.00  0.00    -0.313 N 
HETATM    4  C2  UNL     1       3.884   0.204   0.101  1.00  0.00     0.219 C 
HETATM    5  C1  UNL     1       5.200  -0.224   0.697  1.00  0.00     0.117 C 
HETATM    6  O1  UNL     1       3.828   1.199  -0.652  1.00  0.00    -0.274 OA
ATOM      7  H1  UNL     1       2.786  -1.339   1.018  1.00  0.00     0.170 HD
ENDBRANCH   1   3
BRANCH   1   8
HETATM    8  S2  UNL     1       0.002  -1.113   0.260  1.00  0.00    -0.096 SA
BRANCH   8   9
HETATM    9  C4  UNL     1      -1.413  -0.401  -0.568  1.00  0.00     0.054 C 
HETATM   10  C5  UNL     1      -2.679  -1.191  -0.247  1.00  0.00     0.015 C 
HETATM   11  C6  UNL     1      -3.738  -0.153  -0.640  1.00  0.00     0.001 C 
HETATM   12  C7  UNL     1      -3.231   1.037   0.148  1.00  0.00     0.001 C 
HETATM   13  C8  UNL     1      -1.740   1.000  -0.105  1.00  0.00     0.015 C 
ENDBRANCH   8   9
ENDBRANCH   1   8
TORSDOF 3
