REMARK  2 active torsions:
REMARK  status: ('A' for Active; 'I' for Inactive)
REMARK    1  A    between atoms: C2_2  and  N1_5 
REMARK    2  A    between atoms: N1_5  and  N2_7 
ROOT
HETATM    1  N2  UNL     1      -0.779   0.907  -0.107  1.00  0.00    -0.287 N 
ATOM      2  H2  UNL     1      -1.037   1.816   0.278  1.00  0.00     0.188 HD
HETATM    3  C5  UNL     1       0.452   0.539  -0.120  1.00  0.00     0.132 C 
HETATM    4  C6  UNL     1       0.629  -0.788  -0.707  1.00  0.00     0.085 C 
HETATM    5  C7  UNL     1       1.922  -1.463  -0.314  1.00  0.00     0.008 C 
HETATM    6  C8  UNL     1       3.133  -0.815  -0.875  1.00  0.00     0.001 C 
HETATM    7  C9  UNL     1       4.045  -0.197   0.140  1.00  0.00     0.002 C 
HETATM    8  C10 UNL     1       3.350   0.693   1.126  1.00  0.00     0.027 C 
HETATM    9  C11 UNL     1       2.639   1.837   0.396  1.00  0.00     0.177 C 
HETATM   10  O1  UNL     1       1.252   1.524   0.434  1.00  0.00    -0.338 OA
ENDROOT
BRANCH   1  11
HETATM   11  N1  UNL     1      -1.757   0.063  -0.619  1.00  0.00    -0.326 N 
ATOM     12  H1  UNL     1      -1.582  -0.519  -1.438  1.00  0.00     0.181 HD
BRANCH  11  13
HETATM   13  C2  UNL     1      -3.052   0.045   0.070  1.00  0.00     0.035 C 
HETATM   14  C1  UNL     1      -2.839  -0.389   1.499  1.00  0.00     0.039 C 
HETATM   15  C3  UNL     1      -3.614   1.435  -0.020  1.00  0.00     0.039 C 
HETATM   16  C4  UNL     1      -4.010  -0.910  -0.610  1.00  0.00     0.039 C 
ENDBRANCH  11  13
ENDBRANCH   1  11
TORSDOF 2
