REMARK  6 active torsions:
REMARK  status: ('A' for Active; 'I' for Inactive)
REMARK    1  A    between atoms: S1_2  and  C2_3 
REMARK    2  A    between atoms: C4_5  and  C5_6 
REMARK    3  A    between atoms: N1_14  and  C12_15 
REMARK    4  A    between atoms: C12_15  and  C13_16 
REMARK    5  A    between atoms: C13_16  and  C14_17 
REMARK    6  A    between atoms: C14_17  and  O1_18 
ROOT
HETATM    1  C5  UNL     1       2.510  -0.581   0.424  1.00  0.00     0.023 C 
HETATM    2  C6  UNL     1       2.163   0.862   0.260  1.00  0.00     0.045 C 
HETATM    3  C7  UNL     1       0.684   1.033  -0.021  1.00  0.00     0.225 C 
HETATM    4  C8  UNL     1       0.541   1.497  -1.442  1.00  0.00     0.058 C 
HETATM    5  C9  UNL     1       0.723   0.219  -2.225  1.00  0.00     0.117 C 
HETATM    6 CL1  UNL     1      -0.481   0.016  -3.488  1.00  0.00    -0.123 Cl
HETATM    7  C10 UNL     1       0.690  -0.880  -1.184  1.00  0.00     0.242 C 
HETATM    8  C11 UNL     1       2.063  -1.360  -0.820  1.00  0.00     0.046 C 
HETATM    9  N1  UNL     1       0.084  -0.257  -0.016  1.00  0.00     0.099 N 
ENDROOT
BRANCH   9  10
HETATM   10  C12 UNL     1      -1.332  -0.310  -0.166  1.00  0.00     0.276 C 
BRANCH  10  11
HETATM   11  C13 UNL     1      -2.087   0.247   1.003  1.00  0.00     0.068 C 
BRANCH  11  12
HETATM   12  C14 UNL     1      -3.572   0.170   0.810  1.00  0.00     0.059 C 
HETATM   13  C15 UNL     1      -4.107  -1.214   0.717  1.00  0.00     0.038 C 
HETATM   14  C16 UNL     1      -5.219  -1.378  -0.309  1.00  0.00     0.003 C 
HETATM   15  C17 UNL     1      -6.393  -0.570   0.200  1.00  0.00     0.000 C 
HETATM   16  C18 UNL     1      -6.429   0.708  -0.606  1.00  0.00     0.000 C 
HETATM   17  C19 UNL     1      -5.333   1.662  -0.194  1.00  0.00     0.003 C 
HETATM   18  C20 UNL     1      -3.964   1.072  -0.324  1.00  0.00     0.038 C 
BRANCH  12  19
HETATM   19  O1  UNL     1      -4.129   0.735   1.985  1.00  0.00    -0.390 OA
ATOM     20  H1  UNL     1      -5.070   0.686   1.863  1.00  0.00     0.210 HD
ENDBRANCH  12  19
ENDBRANCH  11  12
ENDBRANCH  10  11
ENDBRANCH   9  10
BRANCH   1  21
HETATM   21  C4  UNL     1       3.945  -0.814   0.579  1.00  0.00    -0.052 A 
HETATM   22  C3  UNL     1       4.880  -0.371  -0.316  1.00  0.00     0.027 A 
HETATM   23  C2  UNL     1       6.230  -0.614  -0.135  1.00  0.00     0.022 A 
HETATM   24  C23 UNL     1       6.676  -1.317   0.962  1.00  0.00     0.050 A 
HETATM   25  C22 UNL     1       5.752  -1.772   1.872  1.00  0.00     0.026 A 
HETATM   26 CL2  UNL     1       8.400  -1.606   1.155  1.00  0.00    -0.083 Cl
HETATM   27  C21 UNL     1       4.399  -1.517   1.674  1.00  0.00     0.009 A 
BRANCH  23  28
HETATM   28  S1  UNL     1       7.368   0.004  -1.348  1.00  0.00    -0.133 SA
HETATM   29  C1  UNL     1       7.865   1.678  -0.815  1.00  0.00     0.095 C 
ENDBRANCH  23  28
ENDBRANCH   1  21
TORSDOF 6
