REMARK  5 active torsions:
REMARK  status: ('A' for Active; 'I' for Inactive)
REMARK    1  A    between atoms: C2_2  and  O1_3 
REMARK    2  A    between atoms: O1_3  and  C3_4 
REMARK    3  A    between atoms: C4_5  and  C5_6 
REMARK    4  A    between atoms: C6_7  and  C7_8 
REMARK    5  A    between atoms: C21_26  and  S1_27 
ROOT
HETATM    1  C3  UNL     1       3.564   0.816  -0.392  1.00  0.00     0.118 A 
HETATM    2  C4  UNL     1       2.389   0.104  -0.547  1.00  0.00     0.068 A 
HETATM    3  N1  UNL     1       2.719  -0.947  -1.319  1.00  0.00    -0.347 N 
ATOM      4  H1  UNL     1       2.063  -1.669  -1.616  1.00  0.00     0.167 HD
HETATM    5  C21 UNL     1       4.017  -0.926  -1.648  1.00  0.00     0.093 A 
HETATM    6  C23 UNL     1       4.589   0.189  -1.071  1.00  0.00     0.113 A 
HETATM    7  C24 UNL     1       5.959   0.611  -1.157  1.00  0.00     0.105 C 
HETATM    8  N2  UNL     1       7.075   0.970  -1.217  1.00  0.00    -0.191 NA
ENDROOT
BRANCH   1   9
HETATM    9  O1  UNL     1       3.660   1.996   0.352  1.00  0.00    -0.347 OA
BRANCH   9  10
HETATM   10  C2  UNL     1       3.974   1.913   1.733  1.00  0.00     0.171 C 
HETATM   11  C1  UNL     1       4.021   3.306   2.318  1.00  0.00     0.034 C 
ENDBRANCH   9  10
ENDBRANCH   1   9
BRANCH   5  12
HETATM   12  S1  UNL     1       4.931  -2.101  -2.655  1.00  0.00    -0.115 SA
HETATM   13  C22 UNL     1       5.630  -3.429  -1.660  1.00  0.00     0.097 C 
ENDBRANCH   5  12
BRANCH   2  14
HETATM   14  C5  UNL     1       1.086   0.441   0.016  1.00  0.00     0.029 C 
HETATM   15  C6  UNL     1       0.021  -0.291  -0.180  1.00  0.00    -0.014 C 
BRANCH  15  16
HETATM   16  C7  UNL     1      -1.293   0.058   0.394  1.00  0.00     0.051 C 
HETATM   17  C8  UNL     1      -1.977   1.149  -0.281  1.00  0.00    -0.043 A 
HETATM   18  C9  UNL     1      -1.555   2.384  -0.780  1.00  0.00     0.008 A 
HETATM   19  C13 UNL     1      -3.301   0.829  -0.419  1.00  0.00    -0.042 A 
HETATM   20  C10 UNL     1      -2.432   3.253  -1.389  1.00  0.00     0.001 A 
HETATM   21  C11 UNL     1      -3.764   2.917  -1.520  1.00  0.00     0.001 A 
HETATM   22  C12 UNL     1      -4.204   1.703  -1.036  1.00  0.00     0.008 A 
HETATM   23  C14 UNL     1      -3.614  -0.495   0.144  1.00  0.00    -0.003 C 
HETATM   24  C15 UNL     1      -4.475  -1.252  -0.812  1.00  0.00     0.021 C 
HETATM   25  C16 UNL     1      -4.199  -0.449   1.535  1.00  0.00     0.093 C 
HETATM   26  C19 UNL     1      -2.241  -1.092   0.318  1.00  0.00    -0.016 C 
HETATM   27  C17 UNL     1      -3.571  -1.603   2.277  1.00  0.00     0.245 C 
HETATM   28  F1  UNL     1      -3.464  -1.277   3.622  1.00  0.00    -0.206 F 
HETATM   29  F2  UNL     1      -4.285  -2.776   2.103  1.00  0.00    -0.206 F 
HETATM   30  C18 UNL     1      -2.228  -1.788   1.660  1.00  0.00     0.090 C 
HETATM   31  C20 UNL     1      -1.902  -2.091  -0.756  1.00  0.00     0.018 C 
ENDBRANCH  15  16
ENDBRANCH   2  14
TORSDOF 5
