REMARK  7 active torsions:
REMARK  status: ('A' for Active; 'I' for Inactive)
REMARK    1  A    between atoms: C7_8  and  O2_9 
REMARK    2  A    between atoms: C14_16  and  C16_18 
REMARK    3  A    between atoms: C16_18  and  C17_20 
REMARK    4  A    between atoms: C17_20  and  C18_21 
REMARK    5  A    between atoms: C18_21  and  C19_22 
REMARK    6  A    between atoms: C19_22  and  N1_24 
REMARK    7  A    between atoms: N1_24  and  C20_26 
ROOT
HETATM    1  C1  UNL     1      -7.114   2.997   0.099  1.00  0.00     0.210 C 
HETATM    2  O1  UNL     1      -6.092   2.216  -0.011  1.00  0.00    -0.353 OA
HETATM    3  C2  UNL     1      -4.996   1.523  -0.040  1.00  0.00     0.102 A 
HETATM    4  C3  UNL     1      -3.878   1.982   0.654  1.00  0.00     0.047 A 
HETATM    5  C4  UNL     1      -2.687   1.298   0.667  1.00  0.00    -0.048 A 
HETATM    6  C5  UNL     1      -2.619   0.122  -0.036  1.00  0.00    -0.040 A 
HETATM    7  C6  UNL     1      -3.728  -0.363  -0.742  1.00  0.00     0.048 A 
HETATM    8  C7  UNL     1      -4.909   0.316  -0.755  1.00  0.00     0.102 A 
HETATM    9  C9  UNL     1      -1.464  -0.841  -0.173  1.00  0.00    -0.011 C 
HETATM   10  C10 UNL     1      -1.422  -1.427  -1.538  1.00  0.00     0.021 C 
HETATM   11  C11 UNL     1      -1.828  -1.982   0.800  1.00  0.00     0.014 C 
HETATM   12  C12 UNL     1      -0.699  -2.427   1.650  1.00  0.00     0.002 C 
HETATM   13  C13 UNL     1       0.578  -2.390   0.861  1.00  0.00     0.017 C 
HETATM   14  C14 UNL     1       0.985  -0.966   0.523  1.00  0.00     0.021 C 
HETATM   15  C15 UNL     1       1.652  -0.451   1.809  1.00  0.00     0.024 C 
HETATM   16  C21 UNL     1      -0.237  -0.168   0.325  1.00  0.00     0.014 C 
HETATM   17  C22 UNL     1       0.017   1.220  -0.239  1.00  0.00     0.007 C 
HETATM   18  C23 UNL     1      -0.448   2.340   0.664  1.00  0.00     0.005 C 
HETATM   19  C24 UNL     1      -1.638   2.005   1.484  1.00  0.00     0.039 C 
ENDROOT
BRANCH   8  20
HETATM   20  O2  UNL     1      -6.033  -0.130  -1.444  1.00  0.00    -0.353 OA
HETATM   21  C8  UNL     1      -6.083  -1.320  -2.198  1.00  0.00     0.210 C 
ENDBRANCH   8  20
BRANCH  14  22
HETATM   22  C16 UNL     1       2.051  -0.947  -0.509  1.00  0.00     0.135 C 
HETATM   23  O3  UNL     1       2.018  -0.359  -1.573  1.00  0.00    -0.297 OA
BRANCH  22  24
HETATM   24  C17 UNL     1       3.299  -1.711  -0.263  1.00  0.00     0.082 C 
BRANCH  24  25
HETATM   25  C18 UNL     1       4.454  -1.062   0.346  1.00  0.00     0.049 C 
BRANCH  25  26
HETATM   26  C19 UNL     1       5.138   0.073  -0.332  1.00  0.00     0.197 C 
HETATM   27 CL1  UNL     1       4.190   1.508  -0.640  1.00  0.00    -0.102 Cl
BRANCH  26  28
HETATM   28  N1  UNL     1       6.213   0.486   0.599  1.00  0.00    -0.206 N 
ATOM     29  H1  UNL     1       6.027   0.478   1.602  1.00  0.00     0.179 HD
BRANCH  28  30
HETATM   30  C20 UNL     1       7.374   0.854   0.184  1.00  0.00     0.708 A 
HETATM   31  N2  UNL     1       8.370   1.235   1.004  1.00  0.00    -0.118 N 
HETATM   32  N3  UNL     1       9.390   1.539   0.224  1.00  0.00    -0.212 N 
ATOM     33  H2  UNL     1       8.342   1.280   2.023  1.00  0.00     0.207 HD
HETATM   34  N4  UNL     1       9.077   1.366  -1.050  1.00  0.00     0.009 NA
ATOM     35  H3  UNL     1      10.297   1.864   0.558  1.00  0.00     0.206 HD
HETATM   36  N5  UNL     1       7.821   0.938  -1.076  1.00  0.00    -0.114 N 
ATOM     37  H5  UNL     1       7.286   0.711  -1.914  1.00  0.00     0.203 HD
ENDBRANCH  28  30
ENDBRANCH  26  28
ENDBRANCH  25  26
ENDBRANCH  24  25
ENDBRANCH  22  24
ENDBRANCH  14  22
TORSDOF 7
