REMARK  2 active torsions:
REMARK  status: ('A' for Active; 'I' for Inactive)
REMARK    1  A    between atoms: C2_2  and  C4_4 
REMARK    2  A    between atoms: C2_2  and  N1_6 
ROOT
HETATM    1  N1  UNL     1       0.480  -0.471  -0.317  1.00  0.00    -0.305 N 
HETATM    2  C5  UNL     1       0.223  -1.838  -0.817  1.00  0.00     0.225 C 
HETATM    3  O1  UNL     1       1.109  -2.625  -1.079  1.00  0.00    -0.273 OA
HETATM    4  C6  UNL     1      -1.144  -2.442  -1.070  1.00  0.00     0.103 C 
HETATM    5  C7  UNL     1      -1.799  -2.544   0.280  1.00  0.00     0.014 C 
HETATM    6  C8  UNL     1      -2.503  -1.323   0.698  1.00  0.00     0.041 C 
HETATM    7  C9  UNL     1      -1.922  -0.022   0.414  1.00  0.00    -0.029 A 
HETATM    8  C10 UNL     1      -2.836   0.978   0.647  1.00  0.00     0.011 A 
HETATM    9  C11 UNL     1      -2.512   2.297   0.407  1.00  0.00     0.029 A 
HETATM   10  C12 UNL     1      -1.291   2.670  -0.068  1.00  0.00     0.072 A 
HETATM   11  N2  UNL     1      -0.885   3.984  -0.338  1.00  0.00    -0.100 NA
HETATM   12  C13 UNL     1      -0.346   1.661  -0.312  1.00  0.00     0.098 A 
HETATM   13  N3  UNL     1       0.867   1.977  -0.906  1.00  0.00    -0.098 NA
HETATM   14  C14 UNL     1      -0.643   0.365  -0.078  1.00  0.00     0.070 A 
ENDROOT
BRANCH   1  15
HETATM   15  C2  UNL     1       1.714  -0.152  -0.005  1.00  0.00     0.045 C 
HETATM   16  C1  UNL     1       2.585  -0.783  -1.162  1.00  0.00     0.039 C 
HETATM   17  C3  UNL     1       2.810   0.522   0.658  1.00  0.00     0.039 C 
BRANCH  15  18
HETATM   18  C4  UNL     1       1.695  -1.181   1.203  1.00  0.00     0.145 C 
HETATM   19 CL1  UNL     1       0.758  -0.443   2.577  1.00  0.00    -0.128 Cl
ENDBRANCH  15  18
ENDBRANCH   1  15
TORSDOF 2
