REMARK  1 active torsions:
REMARK  status: ('A' for Active; 'I' for Inactive)
REMARK    1  A    between atoms: C8_17  and  C9_18 
ROOT
HETATM    1  N1  UNL     1       0.355   3.177   2.061  1.00  0.00    -0.197 NA
HETATM    2  C1  UNL     1       0.830   2.247   1.544  1.00  0.00     0.070 C 
HETATM    3  C2  UNL     1       1.449   1.086   0.910  1.00  0.00     0.148 C 
HETATM    4  C3  UNL     1       1.987   1.385  -0.432  1.00  0.00     0.023 C 
HETATM    5  N2  UNL     1       1.682   2.452  -1.025  1.00  0.00    -0.403 N 
ATOM      6  H21 UNL     1       2.054   2.659  -1.952  1.00  0.00     0.155 HD
ATOM      7  H22 UNL     1       1.056   3.129  -0.589  1.00  0.00     0.155 HD
HETATM    8  C4  UNL     1       2.893   0.406  -1.063  1.00  0.00     0.180 C 
HETATM    9 CL1  UNL     1       4.551   0.711  -0.503  1.00  0.00    -0.112 Cl
HETATM   10  C5  UNL     1       2.443  -0.961  -0.628  1.00  0.00     0.058 A 
HETATM   11  N3  UNL     1       2.896  -2.149  -1.063  1.00  0.00    -0.303 N 
ATOM     12  H3  UNL     1       3.626  -2.280  -1.764  1.00  0.00     0.186 HD
HETATM   13  N4  UNL     1       2.243  -3.132  -0.436  1.00  0.00    -0.311 N 
ATOM     14  H4  UNL     1       2.395  -4.130  -0.582  1.00  0.00     0.186 HD
HETATM   15  C6  UNL     1       1.353  -2.596   0.418  1.00  0.00     0.116 A 
HETATM   16  C7  UNL     1       1.487  -1.219   0.288  1.00  0.00    -0.009 A 
HETATM   17  C8  UNL     1       0.702  -0.171   1.039  1.00  0.00     0.049 C 
ENDROOT
BRANCH  17  18
HETATM   18  C9  UNL     1      -0.692  -0.302   0.612  1.00  0.00    -0.004 C 
HETATM   19  C10 UNL     1      -1.703   0.599   1.260  1.00  0.00     0.005 C 
HETATM   20  C11 UNL     1      -3.049  -0.122   1.056  1.00  0.00     0.000 C 
HETATM   21  C12 UNL     1      -3.425   0.080  -0.369  1.00  0.00     0.000 C 
HETATM   22  C13 UNL     1      -2.258   0.370  -1.234  1.00  0.00     0.000 C 
HETATM   23  C14 UNL     1      -0.979  -0.339  -0.857  1.00  0.00     0.005 C 
ENDBRANCH  17  18
TORSDOF 1
