REMARK  2 active torsions:
REMARK  status: ('A' for Active; 'I' for Inactive)
REMARK    1  A    between atoms: C2_2  and  C3_3 
REMARK    2  A    between atoms: C2_2  and  C4_5 
ROOT
HETATM    1  C4  UNL     1       0.692   0.386  -0.902  1.00  0.00     0.103 C 
HETATM    2  S1  UNL     1       0.275  -0.844  -2.247  1.00  0.00    -0.153 SA
HETATM    3  C5  UNL     1      -1.486  -0.423  -2.221  1.00  0.00     0.118 C 
HETATM    4  C6  UNL     1      -1.670  -0.067  -0.791  1.00  0.00     0.013 A 
HETATM    5  C7  UNL     1      -0.561   0.351  -0.124  1.00  0.00     0.036 A 
HETATM    6  N1  UNL     1      -0.723   0.684   1.169  1.00  0.00    -0.335 N 
ATOM      7  H1  UNL     1       0.091   1.002   1.696  1.00  0.00     0.168 HD
HETATM    8  C8  UNL     1      -1.916   0.617   1.803  1.00  0.00     0.177 A 
HETATM    9  S2  UNL     1      -2.047   1.039   3.391  1.00  0.00    -0.040 SA
HETATM   10  N2  UNL     1      -3.010   0.207   1.157  1.00  0.00    -0.324 N 
ATOM     11  H2  UNL     1      -3.907   0.158   1.640  1.00  0.00     0.169 HD
HETATM   12  C9  UNL     1      -2.915  -0.138  -0.131  1.00  0.00     0.111 A 
HETATM   13  S3  UNL     1      -4.256  -0.649  -0.954  1.00  0.00    -0.060 SA
ENDROOT
BRANCH   1  14
HETATM   14  C2  UNL     1       1.922  -0.103  -0.264  1.00  0.00     0.015 C 
HETATM   15  C1  UNL     1       1.907  -1.423   0.404  1.00  0.00     0.012 C 
BRANCH  14  16
HETATM   16  C3  UNL     1       2.678   0.951   0.491  1.00  0.00     0.120 C 
HETATM   17 CL1  UNL     1       4.382   0.348   0.622  1.00  0.00    -0.130 Cl
ENDBRANCH  14  16
ENDBRANCH   1  14
TORSDOF 2
