REMARK  3 active torsions:
REMARK  status: ('A' for Active; 'I' for Inactive)
REMARK    1  A    between atoms: C7_7  and  C8_8 
REMARK    2  A    between atoms: C9_9  and  O1_10 
REMARK    3  A    between atoms: C10_13  and  O3_14 
ROOT
HETATM    1  C8  UNL     1       1.261   0.047  -0.391  1.00  0.00     0.032 A 
HETATM    2  C9  UNL     1       2.062   0.760   0.496  1.00  0.00     0.194 A 
HETATM    3  O2  UNL     1       3.193   1.051  -0.102  1.00  0.00    -0.263 OA
HETATM    4  C10 UNL     1       3.224   0.595  -1.316  1.00  0.00     0.204 A 
HETATM    5  C11 UNL     1       2.017  -0.047  -1.534  1.00  0.00     0.081 A 
HETATM    6 BR1  UNL     1       1.498  -0.913  -3.147  1.00  0.00    -0.045 Br
ENDROOT
BRANCH   1   7
HETATM    7  C7  UNL     1      -0.030  -0.440  -0.109  1.00  0.00     0.001 C 
HETATM    8  C2  UNL     1      -1.171   0.437   0.273  1.00  0.00    -0.032 C 
HETATM    9  C1  UNL     1      -1.325   0.843   1.702  1.00  0.00     0.016 C 
HETATM   10  C3  UNL     1      -1.520   1.571  -0.632  1.00  0.00     0.016 C 
HETATM   11  C4  UNL     1      -2.008  -0.791  -0.122  1.00  0.00    -0.005 C 
HETATM   12  C5  UNL     1      -1.629  -1.769   0.927  1.00  0.00     0.006 C 
HETATM   13  C12 UNL     1      -0.911  -1.017  -1.178  1.00  0.00     0.020 C 
HETATM   14  C6  UNL     1      -0.102  -1.570   0.910  1.00  0.00     0.016 C 
ENDBRANCH   1   7
BRANCH   2  15
HETATM   15  O1  UNL     1       1.764   1.134   1.816  1.00  0.00    -0.340 OA
ATOM     16  H1  UNL     1       2.311   1.621   2.421  1.00  0.00     0.220 HD
ENDBRANCH   2  15
BRANCH   4  17
HETATM   17  O3  UNL     1       4.231   0.686  -2.280  1.00  0.00    -0.340 OA
ATOM     18  H3  UNL     1       4.254   0.352  -3.169  1.00  0.00     0.220 HD
ENDBRANCH   4  17
TORSDOF 3
