REMARK  10 active torsions:
REMARK  status: ('A' for Active; 'I' for Inactive)
REMARK    1  A    between atoms: C6_6  and  N1_7 
REMARK       I    between atoms: N1_7  and  C7_9 
REMARK       I    between atoms: C7_9  and  N2_11 
REMARK    2  A    between atoms: C10_14  and  C11_15 
REMARK    3  A    between atoms: C11_15  and  C12_16 
REMARK    4  A    between atoms: C12_16  and  N3_17 
REMARK    5  A    between atoms: N3_17  and  S1_19 
REMARK    6  A    between atoms: S1_19  and  C13_22 
REMARK    7  A    between atoms: N5_32  and  C21_33 
REMARK    8  A    between atoms: C21_33  and  C22_34 
REMARK    9  A    between atoms: C22_34  and  C23_35 
REMARK   10  A    between atoms: C29_41  and  O4_42 
ROOT
HETATM    1  C1  UNL     1      -4.658  -1.758  -1.447  1.00  0.00     0.018 C 
HETATM    2  C2  UNL     1      -4.339  -0.382  -1.951  1.00  0.00     0.056 C 
HETATM    3  C3  UNL     1      -3.089  -0.304  -2.783  1.00  0.00     0.012 C 
HETATM    4  C4  UNL     1      -2.170   0.826  -2.464  1.00  0.00     0.003 C 
HETATM    5  C5  UNL     1      -0.757   0.282  -2.494  1.00  0.00     0.027 C 
HETATM    6  C6  UNL     1       0.117   0.841  -1.385  1.00  0.00     0.103 C 
HETATM    7  C18 UNL     1      -0.470   0.599  -0.012  1.00  0.00     0.139 C 
HETATM    8  N4  UNL     1      -1.358  -0.498  -0.089  1.00  0.00    -0.415 N 
ATOM      9  H4  UNL     1      -1.334  -1.134  -0.886  1.00  0.00     0.153 HD
HETATM   10  C19 UNL     1      -2.280  -0.694   0.964  1.00  0.00     0.159 C 
HETATM   11  C20 UNL     1      -3.248   0.348   1.290  1.00  0.00     0.085 C 
HETATM   12  N5  UNL     1      -4.305   0.725   0.439  1.00  0.00    -0.343 N 
HETATM   13  C29 UNL     1      -4.455   0.710  -0.960  1.00  0.00     0.121 C 
ENDROOT
BRANCH   6  14
HETATM   14  N1  UNL     1       1.364   0.062  -1.476  1.00  0.00    -0.337 N 
HETATM   15  C7  UNL     1       2.600   0.640  -1.731  1.00  0.00     0.318 C 
HETATM   16  O1  UNL     1       2.652   1.903  -1.886  1.00  0.00    -0.247 OA
HETATM   17  N2  UNL     1       3.797  -0.078  -1.830  1.00  0.00    -0.334 N 
HETATM   18  C8  UNL     1       5.076   0.549  -2.090  1.00  0.00     0.128 C 
HETATM   19  C17 UNL     1       3.824  -1.513  -1.689  1.00  0.00     0.128 C 
HETATM   20  C9  UNL     1       6.084   0.132  -1.030  1.00  0.00     0.025 C 
HETATM   21  C10 UNL     1       6.106  -1.311  -0.717  1.00  0.00    -0.007 C 
HETATM   22  C16 UNL     1       4.697  -1.882  -0.487  1.00  0.00     0.025 C 
ATOM     23  H1  UNL     1       1.317  -0.949  -1.346  1.00  0.00     0.164 HD
BRANCH  21  24
HETATM   24  C11 UNL     1       6.920  -1.701   0.473  1.00  0.00     0.050 C 
BRANCH  24  25
HETATM   25  C12 UNL     1       8.380  -1.358   0.384  1.00  0.00     0.073 C 
BRANCH  25  26
HETATM   26  N3  UNL     1       8.613   0.028   0.342  1.00  0.00    -0.299 N 
ATOM     27  H3  UNL     1       7.831   0.682   0.378  1.00  0.00     0.177 HD
BRANCH  26  28
HETATM   28  S1  UNL     1      10.187   0.598   0.232  1.00  0.00     0.234 S 
HETATM   29  O2  UNL     1      10.081   2.123  -0.008  1.00  0.00    -0.205 OA
HETATM   30  O3  UNL     1      10.815   0.104  -1.070  1.00  0.00    -0.205 OA
BRANCH  28  31
HETATM   31  C13 UNL     1      11.310   0.265   1.519  1.00  0.00     0.129 A 
HETATM   32  C14 UNL     1      11.180  -0.714   2.602  1.00  0.00     0.023 A 
HETATM   33  C15 UNL     1      10.857   0.712   2.895  1.00  0.00     0.023 A 
ENDBRANCH  28  31
ENDBRANCH  26  28
ENDBRANCH  25  26
ENDBRANCH  24  25
ENDBRANCH  21  24
ENDBRANCH   6  14
BRANCH  13  34
HETATM   34  O4  UNL     1      -4.752   1.844  -1.534  1.00  0.00    -0.349 OA
ATOM     35  H4  UNL     1      -4.827   2.545  -0.898  1.00  0.00     0.219 HD
ENDBRANCH  13  34
BRANCH  12  36
HETATM   36  C21 UNL     1      -5.502   1.280   1.150  1.00  0.00     0.130 C 
BRANCH  36  37
HETATM   37  C22 UNL     1      -6.479   0.182   1.465  1.00  0.00     0.025 C 
BRANCH  37  38
HETATM   38  C23 UNL     1      -7.671   0.701   2.171  1.00  0.00    -0.013 C 
HETATM   39  C24 UNL     1      -8.474   1.718   1.437  1.00  0.00     0.005 C 
HETATM   40  C25 UNL     1      -9.174   1.159   0.224  1.00  0.00     0.000 C 
HETATM   41  C26 UNL     1      -9.628  -0.254   0.406  1.00  0.00     0.000 C 
HETATM   42  C27 UNL     1      -9.857  -0.496   1.884  1.00  0.00     0.000 C 
HETATM   43  C28 UNL     1      -8.534  -0.497   2.574  1.00  0.00     0.005 C 
ENDBRANCH  37  38
ENDBRANCH  36  37
ENDBRANCH  12  36
TORSDOF 10
