REMARK  10 active torsions:
REMARK  status: ('A' for Active; 'I' for Inactive)
REMARK    1  A    between atoms: N1_5  and  C5_6 
REMARK    2  A    between atoms: C5_6  and  C6_7 
REMARK    3  A    between atoms: C6_7  and  N2_8 
REMARK    4  A    between atoms: C6_7  and  C16_22 
REMARK       I    between atoms: N2_8  and  C7_10 
REMARK    5  A    between atoms: C7_10  and  C8_12 
REMARK    6  A    between atoms: C8_12  and  C9_13 
REMARK    7  A    between atoms: C8_12  and  C10_16 
REMARK    8  A    between atoms: C9_13  and  O2_14 
REMARK       I    between atoms: C16_22  and  N3_24 
REMARK       I    between atoms: N4_27  and  C19_28 
REMARK    9  A    between atoms: C22_35  and  C23_36 
REMARK   10  A    between atoms: C23_36  and  C24_37 
ROOT
HETATM    1  C16 UNL     1       0.578  -0.227   0.256  1.00  0.00     0.248 C 
HETATM    2  O3  UNL     1       0.265  -1.208  -0.518  1.00  0.00    -0.271 OA
HETATM    3  N3  UNL     1       1.920   0.176   0.401  1.00  0.00    -0.342 N 
HETATM    4  C17 UNL     1       2.188   1.261   1.375  1.00  0.00     0.146 C 
HETATM    5  C18 UNL     1       3.533   0.959   2.058  1.00  0.00     0.145 C 
HETATM    6  N4  UNL     1       3.782  -0.467   2.093  1.00  0.00    -0.351 N 
HETATM    7  C19 UNL     1       4.003  -1.166   3.290  1.00  0.00     0.199 C 
HETATM    8  N5  UNL     1       5.200  -0.870   4.043  1.00  0.00    -0.063 NA
HETATM    9  N6  UNL     1       3.231  -2.045   3.777  1.00  0.00    -0.267 N 
ATOM     10  H6  UNL     1       3.533  -2.462   4.657  1.00  0.00     0.180 HD
HETATM   11  C20 UNL     1       2.042  -2.508   3.274  1.00  0.00     0.184 C 
HETATM   12  N7  UNL     1       1.042  -2.913   2.867  1.00  0.00    -0.172 NA
HETATM   13  C21 UNL     1       3.820  -1.171   0.816  1.00  0.00     0.150 C 
HETATM   14  C22 UNL     1       3.085  -0.323  -0.227  1.00  0.00     0.105 C 
ENDROOT
BRANCH  14  15
HETATM   15  C23 UNL     1       3.019  -1.028  -1.506  1.00  0.00     0.031 C 
BRANCH  15  16
HETATM   16  C24 UNL     1       2.485  -0.148  -2.613  1.00  0.00    -0.013 C 
HETATM   17  C25 UNL     1       2.398  -0.896  -3.929  1.00  0.00     0.005 C 
HETATM   18  C26 UNL     1       3.678  -1.497  -4.389  1.00  0.00     0.000 C 
HETATM   19  C27 UNL     1       4.695  -0.402  -4.589  1.00  0.00     0.000 C 
HETATM   20  C28 UNL     1       4.790   0.473  -3.381  1.00  0.00     0.000 C 
HETATM   21  C29 UNL     1       3.483   0.989  -2.896  1.00  0.00     0.005 C 
ENDBRANCH  15  16
ENDBRANCH  14  15
BRANCH   1  22
HETATM   22  C6  UNL     1      -0.594   0.374   0.926  1.00  0.00     0.215 C 
BRANCH  22  23
HETATM   23  C5  UNL     1      -0.901   1.782   0.446  1.00  0.00     0.092 C 
BRANCH  23  24
HETATM   24  N1  UNL     1      -1.973   2.418   1.085  1.00  0.00    -0.391 N 
HETATM   25  C4  UNL     1      -1.845   2.788   2.443  1.00  0.00     0.122 C 
HETATM   26  C3  UNL     1      -1.252   4.180   2.515  1.00  0.00     0.024 C 
HETATM   27  C2  UNL     1      -1.974   5.151   1.615  1.00  0.00    -0.015 C 
HETATM   28  C1  UNL     1      -1.141   6.413   1.537  1.00  0.00     0.010 C 
HETATM   29  C31 UNL     1      -2.111   4.619   0.203  1.00  0.00     0.024 C 
HETATM   30  C30 UNL     1      -2.808   3.277   0.317  1.00  0.00     0.122 C 
ENDBRANCH  23  24
ENDBRANCH  22  23
BRANCH  22  31
HETATM   31  N2  UNL     1      -1.821  -0.365   0.658  1.00  0.00    -0.343 N 
HETATM   32  C7  UNL     1      -2.658  -0.911   1.616  1.00  0.00     0.225 C 
HETATM   33  O1  UNL     1      -2.367  -0.785   2.833  1.00  0.00    -0.273 OA
ATOM     34  H2  UNL     1      -2.086  -0.491  -0.319  1.00  0.00     0.163 HD
BRANCH  32  35
HETATM   35  C8  UNL     1      -3.896  -1.639   1.210  1.00  0.00     0.105 C 
BRANCH  35  36
HETATM   36  C9  UNL     1      -4.852  -0.595   0.678  1.00  0.00     0.178 C 
BRANCH  36  37
HETATM   37  O2  UNL     1      -4.335   0.056  -0.413  1.00  0.00    -0.400 OA
ATOM     38  H2  UNL     1      -4.936   0.712  -0.747  1.00  0.00     0.209 HD
ENDBRANCH  36  37
ENDBRANCH  35  36
BRANCH  35  39
HETATM   39  C10 UNL     1      -3.620  -2.613   0.101  1.00  0.00     0.001 C 
HETATM   40  C11 UNL     1      -2.564  -3.638   0.492  1.00  0.00     0.005 C 
HETATM   41  C12 UNL     1      -2.514  -4.686  -0.598  1.00  0.00     0.000 C 
HETATM   42  C13 UNL     1      -3.277  -4.247  -1.834  1.00  0.00     0.000 C 
HETATM   43  C14 UNL     1      -4.726  -4.016  -1.560  1.00  0.00     0.000 C 
HETATM   44  C15 UNL     1      -4.864  -3.418  -0.169  1.00  0.00     0.005 C 
ENDBRANCH  35  39
ENDBRANCH  32  35
ENDBRANCH  22  31
ENDBRANCH   1  22
TORSDOF 10
