REMARK  11 active torsions:
REMARK  status: ('A' for Active; 'I' for Inactive)
REMARK    1  A    between atoms: C2_2  and  C3_3 
REMARK    2  A    between atoms: C3_3  and  N1_4 
REMARK       I    between atoms: N1_4  and  C4_6 
REMARK    3  A    between atoms: C4_6  and  C5_8 
REMARK       I    between atoms: N2_12  and  C9_13 
REMARK    4  A    between atoms: C9_13  and  C10_15 
REMARK    5  A    between atoms: C10_15  and  N3_16 
REMARK    6  A    between atoms: C12_18  and  C13_19 
REMARK       I    between atoms: C13_19  and  N4_21 
REMARK    7  A    between atoms: N4_21  and  C14_23 
REMARK    8  A    between atoms: C26_35  and  C27_36 
REMARK    9  A    between atoms: C28_37  and  C29_38 
REMARK   10  A    between atoms: C29_38  and  O5_40 
REMARK   11  A    between atoms: O5_40  and  C30_41 
ROOT
HETATM    1  N3  UNL     1       1.104   0.636   0.984  1.00  0.00    -0.346 N 
HETATM    2  C11 UNL     1       0.504  -0.562   1.008  1.00  0.00     0.109 A 
HETATM    3  C12 UNL     1      -0.889  -0.419   0.942  1.00  0.00     0.060 A 
HETATM    4  C23 UNL     1      -1.059   0.939   0.881  1.00  0.00     0.008 A 
HETATM    5  C24 UNL     1      -2.194   1.732   0.815  1.00  0.00     0.015 A 
HETATM    6  C25 UNL     1      -2.088   3.112   0.773  1.00  0.00     0.012 A 
HETATM    7  C26 UNL     1      -0.868   3.773   0.796  1.00  0.00    -0.034 A 
HETATM    8  C31 UNL     1       0.259   2.990   0.862  1.00  0.00     0.042 A 
HETATM    9  C32 UNL     1       0.161   1.597   0.905  1.00  0.00     0.046 A 
ENDROOT
BRANCH   1  10
HETATM   10  C10 UNL     1       2.538   0.898   1.042  1.00  0.00     0.231 C 
BRANCH  10  11
HETATM   11  C9  UNL     1       3.187   0.968  -0.272  1.00  0.00     0.238 C 
HETATM   12  N2  UNL     1       3.891  -0.137  -0.798  1.00  0.00    -0.337 N 
HETATM   13  C5  UNL     1       4.089  -1.425  -0.201  1.00  0.00     0.179 C 
HETATM   14  C8  UNL     1       4.575  -0.185  -2.083  1.00  0.00     0.127 C 
HETATM   15  C6  UNL     1       3.889  -2.388  -1.370  1.00  0.00     0.037 C 
HETATM   16  C7  UNL     1       4.454  -1.604  -2.508  1.00  0.00     0.022 C 
HETATM   17  O2  UNL     1       3.124   2.023  -0.948  1.00  0.00    -0.272 OA
BRANCH  13  18
HETATM   18  C4  UNL     1       5.463  -1.619   0.361  1.00  0.00     0.240 C 
HETATM   19  N1  UNL     1       5.789  -2.838   1.005  1.00  0.00    -0.356 N 
ATOM     20  H1  UNL     1       5.063  -3.551   1.071  1.00  0.00     0.162 HD
HETATM   21  O1  UNL     1       6.280  -0.676   0.236  1.00  0.00    -0.271 OA
BRANCH  19  22
HETATM   22  C3  UNL     1       7.067  -3.133   1.568  1.00  0.00     0.149 C 
BRANCH  22  23
HETATM   23  C2  UNL     1       8.139  -3.190   0.568  1.00  0.00    -0.018 C 
HETATM   24  C1  UNL     1       8.028  -3.060  -0.728  1.00  0.00     0.008 C 
ENDBRANCH  22  23
ENDBRANCH  19  22
ENDBRANCH  13  18
ENDBRANCH  10  11
ENDBRANCH   1  10
BRANCH   3  25
HETATM   25  C13 UNL     1      -1.806  -1.512   0.899  1.00  0.00     0.254 C 
HETATM   26  O3  UNL     1      -1.392  -2.620   1.420  1.00  0.00    -0.268 OA
HETATM   27  N4  UNL     1      -3.099  -1.502   0.347  1.00  0.00    -0.352 N 
ATOM     28  H4  UNL     1      -3.473  -0.656  -0.084  1.00  0.00     0.163 HD
BRANCH  27  29
HETATM   29  C14 UNL     1      -3.909  -2.742   0.402  1.00  0.00     0.085 C 
HETATM   30  C15 UNL     1      -5.141  -2.450   1.185  1.00  0.00     0.025 C 
HETATM   31  C16 UNL     1      -6.214  -3.447   0.921  1.00  0.00     0.007 C 
HETATM   32  C17 UNL     1      -6.553  -3.665  -0.518  1.00  0.00    -0.010 C 
HETATM   33  C18 UNL     1      -7.753  -2.798  -0.854  1.00  0.00     0.005 C 
HETATM   34  C21 UNL     1      -5.526  -3.208  -1.487  1.00  0.00    -0.009 C 
HETATM   35  C19 UNL     1      -7.198  -1.474  -1.333  1.00  0.00     0.001 C 
HETATM   36  C20 UNL     1      -5.922  -1.862  -2.019  1.00  0.00     0.005 C 
HETATM   37  C22 UNL     1      -4.114  -3.249  -0.979  1.00  0.00     0.030 C 
ENDBRANCH  27  29
ENDBRANCH   3  25
BRANCH   7  38
HETATM   38  C27 UNL     1      -0.809   5.226   0.750  1.00  0.00     0.017 C 
HETATM   39  C28 UNL     1       0.303   5.921   0.774  1.00  0.00     0.083 C 
BRANCH  39  40
HETATM   40  C29 UNL     1       0.238   7.370   0.724  1.00  0.00     0.291 C 
HETATM   41  O4  UNL     1      -0.873   7.937   0.656  1.00  0.00    -0.260 OA
BRANCH  40  42
HETATM   42  O5  UNL     1       1.407   8.103   0.752  1.00  0.00    -0.226 OA
BRANCH  42  43
HETATM   43  C30 UNL     1       1.369   9.506   0.704  1.00  0.00     0.380 C 
HETATM   44  N5  UNL     1       2.579  10.247   0.734  1.00  0.00    -0.032 NA
HETATM   45  O6  UNL     1       0.265  10.099   0.636  1.00  0.00    -0.242 OA
ENDBRANCH  42  43
ENDBRANCH  40  42
ENDBRANCH  39  40
ENDBRANCH   7  38
TORSDOF 11
