REMARK  5 active torsions:
REMARK  status: ('A' for Active; 'I' for Inactive)
REMARK    1  A    between atoms: C3_4  and  N2_5 
REMARK    2  A    between atoms: C6_9  and  N3_10 
REMARK    3  A    between atoms: C7_15  and  N5_16 
REMARK    4  A    between atoms: N5_16  and  O1_18 
REMARK    5  A    between atoms: O1_18  and  C8_19 
ROOT
HETATM    1  N2  UNL     1      -0.271  -1.059   0.284  1.00  0.00    -0.137 N 
HETATM    2  C4  UNL     1       0.136  -2.369   0.280  1.00  0.00     0.144 A 
HETATM    3  C5  UNL     1      -0.621  -3.352  -0.287  1.00  0.00     0.094 A 
HETATM    4 CL1  UNL     1      -0.104  -5.040  -0.295  1.00  0.00    -0.079 Cl
HETATM    5  C6  UNL     1      -1.830  -3.000  -0.869  1.00  0.00     0.138 A 
HETATM    6  N4  UNL     1      -2.197  -1.699  -0.846  1.00  0.00    -0.173 N 
ATOM      7  H4  UNL     1      -3.084  -1.430  -1.272  1.00  0.00     0.186 HD
HETATM    8  C7  UNL     1      -1.418  -0.728  -0.270  1.00  0.00     0.712 A 
ENDROOT
BRANCH   1   9
HETATM    9  C3  UNL     1       0.605  -0.133   0.904  1.00  0.00     0.161 A 
HETATM   10  C2  UNL     1       1.658   0.501   0.245  1.00  0.00     0.162 A 
HETATM   11  N1  UNL     1       2.278   1.278   1.125  1.00  0.00    -0.290 N 
HETATM   12  C1  UNL     1       3.433   2.120   0.859  1.00  0.00     0.178 C 
HETATM   13  N9  UNL     1       1.655   1.143   2.271  1.00  0.00    -0.240 N 
HETATM   14  N8  UNL     1       0.646   0.302   2.171  1.00  0.00    -0.269 N 
ATOM     15  H9  UNL     1       1.918   1.627   3.130  1.00  0.00     0.208 HD
ATOM     16  H8  UNL     1       0.011   0.031   2.922  1.00  0.00     0.190 HD
ENDBRANCH   1   9
BRANCH   8  17
HETATM   17  N5  UNL     1      -1.854   0.450  -0.304  1.00  0.00    -0.087 N 
ATOM     18  H5  UNL     1      -2.754   0.615  -0.754  1.00  0.00     0.214 HD
BRANCH  17  19
HETATM   19  O1  UNL     1      -1.205   1.508   0.218  1.00  0.00    -0.183 OA
BRANCH  19  20
HETATM   20  C8  UNL     1      -1.549   2.810  -0.104  1.00  0.00     0.277 A 
HETATM   21  N6  UNL     1      -1.908   3.506  -1.172  1.00  0.00    -0.259 N 
HETATM   22  N7  UNL     1      -1.817   4.188   0.044  1.00  0.00    -0.259 N 
ATOM     23  H6  UNL     1      -2.108   3.528  -2.172  1.00  0.00     0.190 HD
ATOM     24  H7  UNL     1      -1.889   5.035   0.608  1.00  0.00     0.190 HD
ENDBRANCH  19  20
ENDBRANCH  17  19
ENDBRANCH   8  17
BRANCH   5  25
HETATM   25  N3  UNL     1      -2.557  -3.902  -1.407  1.00  0.00    -0.384 N 
ATOM     26  H32 UNL     1      -2.280  -4.884  -1.424  1.00  0.00     0.157 HD
ATOM     27  H31 UNL     1      -3.446  -3.643  -1.835  1.00  0.00     0.157 HD
ENDBRANCH   5  25
TORSDOF 5
