REMARK  10 active torsions:
REMARK  status: ('A' for Active; 'I' for Inactive)
REMARK    1  A    between atoms: N1_1  and  N2_4 
REMARK    2  A    between atoms: C4_9  and  O2_10 
REMARK    3  A    between atoms: C6_16  and  O4_17 
REMARK    4  A    between atoms: O4_17  and  C7_18 
REMARK    5  A    between atoms: C7_18  and  C8_19 
REMARK    6  A    between atoms: C8_19  and  C9_21 
REMARK    7  A    between atoms: C9_21  and  O6_22 
REMARK    8  A    between atoms: C9_21  and  O7_24 
REMARK    9  A    between atoms: C10_26  and  N4_27 
REMARK   10  A    between atoms: C10_26  and  O8_31 
ROOT
HETATM    1  N2  UNL     1      -2.261  -1.064  -1.363  1.00  0.00    -0.188 N 
HETATM    2  C1  UNL     1      -0.933  -0.566  -1.223  1.00  0.00     0.283 C 
HETATM    3  O1  UNL     1      -0.053  -0.962  -2.014  1.00  0.00    -0.265 OA
HETATM    4  C2  UNL     1      -0.626   0.396  -0.175  1.00  0.00     0.089 A 
HETATM    5  C3  UNL     1      -1.622   0.821   0.672  1.00  0.00     0.084 A 
HETATM    6  C4  UNL     1      -1.356   1.860   1.585  1.00  0.00     0.155 A 
HETATM    7  N3  UNL     1      -0.162   2.408   1.613  1.00  0.00    -0.301 N 
ATOM      8  H3  UNL     1      -0.001   3.160   2.283  1.00  0.00     0.171 HD
HETATM    9  C5  UNL     1       0.858   2.049   0.825  1.00  0.00     0.282 A 
HETATM   10  O3  UNL     1       1.967   2.623   0.897  1.00  0.00    -0.265 OA
HETATM   11  C6  UNL     1       0.659   1.022  -0.095  1.00  0.00     0.159 A 
HETATM   12  C10 UNL     1      -2.940   0.196   0.699  1.00  0.00     0.339 C 
HETATM   13  C11 UNL     1      -3.236  -0.592  -0.465  1.00  0.00     0.314 C 
HETATM   14  O9  UNL     1      -4.449  -0.910  -0.748  1.00  0.00    -0.265 OA
ENDROOT
BRANCH  11  15
HETATM   15  O4  UNL     1       1.636   0.574  -0.921  1.00  0.00    -0.312 OA
BRANCH  15  16
HETATM   16  C7  UNL     1       2.566  -0.391  -0.817  1.00  0.00     0.198 C 
BRANCH  16  17
HETATM   17  C8  UNL     1       3.612  -0.381   0.194  1.00  0.00     0.225 C 
HETATM   18  O5  UNL     1       3.879   0.364   1.083  1.00  0.00    -0.286 OA
BRANCH  17  19
HETATM   19  C9  UNL     1       4.593  -1.573   0.123  1.00  0.00     0.331 C 
BRANCH  19  20
HETATM   20  O6  UNL     1       4.223  -2.392  -0.928  1.00  0.00    -0.365 OA
ATOM     21  H6  UNL     1       4.826  -3.125  -0.972  1.00  0.00     0.213 HD
ENDBRANCH  19  20
BRANCH  19  22
HETATM   22  O7  UNL     1       5.879  -1.096   0.026  1.00  0.00    -0.365 OA
ATOM     23  H7  UNL     1       6.482  -1.829  -0.018  1.00  0.00     0.213 HD
ENDBRANCH  19  22
ENDBRANCH  17  19
ENDBRANCH  16  17
ENDBRANCH  15  16
ENDBRANCH  11  15
BRANCH   1  24
HETATM   24  N1  UNL     1      -2.570  -2.006  -2.381  1.00  0.00    -0.333 N 
ATOM     25  H12 UNL     1      -1.863  -2.348  -3.032  1.00  0.00     0.177 HD
ATOM     26  H11 UNL     1      -3.520  -2.362  -2.481  1.00  0.00     0.177 HD
ENDBRANCH   1  24
BRANCH   6  27
HETATM   27  O2  UNL     1      -2.403   2.232   2.403  1.00  0.00    -0.345 OA
ATOM     28  H2  UNL     1      -2.224   2.933   3.019  1.00  0.00     0.219 HD
ENDBRANCH   6  27
BRANCH  12  29
HETATM   29  N4  UNL     1      -4.014   1.118   0.980  1.00  0.00    -0.033 N 
ATOM     30  H43 UNL     1      -3.837   1.622   1.849  1.00  0.00     0.279 HD
ATOM     31  H42 UNL     1      -3.999   1.898   0.323  1.00  0.00     0.279 HD
ATOM     32  H41 UNL     1      -4.935   0.681   0.999  1.00  0.00     0.279 HD
ENDBRANCH  12  29
BRANCH  12  33
HETATM   33  O8  UNL     1      -2.916  -0.698   1.810  1.00  0.00    -0.354 OA
ATOM     34  H8  UNL     1      -3.774  -1.105   1.828  1.00  0.00     0.213 HD
ENDBRANCH  12  33
TORSDOF 10
