REMARK  8 active torsions:
REMARK  status: ('A' for Active; 'I' for Inactive)
REMARK    1  A    between atoms: C3_3  and  O1_4 
REMARK    2  A    between atoms: C3_3  and  C4_6 
REMARK    3  A    between atoms: C4_6  and  O2_7 
REMARK    4  A    between atoms: C4_6  and  C5_9 
REMARK    5  A    between atoms: C6_11  and  N1_12 
REMARK    6  A    between atoms: N1_12  and  N2_14 
REMARK    7  A    between atoms: C8_18  and  N4_19 
REMARK    8  A    between atoms: C10_24  and  N6_25 
ROOT
HETATM    1  C1  UNL     1       6.031   1.529  -0.844  1.00  0.00     0.015 C 
HETATM    2  C2  UNL     1       4.860   1.343  -1.073  1.00  0.00    -0.083 C 
HETATM    3  C3  UNL     1       3.430   1.092  -1.366  1.00  0.00     0.229 C 
ENDROOT
BRANCH   3   4
HETATM    4  O1  UNL     1       3.428   0.180  -2.442  1.00  0.00    -0.381 OA
ATOM      5  H1  UNL     1       2.511   0.019  -2.630  1.00  0.00     0.211 HD
ENDBRANCH   3   4
BRANCH   3   6
HETATM    6  C4  UNL     1       2.861   0.404  -0.156  1.00  0.00     0.214 C 
BRANCH   6   7
HETATM    7  O2  UNL     1       3.686  -0.698   0.112  1.00  0.00    -0.387 OA
ATOM      8  H2  UNL     1       3.327  -1.133   0.876  1.00  0.00     0.210 HD
ENDBRANCH   6   7
BRANCH   6   9
HETATM    9  C5  UNL     1       1.476  -0.139  -0.393  1.00  0.00     0.297 C 
HETATM   10  O3  UNL     1       1.094  -0.806   0.776  1.00  0.00    -0.328 OA
HETATM   11  C6  UNL     1      -0.242  -0.534   0.983  1.00  0.00     0.288 C 
HETATM   12  C8  UNL     1      -0.637   0.181  -0.278  1.00  0.00     0.290 C 
HETATM   13  O6  UNL     1       0.534   0.875  -0.577  1.00  0.00    -0.329 OA
BRANCH  11  14
HETATM   14  N1  UNL     1      -0.950  -1.791   1.161  1.00  0.00    -0.303 N 
ATOM     15  H1  UNL     1      -1.455  -1.973   2.028  1.00  0.00     0.183 HD
BRANCH  14  16
HETATM   16  N2  UNL     1      -0.940  -2.748   0.148  1.00  0.00    -0.300 N 
HETATM   17  C7  UNL     1      -0.842  -3.995   0.370  1.00  0.00     0.206 C 
HETATM   18  N3  UNL     1      -0.732  -4.543   1.677  1.00  0.00    -0.095 NA
ATOM     19  H2  UNL     1      -1.015  -2.432  -0.819  1.00  0.00     0.186 HD
ENDBRANCH  14  16
ENDBRANCH  11  14
BRANCH  12  20
HETATM   20  N4  UNL     1      -1.786   1.005  -0.149  1.00  0.00    -0.218 N 
HETATM   21  C9  UNL     1      -1.848   2.122   0.606  1.00  0.00     0.347 A 
HETATM   22  O4  UNL     1      -0.841   2.472   1.240  1.00  0.00    -0.246 OA
HETATM   23  N5  UNL     1      -2.951   2.885   0.710  1.00  0.00    -0.141 N 
HETATM   24  C10 UNL     1      -4.054   2.529   0.034  1.00  0.00     0.683 A 
ATOM     25  H5  UNL     1      -2.949   3.721   1.294  1.00  0.00     0.189 HD
HETATM   26  N7  UNL     1      -4.029   1.426  -0.725  1.00  0.00    -0.141 N 
HETATM   27  C11 UNL     1      -2.909   0.677  -0.813  1.00  0.00     0.347 A 
ATOM     28  H7  UNL     1      -4.864   1.149  -1.241  1.00  0.00     0.189 HD
HETATM   29  O5  UNL     1      -2.942  -0.360  -1.549  1.00  0.00    -0.246 OA
BRANCH  24  30
HETATM   30  N6  UNL     1      -5.143   3.243   0.109  1.00  0.00    -0.234 N 
ATOM     31  H62 UNL     1      -5.162   4.083   0.687  1.00  0.00     0.174 HD
ATOM     32  H61 UNL     1      -5.981   2.972  -0.405  1.00  0.00     0.174 HD
ENDBRANCH  24  30
ENDBRANCH  12  20
ENDBRANCH   6   9
ENDBRANCH   3   6
TORSDOF 8
