REMARK  9 active torsions:
REMARK  status: ('A' for Active; 'I' for Inactive)
REMARK    1  A    between atoms: N1_1  and  C1_4 
REMARK    2  A    between atoms: C2_9  and  C3_10 
REMARK    3  A    between atoms: N4_11  and  N5_13 
REMARK    4  A    between atoms: N6_15  and  N7_17 
REMARK    5  A    between atoms: C6_26  and  C7_27 
REMARK    6  A    between atoms: C7_27  and  O2_28 
REMARK    7  A    between atoms: C7_27  and  C8_30 
REMARK    8  A    between atoms: C8_30  and  N11_31 
REMARK    9  A    between atoms: C8_30  and  N12_35 
ROOT
HETATM    1  N7  UNL     1      -1.020  -1.178  -0.081  1.00  0.00    -0.199 N 
HETATM    2  N8  UNL     1      -1.449  -2.479   0.172  1.00  0.00    -0.255 N 
ATOM      3  H8  UNL     1      -0.839  -3.075   0.732  1.00  0.00     0.191 HD
HETATM    4  C4  UNL     1      -2.556  -2.987  -0.246  1.00  0.00     0.211 C 
HETATM    5  N9  UNL     1      -2.978  -4.308   0.018  1.00  0.00    -0.062 NA
HETATM    6  N10 UNL     1      -3.388  -2.102  -1.033  1.00  0.00    -0.298 N 
ATOM      7  H10 UNL     1      -4.280  -2.437  -1.398  1.00  0.00     0.171 HD
HETATM    8  C5  UNL     1      -2.974  -0.773  -1.301  1.00  0.00     0.253 C 
HETATM    9  O1  UNL     1      -3.406  -0.154  -2.290  1.00  0.00    -0.271 OA
HETATM   10  C6  UNL     1      -2.014  -0.142  -0.374  1.00  0.00     0.253 C 
ENDROOT
BRANCH   1  11
HETATM   11  N6  UNL     1       0.336  -0.829  -0.065  1.00  0.00    -0.210 N 
HETATM   12  N5  UNL     1       1.196  -1.406   0.641  1.00  0.00    -0.227 N 
ATOM     13  H5  UNL     1       0.936  -2.179   1.253  1.00  0.00     0.210 HD
ATOM     14  H6  UNL     1       0.642  -0.061  -0.662  1.00  0.00     0.211 HD
BRANCH  12  15
HETATM   15  N4  UNL     1       2.517  -0.965   0.569  1.00  0.00    -0.294 N 
HETATM   16  C3  UNL     1       2.752   0.268   0.297  1.00  0.00     0.145 C 
ATOM     17  H4  UNL     1       3.287  -1.614   0.730  1.00  0.00     0.187 HD
BRANCH  16  18
HETATM   18  C2  UNL     1       4.129   0.726   0.222  1.00  0.00     0.134 A 
HETATM   19  N3  UNL     1       4.409   2.017  -0.063  1.00  0.00    -0.280 N 
HETATM   20  N2  UNL     1       5.672   2.431  -0.130  1.00  0.00    -0.132 N 
ATOM     21  H3  UNL     1       3.649   2.677  -0.227  1.00  0.00     0.188 HD
HETATM   22  C1  UNL     1       6.676   1.571   0.083  1.00  0.00     0.693 A 
ATOM     23  H2  UNL     1       5.876   3.407  -0.344  1.00  0.00     0.205 HD
HETATM   24  N13 UNL     1       6.465   0.282   0.368  1.00  0.00    -0.153 N 
HETATM   25  C9  UNL     1       5.174  -0.143   0.438  1.00  0.00     0.289 A 
ATOM     26  H13 UNL     1       7.242  -0.359   0.527  1.00  0.00     0.187 HD
HETATM   27  O3  UNL     1       4.955  -1.339   0.701  1.00  0.00    -0.265 OA
BRANCH  22  28
HETATM   28  N1  UNL     1       7.880   2.042   0.002  1.00  0.00    -0.233 N 
ATOM     29  H12 UNL     1       8.041   3.025  -0.215  1.00  0.00     0.174 HD
ATOM     30  H11 UNL     1       8.645   1.387   0.164  1.00  0.00     0.174 HD
ENDBRANCH  22  28
ENDBRANCH  16  18
ENDBRANCH  12  15
ENDBRANCH   1  11
BRANCH  10  31
HETATM   31  C7  UNL     1      -2.621   0.358   0.901  1.00  0.00     0.211 C 
BRANCH  31  32
HETATM   32  O2  UNL     1      -3.268  -0.632   1.639  1.00  0.00    -0.389 OA
ATOM     33  H2  UNL     1      -3.653  -0.315   2.448  1.00  0.00     0.210 HD
ENDBRANCH  31  32
BRANCH  31  34
HETATM   34  C8  UNL     1      -3.553   1.502   0.736  1.00  0.00     0.408 C 
BRANCH  34  35
HETATM   35  N11 UNL     1      -4.776   1.146   0.048  1.00  0.00    -0.048 N 
ATOM     36 3H11 UNL     1      -4.573   0.711  -0.852  1.00  0.00     0.276 HD
ATOM     37 2H11 UNL     1      -5.239   0.364   0.512  1.00  0.00     0.276 HD
ATOM     38 1H11 UNL     1      -5.416   1.932  -0.065  1.00  0.00     0.276 HD
ENDBRANCH  34  35
BRANCH  34  39
HETATM   39  N12 UNL     1      -2.977   2.637   0.049  1.00  0.00    -0.048 N 
ATOM     40 3H12 UNL     1      -2.119   2.938   0.512  1.00  0.00     0.276 HD
ATOM     41 2H12 UNL     1      -2.596   2.353  -0.853  1.00  0.00     0.276 HD
ATOM     42 1H12 UNL     1      -3.617   3.423  -0.064  1.00  0.00     0.276 HD
ENDBRANCH  34  39
ENDBRANCH  31  34
ENDBRANCH  10  31
TORSDOF 9
