REMARK  6 active torsions:
REMARK  status: ('A' for Active; 'I' for Inactive)
REMARK    1  A    between atoms: N1_1  and  C1_4 
REMARK    2  A    between atoms: C2_7  and  N3_8 
REMARK    3  A    between atoms: N3_8  and  N4_10 
REMARK    4  A    between atoms: C3_16  and  N7_17 
REMARK    5  A    between atoms: N7_17  and  C4_19 
REMARK    6  A    between atoms: C4_19  and  C5_20 
ROOT
HETATM    1  C1  UNL     1      -3.168   1.547   0.657  1.00  0.00     0.705 A 
HETATM    2  N2  UNL     1      -3.539   0.608  -0.246  1.00  0.00    -0.018 N 
ATOM      3  H2  UNL     1      -4.527   0.517  -0.484  1.00  0.00     0.203 HD
HETATM    4  C2  UNL     1      -2.654  -0.204  -0.837  1.00  0.00     0.747 A 
HETATM    5  N5  UNL     1      -1.362  -0.055  -0.500  1.00  0.00     0.107 N 
HETATM    6  N6  UNL     1      -0.273  -0.707  -0.916  1.00  0.00    -0.095 N 
ATOM      7  H6  UNL     1      -0.260  -1.466  -1.597  1.00  0.00     0.207 HD
HETATM    8  C3  UNL     1       0.805  -0.199  -0.290  1.00  0.00     0.709 A 
HETATM    9  N12 UNL     1       0.344   0.774   0.513  1.00  0.00    -0.018 N 
ATOM     10  H12 UNL     1       0.927   1.349   1.122  1.00  0.00     0.203 HD
HETATM   11  C6  UNL     1      -0.991   0.886   0.404  1.00  0.00     0.748 A 
HETATM   12  N13 UNL     1      -1.877   1.698   0.996  1.00  0.00    -0.019 N 
ATOM     13  H13 UNL     1      -1.584   2.401   1.675  1.00  0.00     0.203 HD
ENDROOT
BRANCH   8  14
HETATM   14  N7  UNL     1       2.022  -0.597  -0.456  1.00  0.00    -0.217 N 
ATOM     15  H7  UNL     1       2.244  -1.355  -1.102  1.00  0.00     0.178 HD
BRANCH  14  16
HETATM   16  C4  UNL     1       3.055   0.062   0.299  1.00  0.00     0.217 C 
BRANCH  16  17
HETATM   17  C5  UNL     1       4.369  -0.579   0.167  1.00  0.00     0.128 A 
HETATM   18  N8  UNL     1       4.678  -1.660  -0.551  1.00  0.00    -0.269 N 
HETATM   19  N9  UNL     1       5.969  -1.880  -0.379  1.00  0.00    -0.005 NA
ATOM     20  H8  UNL     1       4.039  -2.212  -1.124  1.00  0.00     0.185 HD
HETATM   21  N10 UNL     1       6.475  -0.954   0.436  1.00  0.00    -0.225 N 
HETATM   22  N11 UNL     1       5.483  -0.162   0.763  1.00  0.00    -0.274 N 
ATOM     23  H10 UNL     1       7.444  -0.877   0.745  1.00  0.00     0.205 HD
ATOM     24  H11 UNL     1       5.554   0.648   1.379  1.00  0.00     0.189 HD
ENDBRANCH  16  17
ENDBRANCH  14  16
ENDBRANCH   8  14
BRANCH   4  25
HETATM   25  N3  UNL     1      -3.052  -1.079  -1.686  1.00  0.00    -0.136 N 
ATOM     26  H3  UNL     1      -2.377  -1.697  -2.135  1.00  0.00     0.205 HD
BRANCH  25  27
HETATM   27  N4  UNL     1      -4.399  -1.185  -1.993  1.00  0.00    -0.331 N 
ATOM     28  H42 UNL     1      -5.061  -0.559  -1.535  1.00  0.00     0.177 HD
ATOM     29  H41 UNL     1      -4.716  -1.881  -2.668  1.00  0.00     0.177 HD
ENDBRANCH  25  27
ENDBRANCH   4  25
BRANCH   1  30
HETATM   30  N1  UNL     1      -4.020   2.331   1.228  1.00  0.00    -0.234 N 
ATOM     31  H12 UNL     1      -5.000   2.216   0.971  1.00  0.00     0.174 HD
ATOM     32  H11 UNL     1      -3.741   3.038   1.908  1.00  0.00     0.174 HD
ENDBRANCH   1  30
TORSDOF 6
