REMARK  5 active torsions:
REMARK  status: ('A' for Active; 'I' for Inactive)
REMARK    1  A    between atoms: N1_1  and  C1_4 
REMARK    2  A    between atoms: C2_7  and  C3_8 
REMARK       I    between atoms: C3_8  and  N3_10 
REMARK    3  A    between atoms: N3_10  and  C4_12 
REMARK    4  A    between atoms: C4_12  and  N4_13 
REMARK    5  A    between atoms: C7_23  and  N9_24 
ROOT
HETATM    1  C1  UNL     1      -2.623   1.504  -0.064  1.00  0.00     0.678 A 
HETATM    2  N2  UNL     1      -1.391   0.975   0.006  1.00  0.00    -0.184 N 
ATOM      3  H2  UNL     1      -0.582   1.592   0.070  1.00  0.00     0.184 HD
HETATM    4  C2  UNL     1      -1.211  -0.344  -0.007  1.00  0.00     0.144 A 
HETATM    5  C6  UNL     1      -2.336  -1.136  -0.094  1.00  0.00     0.123 A 
HETATM    6  N8  UNL     1      -2.188  -2.552  -0.111  1.00  0.00    -0.096 NA
HETATM    7  C7  UNL     1      -3.604  -0.590  -0.166  1.00  0.00     0.141 A 
HETATM    8  N10 UNL     1      -3.735   0.758  -0.150  1.00  0.00    -0.175 N 
ATOM      9  H10 UNL     1      -4.655   1.195  -0.202  1.00  0.00     0.186 HD
ENDROOT
BRANCH   4  10
HETATM   10  C3  UNL     1       0.107  -0.969   0.067  1.00  0.00     0.272 C 
HETATM   11  O1  UNL     1       0.199  -2.217   0.050  1.00  0.00    -0.266 OA
HETATM   12  N3  UNL     1       1.289  -0.198   0.158  1.00  0.00    -0.338 N 
ATOM     13  H3  UNL     1       1.228   0.820   0.173  1.00  0.00     0.164 HD
BRANCH  12  14
HETATM   14  C4  UNL     1       2.585  -0.840   0.230  1.00  0.00     0.280 C 
BRANCH  14  15
HETATM   15  N4  UNL     1       3.652   0.135   0.317  1.00  0.00    -0.210 N 
HETATM   16  N5  UNL     1       4.202   0.679   1.378  1.00  0.00    -0.218 N 
HETATM   17  N6  UNL     1       5.152   1.530   1.002  1.00  0.00    -0.002 NA
ATOM     18  H5  UNL     1       3.940   0.479   2.343  1.00  0.00     0.206 HD
HETATM   19  N7  UNL     1       5.232   1.550  -0.318  1.00  0.00    -0.233 N 
HETATM   20  C5  UNL     1       4.299   0.682  -0.746  1.00  0.00     0.356 A 
ATOM     21  H7  UNL     1       5.867   2.106  -0.890  1.00  0.00     0.189 HD
HETATM   22  O2  UNL     1       4.072   0.426  -1.963  1.00  0.00    -0.244 OA
ENDBRANCH  14  15
ENDBRANCH  12  14
ENDBRANCH   4  10
BRANCH   1  23
HETATM   23  N1  UNL     1      -2.774   2.804  -0.049  1.00  0.00    -0.234 N 
ATOM     24  H12 UNL     1      -1.929   3.371   0.016  1.00  0.00     0.174 HD
ATOM     25  H11 UNL     1      -3.710   3.206  -0.102  1.00  0.00     0.174 HD
ENDBRANCH   1  23
BRANCH   7  26
HETATM   26  N9  UNL     1      -4.652  -1.354  -0.248  1.00  0.00    -0.383 N 
ATOM     27  H92 UNL     1      -4.553  -2.369  -0.260  1.00  0.00     0.157 HD
ATOM     28  H91 UNL     1      -5.588  -0.951  -0.301  1.00  0.00     0.157 HD
ENDBRANCH   7  26
TORSDOF 5
