REMARK  8 active torsions:
REMARK  status: ('A' for Active; 'I' for Inactive)
REMARK    1  A    between atoms: O1_2  and  C2_3 
REMARK    2  A    between atoms: C4_5  and  C5_6 
REMARK    3  A    between atoms: C5_6  and  O2_7 
REMARK    4  A    between atoms: N1_9  and  C6_10 
REMARK    5  A    between atoms: C8_12  and  C9_13 
REMARK    6  A    between atoms: N3_16  and  C10_17 
REMARK    7  A    between atoms: C13_20  and  N4_21 
REMARK    8  A    between atoms: C15_28  and  N6_29 
ROOT
HETATM    1  C6  UNL     1      -0.956  -0.299  -0.240  1.00  0.00     0.059 A 
HETATM    2  C7  UNL     1       0.265  -0.924  -0.140  1.00  0.00     0.063 A 
HETATM    3  C8  UNL     1       1.445  -0.186   0.018  1.00  0.00     0.067 A 
HETATM    4  N5  UNL     1       1.351   1.151   0.069  1.00  0.00    -0.339 N 
ATOM      5  H5  UNL     1       2.208   1.692   0.184  1.00  0.00     0.167 HD
HETATM    6  C15 UNL     1       0.187   1.816  -0.024  1.00  0.00     0.128 A 
HETATM    7  C22 UNL     1      -0.979   1.062  -0.181  1.00  0.00     0.104 A 
HETATM    8 CL1  UNL     1      -2.457   1.937  -0.306  1.00  0.00    -0.078 Cl
ENDROOT
BRANCH   1   9
HETATM    9  N1  UNL     1      -2.184  -1.033  -0.397  1.00  0.00    -0.367 N 
HETATM   10  C4  UNL     1      -3.225  -1.015   0.567  1.00  0.00     0.111 C 
HETATM   11  C3  UNL     1      -4.556  -1.039  -0.104  1.00  0.00     0.065 C 
HETATM   12  C2  UNL     1      -4.759  -2.204  -1.029  1.00  0.00     0.196 C 
HETATM   13  C24 UNL     1      -3.560  -2.532  -1.854  1.00  0.00     0.284 C 
HETATM   14  C23 UNL     1      -2.318  -1.815  -1.596  1.00  0.00     0.205 C 
HETATM   15  F2  UNL     1      -3.874  -2.429  -3.222  1.00  0.00    -0.202 F 
HETATM   16  F3  UNL     1      -3.325  -3.909  -1.694  1.00  0.00    -0.202 F 
BRANCH  10  17
HETATM   17  C5  UNL     1      -3.149  -2.179   1.564  1.00  0.00     0.189 C 
BRANCH  17  18
HETATM   18  O2  UNL     1      -1.902  -2.020   2.199  1.00  0.00    -0.399 OA
ATOM     19  H2  UNL     1      -1.855  -2.741   2.816  1.00  0.00     0.209 HD
ENDBRANCH  17  18
ENDBRANCH  10  17
BRANCH  12  20
HETATM   20  O1  UNL     1      -5.217  -3.285  -0.285  1.00  0.00    -0.385 OA
HETATM   21  C1  UNL     1      -6.512  -3.595  -0.676  1.00  0.00     0.202 C 
ENDBRANCH  12  20
ENDBRANCH   1   9
BRANCH   3  22
HETATM   22  C9  UNL     1       2.720  -0.884   0.122  1.00  0.00     0.117 A 
HETATM   23  N2  UNL     1       2.975  -2.198   0.089  1.00  0.00    -0.291 N 
HETATM   24  N3  UNL     1       4.273  -2.412   0.216  1.00  0.00    -0.270 N 
ATOM     25  H2  UNL     1       2.270  -2.928  -0.018  1.00  0.00     0.187 HD
HETATM   26  C13 UNL     1       4.893  -1.226   0.335  1.00  0.00     0.158 A 
HETATM   27  C14 UNL     1       3.932  -0.251   0.278  1.00  0.00     0.191 A 
HETATM   28  F1  UNL     1       4.126   1.106   0.360  1.00  0.00    -0.199 F 
BRANCH  24  29
HETATM   29  C10 UNL     1       4.985  -3.680   0.234  1.00  0.00     0.102 C 
HETATM   30  C11 UNL     1       5.417  -4.023   1.657  1.00  0.00     0.034 C 
HETATM   31  C12 UNL     1       6.186  -3.579  -0.692  1.00  0.00     0.034 C 
ENDBRANCH  24  29
BRANCH  26  32
HETATM   32  N4  UNL     1       6.164  -1.008   0.479  1.00  0.00    -0.382 N 
ATOM     33  H42 UNL     1       6.879  -1.734   0.521  1.00  0.00     0.157 HD
ATOM     34  H41 UNL     1       6.635  -0.108   0.569  1.00  0.00     0.157 HD
ENDBRANCH  26  32
ENDBRANCH   3  22
BRANCH   6  35
HETATM   35  N6  UNL     1       0.139   3.238   0.035  1.00  0.00    -0.363 N 
HETATM   36  C16 UNL     1      -0.558   4.081   0.987  1.00  0.00     0.132 C 
HETATM   37  C17 UNL     1       0.178   5.386   1.050  1.00  0.00     0.036 C 
HETATM   38  C18 UNL     1      -0.728   6.570   0.689  1.00  0.00     0.035 C 
HETATM   39  C20 UNL     1       1.141   5.388  -0.094  1.00  0.00     0.145 C 
HETATM   40  C19 UNL     1       0.238   7.435  -0.090  1.00  0.00     0.168 C 
HETATM   41  O3  UNL     1       0.940   6.524  -0.836  1.00  0.00    -0.384 OA
HETATM   42  C21 UNL     1       0.808   4.133  -0.887  1.00  0.00     0.157 C 
ENDBRANCH   6  35
TORSDOF 8
