REMARK  6 active torsions:
REMARK  status: ('A' for Active; 'I' for Inactive)
REMARK    1  A    between atoms: C3_5  and  N2_6 
REMARK    2  A    between atoms: C4_9  and  C5_10 
REMARK    3  A    between atoms: C5_10  and  N5_14 
REMARK    4  A    between atoms: N5_14  and  N6_16 
REMARK    5  A    between atoms: C6_21  and  N8_22 
REMARK    6  A    between atoms: N8_22  and  O1_24 
ROOT
HETATM    1  N2  UNL     1      -1.021  -0.054   0.477  1.00  0.00     0.094 N 
HETATM    2  N3  UNL     1      -1.706   0.663   1.386  1.00  0.00    -0.246 N 
ATOM      3  H3  UNL     1      -1.287   1.213   2.136  1.00  0.00     0.190 HD
HETATM    4  C4  UNL     1      -3.028   0.546   1.158  1.00  0.00     0.182 A 
HETATM    5  N7  UNL     1      -3.112  -0.266   0.084  1.00  0.00    -0.167 N 
ATOM      6  H7  UNL     1      -3.988  -0.559  -0.349  1.00  0.00     0.186 HD
HETATM    7  C6  UNL     1      -1.882  -0.643  -0.347  1.00  0.00     0.742 A 
ENDROOT
BRANCH   1   8
HETATM    8  C3  UNL     1       0.387  -0.132   0.420  1.00  0.00     0.722 A 
HETATM    9  N1  UNL     1       1.020   1.074   0.320  1.00  0.00    -0.192 N 
HETATM   10  C2  UNL     1       2.351   1.114   0.248  1.00  0.00     0.042 A 
ATOM     11  H1  UNL     1       0.478   1.938   0.301  1.00  0.00     0.184 HD
HETATM   12  C1  UNL     1       3.085   2.423   0.149  1.00  0.00     0.070 C 
HETATM   13  C9  UNL     1       3.079  -0.048   0.273  1.00  0.00     0.101 A 
HETATM   14  C8  UNL     1       2.400  -1.254   0.377  1.00  0.00     0.275 A 
HETATM   15  C10 UNL     1       4.517  -0.110   0.183  1.00  0.00     0.148 A 
HETATM   16  N9  UNL     1       1.057  -1.264   0.449  1.00  0.00    -0.153 N 
HETATM   17  O2  UNL     1       3.032  -2.339   0.405  1.00  0.00    -0.267 OA
ATOM     18  H9  UNL     1       0.557  -2.150   0.526  1.00  0.00     0.187 HD
HETATM   19  N10 UNL     1       5.280  -0.141  -0.953  1.00  0.00    -0.269 N 
HETATM   20  N13 UNL     1       5.376  -0.163   1.193  1.00  0.00    -0.269 N 
HETATM   21  N11 UNL     1       6.557  -0.210  -0.593  1.00  0.00    -0.007 NA
ATOM     22  H10 UNL     1       4.929  -0.116  -1.910  1.00  0.00     0.185 HD
HETATM   23  N12 UNL     1       6.616  -0.224   0.743  1.00  0.00    -0.007 NA
ATOM     24  H13 UNL     1       5.115  -0.157   2.179  1.00  0.00     0.185 HD
ENDBRANCH   1   8
BRANCH   7  25
HETATM   25  N8  UNL     1      -1.709  -1.477  -1.476  1.00  0.00    -0.092 N 
HETATM   26  C7  UNL     1      -1.808  -0.882  -2.795  1.00  0.00     0.205 C 
BRANCH  25  27
HETATM   27  O1  UNL     1      -1.473  -2.785  -1.372  1.00  0.00    -0.274 OA
ATOM     28  H1  UNL     1      -1.357  -3.345  -2.130  1.00  0.00     0.245 HD
ENDBRANCH  25  27
ENDBRANCH   7  25
BRANCH   4  29
HETATM   29  C5  UNL     1      -4.147   1.163   1.876  1.00  0.00     0.160 C 
HETATM   30  N4  UNL     1      -3.958   1.931   2.866  1.00  0.00    -0.381 N 
ATOM     31  H42 UNL     1      -3.006   2.116   3.181  1.00  0.00     0.157 HD
ATOM     32  H41 UNL     1      -4.737   2.360   3.366  1.00  0.00     0.157 HD
BRANCH  29  33
HETATM   33  N5  UNL     1      -5.468   0.907   1.439  1.00  0.00    -0.289 N 
ATOM     34  H5  UNL     1      -6.152   1.663   1.411  1.00  0.00     0.188 HD
BRANCH  33  35
HETATM   35  N6  UNL     1      -5.833  -0.381   1.047  1.00  0.00    -0.344 N 
ATOM     36  H62 UNL     1      -5.137  -1.126   1.081  1.00  0.00     0.176 HD
ATOM     37  H61 UNL     1      -6.785  -0.566   0.732  1.00  0.00     0.176 HD
ENDBRANCH  33  35
ENDBRANCH  29  33
ENDBRANCH   4  29
TORSDOF 6
