REMARK  7 active torsions:
REMARK  status: ('A' for Active; 'I' for Inactive)
REMARK    1  A    between atoms: C3_3  and  N1_4 
REMARK    2  A    between atoms: N1_4  and  C4_6 
REMARK    3  A    between atoms: C6_15  and  N5_16 
REMARK    4  A    between atoms: C7_21  and  N7_22 
REMARK    5  A    between atoms: N10_30  and  C10_31 
REMARK    6  A    between atoms: C10_31  and  C11_32 
REMARK    7  A    between atoms: C11_32  and  O3_34 
ROOT
HETATM    1  C4  UNL     1       1.832   0.181   0.584  1.00  0.00     0.356 C 
HETATM    2  N2  UNL     1       1.822  -0.230   1.954  1.00  0.00    -0.234 N 
ATOM      3  H2  UNL     1       1.077  -0.814   2.334  1.00  0.00     0.194 HD
HETATM    4  O1  UNL     1       2.822   0.185   2.696  1.00  0.00    -0.143 OA
HETATM    5  N3  UNL     1       3.927  -0.454   2.249  1.00  0.00    -0.070 N 
ATOM      6  H3  UNL     1       4.517  -1.043   2.837  1.00  0.00     0.215 HD
HETATM    7  C5  UNL     1       4.180  -0.211   0.847  1.00  0.00     0.738 A 
HETATM    8  N4  UNL     1       5.429  -0.295   0.387  1.00  0.00    -0.019 N 
ATOM      9  H4  UNL     1       6.188  -0.551   1.018  1.00  0.00     0.203 HD
HETATM   10  C6  UNL     1       5.690  -0.040  -0.918  1.00  0.00     0.705 A 
HETATM   11  N6  UNL     1       4.667   0.294  -1.718  1.00  0.00    -0.022 N 
ATOM     12  H6  UNL     1       4.851   0.488  -2.702  1.00  0.00     0.203 HD
HETATM   13  C7  UNL     1       3.408   0.380  -1.260  1.00  0.00     0.710 A 
HETATM   14  N8  UNL     1       3.171   0.124   0.031  1.00  0.00     0.030 N 
ENDROOT
BRANCH   1  15
HETATM   15  N1  UNL     1       0.878  -0.551  -0.210  1.00  0.00    -0.334 N 
ATOM     16  H1  UNL     1       1.290  -1.144  -0.930  1.00  0.00     0.165 HD
BRANCH  15  17
HETATM   17  C3  UNL     1      -0.501  -0.583  -0.158  1.00  0.00     0.133 A 
HETATM   18  C2  UNL     1      -1.385   0.059   0.655  1.00  0.00     0.056 A 
HETATM   19  C1  UNL     1      -1.127   1.010   1.754  1.00  0.00     0.072 C 
HETATM   20  N10 UNL     1      -2.667  -0.304   0.316  1.00  0.00    -0.297 N 
HETATM   21  C9  UNL     1      -2.573  -1.167  -0.702  1.00  0.00     0.330 A 
HETATM   22  N9  UNL     1      -1.284  -1.341  -0.994  1.00  0.00    -0.288 N 
HETATM   23  O2  UNL     1      -3.566  -1.695  -1.254  1.00  0.00    -0.246 OA
HETATM   24  C8  UNL     1      -0.839  -2.230  -2.067  1.00  0.00     0.163 C 
BRANCH  20  25
HETATM   25  C10 UNL     1      -3.875   0.151   0.937  1.00  0.00     0.165 C 
BRANCH  25  26
HETATM   26  C11 UNL     1      -4.457   1.396   0.319  1.00  0.00     0.132 C 
HETATM   27  C12 UNL     1      -4.804   1.220  -1.131  1.00  0.00     0.041 C 
BRANCH  26  28
HETATM   28  O3  UNL     1      -5.633   1.691   1.003  1.00  0.00    -0.394 OA
ATOM     29  H3  UNL     1      -6.000   2.476   0.613  1.00  0.00     0.210 HD
ENDBRANCH  26  28
ENDBRANCH  25  26
ENDBRANCH  20  25
ENDBRANCH  15  17
ENDBRANCH   1  15
BRANCH  13  30
HETATM   30  N7  UNL     1       2.464   0.731  -2.098  1.00  0.00    -0.233 N 
ATOM     31  H72 UNL     1       2.645   0.926  -3.083  1.00  0.00     0.174 HD
ATOM     32  H71 UNL     1       1.507   0.796  -1.750  1.00  0.00     0.174 HD
ENDBRANCH  13  30
BRANCH  10  33
HETATM   33  N5  UNL     1       6.894  -0.126  -1.342  1.00  0.00    -0.234 N 
ATOM     34  H52 UNL     1       7.672  -0.380  -0.733  1.00  0.00     0.174 HD
ATOM     35  H51 UNL     1       7.090   0.066  -2.324  1.00  0.00     0.174 HD
ENDBRANCH  10  33
TORSDOF 7
