REMARK  10 active torsions:
REMARK  status: ('A' for Active; 'I' for Inactive)
REMARK    1  A    between atoms: C1_2  and  C2_3 
REMARK    2  A    between atoms: C2_3  and  C3_4 
REMARK    3  A    between atoms: C3_4  and  N1_5 
REMARK    4  A    between atoms: N1_5  and  C4_7 
REMARK    5  A    between atoms: N3_11  and  C6_13 
REMARK    6  A    between atoms: C12_22  and  N5_23 
REMARK    7  A    between atoms: N5_23  and  C13_25 
REMARK    8  A    between atoms: C16_28  and  C17_29 
REMARK    9  A    between atoms: C17_29  and  N6_30 
REMARK   10  A    between atoms: N6_30  and  C18_32 
ROOT
HETATM    1  C4  UNL     1       3.711  -1.464   0.186  1.00  0.00     0.710 A 
HETATM    2  N2  UNL     1       4.374  -0.369  -0.153  1.00  0.00    -0.021 N 
ATOM      3  H2  UNL     1       5.391  -0.385  -0.071  1.00  0.00     0.203 HD
HETATM    4  C5  UNL     1       3.801   0.759  -0.596  1.00  0.00     0.711 A 
HETATM    5  N3  UNL     1       4.437   1.823  -0.944  1.00  0.00    -0.191 N 
ATOM      6  H3  UNL     1       3.900   2.627  -1.270  1.00  0.00     0.184 HD
HETATM    7  N4  UNL     1       2.435   0.719  -0.684  1.00  0.00    -0.021 N 
ATOM      8  H4  UNL     1       1.957   1.556  -1.016  1.00  0.00     0.203 HD
HETATM    9  C12 UNL     1       1.689  -0.334  -0.367  1.00  0.00     0.707 A 
HETATM   10  N7  UNL     1       2.342  -1.435   0.073  1.00  0.00    -0.021 N 
ATOM     11  H7  UNL     1       1.804  -2.264   0.327  1.00  0.00     0.203 HD
ENDROOT
BRANCH   9  12
HETATM   12  N5  UNL     1       0.429  -0.412  -0.460  1.00  0.00    -0.220 N 
ATOM     13  H5  UNL     1       0.014  -1.298  -0.171  1.00  0.00     0.178 HD
BRANCH  12  14
HETATM   14  C13 UNL     1      -0.491   0.593  -0.922  1.00  0.00     0.099 C 
HETATM   15  C14 UNL     1      -0.729   1.631   0.138  1.00  0.00     0.026 C 
HETATM   16  C15 UNL     1      -1.876   1.273   1.037  1.00  0.00     0.012 C 
HETATM   17  C16 UNL     1      -3.152   1.310   0.154  1.00  0.00     0.024 C 
HETATM   18  C24 UNL     1      -3.010   0.204  -0.817  1.00  0.00     0.012 C 
HETATM   19  C25 UNL     1      -1.714  -0.003  -1.488  1.00  0.00     0.026 C 
BRANCH  17  20
HETATM   20  C17 UNL     1      -4.267   1.114   1.126  1.00  0.00     0.060 C 
BRANCH  20  21
HETATM   21  N6  UNL     1      -5.589   1.094   0.722  1.00  0.00    -0.397 N 
ATOM     22  H6  UNL     1      -6.173   1.892   0.972  1.00  0.00     0.159 HD
BRANCH  21  23
HETATM   23  C18 UNL     1      -6.181   0.058  -0.005  1.00  0.00     0.081 C 
HETATM   24  C19 UNL     1      -7.324   0.661  -0.844  1.00  0.00     0.031 C 
HETATM   25  C20 UNL     1      -8.299  -0.395  -1.223  1.00  0.00     0.081 C 
HETATM   26  C21 UNL     1      -7.781  -1.795  -1.240  1.00  0.00     0.243 C 
HETATM   27  F3  UNL     1      -6.961  -1.944  -2.355  1.00  0.00    -0.206 F 
HETATM   28  F4  UNL     1      -8.857  -2.638  -1.460  1.00  0.00    -0.206 F 
HETATM   29  C22 UNL     1      -7.106  -2.198   0.034  1.00  0.00     0.081 C 
HETATM   30  C23 UNL     1      -6.885  -0.970   0.893  1.00  0.00     0.031 C 
ENDBRANCH  21  23
ENDBRANCH  20  21
ENDBRANCH  17  20
ENDBRANCH  12  14
ENDBRANCH   9  12
BRANCH   1  31
HETATM   31  N1  UNL     1       4.212  -2.549   0.593  1.00  0.00    -0.204 N 
ATOM     32  H1  UNL     1       3.519  -3.268   0.799  1.00  0.00     0.183 HD
BRANCH  31  33
HETATM   33  C3  UNL     1       5.538  -2.961   0.818  1.00  0.00     0.081 C 
BRANCH  33  34
HETATM   34  C2  UNL     1       6.002  -2.899   2.254  1.00  0.00     0.076 C 
BRANCH  34  35
HETATM   35  C1  UNL     1       5.961  -1.495   2.802  1.00  0.00     0.227 C 
HETATM   36  F1  UNL     1       6.395  -1.507   4.105  1.00  0.00    -0.255 F 
ENDBRANCH  34  35
ENDBRANCH  33  34
ENDBRANCH  31  33
ENDBRANCH   1  31
BRANCH   5  37
HETATM   37  C6  UNL     1       5.818   1.926  -0.896  1.00  0.00     0.052 A 
HETATM   38  C7  UNL     1       6.389   2.830   0.005  1.00  0.00     0.030 A 
HETATM   39  C8  UNL     1       7.749   3.001   0.110  1.00  0.00     0.005 A 
HETATM   40  C9  UNL     1       8.594   2.279  -0.677  1.00  0.00     0.042 A 
HETATM   41  C10 UNL     1       8.040   1.371  -1.584  1.00  0.00     0.118 A 
HETATM   42  F2  UNL     1       8.874   0.649  -2.361  1.00  0.00    -0.206 F 
HETATM   43  C11 UNL     1       6.671   1.202  -1.686  1.00  0.00     0.072 A 
ENDBRANCH   5  37
TORSDOF 10
