REMARK  8 active torsions:
REMARK  status: ('A' for Active; 'I' for Inactive)
REMARK    1  A    between atoms: N1_2  and  C2_4 
REMARK    2  A    between atoms: C7_11  and  N3_12 
REMARK    3  A    between atoms: N3_12  and  C8_14 
REMARK    4  A    between atoms: C8_14  and  C9_15 
REMARK    5  A    between atoms: N4_18  and  C12_19 
REMARK    6  A    between atoms: C14_24  and  O1_25 
REMARK    7  A    between atoms: O1_25  and  C15_26 
REMARK    8  A    between atoms: C15_26  and  C16_27 
ROOT
HETATM    1  C9  UNL     1       0.378  -1.936   1.340  1.00  0.00     0.105 C 
HETATM    2  C10 UNL     1       0.856  -2.908   2.386  1.00  0.00     0.047 C 
HETATM    3  C11 UNL     1       1.446  -1.660   3.018  1.00  0.00     0.127 C 
HETATM    4  N4  UNL     1       1.480  -1.041   1.703  1.00  0.00    -0.358 N 
ENDROOT
BRANCH   1   5
HETATM    5  C8  UNL     1      -0.988  -1.388   1.712  1.00  0.00     0.146 C 
BRANCH   5   6
HETATM    6  N3  UNL     1      -1.439  -0.469   0.723  1.00  0.00    -0.373 N 
ATOM      7  H3  UNL     1      -0.792   0.290   0.510  1.00  0.00     0.161 HD
BRANCH   6   8
HETATM    8  C7  UNL     1      -2.527  -0.453   0.066  1.00  0.00     0.124 A 
HETATM    9  C5  UNL     1      -2.704   0.586  -0.855  1.00  0.00     0.005 A 
HETATM   10  C3  UNL     1      -3.843   0.700  -1.619  1.00  0.00     0.032 A 
HETATM   11  C6  UNL     1      -1.630   1.588  -1.008  1.00  0.00     0.054 C 
HETATM   12  N2  UNL     1      -4.819  -0.203  -1.486  1.00  0.00    -0.195 N 
HETATM   13  C4  UNL     1      -4.036   1.800  -2.599  1.00  0.00     0.069 C 
HETATM   14  C2  UNL     1      -4.652  -1.199  -0.605  1.00  0.00     0.679 A 
ATOM     15  H2  UNL     1      -5.671  -0.136  -2.042  1.00  0.00     0.184 HD
HETATM   16  N7  UNL     1      -3.532  -1.331   0.162  1.00  0.00    -0.176 N 
ATOM     17  H7  UNL     1      -3.460  -2.109   0.817  1.00  0.00     0.186 HD
BRANCH  14  18
HETATM   18  N1  UNL     1      -5.586  -2.100  -0.450  1.00  0.00    -0.230 N 
HETATM   19  C1  UNL     1      -6.813  -2.053  -1.215  1.00  0.00     0.165 C 
ATOM     20  H1  UNL     1      -5.447  -2.852   0.225  1.00  0.00     0.177 HD
ENDBRANCH  14  18
ENDBRANCH   6   8
ENDBRANCH   5   6
ENDBRANCH   1   5
BRANCH   4  21
HETATM   21  C12 UNL     1       2.235  -0.028   1.053  1.00  0.00     0.145 A 
HETATM   22  N5  UNL     1       2.406   1.268   1.326  1.00  0.00    -0.280 N 
HETATM   23  N6  UNL     1       3.217   1.825   0.419  1.00  0.00    -0.272 N 
ATOM     24  H5  UNL     1       1.981   1.761   2.111  1.00  0.00     0.189 HD
HETATM   25  C13 UNL     1       3.602   3.233   0.437  1.00  0.00     0.180 C 
HETATM   26  C14 UNL     1       3.607   0.910  -0.482  1.00  0.00     0.185 A 
HETATM   27  C17 UNL     1       2.994  -0.264  -0.092  1.00  0.00     0.131 A 
HETATM   28 CL1  UNL     1       3.184  -1.778  -0.948  1.00  0.00    -0.075 Cl
BRANCH  26  29
HETATM   29  O1  UNL     1       4.453   1.159  -1.558  1.00  0.00    -0.324 OA
BRANCH  29  30
HETATM   30  C15 UNL     1       5.824   0.870  -1.351  1.00  0.00     0.294 C 
BRANCH  30  31
HETATM   31  C16 UNL     1       6.682   1.157  -2.537  1.00  0.00     0.408 C 
HETATM   32  F1  UNL     1       6.266   0.394  -3.628  1.00  0.00    -0.169 F 
HETATM   33  F2  UNL     1       6.809   2.480  -2.819  1.00  0.00    -0.169 F 
HETATM   34  F3  UNL     1       7.961   0.672  -2.230  1.00  0.00    -0.169 F 
ENDBRANCH  30  31
ENDBRANCH  29  30
ENDBRANCH  26  29
ENDBRANCH   4  21
TORSDOF 8
