REMARK  6 active torsions:
REMARK  status: ('A' for Active; 'I' for Inactive)
REMARK    1  A    between atoms: C2_2  and  C4_4 
REMARK    2  A    between atoms: C4_4  and  N1_5 
REMARK    3  A    between atoms: C7_15  and  N5_16 
REMARK    4  A    between atoms: C12_22  and  C13_23 
REMARK    5  A    between atoms: C14_27  and  C15_28 
REMARK    6  A    between atoms: C15_28  and  N6_29 
ROOT
HETATM    1  N1  UNL     1       2.663  -0.205   1.011  1.00  0.00    -0.374 N 
ATOM      2  H1  UNL     1       2.541  -1.185   0.756  1.00  0.00     0.161 HD
HETATM    3  C5  UNL     1       1.701   0.645   0.904  1.00  0.00     0.130 A 
HETATM    4  N2  UNL     1       1.752   1.959   1.208  1.00  0.00    -0.283 N 
ATOM      5  H2  UNL     1       2.598   2.467   1.467  1.00  0.00     0.188 HD
HETATM    6  N3  UNL     1       0.554   2.488   1.122  1.00  0.00    -0.283 N 
ATOM      7  H3  UNL     1       0.328   3.466   1.303  1.00  0.00     0.188 HD
HETATM    8  C6  UNL     1      -0.332   1.539   0.758  1.00  0.00     0.136 A 
HETATM    9  N4  UNL     1      -1.647   1.556   0.608  1.00  0.00    -0.326 N 
ATOM     10  H4  UNL     1      -2.141   2.441   0.719  1.00  0.00     0.169 HD
HETATM   11  C7  UNL     1      -2.379   0.419   0.306  1.00  0.00     0.119 A 
HETATM   12  C12 UNL     1      -1.740  -0.779   0.147  1.00  0.00     0.082 A 
HETATM   13  C14 UNL     1      -0.342  -0.786   0.296  1.00  0.00     0.005 A 
HETATM   14  C18 UNL     1       0.354   0.352   0.605  1.00  0.00     0.063 A 
ENDROOT
BRANCH   1  15
HETATM   15  C4  UNL     1       3.923   0.297   1.510  1.00  0.00     0.125 C 
BRANCH  15  16
HETATM   16  C2  UNL     1       5.054   0.040   0.549  1.00  0.00    -0.005 C 
HETATM   17  C1  UNL     1       6.315   0.662   1.080  1.00  0.00     0.011 C 
HETATM   18  C3  UNL     1       4.741   0.481  -0.841  1.00  0.00     0.011 C 
ENDBRANCH  15  16
ENDBRANCH   1  15
BRANCH  13  19
HETATM   19  C15 UNL     1       0.334  -2.088   0.062  1.00  0.00     0.312 C 
BRANCH  19  20
HETATM   20  N6  UNL     1       0.304  -2.434  -1.358  1.00  0.00     0.084 N 
HETATM   21  C16 UNL     1       0.567  -1.332  -2.204  1.00  0.00     0.309 C 
HETATM   22  C17 UNL     1       1.199  -3.525  -1.591  1.00  0.00     0.309 C 
ENDBRANCH  19  20
ENDBRANCH  13  19
BRANCH  12  23
HETATM   23  C13 UNL     1      -2.491  -2.020  -0.129  1.00  0.00     0.353 C 
HETATM   24  F1  UNL     1      -3.110  -2.078  -1.349  1.00  0.00    -0.182 F 
HETATM   25  F2  UNL     1      -1.923  -3.197   0.242  1.00  0.00    -0.182 F 
HETATM   26 CL1  UNL     1      -3.932  -2.007   1.013  1.00  0.00    -0.042 Cl
ENDBRANCH  12  23
BRANCH  11  27
HETATM   27  N5  UNL     1      -3.748   0.712   0.152  1.00  0.00    -0.363 N 
HETATM   28  C8  UNL     1      -4.502   0.607  -1.044  1.00  0.00     0.150 C 
HETATM   29  C9  UNL     1      -5.168   2.009  -1.206  1.00  0.00     0.187 C 
HETATM   30  O1  UNL     1      -6.041   2.276  -0.193  1.00  0.00    -0.388 OA
HETATM   31  C10 UNL     1      -5.843   1.490   0.916  1.00  0.00     0.187 C 
HETATM   32  C11 UNL     1      -4.391   1.309   1.307  1.00  0.00     0.150 C 
ENDBRANCH  11  27
TORSDOF 6
