REMARK  7 active torsions:
REMARK  status: ('A' for Active; 'I' for Inactive)
REMARK    1  A    between atoms: C2_2  and  C3_3 
REMARK    2  A    between atoms: C3_3  and  N1_4 
REMARK    3  A    between atoms: N2_12  and  C10_13 
REMARK    4  A    between atoms: C12_15  and  O1_16 
REMARK    5  A    between atoms: O1_16  and  C13_17 
REMARK       I    between atoms: C13_17  and  N3_19 
REMARK    6  A    between atoms: N3_19  and  C14_21 
REMARK    7  A    between atoms: C14_21  and  C15_22 
ROOT
HETATM    1  N1  UNL     1      -3.814   0.525   0.429  1.00  0.00     0.105 N 
HETATM    2  C4  UNL     1      -4.807   1.628   0.537  1.00  0.00     0.294 C 
HETATM    3  C5  UNL     1      -4.923   2.224  -0.824  1.00  0.00     0.113 C 
HETATM    4 CL1  UNL     1      -5.341   3.949  -0.763  1.00  0.00    -0.123 Cl
HETATM    5  C6  UNL     1      -3.521   2.112  -1.358  1.00  0.00     0.070 C 
HETATM    6  C7  UNL     1      -2.877   1.042  -0.473  1.00  0.00     0.201 C 
HETATM    7  C8  UNL     1      -2.212   0.083  -1.435  1.00  0.00     0.068 C 
HETATM    8  C9  UNL     1      -0.927  -0.459  -0.820  1.00  0.00     0.120 C 
HETATM    9  N2  UNL     1       0.073   0.585  -0.954  1.00  0.00    -0.403 N 
HETATM   10  C17 UNL     1      -0.431   1.863  -0.536  1.00  0.00     0.172 C 
HETATM   11  C18 UNL     1      -1.703   1.665   0.257  1.00  0.00     0.037 C 
HETATM   12  N4  UNL     1      -1.725   2.011   1.443  1.00  0.00    -0.402 N 
ATOM     13  H41 UNL     1      -0.935   2.430   1.934  1.00  0.00     0.155 HD
ATOM     14  H42 UNL     1      -2.583   1.877   1.978  1.00  0.00     0.155 HD
ENDROOT
BRANCH   9  15
HETATM   15  C10 UNL     1       1.353   0.209  -0.553  1.00  0.00     0.084 C 
HETATM   16  C11 UNL     1       1.645  -0.129   0.889  1.00  0.00     0.057 C 
HETATM   17  C12 UNL     1       3.103   0.281   0.586  1.00  0.00     0.137 C 
HETATM   18  C16 UNL     1       2.462   1.181  -0.513  1.00  0.00     0.057 C 
BRANCH  17  19
HETATM   19  O1  UNL     1       3.862  -0.743   0.029  1.00  0.00    -0.298 OA
BRANCH  19  20
HETATM   20  C13 UNL     1       5.217  -0.882   0.307  1.00  0.00     0.361 C 
HETATM   21  O2  UNL     1       5.787  -0.069   1.064  1.00  0.00    -0.239 OA
HETATM   22  N3  UNL     1       5.942  -1.947  -0.277  1.00  0.00    -0.328 N 
ATOM     23  H3  UNL     1       5.412  -2.577  -0.879  1.00  0.00     0.165 HD
BRANCH  22  24
HETATM   24  C14 UNL     1       7.317  -2.240  -0.123  1.00  0.00     0.242 C 
BRANCH  24  25
HETATM   25  C15 UNL     1       8.313  -1.254  -0.606  1.00  0.00     0.403 C 
HETATM   26  F1  UNL     1       8.087  -1.092  -1.982  1.00  0.00    -0.169 F 
HETATM   27  F2  UNL     1       8.334  -0.047  -0.015  1.00  0.00    -0.169 F 
HETATM   28  F3  UNL     1       9.619  -1.790  -0.505  1.00  0.00    -0.169 F 
ENDBRANCH  24  25
ENDBRANCH  22  24
ENDBRANCH  19  20
ENDBRANCH  17  19
ENDBRANCH   9  15
BRANCH   1  29
HETATM   29  C3  UNL     1      -4.577  -0.623   0.128  1.00  0.00     0.273 C 
BRANCH  29  30
HETATM   30  C2  UNL     1      -3.989  -1.971   0.223  1.00  0.00     0.026 C 
HETATM   31  C1  UNL     1      -3.471  -2.303   1.614  1.00  0.00     0.007 C 
ENDBRANCH  29  30
ENDBRANCH   1  29
TORSDOF 7
