REMARK  6 active torsions:
REMARK  status: ('A' for Active; 'I' for Inactive)
REMARK    1  A    between atoms: C2_2  and  C3_3 
REMARK    2  A    between atoms: C5_5  and  N1_6 
REMARK       I    between atoms: N1_6  and  C6_8 
REMARK    3  A    between atoms: C6_8  and  C7_10 
REMARK    4  A    between atoms: N2_15  and  C10_16 
REMARK    5  A    between atoms: C10_16  and  N3_17 
REMARK    6  A    between atoms: C13_21  and  O2_22 
ROOT
HETATM    1  C3  UNL     1      -0.279  -0.576   0.309  1.00  0.00    -0.009 C 
HETATM    2  C4  UNL     1      -1.197  -0.170  -0.825  1.00  0.00     0.077 C 
HETATM    3  C5  UNL     1      -2.101   0.972  -0.425  1.00  0.00     0.091 C 
HETATM    4  C8  UNL     1      -1.416   2.009   0.403  1.00  0.00     0.045 C 
HETATM    5  C9  UNL     1      -0.638   1.364   1.528  1.00  0.00     0.131 C 
HETATM    6  N2  UNL     1       0.370   0.445   0.966  1.00  0.00    -0.350 N 
ENDROOT
BRANCH   6   7
HETATM    7  C10 UNL     1       1.420   1.224   0.534  1.00  0.00     0.193 C 
BRANCH   7   8
HETATM    8  N3  UNL     1       2.690   0.662   0.194  1.00  0.00    -0.282 N 
HETATM    9  C11 UNL     1       3.592   0.391   1.140  1.00  0.00     0.128 A 
HETATM   10  C12 UNL     1       4.796  -0.157   0.824  1.00  0.00     0.085 A 
HETATM   11 CL3  UNL     1       6.026  -0.538   2.020  1.00  0.00    -0.080 Cl
HETATM   12  C13 UNL     1       5.101  -0.439  -0.473  1.00  0.00     0.116 A 
HETATM   13  C14 UNL     1       4.195  -0.171  -1.461  1.00  0.00     0.137 A 
HETATM   14 CL4  UNL     1       4.565  -0.527  -3.142  1.00  0.00    -0.075 Cl
HETATM   15  C15 UNL     1       2.969   0.394  -1.085  1.00  0.00     0.277 A 
HETATM   16  O3  UNL     1       2.195   0.611  -2.053  1.00  0.00    -0.266 OA
BRANCH  12  17
HETATM   17  O2  UNL     1       6.339  -1.007  -0.826  1.00  0.00    -0.357 OA
ATOM     18  H2  UNL     1       6.552  -1.204  -1.731  1.00  0.00     0.217 HD
ENDBRANCH  12  17
ENDBRANCH   7   8
ENDBRANCH   6   7
BRANCH   1  19
HETATM   19  C2  UNL     1       0.423  -1.827  -0.079  1.00  0.00     0.048 C 
HETATM   20  C1  UNL     1      -0.687  -2.888  -0.296  1.00  0.00     0.011 C 
ENDBRANCH   1  19
BRANCH   3  21
HETATM   21  N1  UNL     1      -3.294   0.523   0.243  1.00  0.00    -0.354 N 
HETATM   22  C6  UNL     1      -4.591   0.712  -0.307  1.00  0.00     0.251 C 
HETATM   23  O1  UNL     1      -4.765   1.289  -1.421  1.00  0.00    -0.271 OA
ATOM     24  H1  UNL     1      -3.206   0.052   1.144  1.00  0.00     0.162 HD
BRANCH  22  25
HETATM   25  C7  UNL     1      -5.786   0.233   0.417  1.00  0.00     0.269 C 
HETATM   26 CL1  UNL     1      -7.272   0.595  -0.489  1.00  0.00    -0.098 Cl
HETATM   27 CL2  UNL     1      -5.707  -1.517   0.650  1.00  0.00    -0.098 Cl
ENDBRANCH  22  25
ENDBRANCH   3  21
TORSDOF 6
