REMARK  8 active torsions:
REMARK  status: ('A' for Active; 'I' for Inactive)
REMARK    1  A    between atoms: C2_2  and  C3_3 
REMARK    2  A    between atoms: C3_3  and  C4_4 
REMARK    3  A    between atoms: C4_4  and  C5_5 
REMARK    4  A    between atoms: C7_7  and  N1_8 
REMARK    5  A    between atoms: N1_8  and  C8_10 
REMARK    6  A    between atoms: C8_10  and  C9_11 
REMARK    7  A    between atoms: C12_16  and  N3_17 
REMARK    8  A    between atoms: N3_17  and  C13_19 
ROOT
HETATM    1  C13 UNL     1      -0.785   4.069  -0.903  1.00  0.00     0.262 C 
HETATM    2  C14 UNL     1      -1.635   4.206   0.284  1.00  0.00     0.079 C 
HETATM    3  N4  UNL     1      -2.315   4.303   1.232  1.00  0.00    -0.196 NA
ENDROOT
BRANCH   1   4
HETATM    4  N3  UNL     1       0.315   3.201  -0.599  1.00  0.00    -0.214 N 
ATOM      5  H3  UNL     1       1.230   3.616  -0.426  1.00  0.00     0.178 HD
BRANCH   4   6
HETATM    6  C12 UNL     1       0.196   1.897  -0.534  1.00  0.00     0.680 A 
HETATM    7  N2  UNL     1       1.286   1.176  -0.242  1.00  0.00    -0.177 N 
HETATM    8  C7  UNL     1       1.169  -0.158  -0.174  1.00  0.00     0.118 A 
ATOM      9  H2  UNL     1       2.184   1.631  -0.075  1.00  0.00     0.185 HD
HETATM   10  C6  UNL     1      -0.015  -0.825  -0.390  1.00  0.00     0.074 A 
HETATM   11  C5  UNL     1      -1.121  -0.047  -0.689  1.00  0.00     0.030 A 
HETATM   12  N5  UNL     1      -0.963   1.268  -0.746  1.00  0.00    -0.196 N 
ATOM     13  H5  UNL     1      -1.780   1.837  -0.966  1.00  0.00     0.184 HD
BRANCH   8  14
HETATM   14  N1  UNL     1       2.206  -0.854   0.103  1.00  0.00    -0.375 N 
ATOM     15  H1  UNL     1       2.101  -1.868   0.149  1.00  0.00     0.161 HD
BRANCH  14  16
HETATM   16  C8  UNL     1       3.518  -0.299   0.355  1.00  0.00     0.126 C 
BRANCH  16  17
HETATM   17  C9  UNL     1       4.485  -1.452   0.447  1.00  0.00     0.003 A 
HETATM   18  C10 UNL     1       5.925  -1.218   0.699  1.00  0.00     0.007 A 
HETATM   19  C11 UNL     1       5.485  -1.517  -0.690  1.00  0.00     0.007 A 
ENDBRANCH  16  17
ENDBRANCH  14  16
ENDBRANCH   8  14
BRANCH  11  20
HETATM   20  C4  UNL     1      -2.405  -0.746  -0.924  1.00  0.00     0.058 C 
BRANCH  20  21
HETATM   21  C3  UNL     1      -3.144  -0.884   0.395  1.00  0.00     0.006 C 
BRANCH  21  22
HETATM   22  C2  UNL     1      -4.459  -1.599   0.155  1.00  0.00    -0.004 C 
HETATM   23  C1  UNL     1      -5.159  -1.715   1.491  1.00  0.00     0.005 C 
ENDBRANCH  21  22
ENDBRANCH  20  21
ENDBRANCH  11  20
ENDBRANCH   4   6
ENDBRANCH   1   4
TORSDOF 8
