REMARK  7 active torsions:
REMARK  status: ('A' for Active; 'I' for Inactive)
REMARK    1  A    between atoms: C2_2  and  C4_4 
REMARK    2  A    between atoms: C2_2  and  C5_7 
REMARK    3  A    between atoms: C4_4  and  O1_5 
REMARK    4  A    between atoms: C5_7  and  N1_8 
REMARK    5  A    between atoms: C8_11  and  C9_12 
REMARK    6  A    between atoms: C9_12  and  C10_13 
REMARK    7  A    between atoms: C11_14  and  C12_15 
ROOT
HETATM    1  N1  UNL     1      -1.192  -0.892   0.273  1.00  0.00     0.089 N 
HETATM    2  C6  UNL     1      -0.072  -1.009   1.222  1.00  0.00     0.272 C 
HETATM    3  C7  UNL     1       1.022  -1.895   0.802  1.00  0.00     0.035 C 
HETATM    4  C8  UNL     1       1.656  -1.324  -0.462  1.00  0.00    -0.008 C 
HETATM    5  C13 UNL     1       0.554  -1.233  -1.454  1.00  0.00     0.035 C 
HETATM    6  C14 UNL     1      -0.652  -0.431  -0.970  1.00  0.00     0.272 C 
ENDROOT
BRANCH   4   7
HETATM    7  C9  UNL     1       2.292   0.027  -0.199  1.00  0.00     0.031 C 
BRANCH   7   8
HETATM    8  C10 UNL     1       2.896   0.509  -1.452  1.00  0.00    -0.023 C 
HETATM    9  C11 UNL     1       4.131   0.783  -1.693  1.00  0.00     0.040 C 
BRANCH   9  10
HETATM   10  C12 UNL     1       5.242   0.684  -0.787  1.00  0.00     0.109 C 
HETATM   11  N2  UNL     1       6.460   1.016  -1.208  1.00  0.00    -0.388 N 
ATOM     12  H22 UNL     1       6.481   1.326  -2.180  1.00  0.00     0.157 HD
ATOM     13  H21 UNL     1       7.249   0.946  -0.565  1.00  0.00     0.157 HD
HETATM   14  N3  UNL     1       5.213   0.256   0.555  1.00  0.00    -0.083 NA
ENDBRANCH   9  10
ENDBRANCH   7   8
ENDBRANCH   4   7
BRANCH   1  15
HETATM   15  C5  UNL     1      -2.033   0.105   0.872  1.00  0.00     0.283 C 
BRANCH  15  16
HETATM   16  C2  UNL     1      -3.373   0.374   0.361  1.00  0.00     0.000 C 
HETATM   17  C1  UNL     1      -3.434   0.859  -1.048  1.00  0.00     0.019 C 
HETATM   18  C3  UNL     1      -4.323  -0.816   0.538  1.00  0.00     0.019 C 
BRANCH  16  19
HETATM   19  C4  UNL     1      -4.060   1.488   1.199  1.00  0.00     0.174 C 
BRANCH  19  20
HETATM   20  O1  UNL     1      -3.396   2.680   1.058  1.00  0.00    -0.400 OA
ATOM     21  H1  UNL     1      -3.816   3.361   1.570  1.00  0.00     0.209 HD
ENDBRANCH  19  20
ENDBRANCH  16  19
ENDBRANCH  15  16
ENDBRANCH   1  15
TORSDOF 7
