REMARK  6 active torsions:
REMARK  status: ('A' for Active; 'I' for Inactive)
REMARK    1  A    between atoms: C2_2  and  C3_3 
REMARK    2  A    between atoms: C3_3  and  O1_4 
REMARK    3  A    between atoms: C3_3  and  C4_6 
REMARK    4  A    between atoms: C4_6  and  C5_8 
REMARK    5  A    between atoms: C4_6  and  S1_10 
REMARK    6  A    between atoms: S1_10  and  C7_12 
ROOT
HETATM    1  C7  UNL     1      -0.414   1.356   0.508  1.00  0.00     0.178 A 
HETATM    2  N1  UNL     1      -0.995   2.396  -0.115  1.00  0.00    -0.344 N 
ATOM      3  H1  UNL     1      -0.473   3.269  -0.199  1.00  0.00     0.167 HD
HETATM    4  C8  UNL     1      -2.233   2.335  -0.632  1.00  0.00     0.107 A 
HETATM    5  C9  UNL     1      -2.942   1.163  -0.523  1.00  0.00     0.048 A 
HETATM    6  C10 UNL     1      -2.374   0.077   0.110  1.00  0.00     0.054 A 
HETATM    7  N2  UNL     1      -1.133   0.223   0.598  1.00  0.00    -0.335 N 
ATOM      8  H2  UNL     1      -0.707  -0.576   1.067  1.00  0.00     0.168 HD
HETATM    9  C11 UNL     1      -3.335  -1.063   0.098  1.00  0.00     0.068 A 
HETATM   10  C12 UNL     1      -2.732  -2.246  -0.650  1.00  0.00     0.045 C 
HETATM   11  C13 UNL     1      -3.612  -1.489   1.536  1.00  0.00     0.045 C 
HETATM   12  N3  UNL     1      -4.495  -0.586  -0.576  1.00  0.00    -0.362 N 
ATOM     13  H3  UNL     1      -5.343  -1.124  -0.753  1.00  0.00     0.162 HD
HETATM   14  C14 UNL     1      -4.277   0.750  -0.957  1.00  0.00     0.109 A 
HETATM   15  N4  UNL     1      -5.098   1.519  -1.587  1.00  0.00    -0.385 N 
ATOM     16  H41 UNL     1      -6.029   1.231  -1.890  1.00  0.00     0.157 HD
ATOM     17  H42 UNL     1      -4.940   2.488  -1.863  1.00  0.00     0.157 HD
ENDROOT
BRANCH   1  18
HETATM   18  S1  UNL     1       1.192   1.467   1.166  1.00  0.00     0.127 S 
HETATM   19  O2  UNL     1       1.368   0.675   2.610  1.00  0.00    -0.246 OA
BRANCH  18  20
HETATM   20  C4  UNL     1       2.428   0.999  -0.019  1.00  0.00     0.212 C 
HETATM   21  F1  UNL     1       2.205   1.670  -1.204  1.00  0.00    -0.225 F 
BRANCH  20  22
HETATM   22  C3  UNL     1       2.296  -0.481  -0.254  1.00  0.00     0.171 C 
BRANCH  22  23
HETATM   23  C2  UNL     1       3.272  -1.006  -1.267  1.00  0.00     0.031 C 
HETATM   24  C1  UNL     1       3.040  -2.512  -1.368  1.00  0.00     0.007 C 
ENDBRANCH  22  23
BRANCH  22  25
HETATM   25  O1  UNL     1       2.575  -1.140   0.962  1.00  0.00    -0.391 OA
ATOM     26  H1  UNL     1       1.957  -0.808   1.603  1.00  0.00     0.210 HD
ENDBRANCH  22  25
ENDBRANCH  20  22
BRANCH  20  27
HETATM   27  C5  UNL     1       3.786   1.382   0.499  1.00  0.00     0.056 C 
HETATM   28  C6  UNL     1       3.824   2.877   0.704  1.00  0.00     0.009 C 
ENDBRANCH  20  27
ENDBRANCH  18  20
ENDBRANCH   1  18
TORSDOF 6
