REMARK  8 active torsions:
REMARK  status: ('A' for Active; 'I' for Inactive)
REMARK    1  A    between atoms: C2_2  and  S1_3 
REMARK    2  A    between atoms: C2_2  and  C15_21 
REMARK    3  A    between atoms: S1_3  and  C3_4 
REMARK    4  A    between atoms: C5_6  and  C6_7 
REMARK    5  A    between atoms: C6_7  and  N1_8 
REMARK    6  A    between atoms: N1_8  and  C7_11 
REMARK    7  A    between atoms: C15_21  and  O2_22 
REMARK    8  A    between atoms: N2_24  and  O3_26 
ROOT
HETATM    1  C3  UNL     1      -1.023   0.533   0.851  1.00  0.00     0.018 C 
HETATM    2  C4  UNL     1      -0.333   1.516  -0.074  1.00  0.00     0.033 C 
HETATM    3  C5  UNL     1       0.894   0.627   0.195  1.00  0.00    -0.009 C 
HETATM    4  C10 UNL     1       1.123   0.896   1.649  1.00  0.00     0.018 C 
HETATM    5  C11 UNL     1      -0.291   0.583   2.173  1.00  0.00     0.005 C 
HETATM    6  C12 UNL     1      -0.263  -0.865   2.566  1.00  0.00     0.007 C 
HETATM    7  C13 UNL     1       0.080  -1.528   1.225  1.00  0.00     0.007 C 
HETATM    8  C14 UNL     1      -0.106  -0.503   0.164  1.00  0.00     0.015 C 
ENDROOT
BRANCH   1   9
HETATM    9  S1  UNL     1      -2.730   0.318   0.817  1.00  0.00    -0.145 SA
BRANCH   9  10
HETATM   10  C2  UNL     1      -3.492  -0.392  -0.622  1.00  0.00     0.120 C 
HETATM   11  C1  UNL     1      -3.351   0.549  -1.798  1.00  0.00     0.030 C 
BRANCH  10  12
HETATM   12  C15 UNL     1      -4.965  -0.534  -0.363  1.00  0.00     0.149 C 
HETATM   13  N2  UNL     1      -5.522  -1.693  -0.369  1.00  0.00    -0.250 N 
ATOM     14  H2  UNL     1      -4.948  -2.516  -0.553  1.00  0.00     0.196 HD
BRANCH  12  15
HETATM   15  O2  UNL     1      -5.751   0.573  -0.113  1.00  0.00    -0.347 OA
ATOM     16  H2  UNL     1      -6.682   0.483   0.051  1.00  0.00     0.219 HD
ENDBRANCH  12  15
BRANCH  13  17
HETATM   17  O3  UNL     1      -6.853  -1.856  -0.138  1.00  0.00    -0.288 OA
ATOM     18  H3  UNL     1      -7.264  -2.712  -0.142  1.00  0.00     0.244 HD
ENDBRANCH  13  17
ENDBRANCH  10  12
ENDBRANCH   9  10
ENDBRANCH   1   9
BRANCH   3  19
HETATM   19  C6  UNL     1       1.990   0.698  -0.746  1.00  0.00     0.243 C 
BRANCH  19  20
HETATM   20  N1  UNL     1       3.068  -0.189  -0.352  1.00  0.00    -0.063 N 
ATOM     21  H12 UNL     1       3.360  -0.018   0.610  1.00  0.00     0.277 HD
ATOM     22  H11 UNL     1       2.743  -1.150  -0.250  1.00  0.00     0.277 HD
BRANCH  20  23
HETATM   23  C7  UNL     1       4.191  -0.101  -1.273  1.00  0.00     0.269 C 
HETATM   24  C8  UNL     1       5.346  -0.952  -0.728  1.00  0.00     0.209 C 
HETATM   25  O1  UNL     1       5.824   0.168  -0.046  1.00  0.00    -0.352 OA
HETATM   26  C9  UNL     1       5.188   0.976  -0.958  1.00  0.00     0.339 C 
HETATM   27  F1  UNL     1       5.985   1.252  -2.056  1.00  0.00    -0.217 F 
ENDBRANCH  20  23
ENDBRANCH  19  20
ENDBRANCH   3  19
TORSDOF 8
