REMARK  6 active torsions:
REMARK  status: ('A' for Active; 'I' for Inactive)
REMARK       I    between atoms: C1_4  and  N3_6 
REMARK       I    between atoms: N3_6  and  C2_8 
REMARK    1  A    between atoms: C2_8  and  C3_10 
REMARK    2  A    between atoms: C3_10  and  O2_11 
REMARK    3  A    between atoms: O2_11  and  C4_12 
REMARK    4  A    between atoms: C4_12  and  C5_13 
REMARK    5  A    between atoms: C7_15  and  N4_16 
REMARK    6  A    between atoms: C8_21  and  N5_22 
ROOT
HETATM    1  C5  UNL     1      -1.897   0.126  -0.405  1.00  0.00     0.053 C 
HETATM    2  C6  UNL     1      -3.221   0.879  -0.308  1.00  0.00     0.053 C 
HETATM    3  C7  UNL     1      -4.278  -0.115  -0.006  1.00  0.00     0.247 C 
HETATM    4  S1  UNL     1      -3.441  -1.326   1.054  1.00  0.00    -0.103 SA
HETATM    5  C8  UNL     1      -1.725  -0.660   0.833  1.00  0.00     0.252 C 
ENDROOT
BRANCH   1   6
HETATM    6  C4  UNL     1      -0.838   1.132  -0.645  1.00  0.00     0.175 C 
BRANCH   6   7
HETATM    7  O2  UNL     1       0.438   0.812  -0.799  1.00  0.00    -0.382 OA
BRANCH   7   8
HETATM    8  C3  UNL     1       1.233   0.242   0.109  1.00  0.00     0.270 C 
BRANCH   8   9
HETATM    9  C2  UNL     1       2.646   0.069  -0.387  1.00  0.00     0.247 C 
HETATM   10  N3  UNL     1       3.585  -0.517   0.467  1.00  0.00    -0.300 N 
HETATM   11  C1  UNL     1       4.923  -0.688   0.014  1.00  0.00     0.188 C 
ATOM     12  H3  UNL     1       3.314  -0.818   1.403  1.00  0.00     0.171 HD
HETATM   13  N1  UNL     1       5.777  -1.225   0.801  1.00  0.00    -0.373 N 
HETATM   14  N2  UNL     1       5.293  -0.269  -1.281  1.00  0.00    -0.064 NA
ATOM     15  H12 UNL     1       6.736  -1.348   0.476  1.00  0.00     0.158 HD
ATOM     16  H11 UNL     1       5.509  -1.528   1.737  1.00  0.00     0.158 HD
HETATM   17  O1  UNL     1       2.929   0.445  -1.518  1.00  0.00    -0.271 OA
ENDBRANCH   8   9
ENDBRANCH   7   8
ENDBRANCH   6   7
ENDBRANCH   1   6
BRANCH   5  18
HETATM   18  N5  UNL     1      -1.469   0.089   2.024  1.00  0.00    -0.066 N 
ATOM     19  H53 UNL     1      -0.660   0.694   1.884  1.00  0.00     0.275 HD
ATOM     20  H52 UNL     1      -2.201   0.787   2.157  1.00  0.00     0.275 HD
ATOM     21  H51 UNL     1      -1.350  -0.454   2.879  1.00  0.00     0.275 HD
ENDBRANCH   5  18
BRANCH   3  22
HETATM   22  N4  UNL     1      -4.842  -0.770  -1.142  1.00  0.00    -0.066 N 
ATOM     23  H43 UNL     1      -5.190  -0.080  -1.807  1.00  0.00     0.275 HD
ATOM     24  H42 UNL     1      -4.105  -1.201  -1.700  1.00  0.00     0.275 HD
ATOM     25  H41 UNL     1      -5.569  -1.454  -0.934  1.00  0.00     0.275 HD
ENDBRANCH   3  22
TORSDOF 6
