REMARK  4 active torsions:
REMARK  status: ('A' for Active; 'I' for Inactive)
REMARK    1  A    between atoms: C2_2  and  S1_3 
REMARK    2  A    between atoms: S1_3  and  C3_4 
REMARK    3  A    between atoms: C4_8  and  C5_9 
REMARK    4  A    between atoms: C6_13  and  N3_14 
REMARK       I    between atoms: N3_14  and  C7_16 
ROOT
HETATM    1  C3  UNL     1      -0.343  -0.364  -0.654  1.00  0.00     0.209 C 
HETATM    2  N1  UNL     1      -0.642  -1.482   0.217  1.00  0.00    -0.123 NA
HETATM    3  N2  UNL     1       0.485  -2.145   0.656  1.00  0.00    -0.301 N 
ATOM      4  H2  UNL     1       0.612  -3.149   0.527  1.00  0.00     0.179 HD
HETATM    5  C4  UNL     1       1.463  -1.328   1.304  1.00  0.00     0.337 C 
HETATM    6  O3  UNL     1       1.057   0.014   1.170  1.00  0.00    -0.328 OA
HETATM    7  C6  UNL     1       0.981   0.223  -0.226  1.00  0.00     0.258 C 
ENDROOT
BRANCH   7   8
HETATM    8  N3  UNL     1       1.032   1.628  -0.545  1.00  0.00    -0.316 N 
HETATM    9  C7  UNL     1       2.067   2.203  -1.294  1.00  0.00     0.330 C 
HETATM   10  N4  UNL     1       2.058   3.589  -1.572  1.00  0.00    -0.040 NA
HETATM   11  O4  UNL     1       2.997   1.482  -1.714  1.00  0.00    -0.251 OA
ATOM     12  H3  UNL     1       0.280   2.231  -0.210  1.00  0.00     0.166 HD
ENDBRANCH   7   8
BRANCH   1  13
HETATM   13  S1  UNL     1      -1.586   0.937  -0.540  1.00  0.00    -0.142 SA
BRANCH  13  14
HETATM   14  C2  UNL     1      -3.197   0.424  -1.164  1.00  0.00     0.071 C 
HETATM   15  C1  UNL     1      -3.808  -0.660  -0.308  1.00  0.00     0.016 C 
ENDBRANCH  13  14
ENDBRANCH   1  13
BRANCH   5  16
HETATM   16  C5  UNL     1       1.684  -1.667   2.715  1.00  0.00     0.225 C 
HETATM   17  O1  UNL     1       1.041  -2.602   3.246  1.00  0.00    -0.645 OA
HETATM   18  O2  UNL     1       2.616  -0.930   3.435  1.00  0.00    -0.645 OA
ENDBRANCH   5  16
TORSDOF 4
