REMARK  10 active torsions:
REMARK  status: ('A' for Active; 'I' for Inactive)
REMARK    1  A    between atoms: C2_2  and  O1_3 
REMARK    2  A    between atoms: C2_2  and  C3_5 
REMARK    3  A    between atoms: C3_5  and  N1_6 
REMARK    4  A    between atoms: C3_5  and  C4_10 
REMARK    5  A    between atoms: C4_10  and  O2_11 
REMARK    6  A    between atoms: C4_10  and  C5_13 
REMARK    7  A    between atoms: C7_15  and  N2_16 
REMARK    8  A    between atoms: C8_20  and  N3_21 
REMARK    9  A    between atoms: N3_21  and  N4_23 
REMARK   10  A    between atoms: N4_23  and  N5_24 
ROOT
HETATM    1  C5  UNL     1       0.447  -0.031   0.130  1.00  0.00     0.218 C 
HETATM    2  C6  UNL     1       0.714  -0.037  -1.327  1.00  0.00     0.070 C 
HETATM    3  C7  UNL     1       2.108   0.567  -1.546  1.00  0.00     0.212 C 
HETATM    4  C8  UNL     1       3.094  -0.384  -0.945  1.00  0.00     0.170 C 
HETATM    5  C9  UNL     1       2.763  -0.641   0.504  1.00  0.00     0.262 C 
HETATM    6  N6  UNL     1       1.403  -0.990   0.725  1.00  0.00    -0.066 N 
ATOM      7  H61 UNL     1       1.215  -1.938   0.399  1.00  0.00     0.277 HD
ATOM      8  H62 UNL     1       1.218  -1.114   1.720  1.00  0.00     0.277 HD
ENDROOT
BRANCH   1   9
HETATM    9  C4  UNL     1      -0.903  -0.598   0.522  1.00  0.00     0.181 C 
BRANCH   9  10
HETATM   10  C3  UNL     1      -2.072   0.264   0.204  1.00  0.00     0.242 C 
BRANCH  10  11
HETATM   11  C2  UNL     1      -3.319  -0.425   0.763  1.00  0.00     0.147 C 
HETATM   12  C1  UNL     1      -4.536   0.457   0.579  1.00  0.00     0.041 C 
BRANCH  11  13
HETATM   13  O1  UNL     1      -3.166  -0.628   2.127  1.00  0.00    -0.394 OA
ATOM     14  H1  UNL     1      -2.402  -1.181   2.242  1.00  0.00     0.210 HD
ENDBRANCH  11  13
ENDBRANCH  10  11
BRANCH  10  15
HETATM   15  N1  UNL     1      -2.341   0.437  -1.209  1.00  0.00    -0.070 N 
ATOM     16  H13 UNL     1      -2.587  -0.427  -1.692  1.00  0.00     0.274 HD
ATOM     17  H12 UNL     1      -3.210   0.933  -1.406  1.00  0.00     0.274 HD
ATOM     18  H11 UNL     1      -1.510   0.896  -1.582  1.00  0.00     0.274 HD
ENDBRANCH  10  15
ENDBRANCH   9  10
BRANCH   9  19
HETATM   19  O2  UNL     1      -0.851  -0.617   1.948  1.00  0.00    -0.391 OA
ATOM     20  H2  UNL     1      -0.104  -1.168   2.151  1.00  0.00     0.210 HD
ENDBRANCH   9  19
ENDBRANCH   1   9
BRANCH   3  21
HETATM   21  N2  UNL     1       2.196   1.891  -0.970  1.00  0.00    -0.073 N 
ATOM     22  H23 UNL     1       1.461   2.504  -1.322  1.00  0.00     0.274 HD
ATOM     23  H22 UNL     1       1.937   1.890   0.017  1.00  0.00     0.274 HD
ATOM     24  H21 UNL     1       3.122   2.292  -1.116  1.00  0.00     0.274 HD
ENDBRANCH   3  21
BRANCH   4  25
HETATM   25  N3  UNL     1       4.431   0.205  -0.991  1.00  0.00    -0.244 N 
ATOM     26  H3  UNL     1       4.680   0.935  -1.659  1.00  0.00     0.197 HD
BRANCH  25  27
HETATM   27  N4  UNL     1       5.247  -0.242  -0.162  1.00  0.00    -0.248 NA
BRANCH  27  28
HETATM   28  N5  UNL     1       5.939  -0.420   0.861  1.00  0.00    -0.261 N 
ATOM     29  H52 UNL     1       5.537   0.372   1.362  1.00  0.00     0.193 HD
ATOM     30  H51 UNL     1       6.607  -0.786   1.540  1.00  0.00     0.193 HD
ENDBRANCH  27  28
ENDBRANCH  25  27
ENDBRANCH   4  25
TORSDOF 10
