REMARK  3 active torsions:
REMARK  status: ('A' for Active; 'I' for Inactive)
REMARK    1  A    between atoms: C5_8  and  C6_9 
REMARK    2  A    between atoms: C6_9  and  O1_10 
REMARK    3  A    between atoms: C7_12  and  O2_13 
ROOT
HETATM    1  C1  UNL     1      -2.627   1.776   0.185  1.00  0.00     0.125 C 
HETATM    2  N1  UNL     1      -1.847   0.908  -0.636  1.00  0.00    -0.252 NA
HETATM    3  S1  UNL     1      -2.533  -0.648  -1.014  1.00  0.00    -0.060 SA
HETATM    4  C2  UNL     1      -1.153  -0.966   0.123  1.00  0.00     0.086 C 
HETATM    5  C3  UNL     1      -1.728  -1.235   1.521  1.00  0.00     0.042 C 
HETATM    6  S2  UNL     1      -0.094  -2.299  -0.374  1.00  0.00    -0.145 SA
HETATM    7  C4  UNL     1       1.478  -1.719  -1.021  1.00  0.00     0.084 C 
HETATM    8  C5  UNL     1       1.709  -0.279  -0.707  1.00  0.00     0.049 C 
HETATM    9  C7  UNL     1       0.523   0.603  -0.925  1.00  0.00     0.146 C 
HETATM   10  C8  UNL     1      -0.617   0.395  -0.007  1.00  0.00     0.128 C 
ENDROOT
BRANCH   8  11
HETATM   11  C6  UNL     1       2.344  -0.069   0.658  1.00  0.00     0.172 C 
BRANCH  11  12
HETATM   12  O1  UNL     1       2.514   1.280   0.853  1.00  0.00    -0.400 OA
ATOM     13  H1  UNL     1       2.911   1.411   1.706  1.00  0.00     0.209 HD
ENDBRANCH  11  12
ENDBRANCH   8  11
BRANCH   9  14
HETATM   14  O2  UNL     1       0.178   0.505  -2.286  1.00  0.00    -0.393 OA
ATOM     15  H2  UNL     1      -0.576   1.066  -2.425  1.00  0.00     0.210 HD
ENDBRANCH   9  14
TORSDOF 3
