REMARK  3 active torsions:
REMARK  status: ('A' for Active; 'I' for Inactive)
REMARK    1  A    between atoms: C2_2  and  N1_5 
REMARK    2  A    between atoms: C5_7  and  C6_8 
REMARK    3  A    between atoms: C5_7  and  N6_15 
ROOT
HETATM    1  N1  UNL     1       0.787  -0.526  -0.199  1.00  0.00    -0.365 N 
ATOM      2  H1  UNL     1       0.530  -1.503  -0.060  1.00  0.00     0.162 HD
HETATM    3  C5  UNL     1      -0.141   0.205   0.154  1.00  0.00     0.147 C 
ENDROOT
BRANCH   3   4
HETATM    4  C6  UNL     1      -0.180   1.649   0.121  1.00  0.00     0.175 C 
HETATM    5  N2  UNL     1       0.711   2.510  -0.271  1.00  0.00    -0.267 N 
HETATM    6  N3  UNL     1       0.259   3.815  -0.131  1.00  0.00    -0.007 NA
ATOM      7  H2  UNL     1       1.629   2.258  -0.637  1.00  0.00     0.185 HD
HETATM    8  N4  UNL     1      -1.140   3.775   0.110  1.00  0.00    -0.007 NA
HETATM    9  N5  UNL     1      -1.287   2.440   0.548  1.00  0.00    -0.267 N 
ATOM     10  H5  UNL     1      -2.075   2.091   1.093  1.00  0.00     0.185 HD
ENDBRANCH   3   4
BRANCH   3  11
HETATM   11  N6  UNL     1      -1.326  -0.480   0.659  1.00  0.00    -0.364 N 
HETATM   12  C7  UNL     1      -1.388  -1.397   1.781  1.00  0.00     0.124 C 
HETATM   13  C8  UNL     1      -2.533  -2.350   1.425  1.00  0.00     0.021 C 
HETATM   14  C9  UNL     1      -3.067  -1.866   0.093  1.00  0.00     0.021 C 
HETATM   15  C10 UNL     1      -2.675  -0.386   0.145  1.00  0.00     0.124 C 
ENDBRANCH   3  11
BRANCH   1  16
HETATM   16  C2  UNL     1       2.075  -0.445  -0.727  1.00  0.00     0.021 C 
HETATM   17  C1  UNL     1       2.189   0.284  -2.055  1.00  0.00     0.037 C 
HETATM   18  C3  UNL     1       2.726  -1.820  -0.911  1.00  0.00     0.037 C 
HETATM   19  C4  UNL     1       2.992   0.273   0.275  1.00  0.00     0.037 C 
ENDBRANCH   1  16
TORSDOF 3
