REMARK  4 active torsions:
REMARK  status: ('A' for Active; 'I' for Inactive)
REMARK    1  A    between atoms: N1_2  and  N2_3 
REMARK    2  A    between atoms: N1_2  and  C2_6 
REMARK    3  A    between atoms: C2_6  and  N3_8 
REMARK    4  A    between atoms: N3_8  and  N4_10 
ROOT
HETATM    1  N4  UNL     1      -0.031  -1.082  -0.655  1.00  0.00    -0.307 N 
ATOM      2  H4  UNL     1      -0.042  -2.048  -0.981  1.00  0.00     0.186 HD
HETATM    3  C3  UNL     1       1.098  -0.513  -0.428  1.00  0.00     0.004 C 
HETATM    4  C4  UNL     1       2.323  -1.310  -0.658  1.00  0.00     0.060 C 
HETATM    5  C5  UNL     1       3.502  -0.798   0.117  1.00  0.00     0.084 C 
HETATM    6  C6  UNL     1       3.593   0.701  -0.148  1.00  0.00     0.244 C 
HETATM    7  F1  UNL     1       4.753   1.145   0.438  1.00  0.00    -0.206 F 
HETATM    8  F2  UNL     1       3.584   0.896  -1.508  1.00  0.00    -0.206 F 
HETATM    9  C7  UNL     1       2.437   1.347   0.542  1.00  0.00     0.084 C 
HETATM   10  C8  UNL     1       1.096   0.889   0.044  1.00  0.00     0.060 C 
ENDROOT
BRANCH   1  11
HETATM   11  N3  UNL     1      -1.240  -0.417  -0.468  1.00  0.00    -0.275 N 
ATOM     12  H3  UNL     1      -1.265   0.596  -0.586  1.00  0.00     0.189 HD
BRANCH  11  13
HETATM   13  C2  UNL     1      -2.431  -1.087  -0.122  1.00  0.00     0.206 C 
HETATM   14  S1  UNL     1      -2.446  -2.697   0.078  1.00  0.00    -0.038 SA
BRANCH  13  15
HETATM   15  N1  UNL     1      -3.630  -0.375   0.056  1.00  0.00    -0.277 N 
HETATM   16  C1  UNL     1      -3.587   1.076  -0.131  1.00  0.00     0.179 C 
BRANCH  15  17
HETATM   17  N2  UNL     1      -4.823  -1.026   0.400  1.00  0.00    -0.341 N 
ATOM     18  H22 UNL     1      -5.693  -0.509   0.529  1.00  0.00     0.177 HD
ATOM     19  H21 UNL     1      -4.853  -2.037   0.530  1.00  0.00     0.177 HD
ENDBRANCH  15  17
ENDBRANCH  13  15
ENDBRANCH  11  13
ENDBRANCH   1  11
TORSDOF 4
