REMARK  1 active torsions:
REMARK  status: ('A' for Active; 'I' for Inactive)
REMARK    1  A    between atoms: C5_10  and  C6_11 
ROOT
HETATM    1  N1  UNL     1      -1.596  -2.788  -0.650  1.00  0.00    -0.388 N 
ATOM      2  H11 UNL     1      -2.481  -2.698  -1.150  1.00  0.00     0.157 HD
ATOM      3  H12 UNL     1      -1.675  -3.795  -0.789  1.00  0.00     0.157 HD
HETATM    4  C1  UNL     1      -0.786  -1.952  -0.106  1.00  0.00     0.088 C 
HETATM    5  N2  UNL     1       0.441  -2.077   0.587  1.00  0.00    -0.352 N 
ATOM      6  H2  UNL     1       0.886  -2.792   1.162  1.00  0.00     0.163 HD
HETATM    7  C2  UNL     1       0.788  -0.760   0.131  1.00  0.00     0.122 C 
HETATM    8  C3  UNL     1       1.526  -0.701  -1.183  1.00  0.00     0.061 C 
HETATM    9  C4  UNL     1       2.211   0.633  -1.091  1.00  0.00     0.062 C 
HETATM   10  C5  UNL     1       2.375   0.805   0.379  1.00  0.00     0.049 C 
HETATM   11  N3  UNL     1       1.583   0.029   1.019  1.00  0.00    -0.365 N 
ATOM     12  H3  UNL     1       1.526  -0.020   2.036  1.00  0.00     0.161 HD
HETATM   13  C7  UNL     1      -0.671  -0.482   0.097  1.00  0.00     0.083 C 
HETATM   14  C8  UNL     1      -1.183   0.363  -1.024  1.00  0.00     0.026 C 
HETATM   15  C9  UNL     1      -2.675   0.535  -0.890  1.00  0.00     0.028 C 
HETATM   16  C10 UNL     1      -3.089   0.938   0.503  1.00  0.00     0.167 C 
HETATM   17  O1  UNL     1      -1.954   1.129   1.324  1.00  0.00    -0.390 OA
HETATM   18  C11 UNL     1      -1.261  -0.076   1.408  1.00  0.00     0.189 C 
ENDROOT
BRANCH  10  19
HETATM   19  C6  UNL     1       3.354   1.774   0.951  1.00  0.00     0.398 C 
HETATM   20  F1  UNL     1       4.642   1.447   0.533  1.00  0.00    -0.208 F 
HETATM   21  F2  UNL     1       3.357   1.747   2.331  1.00  0.00    -0.208 F 
ENDBRANCH  10  19
TORSDOF 1
