REMARK  4 active torsions:
REMARK  status: ('A' for Active; 'I' for Inactive)
REMARK    1  A    between atoms: C5_8  and  C6_9 
REMARK    2  A    between atoms: C6_9  and  O2_10 
REMARK    3  A    between atoms: C8_13  and  O3_14 
REMARK    4  A    between atoms: C9_16  and  C10_17 
ROOT
HETATM    1  C1  UNL     1      -2.379  -1.056  -0.514  1.00  0.00     0.011 C 
HETATM    2  C2  UNL     1      -1.873  -0.150   0.590  1.00  0.00    -0.006 C 
HETATM    3  C3  UNL     1      -1.138  -0.900   1.657  1.00  0.00     0.060 C 
HETATM    4  C4  UNL     1       0.321  -0.981   1.392  1.00  0.00     0.019 C 
HETATM    5  N1  UNL     1       1.176  -1.816   1.806  1.00  0.00    -0.274 N 
ATOM      6  H1  UNL     1       0.960  -2.600   2.422  1.00  0.00     0.193 HD
HETATM    7  O1  UNL     1       2.448  -1.532   1.317  1.00  0.00    -0.272 OA
HETATM    8  C5  UNL     1       2.152  -0.925   0.047  1.00  0.00     0.188 C 
HETATM    9  C7  UNL     1       1.049  -0.011   0.534  1.00  0.00     0.096 C 
HETATM   10  C8  UNL     1       0.209   0.529  -0.589  1.00  0.00     0.136 C 
HETATM   11  C9  UNL     1      -1.078   1.011   0.042  1.00  0.00     0.033 C 
ENDROOT
BRANCH   8  12
HETATM   12  C6  UNL     1       3.328  -0.182  -0.500  1.00  0.00     0.199 C 
BRANCH  12  13
HETATM   13  O2  UNL     1       3.703   0.815   0.367  1.00  0.00    -0.398 OA
ATOM     14  H2  UNL     1       4.450   1.287   0.019  1.00  0.00     0.209 HD
ENDBRANCH  12  13
ENDBRANCH   8  12
BRANCH  10  15
HETATM   15  O3  UNL     1       0.019  -0.423  -1.563  1.00  0.00    -0.394 OA
ATOM     16  H3  UNL     1      -0.512  -0.082  -2.273  1.00  0.00     0.210 HD
ENDBRANCH  10  15
BRANCH  11  17
HETATM   17  C10 UNL     1      -1.879   1.888  -0.842  1.00  0.00     0.122 C 
HETATM   18 CL1  UNL     1      -3.249   2.549   0.074  1.00  0.00    -0.130 Cl
ENDBRANCH  11  17
TORSDOF 4
