REMARK  11 active torsions:
REMARK  status: ('A' for Active; 'I' for Inactive)
REMARK       I    between atoms: N1_2  and  C3_4 
REMARK    1  A    between atoms: C3_4  and  C4_6 
REMARK    2  A    between atoms: C4_6  and  S1_7 
REMARK    3  A    between atoms: S1_7  and  C5_8 
REMARK    4  A    between atoms: C8_14  and  C9_15 
REMARK    5  A    between atoms: C11_18  and  C12_19 
REMARK    6  A    between atoms: C12_19  and  O2_20 
REMARK    7  A    between atoms: C12_19  and  N3_22 
REMARK    8  A    between atoms: N3_22  and  C13_24 
REMARK    9  A    between atoms: C13_24  and  C14_25 
REMARK   10  A    between atoms: C14_25  and  C15_26 
REMARK   11  A    between atoms: C15_26  and  O3_27 
ROOT
HETATM    1  C9  UNL     1       1.740   0.892  -1.233  1.00  0.00    -0.047 C 
HETATM    2  C10 UNL     1       2.141   1.377  -2.294  1.00  0.00     0.010 C 
HETATM    3 CL2  UNL     1       2.687   2.074  -3.773  1.00  0.00    -0.023 Cl
ENDROOT
BRANCH   1   4
HETATM    4  C8  UNL     1       1.220   0.320   0.038  1.00  0.00     0.056 A 
HETATM    5  C7  UNL     1      -0.082   0.476   0.439  1.00  0.00     0.057 A 
HETATM    6  C6  UNL     1      -1.128   1.159  -0.211  1.00  0.00     0.120 A 
HETATM    7  C16 UNL     1      -0.437  -0.094   1.617  1.00  0.00     0.091 A 
HETATM    8  N2  UNL     1      -2.349   1.214   0.326  1.00  0.00    -0.327 N 
HETATM    9 CL1  UNL     1      -0.871   1.973  -1.762  1.00  0.00    -0.063 Cl
HETATM   10  C5  UNL     1      -2.687   0.652   1.482  1.00  0.00     0.146 A 
ATOM     11  H2  UNL     1      -3.071   1.721  -0.185  1.00  0.00     0.169 HD
HETATM   12  N4  UNL     1      -1.708  -0.012   2.135  1.00  0.00    -0.330 N 
ATOM     13  H4  UNL     1      -1.915  -0.460   3.028  1.00  0.00     0.168 HD
HETATM   14  S2  UNL     1       0.991  -0.828   2.162  1.00  0.00    -0.066 SA
HETATM   15  C11 UNL     1       2.058  -0.385   0.838  1.00  0.00     0.077 A 
BRANCH  10  16
HETATM   16  S1  UNL     1      -4.326   0.745   2.177  1.00  0.00    -0.085 SA
BRANCH  16  17
HETATM   17  C4  UNL     1      -5.389   1.683   1.067  1.00  0.00     0.185 C 
BRANCH  17  18
HETATM   18  C3  UNL     1      -5.600   0.917  -0.177  1.00  0.00     0.228 C 
HETATM   19  N1  UNL     1      -6.652  -0.051  -0.258  1.00  0.00    -0.360 N 
HETATM   20  C1  UNL     1      -7.487  -0.254   0.888  1.00  0.00     0.152 C 
HETATM   21  C2  UNL     1      -6.866  -0.805  -1.470  1.00  0.00     0.152 C 
HETATM   22  O1  UNL     1      -4.887   1.071  -1.199  1.00  0.00    -0.273 OA
ENDBRANCH  17  18
ENDBRANCH  16  17
ENDBRANCH  10  16
BRANCH  15  23
HETATM   23  C12 UNL     1       3.461  -0.773   0.798  1.00  0.00     0.154 C 
BRANCH  23  24
HETATM   24  O2  UNL     1       3.910  -1.476   1.803  1.00  0.00    -0.345 OA
ATOM     25  H2  UNL     1       4.825  -1.729   1.777  1.00  0.00     0.219 HD
ENDBRANCH  23  24
BRANCH  23  26
HETATM   26  N3  UNL     1       4.419  -0.503  -0.169  1.00  0.00    -0.370 N 
ATOM     27  H3  UNL     1       4.158   0.041  -0.992  1.00  0.00     0.161 HD
BRANCH  26  28
HETATM   28  C13 UNL     1       5.808  -0.986  -0.032  1.00  0.00     0.123 C 
BRANCH  28  29
HETATM   29  C14 UNL     1       6.585  -0.527  -1.236  1.00  0.00     0.045 C 
BRANCH  29  30
HETATM   30  C15 UNL     1       8.016  -1.041  -1.067  1.00  0.00     0.165 C 
BRANCH  30  31
HETATM   31  O3  UNL     1       8.590  -0.538   0.087  1.00  0.00    -0.401 OA
ATOM     32  H3  UNL     1       9.479  -0.857   0.192  1.00  0.00     0.209 HD
ENDBRANCH  30  31
ENDBRANCH  29  30
ENDBRANCH  28  29
ENDBRANCH  26  28
ENDBRANCH  23  26
ENDBRANCH  15  23
ENDBRANCH   1   4
TORSDOF 11
