REMARK  4 active torsions:
REMARK  status: ('A' for Active; 'I' for Inactive)
REMARK    1  A    between atoms: C3_3  and  C4_4 
REMARK    2  A    between atoms: C10_12  and  C11_13 
REMARK    3  A    between atoms: C17_19  and  C18_20 
REMARK    4  A    between atoms: C22_24  and  C23_25 
ROOT
HETATM    1  C1  UNL     1      -0.494  -2.256   1.269  1.00  0.00     0.052 C 
HETATM    2  C2  UNL     1      -1.198  -1.121   0.593  1.00  0.00    -0.021 A 
HETATM    3  C3  UNL     1      -2.461  -1.046   0.062  1.00  0.00     0.050 A 
HETATM    4  N1  UNL     1      -2.612   0.216  -0.456  1.00  0.00    -0.354 N 
ATOM      5  H1  UNL     1      -3.456   0.556  -0.917  1.00  0.00     0.166 HD
HETATM    6  C10 UNL     1      -1.504   0.938  -0.274  1.00  0.00     0.054 A 
HETATM    7  C17 UNL     1      -0.601   0.136   0.377  1.00  0.00     0.010 A 
ENDROOT
BRANCH   7   8
HETATM    8  C18 UNL     1       0.761   0.495   0.796  1.00  0.00    -0.022 A 
HETATM    9  C19 UNL     1       0.959   1.444   1.800  1.00  0.00     0.012 A 
HETATM   10  C20 UNL     1       2.216   1.822   2.221  1.00  0.00     0.002 A 
HETATM   11  C21 UNL     1       3.317   1.241   1.627  1.00  0.00     0.012 A 
HETATM   12  C22 UNL     1       3.162   0.285   0.617  1.00  0.00    -0.025 A 
HETATM   13  C28 UNL     1       1.898  -0.050   0.241  1.00  0.00     0.024 A 
BRANCH  12  14
HETATM   14  C23 UNL     1       4.374  -0.264   0.060  1.00  0.00    -0.023 A 
HETATM   15  C24 UNL     1       4.418  -0.667  -1.252  1.00  0.00     0.029 A 
HETATM   16  C25 UNL     1       5.584  -1.201  -1.807  1.00  0.00     0.088 A 
HETATM   17  N2  UNL     1       6.680  -1.318  -1.031  1.00  0.00    -0.375 N 
HETATM   18  C26 UNL     1       6.666  -0.933   0.251  1.00  0.00     0.088 A 
ATOM     19  H2  UNL     1       7.535  -1.707  -1.428  1.00  0.00     0.164 HD
HETATM   20  C27 UNL     1       5.515  -0.401   0.816  1.00  0.00     0.029 A 
ENDBRANCH  12  14
ENDBRANCH   7   8
BRANCH   6  21
HETATM   21  C11 UNL     1      -1.237   2.326  -0.669  1.00  0.00    -0.009 A 
HETATM   22  C12 UNL     1      -0.261   2.673  -1.571  1.00  0.00     0.014 A 
HETATM   23  C13 UNL     1      -0.061   4.003  -1.899  1.00  0.00     0.001 A 
HETATM   24  C14 UNL     1      -0.873   4.951  -1.289  1.00  0.00     0.000 A 
HETATM   25  C15 UNL     1      -1.851   4.606  -0.385  1.00  0.00     0.001 A 
HETATM   26  C16 UNL     1      -2.028   3.283  -0.080  1.00  0.00     0.014 A 
ENDBRANCH   6  21
BRANCH   3  27
HETATM   27  C4  UNL     1      -3.480  -2.066  -0.012  1.00  0.00    -0.009 A 
HETATM   28  C5  UNL     1      -3.482  -3.270   0.618  1.00  0.00     0.014 A 
HETATM   29  C6  UNL     1      -4.508  -4.209   0.445  1.00  0.00     0.001 A 
HETATM   30  C7  UNL     1      -5.569  -3.934  -0.387  1.00  0.00     0.000 A 
HETATM   31  C8  UNL     1      -5.593  -2.727  -1.036  1.00  0.00     0.001 A 
HETATM   32  C9  UNL     1      -4.574  -1.813  -0.855  1.00  0.00     0.014 A 
ENDBRANCH   3  27
TORSDOF 4
