REMARK  5 active torsions:
REMARK  status: ('A' for Active; 'I' for Inactive)
REMARK    1  A    between atoms: C4_4  and  C5_5 
REMARK    2  A    between atoms: C9_9  and  N1_10 
REMARK    3  A    between atoms: N1_10  and  C10_12 
REMARK    4  A    between atoms: C10_12  and  C11_13 
REMARK    5  A    between atoms: C10_12  and  C17_19 
ROOT
HETATM    1  C10 UNL     1      -1.425   0.017   0.578  1.00  0.00     0.054 C 
ENDROOT
BRANCH   1   2
HETATM    2  N1  UNL     1      -0.107  -0.318   0.147  1.00  0.00    -0.355 N 
ATOM      3  H1  UNL     1      -0.023  -1.089  -0.516  1.00  0.00     0.166 HD
BRANCH   2   4
HETATM    4  C9  UNL     1       1.101   0.315   0.549  1.00  0.00     0.033 A 
HETATM    5  C8  UNL     1       1.096   1.291   1.511  1.00  0.00     0.029 A 
HETATM    6  C7  UNL     1       2.301   1.877   1.856  1.00  0.00     0.003 A 
HETATM    7  C6  UNL     1       3.501   1.506   1.262  1.00  0.00     0.012 A 
HETATM    8  C5  UNL     1       3.519   0.525   0.293  1.00  0.00    -0.024 A 
HETATM    9  C27 UNL     1       2.318  -0.052  -0.045  1.00  0.00     0.041 A 
BRANCH   8  10
HETATM   10  C4  UNL     1       4.769   0.103  -0.362  1.00  0.00    -0.026 A 
HETATM   11  C3  UNL     1       4.931  -1.188  -0.800  1.00  0.00     0.012 A 
HETATM   12  C2  UNL     1       6.098  -1.589  -1.414  1.00  0.00     0.001 A 
HETATM   13  C1  UNL     1       7.153  -0.703  -1.612  1.00  0.00     0.000 A 
HETATM   14  C29 UNL     1       7.008   0.593  -1.179  1.00  0.00     0.001 A 
HETATM   15  C28 UNL     1       5.828   0.973  -0.566  1.00  0.00     0.012 A 
ENDBRANCH   8  10
ENDBRANCH   2   4
ENDBRANCH   1   2
BRANCH   1  16
HETATM   16  C11 UNL     1      -1.882   1.398   0.322  1.00  0.00    -0.009 A 
HETATM   17  C12 UNL     1      -1.489   2.254  -0.641  1.00  0.00     0.014 A 
HETATM   18  C13 UNL     1      -1.990   3.511  -0.802  1.00  0.00     0.001 A 
HETATM   19  C14 UNL     1      -2.960   3.967   0.057  1.00  0.00     0.000 A 
HETATM   20  C15 UNL     1      -3.412   3.148   1.067  1.00  0.00     0.001 A 
HETATM   21  C16 UNL     1      -2.874   1.882   1.190  1.00  0.00     0.014 A 
ENDBRANCH   1  16
BRANCH   1  22
HETATM   22  C17 UNL     1      -2.436  -1.029   0.553  1.00  0.00     0.003 A 
HETATM   23  C18 UNL     1      -3.009  -1.552   1.727  1.00  0.00     0.014 A 
HETATM   24  C19 UNL     1      -3.978  -2.525   1.723  1.00  0.00     0.002 A 
HETATM   25  C20 UNL     1      -4.434  -3.034   0.546  1.00  0.00     0.012 A 
HETATM   26  C21 UNL     1      -3.905  -2.554  -0.618  1.00  0.00    -0.025 A 
HETATM   27  C22 UNL     1      -4.382  -3.093  -1.808  1.00  0.00     0.012 A 
HETATM   28  C26 UNL     1      -2.921  -1.568  -0.617  1.00  0.00    -0.013 A 
HETATM   29  C23 UNL     1      -3.901  -2.671  -3.015  1.00  0.00     0.001 A 
HETATM   30  C24 UNL     1      -2.944  -1.713  -3.023  1.00  0.00     0.001 A 
HETATM   31  C25 UNL     1      -2.457  -1.165  -1.840  1.00  0.00     0.013 A 
ENDBRANCH   1  22
TORSDOF 5
